MODEL 1
REMARK VINA RESULT:      -6.0      0.000      0.000
REMARK  9 active torsions:
REMARK  status: ('A' for Active; 'I' for Inactive)
REMARK    1  A    between atoms: C_1  and  C_2 
REMARK    2  A    between atoms: C_2  and  C_3 
REMARK    3  A    between atoms: C_2  and  C_4 
REMARK    4  A    between atoms: C_2  and  O_5 
REMARK    5  A    between atoms: O_5  and  C_6 
REMARK       I    between atoms: C_6  and  N_8 
REMARK    6  A    between atoms: N_8  and  C_9 
REMARK    7  A    between atoms: C_9  and  C_10 
REMARK    8  A    between atoms: C_10  and  C_12 
REMARK    9  A    between atoms: C_10  and  O_18 
ROOT
ATOM      1  C   LIG d   1       2.427   0.258  -8.476  0.00  0.00     0.401 C 
ATOM      2  O   LIG d   1       2.835   1.402  -8.465  0.00  0.00    -0.227 OA
ATOM      3  N   LIG d   1       2.747  -0.582  -7.472  0.00  0.00    -0.278 N 
ATOM      4  H   LIG d   1       2.421  -1.496  -7.481  0.00  0.00     0.152 HD
ENDROOT
BRANCH   3   5
ATOM      5  C   LIG d   1       3.587  -0.116  -6.366  0.00  0.00     0.045 C 
ATOM      6  H   LIG d   1       4.231  -0.929  -6.031  0.00  0.00     0.049 H 
ATOM      7  H   LIG d   1       4.202   0.719  -6.704  0.00  0.00     0.049 H 
BRANCH   5   8
ATOM      8  C   LIG d   1       2.698   0.342  -5.208  0.00  0.00     0.096 C 
ATOM      9  H   LIG d   1       1.723  -0.138  -5.286  0.00  0.00     0.066 H 
BRANCH   8  10
ATOM     10  C   LIG d   1       3.341  -0.040  -3.899  0.00  0.00    -0.018 A 
ATOM     11  C   LIG d   1       3.841   0.940  -3.063  0.00  0.00    -0.056 A 
ATOM     12  C   LIG d   1       4.431   0.590  -1.863  0.00  0.00    -0.061 A 
ATOM     13  H   LIG d   1       3.769   1.980  -3.346  0.00  0.00     0.062 H 
ATOM     14  C   LIG d   1       4.521  -0.740  -1.500  0.00  0.00    -0.062 A 
ATOM     15  H   LIG d   1       4.821   1.356  -1.209  0.00  0.00     0.062 H 
ATOM     16  C   LIG d   1       4.021  -1.722  -2.336  0.00  0.00    -0.061 A 
ATOM     17  H   LIG d   1       4.983  -1.014  -0.562  0.00  0.00     0.062 H 
ATOM     18  C   LIG d   1       3.427  -1.371  -3.534  0.00  0.00    -0.056 A 
ATOM     19  H   LIG d   1       4.092  -2.761  -2.052  0.00  0.00     0.062 H 
ATOM     20  H   LIG d   1       3.033  -2.136  -4.186  0.00  0.00     0.062 H 
ENDBRANCH   8  10
BRANCH   8  21
ATOM     21  O   LIG d   1       2.537   1.761  -5.262  0.00  0.00    -0.386 OA
ATOM     22  H   LIG d   1       3.363   2.254  -5.162  0.00  0.00     0.210 HD
ENDBRANCH   8  21
ENDBRANCH   5   8
ENDBRANCH   3   5
BRANCH   1  23
ATOM     23  O   LIG d   1       1.655  -0.171  -9.493  0.00  0.00    -0.445 OA
BRANCH  23  24
ATOM     24  C   LIG d   1       2.321  -0.864 -10.580  0.00  0.00     0.107 C 
BRANCH  24  25
ATOM     25  C   LIG d   1       2.912  -2.177 -10.062  0.00  0.00    -0.025 C 
ATOM     26  H   LIG d   1       3.921  -1.998  -9.688  0.00  0.00     0.027 H 
ATOM     27  H   LIG d   1       2.288  -2.563  -9.256  0.00  0.00     0.027 H 
ATOM     28  H   LIG d   1       2.949  -2.904 -10.873  0.00  0.00     0.027 H 
ENDBRANCH  24  25
BRANCH  24  29
ATOM     29  C   LIG d   1       1.312  -1.162 -11.691  0.00  0.00    -0.025 C 
ATOM     30  H   LIG d   1       1.357  -2.221 -11.947  0.00  0.00     0.027 H 
ATOM     31  H   LIG d   1       0.309  -0.913 -11.347  0.00  0.00     0.027 H 
ATOM     32  H   LIG d   1       1.554  -0.565 -12.570  0.00  0.00     0.027 H 
ENDBRANCH  24  29
BRANCH  24  33
ATOM     33  C   LIG d   1       3.444   0.016 -11.134  0.00  0.00    -0.025 C 
ATOM     34  H   LIG d   1       3.017   0.795 -11.765  0.00  0.00     0.027 H 
ATOM     35  H   LIG d   1       3.988   0.474 -10.308  0.00  0.00     0.027 H 
ATOM     36  H   LIG d   1       4.127  -0.596 -11.725  0.00  0.00     0.027 H 
ENDBRANCH  24  33
ENDBRANCH  23  24
ENDBRANCH   1  23
TORSDOF 9
ENDMDL
MODEL 2
REMARK VINA RESULT:      -5.9      2.916      4.502
REMARK  9 active torsions:
REMARK  status: ('A' for Active; 'I' for Inactive)
REMARK    1  A    between atoms: C_1  and  C_2 
REMARK    2  A    between atoms: C_2  and  C_3 
REMARK    3  A    between atoms: C_2  and  C_4 
REMARK    4  A    between atoms: C_2  and  O_5 
REMARK    5  A    between atoms: O_5  and  C_6 
REMARK       I    between atoms: C_6  and  N_8 
REMARK    6  A    between atoms: N_8  and  C_9 
REMARK    7  A    between atoms: C_9  and  C_10 
REMARK    8  A    between atoms: C_10  and  C_12 
REMARK    9  A    between atoms: C_10  and  O_18 
ROOT
ATOM      1  C   LIG d   1       5.300  -0.715  -6.540  0.00  0.00     0.401 C 
ATOM      2  O   LIG d   1       4.876  -1.822  -6.806  0.00  0.00    -0.227 OA
ATOM      3  N   LIG d   1       4.445   0.276  -6.220  0.00  0.00    -0.278 N 
ATOM      4  H   LIG d   1       4.784   1.160  -6.007  0.00  0.00     0.152 HD
ENDROOT
BRANCH   3   5
ATOM      5  C   LIG d   1       3.003   0.019  -6.191  0.00  0.00     0.045 C 
ATOM      6  H   LIG d   1       2.534   0.487  -7.057  0.00  0.00     0.049 H 
ATOM      7  H   LIG d   1       2.825  -1.056  -6.219  0.00  0.00     0.049 H 
BRANCH   5   8
ATOM      8  C   LIG d   1       2.405   0.603  -4.910  0.00  0.00     0.096 C 
ATOM      9  H   LIG d   1       1.356   0.320  -4.837  0.00  0.00     0.066 H 
BRANCH   8  10
ATOM     10  C   LIG d   1       3.154   0.067  -3.716  0.00  0.00    -0.018 A 
ATOM     11  C   LIG d   1       3.174  -1.292  -3.467  0.00  0.00    -0.056 A 
ATOM     12  C   LIG d   1       3.861  -1.784  -2.373  0.00  0.00    -0.061 A 
ATOM     13  H   LIG d   1       2.654  -1.971  -4.128  0.00  0.00     0.062 H 
ATOM     14  C   LIG d   1       4.527  -0.917  -1.528  0.00  0.00    -0.062 A 
ATOM     15  H   LIG d   1       3.876  -2.846  -2.178  0.00  0.00     0.062 H 
ATOM     16  C   LIG d   1       4.508   0.444  -1.778  0.00  0.00    -0.061 A 
ATOM     17  H   LIG d   1       5.062  -1.301  -0.672  0.00  0.00     0.062 H 
ATOM     18  C   LIG d   1       3.825   0.934  -2.875  0.00  0.00    -0.056 A 
ATOM     19  H   LIG d   1       5.028   1.121  -1.118  0.00  0.00     0.062 H 
ATOM     20  H   LIG d   1       3.812   1.996  -3.072  0.00  0.00     0.062 H 
ENDBRANCH   8  10
BRANCH   8  21
ATOM     21  O   LIG d   1       2.515   2.028  -4.939  0.00  0.00    -0.386 OA
ATOM     22  H   LIG d   1       1.891   2.482  -4.357  0.00  0.00     0.210 HD
ENDBRANCH   8  21
ENDBRANCH   5   8
ENDBRANCH   3   5
BRANCH   1  23
ATOM     23  O   LIG d   1       6.626  -0.478  -6.566  0.00  0.00    -0.445 OA
BRANCH  23  24
ATOM     24  C   LIG d   1       7.351  -0.652  -5.322  0.00  0.00     0.107 C 
BRANCH  24  25
ATOM     25  C   LIG d   1       7.180   0.596  -4.453  0.00  0.00    -0.025 C 
ATOM     26  H   LIG d   1       7.647   1.448  -4.946  0.00  0.00     0.027 H 
ATOM     27  H   LIG d   1       6.117   0.796  -4.310  0.00  0.00     0.027 H 
ATOM     28  H   LIG d   1       7.652   0.433  -3.484  0.00  0.00     0.027 H 
ENDBRANCH  24  25
BRANCH  24  29
ATOM     29  C   LIG d   1       6.803  -1.871  -4.576  0.00  0.00    -0.025 C 
ATOM     30  H   LIG d   1       7.266  -2.777  -4.971  0.00  0.00     0.027 H 
ATOM     31  H   LIG d   1       7.030  -1.781  -3.514  0.00  0.00     0.027 H 
ATOM     32  H   LIG d   1       5.724  -1.926  -4.714  0.00  0.00     0.027 H 
ENDBRANCH  24  29
BRANCH  24  33
ATOM     33  C   LIG d   1       8.836  -0.864  -5.622  0.00  0.00    -0.025 C 
ATOM     34  H   LIG d   1       9.389   0.044  -5.378  0.00  0.00     0.027 H 
ATOM     35  H   LIG d   1       9.214  -1.692  -5.022  0.00  0.00     0.027 H 
ATOM     36  H   LIG d   1       8.964  -1.093  -6.680  0.00  0.00     0.027 H 
ENDBRANCH  24  33
ENDBRANCH  23  24
ENDBRANCH   1  23
TORSDOF 9
ENDMDL
MODEL 3
REMARK VINA RESULT:      -5.9      2.243      3.236
REMARK  9 active torsions:
REMARK  status: ('A' for Active; 'I' for Inactive)
REMARK    1  A    between atoms: C_1  and  C_2 
REMARK    2  A    between atoms: C_2  and  C_3 
REMARK    3  A    between atoms: C_2  and  C_4 
REMARK    4  A    between atoms: C_2  and  O_5 
REMARK    5  A    between atoms: O_5  and  C_6 
REMARK       I    between atoms: C_6  and  N_8 
REMARK    6  A    between atoms: N_8  and  C_9 
REMARK    7  A    between atoms: C_9  and  C_10 
REMARK    8  A    between atoms: C_10  and  C_12 
REMARK    9  A    between atoms: C_10  and  O_18 
ROOT
ATOM      1  C   LIG d   1       5.256  -0.382  -7.220  0.00  0.00     0.401 C 
ATOM      2  O   LIG d   1       5.928   0.476  -6.683  0.00  0.00    -0.227 OA
ATOM      3  N   LIG d   1       5.262  -1.641  -6.739  0.00  0.00    -0.278 N 
ATOM      4  H   LIG d   1       4.725  -2.326  -7.167  0.00  0.00     0.152 HD
ENDROOT
BRANCH   3   5
ATOM      5  C   LIG d   1       6.079  -1.976  -5.571  0.00  0.00     0.045 C 
ATOM      6  H   LIG d   1       6.759  -2.790  -5.824  0.00  0.00     0.049 H 
ATOM      7  H   LIG d   1       6.657  -1.102  -5.269  0.00  0.00     0.049 H 
BRANCH   5   8
ATOM      8  C   LIG d   1       5.170  -2.410  -4.419  0.00  0.00     0.096 C 
ATOM      9  H   LIG d   1       5.702  -3.115  -3.782  0.00  0.00     0.066 H 
BRANCH   8  10
ATOM     10  C   LIG d   1       4.774  -1.202  -3.609  0.00  0.00    -0.018 A 
ATOM     11  C   LIG d   1       3.458  -1.031  -3.223  0.00  0.00    -0.056 A 
ATOM     12  C   LIG d   1       3.094   0.077  -2.480  0.00  0.00    -0.061 A 
ATOM     13  H   LIG d   1       2.713  -1.762  -3.502  0.00  0.00     0.062 H 
ATOM     14  C   LIG d   1       4.047   1.012  -2.123  0.00  0.00    -0.062 A 
ATOM     15  H   LIG d   1       2.066   0.210  -2.179  0.00  0.00     0.062 H 
ATOM     16  C   LIG d   1       5.364   0.840  -2.507  0.00  0.00    -0.061 A 
ATOM     17  H   LIG d   1       3.763   1.878  -1.543  0.00  0.00     0.062 H 
ATOM     18  C   LIG d   1       5.728  -0.269  -3.247  0.00  0.00    -0.056 A 
ATOM     19  H   LIG d   1       6.108   1.571  -2.228  0.00  0.00     0.062 H 
ATOM     20  H   LIG d   1       6.757  -0.406  -3.545  0.00  0.00     0.062 H 
ENDBRANCH   8  10
BRANCH   8  21
ATOM     21  O   LIG d   1       3.998  -3.034  -4.947  0.00  0.00    -0.386 OA
ATOM     22  H   LIG d   1       3.396  -3.376  -4.272  0.00  0.00     0.210 HD
ENDBRANCH   8  21
ENDBRANCH   5   8
ENDBRANCH   3   5
BRANCH   1  23
ATOM     23  O   LIG d   1       4.505  -0.074  -8.294  0.00  0.00    -0.445 OA
BRANCH  23  24
ATOM     24  C   LIG d   1       3.156   0.398  -8.042  0.00  0.00     0.107 C 
BRANCH  24  25
ATOM     25  C   LIG d   1       3.038   1.860  -8.477  0.00  0.00    -0.025 C 
ATOM     26  H   LIG d   1       3.045   1.916  -9.567  0.00  0.00     0.027 H 
ATOM     27  H   LIG d   1       2.105   2.278  -8.098  0.00  0.00     0.027 H 
ATOM     28  H   LIG d   1       3.878   2.427  -8.079  0.00  0.00     0.027 H 
ENDBRANCH  24  25
BRANCH  24  29
ATOM     29  C   LIG d   1       2.160  -0.452  -8.835  0.00  0.00    -0.025 C 
ATOM     30  H   LIG d   1       2.669  -1.331  -9.232  0.00  0.00     0.027 H 
ATOM     31  H   LIG d   1       1.348  -0.767  -8.179  0.00  0.00     0.027 H 
ATOM     32  H   LIG d   1       1.755   0.136  -9.657  0.00  0.00     0.027 H 
ENDBRANCH  24  29
BRANCH  24  33
ATOM     33  C   LIG d   1       2.846   0.285  -6.548  0.00  0.00    -0.025 C 
ATOM     34  H   LIG d   1       3.648   0.750  -5.975  0.00  0.00     0.027 H 
ATOM     35  H   LIG d   1       1.905   0.790  -6.333  0.00  0.00     0.027 H 
ATOM     36  H   LIG d   1       2.766  -0.767  -6.272  0.00  0.00     0.027 H 
ENDBRANCH  24  33
ENDBRANCH  23  24
ENDBRANCH   1  23
TORSDOF 9
ENDMDL
MODEL 4
REMARK VINA RESULT:      -5.8      1.627      7.006
REMARK  9 active torsions:
REMARK  status: ('A' for Active; 'I' for Inactive)
REMARK    1  A    between atoms: C_1  and  C_2 
REMARK    2  A    between atoms: C_2  and  C_3 
REMARK    3  A    between atoms: C_2  and  C_4 
REMARK    4  A    between atoms: C_2  and  O_5 
REMARK    5  A    between atoms: O_5  and  C_6 
REMARK       I    between atoms: C_6  and  N_8 
REMARK    6  A    between atoms: N_8  and  C_9 
REMARK    7  A    between atoms: C_9  and  C_10 
REMARK    8  A    between atoms: C_10  and  C_12 
REMARK    9  A    between atoms: C_10  and  O_18 
ROOT
ATOM      1  C   LIG d   1       4.206  -0.495  -5.088  0.00  0.00     0.401 C 
ATOM      2  O   LIG d   1       4.282  -1.622  -5.534  0.00  0.00    -0.227 OA
ATOM      3  N   LIG d   1       3.488   0.441  -5.739  0.00  0.00    -0.278 N 
ATOM      4  H   LIG d   1       3.427   1.341  -5.383  0.00  0.00     0.152 HD
ENDROOT
BRANCH   3   5
ATOM      5  C   LIG d   1       2.797   0.099  -6.985  0.00  0.00     0.045 C 
ATOM      6  H   LIG d   1       2.904  -0.968  -7.179  0.00  0.00     0.049 H 
ATOM      7  H   LIG d   1       1.740   0.348  -6.894  0.00  0.00     0.049 H 
BRANCH   5   8
ATOM      8  C   LIG d   1       3.410   0.890  -8.143  0.00  0.00     0.096 C 
ATOM      9  H   LIG d   1       4.496   0.877  -8.057  0.00  0.00     0.066 H 
BRANCH   8  10
ATOM     10  C   LIG d   1       3.002   0.264  -9.451  0.00  0.00    -0.018 A 
ATOM     11  C   LIG d   1       1.785  -0.382  -9.558  0.00  0.00    -0.056 A 
ATOM     12  C   LIG d   1       1.410  -0.956 -10.758  0.00  0.00    -0.061 A 
ATOM     13  H   LIG d   1       1.126  -0.438  -8.703  0.00  0.00     0.062 H 
ATOM     14  C   LIG d   1       2.252  -0.883 -11.851  0.00  0.00    -0.062 A 
ATOM     15  H   LIG d   1       0.460  -1.461 -10.842  0.00  0.00     0.062 H 
ATOM     16  C   LIG d   1       3.470  -0.235 -11.745  0.00  0.00    -0.061 A 
ATOM     17  H   LIG d   1       1.960  -1.333 -12.789  0.00  0.00     0.062 H 
ATOM     18  C   LIG d   1       3.842   0.342 -10.547  0.00  0.00    -0.056 A 
ATOM     19  H   LIG d   1       4.127  -0.179 -12.600  0.00  0.00     0.062 H 
ATOM     20  H   LIG d   1       4.791   0.851 -10.464  0.00  0.00     0.062 H 
ENDBRANCH   8  10
BRANCH   8  21
ATOM     21  O   LIG d   1       2.944   2.241  -8.095  0.00  0.00    -0.386 OA
ATOM     22  H   LIG d   1       3.168   2.762  -8.878  0.00  0.00     0.210 HD
ENDBRANCH   8  21
ENDBRANCH   5   8
ENDBRANCH   3   5
BRANCH   1  23
ATOM     23  O   LIG d   1       4.841  -0.180  -3.943  0.00  0.00    -0.445 OA
BRANCH  23  24
ATOM     24  C   LIG d   1       4.090  -0.329  -2.711  0.00  0.00     0.107 C 
BRANCH  24  25
ATOM     25  C   LIG d   1       4.317   0.897  -1.824  0.00  0.00    -0.025 C 
ATOM     26  H   LIG d   1       5.387   1.038  -1.666  0.00  0.00     0.027 H 
ATOM     27  H   LIG d   1       3.903   1.780  -2.313  0.00  0.00     0.027 H 
ATOM     28  H   LIG d   1       3.824   0.749  -0.864  0.00  0.00     0.027 H 
ENDBRANCH  24  25
BRANCH  24  29
ATOM     29  C   LIG d   1       2.599  -0.457  -3.032  0.00  0.00    -0.025 C 
ATOM     30  H   LIG d   1       2.409  -1.427  -3.493  0.00  0.00     0.027 H 
ATOM     31  H   LIG d   1       2.020  -0.371  -2.113  0.00  0.00     0.027 H 
ATOM     32  H   LIG d   1       2.307   0.336  -3.721  0.00  0.00     0.027 H 
ENDBRANCH  24  29
BRANCH  24  33
ATOM     33  C   LIG d   1       4.561  -1.584  -1.974  0.00  0.00    -0.025 C 
ATOM     34  H   LIG d   1       4.159  -2.468  -2.467  0.00  0.00     0.027 H 
ATOM     35  H   LIG d   1       5.650  -1.625  -1.985  0.00  0.00     0.027 H 
ATOM     36  H   LIG d   1       4.209  -1.553  -0.942  0.00  0.00     0.027 H 
ENDBRANCH  24  33
ENDBRANCH  23  24
ENDBRANCH   1  23
TORSDOF 9
ENDMDL
MODEL 5
REMARK VINA RESULT:      -5.8      1.619      6.988
REMARK  9 active torsions:
REMARK  status: ('A' for Active; 'I' for Inactive)
REMARK    1  A    between atoms: C_1  and  C_2 
REMARK    2  A    between atoms: C_2  and  C_3 
REMARK    3  A    between atoms: C_2  and  C_4 
REMARK    4  A    between atoms: C_2  and  O_5 
REMARK    5  A    between atoms: O_5  and  C_6 
REMARK       I    between atoms: C_6  and  N_8 
REMARK    6  A    between atoms: N_8  and  C_9 
REMARK    7  A    between atoms: C_9  and  C_10 
REMARK    8  A    between atoms: C_10  and  C_12 
REMARK    9  A    between atoms: C_10  and  O_18 
ROOT
ATOM      1  C   LIG d   1       4.216  -0.468  -5.077  0.00  0.00     0.401 C 
ATOM      2  O   LIG d   1       4.312  -1.601  -5.505  0.00  0.00    -0.227 OA
ATOM      3  N   LIG d   1       3.492   0.448  -5.750  0.00  0.00    -0.278 N 
ATOM      4  H   LIG d   1       3.415   1.353  -5.408  0.00  0.00     0.152 HD
ENDROOT
BRANCH   3   5
ATOM      5  C   LIG d   1       2.821   0.078  -6.998  0.00  0.00     0.045 C 
ATOM      6  H   LIG d   1       2.959  -0.987  -7.183  0.00  0.00     0.049 H 
ATOM      7  H   LIG d   1       1.756   0.297  -6.916  0.00  0.00     0.049 H 
BRANCH   5   8
ATOM      8  C   LIG d   1       3.419   0.879  -8.157  0.00  0.00     0.096 C 
ATOM      9  H   LIG d   1       4.505   0.874  -8.079  0.00  0.00     0.066 H 
BRANCH   8  10
ATOM     10  C   LIG d   1       3.006   0.254  -9.465  0.00  0.00    -0.018 A 
ATOM     11  C   LIG d   1       3.837   0.346 -10.566  0.00  0.00    -0.056 A 
ATOM     12  C   LIG d   1       3.458  -0.227 -11.766  0.00  0.00    -0.061 A 
ATOM     13  H   LIG d   1       4.781   0.864 -10.489  0.00  0.00     0.062 H 
ATOM     14  C   LIG d   1       2.250  -0.891 -11.865  0.00  0.00    -0.062 A 
ATOM     15  H   LIG d   1       4.107  -0.155 -12.627  0.00  0.00     0.062 H 
ATOM     16  C   LIG d   1       1.420  -0.984 -10.762  0.00  0.00    -0.061 A 
ATOM     17  H   LIG d   1       1.954  -1.337 -12.803  0.00  0.00     0.062 H 
ATOM     18  C   LIG d   1       1.801  -0.415  -9.562  0.00  0.00    -0.056 A 
ATOM     19  H   LIG d   1       0.476  -1.503 -10.840  0.00  0.00     0.062 H 
ATOM     20  H   LIG d   1       1.154  -0.490  -8.700  0.00  0.00     0.062 H 
ENDBRANCH   8  10
BRANCH   8  21
ATOM     21  O   LIG d   1       2.943   2.225  -8.101  0.00  0.00    -0.386 OA
ATOM     22  H   LIG d   1       2.133   2.377  -8.607  0.00  0.00     0.210 HD
ENDBRANCH   8  21
ENDBRANCH   5   8
ENDBRANCH   3   5
BRANCH   1  23
ATOM     23  O   LIG d   1       4.834  -0.128  -3.930  0.00  0.00    -0.445 OA
BRANCH  23  24
ATOM     24  C   LIG d   1       4.090  -0.319  -2.699  0.00  0.00     0.107 C 
BRANCH  24  25
ATOM     25  C   LIG d   1       2.598  -0.440  -3.018  0.00  0.00    -0.025 C 
ATOM     26  H   LIG d   1       2.383   0.086  -3.949  0.00  0.00     0.027 H 
ATOM     27  H   LIG d   1       2.333  -1.492  -3.125  0.00  0.00     0.027 H 
ATOM     28  H   LIG d   1       2.016   0.001  -2.209  0.00  0.00     0.027 H 
ENDBRANCH  24  25
BRANCH  24  29
ATOM     29  C   LIG d   1       4.567  -1.597  -2.006  0.00  0.00    -0.025 C 
ATOM     30  H   LIG d   1       5.481  -1.388  -1.449  0.00  0.00     0.027 H 
ATOM     31  H   LIG d   1       3.796  -1.950  -1.322  0.00  0.00     0.027 H 
ATOM     32  H   LIG d   1       4.766  -2.363  -2.755  0.00  0.00     0.027 H 
ENDBRANCH  24  29
BRANCH  24  33
ATOM     33  C   LIG d   1       4.317   0.877  -1.774  0.00  0.00    -0.025 C 
ATOM     34  H   LIG d   1       4.911   1.630  -2.292  0.00  0.00     0.027 H 
ATOM     35  H   LIG d   1       3.356   1.306  -1.489  0.00  0.00     0.027 H 
ATOM     36  H   LIG d   1       4.848   0.550  -0.879  0.00  0.00     0.027 H 
ENDBRANCH  24  33
ENDBRANCH  23  24
ENDBRANCH   1  23
TORSDOF 9
ENDMDL
MODEL 6
REMARK VINA RESULT:      -5.8      2.729      3.664
REMARK  9 active torsions:
REMARK  status: ('A' for Active; 'I' for Inactive)
REMARK    1  A    between atoms: C_1  and  C_2 
REMARK    2  A    between atoms: C_2  and  C_3 
REMARK    3  A    between atoms: C_2  and  C_4 
REMARK    4  A    between atoms: C_2  and  O_5 
REMARK    5  A    between atoms: O_5  and  C_6 
REMARK       I    between atoms: C_6  and  N_8 
REMARK    6  A    between atoms: N_8  and  C_9 
REMARK    7  A    between atoms: C_9  and  C_10 
REMARK    8  A    between atoms: C_10  and  C_12 
REMARK    9  A    between atoms: C_10  and  O_18 
ROOT
ATOM      1  C   LIG d   1       5.496  -0.242  -7.383  0.00  0.00     0.401 C 
ATOM      2  O   LIG d   1       5.478  -1.440  -7.183  0.00  0.00    -0.227 OA
ATOM      3  N   LIG d   1       6.352   0.543  -6.698  0.00  0.00    -0.278 N 
ATOM      4  H   LIG d   1       6.368   1.499  -6.859  0.00  0.00     0.152 HD
ENDROOT
BRANCH   3   5
ATOM      5  C   LIG d   1       7.259  -0.048  -5.712  0.00  0.00     0.045 C 
ATOM      6  H   LIG d   1       6.936  -1.064  -5.483  0.00  0.00     0.049 H 
ATOM      7  H   LIG d   1       8.271  -0.073  -6.118  0.00  0.00     0.049 H 
BRANCH   5   8
ATOM      8  C   LIG d   1       7.243   0.792  -4.434  0.00  0.00     0.096 C 
ATOM      9  H   LIG d   1       7.023   1.829  -4.684  0.00  0.00     0.066 H 
BRANCH   8  10
ATOM     10  C   LIG d   1       6.184   0.266  -3.500  0.00  0.00    -0.018 A 
ATOM     11  C   LIG d   1       5.950  -1.094  -3.418  0.00  0.00    -0.056 A 
ATOM     12  C   LIG d   1       4.978  -1.577  -2.560  0.00  0.00    -0.061 A 
ATOM     13  H   LIG d   1       6.525  -1.779  -4.023  0.00  0.00     0.062 H 
ATOM     14  C   LIG d   1       4.243  -0.700  -1.786  0.00  0.00    -0.062 A 
ATOM     15  H   LIG d   1       4.795  -2.639  -2.497  0.00  0.00     0.062 H 
ATOM     16  C   LIG d   1       4.478   0.660  -1.867  0.00  0.00    -0.061 A 
ATOM     17  H   LIG d   1       3.483  -1.078  -1.117  0.00  0.00     0.062 H 
ATOM     18  C   LIG d   1       5.452   1.142  -2.721  0.00  0.00    -0.056 A 
ATOM     19  H   LIG d   1       3.903   1.344  -1.261  0.00  0.00     0.062 H 
ATOM     20  H   LIG d   1       5.639   2.204  -2.782  0.00  0.00     0.062 H 
ENDBRANCH   8  10
BRANCH   8  21
ATOM     21  O   LIG d   1       8.520   0.716  -3.797  0.00  0.00    -0.386 OA
ATOM     22  H   LIG d   1       8.524   1.034  -2.884  0.00  0.00     0.210 HD
ENDBRANCH   8  21
ENDBRANCH   5   8
ENDBRANCH   3   5
BRANCH   1  23
ATOM     23  O   LIG d   1       4.662   0.302  -8.289  0.00  0.00    -0.445 OA
BRANCH  23  24
ATOM     24  C   LIG d   1       3.277   0.474  -7.891  0.00  0.00     0.107 C 
BRANCH  24  25
ATOM     25  C   LIG d   1       2.405  -0.543  -8.629  0.00  0.00    -0.025 C 
ATOM     26  H   LIG d   1       2.278  -0.229  -9.666  0.00  0.00     0.027 H 
ATOM     27  H   LIG d   1       2.886  -1.522  -8.602  0.00  0.00     0.027 H 
ATOM     28  H   LIG d   1       1.430  -0.605  -8.146  0.00  0.00     0.027 H 
ENDBRANCH  24  25
BRANCH  24  29
ATOM     29  C   LIG d   1       3.148   0.258  -6.382  0.00  0.00    -0.025 C 
ATOM     30  H   LIG d   1       2.248  -0.323  -6.175  0.00  0.00     0.027 H 
ATOM     31  H   LIG d   1       4.022  -0.281  -6.016  0.00  0.00     0.027 H 
ATOM     32  H   LIG d   1       3.080   1.223  -5.882  0.00  0.00     0.027 H 
ENDBRANCH  24  29
BRANCH  24  33
ATOM     33  C   LIG d   1       2.817   1.890  -8.244  0.00  0.00    -0.025 C 
ATOM     34  H   LIG d   1       3.162   2.586  -7.479  0.00  0.00     0.027 H 
ATOM     35  H   LIG d   1       3.232   2.177  -9.210  0.00  0.00     0.027 H 
ATOM     36  H   LIG d   1       1.728   1.917  -8.294  0.00  0.00     0.027 H 
ENDBRANCH  24  33
ENDBRANCH  23  24
ENDBRANCH   1  23
TORSDOF 9
ENDMDL
MODEL 7
REMARK VINA RESULT:      -5.6      2.071      6.596
REMARK  9 active torsions:
REMARK  status: ('A' for Active; 'I' for Inactive)
REMARK    1  A    between atoms: C_1  and  C_2 
REMARK    2  A    between atoms: C_2  and  C_3 
REMARK    3  A    between atoms: C_2  and  C_4 
REMARK    4  A    between atoms: C_2  and  O_5 
REMARK    5  A    between atoms: O_5  and  C_6 
REMARK       I    between atoms: C_6  and  N_8 
REMARK    6  A    between atoms: N_8  and  C_9 
REMARK    7  A    between atoms: C_9  and  C_10 
REMARK    8  A    between atoms: C_10  and  C_12 
REMARK    9  A    between atoms: C_10  and  O_18 
ROOT
ATOM      1  C   LIG d   1       4.340  -0.477  -5.200  0.00  0.00     0.401 C 
ATOM      2  O   LIG d   1       5.204   0.253  -5.642  0.00  0.00    -0.227 OA
ATOM      3  N   LIG d   1       3.898  -1.519  -5.931  0.00  0.00    -0.278 N 
ATOM      4  H   LIG d   1       3.208  -2.103  -5.577  0.00  0.00     0.152 HD
ENDROOT
BRANCH   3   5
ATOM      5  C   LIG d   1       4.459  -1.773  -7.260  0.00  0.00     0.045 C 
ATOM      6  H   LIG d   1       5.271  -1.071  -7.451  0.00  0.00     0.049 H 
ATOM      7  H   LIG d   1       4.843  -2.792  -7.304  0.00  0.00     0.049 H 
BRANCH   5   8
ATOM      8  C   LIG d   1       3.369  -1.591  -8.318  0.00  0.00     0.096 C 
ATOM      9  H   LIG d   1       2.392  -1.744  -7.862  0.00  0.00     0.066 H 
BRANCH   8  10
ATOM     10  C   LIG d   1       3.446  -0.197  -8.886  0.00  0.00    -0.018 A 
ATOM     11  C   LIG d   1       2.826   0.850  -8.231  0.00  0.00    -0.056 A 
ATOM     12  C   LIG d   1       2.897   2.129  -8.752  0.00  0.00    -0.061 A 
ATOM     13  H   LIG d   1       2.286   0.670  -7.313  0.00  0.00     0.062 H 
ATOM     14  C   LIG d   1       3.588   2.359  -9.926  0.00  0.00    -0.062 A 
ATOM     15  H   LIG d   1       2.412   2.947  -8.241  0.00  0.00     0.062 H 
ATOM     16  C   LIG d   1       4.210   1.311 -10.580  0.00  0.00    -0.061 A 
ATOM     17  H   LIG d   1       3.643   3.358 -10.334  0.00  0.00     0.062 H 
ATOM     18  C   LIG d   1       4.143   0.034 -10.057  0.00  0.00    -0.056 A 
ATOM     19  H   LIG d   1       4.750   1.492 -11.498  0.00  0.00     0.062 H 
ATOM     20  H   LIG d   1       4.631  -0.784 -10.565  0.00  0.00     0.062 H 
ENDBRANCH   8  10
BRANCH   8  21
ATOM     21  O   LIG d   1       3.561  -2.544  -9.366  0.00  0.00    -0.386 OA
ATOM     22  H   LIG d   1       3.798  -2.150 -10.217  0.00  0.00     0.210 HD
ENDBRANCH   8  21
ENDBRANCH   5   8
ENDBRANCH   3   5
BRANCH   1  23
ATOM     23  O   LIG d   1       3.824  -0.244  -3.978  0.00  0.00    -0.445 OA
BRANCH  23  24
ATOM     24  C   LIG d   1       4.538  -0.800  -2.844  0.00  0.00     0.107 C 
BRANCH  24  25
ATOM     25  C   LIG d   1       4.567   0.225  -1.708  0.00  0.00    -0.025 C 
ATOM     26  H   LIG d   1       5.115   1.110  -2.031  0.00  0.00     0.027 H 
ATOM     27  H   LIG d   1       3.546   0.506  -1.446  0.00  0.00     0.027 H 
ATOM     28  H   LIG d   1       5.058  -0.210  -0.838  0.00  0.00     0.027 H 
ENDBRANCH  24  25
BRANCH  24  29
ATOM     29  C   LIG d   1       3.830  -2.070  -2.367  0.00  0.00    -0.025 C 
ATOM     30  H   LIG d   1       4.066  -2.893  -3.043  0.00  0.00     0.027 H 
ATOM     31  H   LIG d   1       4.168  -2.318  -1.361  0.00  0.00     0.027 H 
ATOM     32  H   LIG d   1       2.753  -1.905  -2.358  0.00  0.00     0.027 H 
ENDBRANCH  24  29
BRANCH  24  33
ATOM     33  C   LIG d   1       5.970  -1.140  -3.259  0.00  0.00    -0.025 C 
ATOM     34  H   LIG d   1       6.227  -2.136  -2.899  0.00  0.00     0.027 H 
ATOM     35  H   LIG d   1       6.050  -1.114  -4.345  0.00  0.00     0.027 H 
ATOM     36  H   LIG d   1       6.657  -0.411  -2.827  0.00  0.00     0.027 H 
ENDBRANCH  24  33
ENDBRANCH  23  24
ENDBRANCH   1  23
TORSDOF 9
ENDMDL
MODEL 8
REMARK VINA RESULT:      -5.3      1.895      2.757
REMARK  9 active torsions:
REMARK  status: ('A' for Active; 'I' for Inactive)
REMARK    1  A    between atoms: C_1  and  C_2 
REMARK    2  A    between atoms: C_2  and  C_3 
REMARK    3  A    between atoms: C_2  and  C_4 
REMARK    4  A    between atoms: C_2  and  O_5 
REMARK    5  A    between atoms: O_5  and  C_6 
REMARK       I    between atoms: C_6  and  N_8 
REMARK    6  A    between atoms: N_8  and  C_9 
REMARK    7  A    between atoms: C_9  and  C_10 
REMARK    8  A    between atoms: C_10  and  C_12 
REMARK    9  A    between atoms: C_10  and  O_18 
ROOT
ATOM      1  C   LIG d   1       3.723   0.119  -6.838  0.00  0.00     0.401 C 
ATOM      2  O   LIG d   1       3.759  -1.087  -6.701  0.00  0.00    -0.227 OA
ATOM      3  N   LIG d   1       3.097   0.884  -5.921  0.00  0.00    -0.278 N 
ATOM      4  H   LIG d   1       3.069   1.847  -6.030  0.00  0.00     0.152 HD
ENDROOT
BRANCH   3   5
ATOM      5  C   LIG d   1       2.460   0.260  -4.759  0.00  0.00     0.045 C 
ATOM      6  H   LIG d   1       1.428   0.603  -4.683  0.00  0.00     0.049 H 
ATOM      7  H   LIG d   1       2.475  -0.824  -4.875  0.00  0.00     0.049 H 
BRANCH   5   8
ATOM      8  C   LIG d   1       3.221   0.649  -3.490  0.00  0.00     0.096 C 
ATOM      9  H   LIG d   1       2.604   0.438  -2.617  0.00  0.00     0.066 H 
BRANCH   8  10
ATOM     10  C   LIG d   1       4.498  -0.148  -3.405  0.00  0.00    -0.018 A 
ATOM     11  C   LIG d   1       4.448  -1.527  -3.328  0.00  0.00    -0.056 A 
ATOM     12  C   LIG d   1       5.619  -2.257  -3.251  0.00  0.00    -0.061 A 
ATOM     13  H   LIG d   1       3.494  -2.034  -3.329  0.00  0.00     0.062 H 
ATOM     14  C   LIG d   1       6.839  -1.608  -3.251  0.00  0.00    -0.062 A 
ATOM     15  H   LIG d   1       5.580  -3.335  -3.191  0.00  0.00     0.062 H 
ATOM     16  C   LIG d   1       6.890  -0.229  -3.329  0.00  0.00    -0.061 A 
ATOM     17  H   LIG d   1       7.755  -2.179  -3.189  0.00  0.00     0.062 H 
ATOM     18  C   LIG d   1       5.719   0.501  -3.411  0.00  0.00    -0.056 A 
ATOM     19  H   LIG d   1       7.843   0.278  -3.329  0.00  0.00     0.062 H 
ATOM     20  H   LIG d   1       5.757   1.578  -3.475  0.00  0.00     0.062 H 
ENDBRANCH   8  10
BRANCH   8  21
ATOM     21  O   LIG d   1       3.532   2.043  -3.529  0.00  0.00    -0.386 OA
ATOM     22  H   LIG d   1       3.587   2.409  -4.422  0.00  0.00     0.210 HD
ENDBRANCH   8  21
ENDBRANCH   5   8
ENDBRANCH   3   5
BRANCH   1  23
ATOM     23  O   LIG d   1       4.308   0.693  -7.906  0.00  0.00    -0.445 OA
BRANCH  23  24
ATOM     24  C   LIG d   1       3.446   1.053  -9.017  0.00  0.00     0.107 C 
BRANCH  24  25
ATOM     25  C   LIG d   1       2.373  -0.023  -9.199  0.00  0.00    -0.025 C 
ATOM     26  H   LIG d   1       2.254  -0.578  -8.267  0.00  0.00     0.027 H 
ATOM     27  H   LIG d   1       1.426   0.449  -9.463  0.00  0.00     0.027 H 
ATOM     28  H   LIG d   1       2.673  -0.706  -9.993  0.00  0.00     0.027 H 
ENDBRANCH  24  25
BRANCH  24  29
ATOM     29  C   LIG d   1       2.776   2.398  -8.729  0.00  0.00    -0.025 C 
ATOM     30  H   LIG d   1       3.149   2.794  -7.784  0.00  0.00     0.027 H 
ATOM     31  H   LIG d   1       3.005   3.098  -9.533  0.00  0.00     0.027 H 
ATOM     32  H   LIG d   1       1.697   2.260  -8.665  0.00  0.00     0.027 H 
ENDBRANCH  24  29
BRANCH  24  33
ATOM     33  C   LIG d   1       4.279   1.161 -10.295  0.00  0.00    -0.025 C 
ATOM     34  H   LIG d   1       3.644   0.973 -11.161  0.00  0.00     0.027 H 
ATOM     35  H   LIG d   1       4.705   2.162 -10.368  0.00  0.00     0.027 H 
ATOM     36  H   LIG d   1       5.083   0.425 -10.269  0.00  0.00     0.027 H 
ENDBRANCH  24  33
ENDBRANCH  23  24
ENDBRANCH   1  23
TORSDOF 9
ENDMDL
MODEL 9
REMARK VINA RESULT:      -5.3      2.973      6.710
REMARK  9 active torsions:
REMARK  status: ('A' for Active; 'I' for Inactive)
REMARK    1  A    between atoms: C_1  and  C_2 
REMARK    2  A    between atoms: C_2  and  C_3 
REMARK    3  A    between atoms: C_2  and  C_4 
REMARK    4  A    between atoms: C_2  and  O_5 
REMARK    5  A    between atoms: O_5  and  C_6 
REMARK       I    between atoms: C_6  and  N_8 
REMARK    6  A    between atoms: N_8  and  C_9 
REMARK    7  A    between atoms: C_9  and  C_10 
REMARK    8  A    between atoms: C_10  and  C_12 
REMARK    9  A    between atoms: C_10  and  O_18 
ROOT
ATOM      1  C   LIG d   1       6.029  -0.747  -4.499  0.00  0.00     0.401 C 
ATOM      2  O   LIG d   1       5.916  -1.947  -4.651  0.00  0.00    -0.227 OA
ATOM      3  N   LIG d   1       6.270   0.047  -5.561  0.00  0.00    -0.278 N 
ATOM      4  H   LIG d   1       6.360   1.005  -5.440  0.00  0.00     0.152 HD
ENDROOT
BRANCH   3   5
ATOM      5  C   LIG d   1       6.396  -0.536  -6.898  0.00  0.00     0.045 C 
ATOM      6  H   LIG d   1       7.282  -1.170  -6.936  0.00  0.00     0.049 H 
ATOM      7  H   LIG d   1       5.512  -1.135  -7.118  0.00  0.00     0.049 H 
BRANCH   5   8
ATOM      8  C   LIG d   1       6.525   0.583  -7.934  0.00  0.00     0.096 C 
ATOM      9  H   LIG d   1       7.071   0.214  -8.801  0.00  0.00     0.066 H 
BRANCH   8  10
ATOM     10  C   LIG d   1       5.152   1.035  -8.360  0.00  0.00    -0.018 A 
ATOM     11  C   LIG d   1       5.009   2.169  -9.136  0.00  0.00    -0.056 A 
ATOM     12  C   LIG d   1       3.749   2.584  -9.527  0.00  0.00    -0.061 A 
ATOM     13  H   LIG d   1       5.880   2.732  -9.438  0.00  0.00     0.062 H 
ATOM     14  C   LIG d   1       2.634   1.864  -9.141  0.00  0.00    -0.062 A 
ATOM     15  H   LIG d   1       3.636   3.470 -10.133  0.00  0.00     0.062 H 
ATOM     16  C   LIG d   1       2.778   0.728  -8.366  0.00  0.00    -0.061 A 
ATOM     17  H   LIG d   1       1.649   2.189  -9.445  0.00  0.00     0.062 H 
ATOM     18  C   LIG d   1       4.037   0.311  -7.979  0.00  0.00    -0.056 A 
ATOM     19  H   LIG d   1       1.906   0.166  -8.065  0.00  0.00     0.062 H 
ATOM     20  H   LIG d   1       4.151  -0.577  -7.376  0.00  0.00     0.062 H 
ENDBRANCH   8  10
BRANCH   8  21
ATOM     21  O   LIG d   1       7.232   1.684  -7.359  0.00  0.00    -0.386 OA
ATOM     22  H   LIG d   1       7.841   1.434  -6.651  0.00  0.00     0.210 HD
ENDBRANCH   8  21
ENDBRANCH   5   8
ENDBRANCH   3   5
BRANCH   1  23
ATOM     23  O   LIG d   1       5.913  -0.210  -3.269  0.00  0.00    -0.445 OA
BRANCH  23  24
ATOM     24  C   LIG d   1       4.584  -0.173  -2.689  0.00  0.00     0.107 C 
BRANCH  24  25
ATOM     25  C   LIG d   1       3.551   0.055  -3.795  0.00  0.00    -0.025 C 
ATOM     26  H   LIG d   1       3.376  -0.882  -4.326  0.00  0.00     0.027 H 
ATOM     27  H   LIG d   1       2.616   0.402  -3.353  0.00  0.00     0.027 H 
ATOM     28  H   LIG d   1       3.923   0.804  -4.492  0.00  0.00     0.027 H 
ENDBRANCH  24  25
BRANCH  24  29
ATOM     29  C   LIG d   1       4.295  -1.501  -1.986  0.00  0.00    -0.025 C 
ATOM     30  H   LIG d   1       4.086  -2.268  -2.732  0.00  0.00     0.027 H 
ATOM     31  H   LIG d   1       5.161  -1.795  -1.394  0.00  0.00     0.027 H 
ATOM     32  H   LIG d   1       3.431  -1.385  -1.332  0.00  0.00     0.027 H 
ENDBRANCH  24  29
BRANCH  24  33
ATOM     33  C   LIG d   1       4.503   0.969  -1.674  0.00  0.00    -0.025 C 
ATOM     34  H   LIG d   1       4.002   1.824  -2.128  0.00  0.00     0.027 H 
ATOM     35  H   LIG d   1       3.939   0.640  -0.801  0.00  0.00     0.027 H 
ATOM     36  H   LIG d   1       5.509   1.258  -1.370  0.00  0.00     0.027 H 
ENDBRANCH  24  33
ENDBRANCH  23  24
ENDBRANCH   1  23
TORSDOF 9
ENDMDL
MODEL 10
REMARK VINA RESULT:      -5.0      5.321      7.510
REMARK  9 active torsions:
REMARK  status: ('A' for Active; 'I' for Inactive)
REMARK    1  A    between atoms: C_1  and  C_2 
REMARK    2  A    between atoms: C_2  and  C_3 
REMARK    3  A    between atoms: C_2  and  C_4 
REMARK    4  A    between atoms: C_2  and  O_5 
REMARK    5  A    between atoms: O_5  and  C_6 
REMARK       I    between atoms: C_6  and  N_8 
REMARK    6  A    between atoms: N_8  and  C_9 
REMARK    7  A    between atoms: C_9  and  C_10 
REMARK    8  A    between atoms: C_10  and  C_12 
REMARK    9  A    between atoms: C_10  and  O_18 
ROOT
ATOM      1  C   LIG d   1       6.130  -0.105  -3.709  0.00  0.00     0.401 C 
ATOM      2  O   LIG d   1       6.933  -0.804  -3.123  0.00  0.00    -0.227 OA
ATOM      3  N   LIG d   1       6.460   1.154  -4.059  0.00  0.00    -0.278 N 
ATOM      4  H   LIG d   1       5.819   1.711  -4.527  0.00  0.00     0.152 HD
ENDROOT
BRANCH   3   5
ATOM      5  C   LIG d   1       7.787   1.680  -3.733  0.00  0.00     0.045 C 
ATOM      6  H   LIG d   1       7.709   2.740  -3.492  0.00  0.00     0.049 H 
ATOM      7  H   LIG d   1       8.191   1.142  -2.875  0.00  0.00     0.049 H 
BRANCH   5   8
ATOM      8  C   LIG d   1       8.718   1.498  -4.933  0.00  0.00     0.096 C 
ATOM      9  H   LIG d   1       8.200   0.942  -5.714  0.00  0.00     0.066 H 
BRANCH   8  10
ATOM     10  C   LIG d   1       9.124   2.849  -5.464  0.00  0.00    -0.018 A 
ATOM     11  C   LIG d   1       9.199   3.933  -4.609  0.00  0.00    -0.056 A 
ATOM     12  C   LIG d   1       9.572   5.172  -5.096  0.00  0.00    -0.061 A 
ATOM     13  H   LIG d   1       8.967   3.812  -3.561  0.00  0.00     0.062 H 
ATOM     14  C   LIG d   1       9.869   5.327  -6.436  0.00  0.00    -0.062 A 
ATOM     15  H   LIG d   1       9.630   6.019  -4.428  0.00  0.00     0.062 H 
ATOM     16  C   LIG d   1       9.796   4.242  -7.292  0.00  0.00    -0.061 A 
ATOM     17  H   LIG d   1      10.159   6.296  -6.817  0.00  0.00     0.062 H 
ATOM     18  C   LIG d   1       9.427   3.003  -6.804  0.00  0.00    -0.056 A 
ATOM     19  H   LIG d   1      10.028   4.364  -8.339  0.00  0.00     0.062 H 
ATOM     20  H   LIG d   1       9.373   2.155  -7.470  0.00  0.00     0.062 H 
ENDBRANCH   8  10
BRANCH   8  21
ATOM     21  O   LIG d   1       9.883   0.777  -4.528  0.00  0.00    -0.386 OA
ATOM     22  H   LIG d   1      10.599   0.787  -5.178  0.00  0.00     0.210 HD
ENDBRANCH   8  21
ENDBRANCH   5   8
ENDBRANCH   3   5
BRANCH   1  23
ATOM     23  O   LIG d   1       4.909  -0.589  -4.008  0.00  0.00    -0.445 OA
BRANCH  23  24
ATOM     24  C   LIG d   1       3.937  -0.640  -2.932  0.00  0.00     0.107 C 
BRANCH  24  25
ATOM     25  C   LIG d   1       2.537  -0.397  -3.498  0.00  0.00    -0.025 C 
ATOM     26  H   LIG d   1       1.944   0.160  -2.771  0.00  0.00     0.027 H 
ATOM     27  H   LIG d   1       2.613   0.178  -4.422  0.00  0.00     0.027 H 
ATOM     28  H   LIG d   1       2.056  -1.352  -3.704  0.00  0.00     0.027 H 
ENDBRANCH  24  25
BRANCH  24  29
ATOM     29  C   LIG d   1       3.985  -2.016  -2.264  0.00  0.00    -0.025 C 
ATOM     30  H   LIG d   1       4.970  -2.171  -1.822  0.00  0.00     0.027 H 
ATOM     31  H   LIG d   1       3.224  -2.069  -1.486  0.00  0.00     0.027 H 
ATOM     32  H   LIG d   1       3.797  -2.788  -3.010  0.00  0.00     0.027 H 
ENDBRANCH  24  29
BRANCH  24  33
ATOM     33  C   LIG d   1       4.264   0.439  -1.898  0.00  0.00    -0.025 C 
ATOM     34  H   LIG d   1       3.971   1.415  -2.287  0.00  0.00     0.027 H 
ATOM     35  H   LIG d   1       3.719   0.237  -0.976  0.00  0.00     0.027 H 
ATOM     36  H   LIG d   1       5.335   0.437  -1.695  0.00  0.00     0.027 H 
ENDBRANCH  24  33
ENDBRANCH  23  24
ENDBRANCH   1  23
TORSDOF 9
ENDMDL
