MODEL 1
REMARK VINA RESULT:      -6.3      0.000      0.000
REMARK  10 active torsions:
REMARK  status: ('A' for Active; 'I' for Inactive)
REMARK    1  A    between atoms: C_5  and  O_7 
REMARK    2  A    between atoms: C_13  and  C_17 
REMARK    3  A    between atoms: C_15  and  O_16 
REMARK    4  A    between atoms: C_17  and  O_18 
REMARK    5  A    between atoms: C_19  and  C_21 
REMARK    6  A    between atoms: C_23  and  O_36 
REMARK    7  A    between atoms: C_25  and  O_35 
REMARK    8  A    between atoms: C_27  and  O_34 
REMARK    9  A    between atoms: C_29  and  C_32 
REMARK   10  A    between atoms: C_32  and  O_33 
ROOT
ATOM      1  C   LIG d   1       9.109  -1.407  -6.150  0.00  0.00    -0.058 A 
ATOM      2  C   LIG d   1       7.781  -1.789  -6.218  0.00  0.00    -0.057 A 
ATOM      3  C   LIG d   1       6.855  -1.002  -6.882  0.00  0.00    -0.023 A 
ATOM      4  C   LIG d   1       7.282   0.182  -7.484  0.00  0.00     0.068 A 
ATOM      5  C   LIG d   1       8.626   0.571  -7.408  0.00  0.00     0.128 A 
ATOM      6  C   LIG d   1       9.535  -0.232  -6.736  0.00  0.00    -0.019 A 
ATOM      7  C   LIG d   1       6.311   1.020  -8.216  0.00  0.00     0.201 C 
ATOM      8  O   LIG d   1       6.563   2.178  -8.492  0.00  0.00    -0.286 OA
ATOM      9  C   LIG d   1       5.024   0.407  -8.604  0.00  0.00     0.068 A 
ATOM     10  C   LIG d   1       4.613  -0.778  -7.991  0.00  0.00    -0.023 A 
ATOM     11  C   LIG d   1       3.412  -1.349  -8.373  0.00  0.00    -0.052 A 
ATOM     12  C   LIG d   1       2.624  -0.750  -9.340  0.00  0.00    -0.018 A 
ATOM     13  C   LIG d   1       3.022   0.427  -9.944  0.00  0.00    -0.014 A 
ATOM     14  C   LIG d   1       4.226   1.014  -9.580  0.00  0.00     0.128 A 
ATOM     15  C   LIG d   1       5.424  -1.445  -6.921  0.00  0.00     0.040 C 
ATOM     16  H   LIG d   1       5.398  -2.522  -7.086  0.00  0.00     0.042 H 
ATOM     17  H   LIG d   1       9.819  -2.033  -5.628  0.00  0.00     0.062 H 
ATOM     18  H   LIG d   1       7.464  -2.709  -5.752  0.00  0.00     0.062 H 
ATOM     19  H   LIG d   1      10.573   0.061  -6.672  0.00  0.00     0.065 H 
ATOM     20  H   LIG d   1       3.087  -2.269  -7.912  0.00  0.00     0.062 H 
ATOM     21  H   LIG d   1       2.400   0.888 -10.696  0.00  0.00     0.066 H 
ENDROOT
BRANCH  15  22
ATOM     22  C   LIG d   1       4.783  -1.147  -5.565  0.00  0.00     0.098 C 
ATOM     23  H   LIG d   1       3.751  -0.828  -5.713  0.00  0.00     0.063 H 
ATOM     24  O   LIG d   1       5.514  -0.108  -4.910  0.00  0.00    -0.365 OA
ATOM     25  C   LIG d   1       4.982   0.268  -3.638  0.00  0.00     0.110 C 
ATOM     26  C   LIG d   1       5.013  -0.938  -2.696  0.00  0.00     0.112 C 
ATOM     27  H   LIG d   1       5.581   1.075  -3.217  0.00  0.00     0.065 H 
ATOM     28  C   LIG d   1       4.219  -2.088  -3.323  0.00  0.00     0.112 C 
ATOM     29  H   LIG d   1       6.046  -1.252  -2.540  0.00  0.00     0.065 H 
ATOM     30  C   LIG d   1       4.807  -2.409  -4.700  0.00  0.00     0.110 C 
ATOM     31  H   LIG d   1       4.284  -2.967  -2.683  0.00  0.00     0.065 H 
ATOM     32  H   LIG d   1       5.835  -2.753  -4.586  0.00  0.00     0.065 H 
BRANCH  25  33
ATOM     33  C   LIG d   1       3.537   0.742  -3.810  0.00  0.00     0.073 C 
ATOM     34  H   LIG d   1       3.231   0.608  -4.848  0.00  0.00     0.058 H 
ATOM     35  H   LIG d   1       2.883   0.160  -3.160  0.00  0.00     0.058 H 
BRANCH  33  36
ATOM     36  O   LIG d   1       3.445   2.125  -3.462  0.00  0.00    -0.392 OA
ATOM     37  H   LIG d   1       3.982   2.376  -2.699  0.00  0.00     0.209 HD
ENDBRANCH  33  36
ENDBRANCH  25  33
BRANCH  26  38
ATOM     38  O   LIG d   1       4.429  -0.582  -1.442  0.00  0.00    -0.387 OA
ATOM     39  H   LIG d   1       5.075  -0.391  -0.747  0.00  0.00     0.210 HD
ENDBRANCH  26  38
BRANCH  28  40
ATOM     40  O   LIG d   1       2.850  -1.703  -3.467  0.00  0.00    -0.387 OA
ATOM     41  H   LIG d   1       2.467  -1.925  -4.327  0.00  0.00     0.210 HD
ENDBRANCH  28  40
BRANCH  30  42
ATOM     42  O   LIG d   1       4.030  -3.433  -5.326  0.00  0.00    -0.387 OA
ATOM     43  H   LIG d   1       4.548  -4.044  -5.869  0.00  0.00     0.210 HD
ENDBRANCH  30  42
ENDBRANCH  15  22
BRANCH   5  44
ATOM     44  O   LIG d   1       9.034   1.728  -7.988  0.00  0.00    -0.506 OA
ATOM     45  H   LIG d   1       9.907   1.676  -8.399  0.00  0.00     0.292 HD
ENDBRANCH   5  44
BRANCH  14  46
ATOM     46  O   LIG d   1       4.626   2.170 -10.167  0.00  0.00    -0.506 OA
ATOM     47  H   LIG d   1       4.288   2.291 -11.066  0.00  0.00     0.292 HD
ENDBRANCH  14  46
BRANCH  12  48
ATOM     48  C   LIG d   1       1.319  -1.389  -9.740  0.00  0.00     0.069 C 
ATOM     49  H   LIG d   1       1.455  -2.466  -9.832  0.00  0.00     0.061 H 
ATOM     50  H   LIG d   1       0.566  -1.182  -8.980  0.00  0.00     0.061 H 
BRANCH  48  51
ATOM     51  O   LIG d   1       0.891  -0.854 -10.994  0.00  0.00    -0.390 OA
ATOM     52  H   LIG d   1       0.268  -0.118 -10.916  0.00  0.00     0.210 HD
ENDBRANCH  48  51
ENDBRANCH  12  48
TORSDOF 10
ENDMDL
MODEL 2
REMARK VINA RESULT:      -6.3      1.917      5.965
REMARK  10 active torsions:
REMARK  status: ('A' for Active; 'I' for Inactive)
REMARK    1  A    between atoms: C_5  and  O_7 
REMARK    2  A    between atoms: C_13  and  C_17 
REMARK    3  A    between atoms: C_15  and  O_16 
REMARK    4  A    between atoms: C_17  and  O_18 
REMARK    5  A    between atoms: C_19  and  C_21 
REMARK    6  A    between atoms: C_23  and  O_36 
REMARK    7  A    between atoms: C_25  and  O_35 
REMARK    8  A    between atoms: C_27  and  O_34 
REMARK    9  A    between atoms: C_29  and  C_32 
REMARK   10  A    between atoms: C_32  and  O_33 
ROOT
ATOM      1  C   LIG d   1       3.918  -2.652  -3.012  0.00  0.00    -0.058 A 
ATOM      2  C   LIG d   1       4.728  -2.524  -4.126  0.00  0.00    -0.057 A 
ATOM      3  C   LIG d   1       5.526  -1.405  -4.293  0.00  0.00    -0.023 A 
ATOM      4  C   LIG d   1       5.504  -0.408  -3.318  0.00  0.00     0.068 A 
ATOM      5  C   LIG d   1       4.679  -0.534  -2.193  0.00  0.00     0.128 A 
ATOM      6  C   LIG d   1       3.886  -1.663  -2.049  0.00  0.00    -0.019 A 
ATOM      7  C   LIG d   1       6.368   0.781  -3.470  0.00  0.00     0.201 C 
ATOM      8  O   LIG d   1       6.168   1.790  -2.821  0.00  0.00    -0.286 OA
ATOM      9  C   LIG d   1       7.483   0.704  -4.436  0.00  0.00     0.068 A 
ATOM     10  C   LIG d   1       7.489  -0.301  -5.404  0.00  0.00    -0.023 A 
ATOM     11  C   LIG d   1       8.546  -0.369  -6.294  0.00  0.00    -0.052 A 
ATOM     12  C   LIG d   1       9.578   0.551  -6.233  0.00  0.00    -0.018 A 
ATOM     13  C   LIG d   1       9.574   1.552  -5.282  0.00  0.00    -0.014 A 
ATOM     14  C   LIG d   1       8.525   1.636  -4.375  0.00  0.00     0.128 A 
ATOM     15  C   LIG d   1       6.378  -1.301  -5.522  0.00  0.00     0.040 C 
ATOM     16  H   LIG d   1       6.812  -2.279  -5.728  0.00  0.00     0.042 H 
ATOM     17  H   LIG d   1       3.301  -3.531  -2.896  0.00  0.00     0.062 H 
ATOM     18  H   LIG d   1       4.739  -3.305  -4.872  0.00  0.00     0.062 H 
ATOM     19  H   LIG d   1       3.246  -1.769  -1.184  0.00  0.00     0.065 H 
ATOM     20  H   LIG d   1       8.566  -1.146  -7.043  0.00  0.00     0.062 H 
ATOM     21  H   LIG d   1      10.382   2.267  -5.243  0.00  0.00     0.066 H 
ENDROOT
BRANCH  15  22
ATOM     22  C   LIG d   1       5.488  -0.906  -6.701  0.00  0.00     0.098 C 
ATOM     23  H   LIG d   1       6.080  -0.362  -7.437  0.00  0.00     0.063 H 
ATOM     24  O   LIG d   1       4.422  -0.074  -6.238  0.00  0.00    -0.365 OA
ATOM     25  C   LIG d   1       3.541   0.374  -7.269  0.00  0.00     0.110 C 
ATOM     26  C   LIG d   1       2.882  -0.835  -7.937  0.00  0.00     0.112 C 
ATOM     27  H   LIG d   1       2.772   1.015  -6.837  0.00  0.00     0.065 H 
ATOM     28  C   LIG d   1       3.970  -1.762  -8.489  0.00  0.00     0.112 C 
ATOM     29  H   LIG d   1       2.282  -1.375  -7.204  0.00  0.00     0.065 H 
ATOM     30  C   LIG d   1       4.907  -2.167  -7.346  0.00  0.00     0.110 C 
ATOM     31  H   LIG d   1       3.509  -2.651  -8.916  0.00  0.00     0.065 H 
ATOM     32  H   LIG d   1       4.349  -2.733  -6.601  0.00  0.00     0.065 H 
BRANCH  25  33
ATOM     33  C   LIG d   1       4.336   1.162  -8.312  0.00  0.00     0.073 C 
ATOM     34  H   LIG d   1       5.297   1.457  -7.891  0.00  0.00     0.058 H 
ATOM     35  H   LIG d   1       4.500   0.538  -9.192  0.00  0.00     0.058 H 
BRANCH  33  36
ATOM     36  O   LIG d   1       3.603   2.330  -8.687  0.00  0.00    -0.392 OA
ATOM     37  H   LIG d   1       3.835   3.120  -8.180  0.00  0.00     0.209 HD
ENDBRANCH  33  36
ENDBRANCH  25  33
BRANCH  26  38
ATOM     38  O   LIG d   1       2.043  -0.394  -9.006  0.00  0.00    -0.387 OA
ATOM     39  H   LIG d   1       2.401   0.354  -9.505  0.00  0.00     0.210 HD
ENDBRANCH  26  38
BRANCH  28  40
ATOM     40  O   LIG d   1       4.715  -1.078  -9.498  0.00  0.00    -0.387 OA
ATOM     41  H   LIG d   1       4.268  -1.033 -10.355  0.00  0.00     0.210 HD
ENDBRANCH  28  40
BRANCH  30  42
ATOM     42  O   LIG d   1       5.969  -2.973  -7.861  0.00  0.00    -0.387 OA
ATOM     43  H   LIG d   1       6.172  -3.748  -7.319  0.00  0.00     0.210 HD
ENDBRANCH  30  42
ENDBRANCH  15  22
BRANCH   5  44
ATOM     44  O   LIG d   1       4.655   0.443  -1.253  0.00  0.00    -0.506 OA
ATOM     45  H   LIG d   1       5.380   1.078  -1.326  0.00  0.00     0.292 HD
ENDBRANCH   5  44
BRANCH  14  46
ATOM     46  O   LIG d   1       8.512   2.616  -3.437  0.00  0.00    -0.506 OA
ATOM     47  H   LIG d   1       7.795   3.255  -3.546  0.00  0.00     0.292 HD
ENDBRANCH  14  46
BRANCH  12  48
ATOM     48  C   LIG d   1      10.719   0.458  -7.213  0.00  0.00     0.069 C 
ATOM     49  H   LIG d   1      11.658   0.351  -6.669  0.00  0.00     0.061 H 
ATOM     50  H   LIG d   1      10.573  -0.407  -7.859  0.00  0.00     0.061 H 
BRANCH  48  51
ATOM     51  O   LIG d   1      10.762   1.645  -8.007  0.00  0.00    -0.390 OA
ATOM     52  H   LIG d   1      10.796   1.480  -8.960  0.00  0.00     0.210 HD
ENDBRANCH  48  51
ENDBRANCH  12  48
TORSDOF 10
ENDMDL
MODEL 3
REMARK VINA RESULT:      -6.3      1.756      3.038
REMARK  10 active torsions:
REMARK  status: ('A' for Active; 'I' for Inactive)
REMARK    1  A    between atoms: C_5  and  O_7 
REMARK    2  A    between atoms: C_13  and  C_17 
REMARK    3  A    between atoms: C_15  and  O_16 
REMARK    4  A    between atoms: C_17  and  O_18 
REMARK    5  A    between atoms: C_19  and  C_21 
REMARK    6  A    between atoms: C_23  and  O_36 
REMARK    7  A    between atoms: C_25  and  O_35 
REMARK    8  A    between atoms: C_27  and  O_34 
REMARK    9  A    between atoms: C_29  and  C_32 
REMARK   10  A    between atoms: C_32  and  O_33 
ROOT
ATOM      1  C   LIG d   1       8.446   1.499  -6.479  0.00  0.00    -0.058 A 
ATOM      2  C   LIG d   1       7.829   0.367  -5.977  0.00  0.00    -0.057 A 
ATOM      3  C   LIG d   1       6.730  -0.180  -6.618  0.00  0.00    -0.023 A 
ATOM      4  C   LIG d   1       6.256   0.426  -7.782  0.00  0.00     0.068 A 
ATOM      5  C   LIG d   1       6.877   1.576  -8.286  0.00  0.00     0.128 A 
ATOM      6  C   LIG d   1       7.974   2.108  -7.625  0.00  0.00    -0.019 A 
ATOM      7  C   LIG d   1       5.101  -0.160  -8.491  0.00  0.00     0.201 C 
ATOM      8  O   LIG d   1       4.478   0.482  -9.316  0.00  0.00    -0.286 OA
ATOM      9  C   LIG d   1       4.725  -1.552  -8.166  0.00  0.00     0.068 A 
ATOM     10  C   LIG d   1       5.209  -2.142  -6.998  0.00  0.00    -0.023 A 
ATOM     11  C   LIG d   1       4.860  -3.450  -6.713  0.00  0.00    -0.052 A 
ATOM     12  C   LIG d   1       4.036  -4.161  -7.568  0.00  0.00    -0.018 A 
ATOM     13  C   LIG d   1       3.547  -3.579  -8.720  0.00  0.00    -0.014 A 
ATOM     14  C   LIG d   1       3.888  -2.269  -9.029  0.00  0.00     0.128 A 
ATOM     15  C   LIG d   1       6.084  -1.399  -6.034  0.00  0.00     0.040 C 
ATOM     16  H   LIG d   1       6.866  -2.073  -5.684  0.00  0.00     0.042 H 
ATOM     17  H   LIG d   1       9.302   1.914  -5.967  0.00  0.00     0.062 H 
ATOM     18  H   LIG d   1       8.208  -0.094  -5.078  0.00  0.00     0.062 H 
ATOM     19  H   LIG d   1       8.459   2.995  -8.007  0.00  0.00     0.065 H 
ATOM     20  H   LIG d   1       5.235  -3.921  -5.817  0.00  0.00     0.062 H 
ATOM     21  H   LIG d   1       2.902  -4.140  -9.380  0.00  0.00     0.066 H 
ENDROOT
BRANCH  15  22
ATOM     22  C   LIG d   1       5.237  -0.974  -4.834  0.00  0.00     0.098 C 
ATOM     23  H   LIG d   1       4.566  -1.788  -4.556  0.00  0.00     0.063 H 
ATOM     24  O   LIG d   1       4.467   0.180  -5.177  0.00  0.00    -0.365 OA
ATOM     25  C   LIG d   1       3.617   0.648  -4.129  0.00  0.00     0.110 C 
ATOM     26  C   LIG d   1       4.468   1.044  -2.920  0.00  0.00     0.112 C 
ATOM     27  H   LIG d   1       3.054   1.514  -4.477  0.00  0.00     0.065 H 
ATOM     28  C   LIG d   1       5.302  -0.161  -2.474  0.00  0.00     0.112 C 
ATOM     29  H   LIG d   1       5.132   1.864  -3.195  0.00  0.00     0.065 H 
ATOM     30  C   LIG d   1       6.153  -0.643  -3.653  0.00  0.00     0.110 C 
ATOM     31  H   LIG d   1       5.951   0.130  -1.649  0.00  0.00     0.065 H 
ATOM     32  H   LIG d   1       6.851   0.142  -3.943  0.00  0.00     0.065 H 
BRANCH  25  33
ATOM     33  C   LIG d   1       2.646  -0.463  -3.726  0.00  0.00     0.073 C 
ATOM     34  H   LIG d   1       3.127  -1.433  -3.860  0.00  0.00     0.058 H 
ATOM     35  H   LIG d   1       2.365  -0.339  -2.679  0.00  0.00     0.058 H 
BRANCH  33  36
ATOM     36  O   LIG d   1       1.477  -0.395  -4.545  0.00  0.00    -0.392 OA
ATOM     37  H   LIG d   1       1.621  -0.670  -5.460  0.00  0.00     0.209 HD
ENDBRANCH  33  36
ENDBRANCH  25  33
BRANCH  26  38
ATOM     38  O   LIG d   1       3.618   1.458  -1.850  0.00  0.00    -0.387 OA
ATOM     39  H   LIG d   1       3.692   0.913  -1.053  0.00  0.00     0.210 HD
ENDBRANCH  26  38
BRANCH  28  40
ATOM     40  O   LIG d   1       4.434  -1.214  -2.050  0.00  0.00    -0.387 OA
ATOM     41  H   LIG d   1       3.507  -0.949  -1.964  0.00  0.00     0.210 HD
ENDBRANCH  28  40
BRANCH  30  42
ATOM     42  O   LIG d   1       6.882  -1.812  -3.271  0.00  0.00    -0.387 OA
ATOM     43  H   LIG d   1       7.158  -2.364  -4.016  0.00  0.00     0.210 HD
ENDBRANCH  30  42
ENDBRANCH  15  22
BRANCH   5  44
ATOM     44  O   LIG d   1       6.405   2.166  -9.413  0.00  0.00    -0.506 OA
ATOM     45  H   LIG d   1       6.195   3.104  -9.308  0.00  0.00     0.292 HD
ENDBRANCH   5  44
BRANCH  14  46
ATOM     46  O   LIG d   1       3.414  -1.690 -10.160  0.00  0.00    -0.506 OA
ATOM     47  H   LIG d   1       3.259  -2.311 -10.885  0.00  0.00     0.292 HD
ENDBRANCH  14  46
BRANCH  12  48
ATOM     48  C   LIG d   1       3.668  -5.584  -7.236  0.00  0.00     0.069 C 
ATOM     49  H   LIG d   1       2.631  -5.767  -7.518  0.00  0.00     0.061 H 
ATOM     50  H   LIG d   1       4.319  -6.264  -7.785  0.00  0.00     0.061 H 
BRANCH  48  51
ATOM     51  O   LIG d   1       3.825  -5.802  -5.833  0.00  0.00    -0.390 OA
ATOM     52  H   LIG d   1       3.127  -6.344  -5.438  0.00  0.00     0.210 HD
ENDBRANCH  48  51
ENDBRANCH  12  48
TORSDOF 10
ENDMDL
MODEL 4
REMARK VINA RESULT:      -6.2      2.535      5.582
REMARK  10 active torsions:
REMARK  status: ('A' for Active; 'I' for Inactive)
REMARK    1  A    between atoms: C_5  and  O_7 
REMARK    2  A    between atoms: C_13  and  C_17 
REMARK    3  A    between atoms: C_15  and  O_16 
REMARK    4  A    between atoms: C_17  and  O_18 
REMARK    5  A    between atoms: C_19  and  C_21 
REMARK    6  A    between atoms: C_23  and  O_36 
REMARK    7  A    between atoms: C_25  and  O_35 
REMARK    8  A    between atoms: C_27  and  O_34 
REMARK    9  A    between atoms: C_29  and  C_32 
REMARK   10  A    between atoms: C_32  and  O_33 
ROOT
ATOM      1  C   LIG d   1       3.874  -2.038  -2.484  0.00  0.00    -0.058 A 
ATOM      2  C   LIG d   1       4.879  -2.454  -3.340  0.00  0.00    -0.057 A 
ATOM      3  C   LIG d   1       5.034  -1.866  -4.583  0.00  0.00    -0.023 A 
ATOM      4  C   LIG d   1       4.164  -0.843  -4.961  0.00  0.00     0.068 A 
ATOM      5  C   LIG d   1       3.142  -0.427  -4.097  0.00  0.00     0.128 A 
ATOM      6  C   LIG d   1       3.004  -1.033  -2.857  0.00  0.00    -0.019 A 
ATOM      7  C   LIG d   1       4.332  -0.189  -6.274  0.00  0.00     0.201 C 
ATOM      8  O   LIG d   1       3.440   0.479  -6.762  0.00  0.00    -0.286 OA
ATOM      9  C   LIG d   1       5.619  -0.373  -6.977  0.00  0.00     0.068 A 
ATOM     10  C   LIG d   1       6.478  -1.401  -6.585  0.00  0.00    -0.023 A 
ATOM     11  C   LIG d   1       7.685  -1.554  -7.243  0.00  0.00    -0.052 A 
ATOM     12  C   LIG d   1       8.034  -0.706  -8.280  0.00  0.00    -0.018 A 
ATOM     13  C   LIG d   1       7.184   0.307  -8.677  0.00  0.00    -0.014 A 
ATOM     14  C   LIG d   1       5.970   0.482  -8.028  0.00  0.00     0.128 A 
ATOM     15  C   LIG d   1       6.127  -2.356  -5.484  0.00  0.00     0.040 C 
ATOM     16  H   LIG d   1       7.019  -2.536  -4.883  0.00  0.00     0.042 H 
ATOM     17  H   LIG d   1       3.766  -2.507  -1.517  0.00  0.00     0.062 H 
ATOM     18  H   LIG d   1       5.549  -3.244  -3.034  0.00  0.00     0.062 H 
ATOM     19  H   LIG d   1       2.219  -0.718  -2.184  0.00  0.00     0.065 H 
ATOM     20  H   LIG d   1       8.362  -2.340  -6.944  0.00  0.00     0.062 H 
ATOM     21  H   LIG d   1       7.463   0.962  -9.489  0.00  0.00     0.066 H 
ENDROOT
BRANCH  15  22
ATOM     22  C   LIG d   1       5.688  -3.681  -6.108  0.00  0.00     0.098 C 
ATOM     23  H   LIG d   1       5.836  -3.642  -7.187  0.00  0.00     0.063 H 
ATOM     24  O   LIG d   1       4.306  -3.908  -5.825  0.00  0.00    -0.365 OA
ATOM     25  C   LIG d   1       3.784  -5.113  -6.386  0.00  0.00     0.110 C 
ATOM     26  C   LIG d   1       4.541  -6.313  -5.811  0.00  0.00     0.112 C 
ATOM     27  H   LIG d   1       2.725  -5.200  -6.143  0.00  0.00     0.065 H 
ATOM     28  C   LIG d   1       6.036  -6.154  -6.105  0.00  0.00     0.112 C 
ATOM     29  H   LIG d   1       4.386  -6.358  -4.733  0.00  0.00     0.065 H 
ATOM     30  C   LIG d   1       6.521  -4.823  -5.521  0.00  0.00     0.110 C 
ATOM     31  H   LIG d   1       6.587  -6.976  -5.650  0.00  0.00     0.065 H 
ATOM     32  H   LIG d   1       6.406  -4.838  -4.437  0.00  0.00     0.065 H 
BRANCH  25  33
ATOM     33  C   LIG d   1       3.957  -5.084  -7.907  0.00  0.00     0.073 C 
ATOM     34  H   LIG d   1       4.120  -4.057  -8.235  0.00  0.00     0.058 H 
ATOM     35  H   LIG d   1       4.815  -5.696  -8.187  0.00  0.00     0.058 H 
BRANCH  33  36
ATOM     36  O   LIG d   1       2.779  -5.601  -8.530  0.00  0.00    -0.392 OA
ATOM     37  H   LIG d   1       2.469  -5.077  -9.281  0.00  0.00     0.209 HD
ENDBRANCH  33  36
ENDBRANCH  25  33
BRANCH  26  38
ATOM     38  O   LIG d   1       4.062  -7.516  -6.412  0.00  0.00    -0.387 OA
ATOM     39  H   LIG d   1       3.528  -7.374  -7.207  0.00  0.00     0.210 HD
ENDBRANCH  26  38
BRANCH  28  40
ATOM     40  O   LIG d   1       6.250  -6.160  -7.518  0.00  0.00    -0.387 OA
ATOM     41  H   LIG d   1       5.704  -5.524  -8.002  0.00  0.00     0.210 HD
ENDBRANCH  28  40
BRANCH  30  42
ATOM     42  O   LIG d   1       7.898  -4.629  -5.851  0.00  0.00    -0.387 OA
ATOM     43  H   LIG d   1       8.260  -3.784  -5.551  0.00  0.00     0.210 HD
ENDBRANCH  30  42
ENDBRANCH  15  22
BRANCH   5  44
ATOM     44  O   LIG d   1       2.293   0.561  -4.473  0.00  0.00    -0.506 OA
ATOM     45  H   LIG d   1       1.633   0.287  -5.124  0.00  0.00     0.292 HD
ENDBRANCH   5  44
BRANCH  14  46
ATOM     46  O   LIG d   1       5.129   1.475  -8.410  0.00  0.00    -0.506 OA
ATOM     47  H   LIG d   1       5.414   1.948  -9.205  0.00  0.00     0.292 HD
ENDBRANCH  14  46
BRANCH  12  48
ATOM     48  C   LIG d   1       9.354  -0.891  -8.983  0.00  0.00     0.069 C 
ATOM     49  H   LIG d   1       9.205  -1.484  -9.885  0.00  0.00     0.061 H 
ATOM     50  H   LIG d   1       9.762   0.082  -9.251  0.00  0.00     0.061 H 
BRANCH  48  51
ATOM     51  O   LIG d   1      10.265  -1.568  -8.114  0.00  0.00    -0.390 OA
ATOM     52  H   LIG d   1      10.020  -1.527  -7.179  0.00  0.00     0.210 HD
ENDBRANCH  48  51
ENDBRANCH  12  48
TORSDOF 10
ENDMDL
MODEL 5
REMARK VINA RESULT:      -6.0      1.850      6.202
REMARK  10 active torsions:
REMARK  status: ('A' for Active; 'I' for Inactive)
REMARK    1  A    between atoms: C_5  and  O_7 
REMARK    2  A    between atoms: C_13  and  C_17 
REMARK    3  A    between atoms: C_15  and  O_16 
REMARK    4  A    between atoms: C_17  and  O_18 
REMARK    5  A    between atoms: C_19  and  C_21 
REMARK    6  A    between atoms: C_23  and  O_36 
REMARK    7  A    between atoms: C_25  and  O_35 
REMARK    8  A    between atoms: C_27  and  O_34 
REMARK    9  A    between atoms: C_29  and  C_32 
REMARK   10  A    between atoms: C_32  and  O_33 
ROOT
ATOM      1  C   LIG d   1       8.144  -3.940  -7.922  0.00  0.00    -0.058 A 
ATOM      2  C   LIG d   1       7.761  -2.696  -7.453  0.00  0.00    -0.057 A 
ATOM      3  C   LIG d   1       6.763  -2.578  -6.501  0.00  0.00    -0.023 A 
ATOM      4  C   LIG d   1       6.151  -3.735  -6.016  0.00  0.00     0.068 A 
ATOM      5  C   LIG d   1       6.535  -4.994  -6.496  0.00  0.00     0.128 A 
ATOM      6  C   LIG d   1       7.535  -5.087  -7.452  0.00  0.00    -0.019 A 
ATOM      7  C   LIG d   1       5.103  -3.627  -4.982  0.00  0.00     0.201 C 
ATOM      8  O   LIG d   1       4.348  -4.554  -4.753  0.00  0.00    -0.286 OA
ATOM      9  C   LIG d   1       4.999  -2.357  -4.234  0.00  0.00     0.068 A 
ATOM     10  C   LIG d   1       5.617  -1.210  -4.733  0.00  0.00    -0.023 A 
ATOM     11  C   LIG d   1       5.523  -0.031  -4.016  0.00  0.00    -0.052 A 
ATOM     12  C   LIG d   1       4.819   0.015  -2.826  0.00  0.00    -0.018 A 
ATOM     13  C   LIG d   1       4.197  -1.115  -2.331  0.00  0.00    -0.014 A 
ATOM     14  C   LIG d   1       4.283  -2.310  -3.032  0.00  0.00     0.128 A 
ATOM     15  C   LIG d   1       6.369  -1.211  -6.030  0.00  0.00     0.040 C 
ATOM     16  H   LIG d   1       7.271  -0.612  -5.909  0.00  0.00     0.042 H 
ATOM     17  H   LIG d   1       8.924  -4.015  -8.665  0.00  0.00     0.062 H 
ATOM     18  H   LIG d   1       8.245  -1.809  -7.833  0.00  0.00     0.062 H 
ATOM     19  H   LIG d   1       7.837  -6.054  -7.828  0.00  0.00     0.065 H 
ATOM     20  H   LIG d   1       6.005   0.861  -4.387  0.00  0.00     0.062 H 
ATOM     21  H   LIG d   1       3.647  -1.069  -1.404  0.00  0.00     0.066 H 
ENDROOT
BRANCH  15  22
ATOM     22  C   LIG d   1       5.494  -0.559  -7.102  0.00  0.00     0.098 C 
ATOM     23  H   LIG d   1       4.682  -0.012  -6.624  0.00  0.00     0.063 H 
ATOM     24  O   LIG d   1       4.951  -1.570  -7.954  0.00  0.00    -0.365 OA
ATOM     25  C   LIG d   1       4.093  -1.069  -8.981  0.00  0.00     0.110 C 
ATOM     26  C   LIG d   1       4.883  -0.123  -9.888  0.00  0.00     0.112 C 
ATOM     27  H   LIG d   1       3.707  -1.900  -9.570  0.00  0.00     0.065 H 
ATOM     28  C   LIG d   1       5.473   1.011  -9.043  0.00  0.00     0.112 C 
ATOM     29  H   LIG d   1       5.690  -0.672 -10.374  0.00  0.00     0.065 H 
ATOM     30  C   LIG d   1       6.340   0.407  -7.934  0.00  0.00     0.110 C 
ATOM     31  H   LIG d   1       6.082   1.657  -9.673  0.00  0.00     0.065 H 
ATOM     32  H   LIG d   1       7.177  -0.132  -8.379  0.00  0.00     0.065 H 
BRANCH  25  33
ATOM     33  C   LIG d   1       2.927  -0.310  -8.345  0.00  0.00     0.073 C 
ATOM     34  H   LIG d   1       2.739  -0.701  -7.345  0.00  0.00     0.058 H 
ATOM     35  H   LIG d   1       3.175   0.750  -8.280  0.00  0.00     0.058 H 
BRANCH  33  36
ATOM     36  O   LIG d   1       1.756  -0.476  -9.147  0.00  0.00    -0.392 OA
ATOM     37  H   LIG d   1       1.913  -0.937  -9.983  0.00  0.00     0.209 HD
ENDBRANCH  33  36
ENDBRANCH  25  33
BRANCH  26  38
ATOM     38  O   LIG d   1       4.015   0.425 -10.882  0.00  0.00    -0.387 OA
ATOM     39  H   LIG d   1       4.357   0.357 -11.785  0.00  0.00     0.210 HD
ENDBRANCH  26  38
BRANCH  28  40
ATOM     40  O   LIG d   1       4.415   1.774  -8.459  0.00  0.00    -0.387 OA
ATOM     41  H   LIG d   1       4.492   2.727  -8.602  0.00  0.00     0.210 HD
ENDBRANCH  28  40
BRANCH  30  42
ATOM     42  O   LIG d   1       6.839   1.451  -7.094  0.00  0.00    -0.387 OA
ATOM     43  H   LIG d   1       7.359   1.136  -6.342  0.00  0.00     0.210 HD
ENDBRANCH  30  42
ENDBRANCH  15  22
BRANCH   5  44
ATOM     44  O   LIG d   1       5.930  -6.114  -6.028  0.00  0.00    -0.506 OA
ATOM     45  H   LIG d   1       4.974  -6.027  -5.914  0.00  0.00     0.292 HD
ENDBRANCH   5  44
BRANCH  14  46
ATOM     46  O   LIG d   1       3.676  -3.426  -2.554  0.00  0.00    -0.506 OA
ATOM     47  H   LIG d   1       4.176  -4.240  -2.707  0.00  0.00     0.292 HD
ENDBRANCH  14  46
BRANCH  12  48
ATOM     48  C   LIG d   1       4.729   1.311  -2.062  0.00  0.00     0.069 C 
ATOM     49  H   LIG d   1       5.133   1.171  -1.060  0.00  0.00     0.061 H 
ATOM     50  H   LIG d   1       5.301   2.079  -2.581  0.00  0.00     0.061 H 
BRANCH  48  51
ATOM     51  O   LIG d   1       3.361   1.715  -1.970  0.00  0.00    -0.390 OA
ATOM     52  H   LIG d   1       3.169   2.556  -2.409  0.00  0.00     0.210 HD
ENDBRANCH  48  51
ENDBRANCH  12  48
TORSDOF 10
ENDMDL
MODEL 6
REMARK VINA RESULT:      -5.8      8.739     11.810
REMARK  10 active torsions:
REMARK  status: ('A' for Active; 'I' for Inactive)
REMARK    1  A    between atoms: C_5  and  O_7 
REMARK    2  A    between atoms: C_13  and  C_17 
REMARK    3  A    between atoms: C_15  and  O_16 
REMARK    4  A    between atoms: C_17  and  O_18 
REMARK    5  A    between atoms: C_19  and  C_21 
REMARK    6  A    between atoms: C_23  and  O_36 
REMARK    7  A    between atoms: C_25  and  O_35 
REMARK    8  A    between atoms: C_27  and  O_34 
REMARK    9  A    between atoms: C_29  and  C_32 
REMARK   10  A    between atoms: C_32  and  O_33 
ROOT
ATOM      1  C   LIG d   1       9.131   7.436  -5.816  0.00  0.00    -0.058 A 
ATOM      2  C   LIG d   1       9.473   6.574  -4.789  0.00  0.00    -0.057 A 
ATOM      3  C   LIG d   1      10.107   7.047  -3.653  0.00  0.00    -0.023 A 
ATOM      4  C   LIG d   1      10.394   8.409  -3.557  0.00  0.00     0.068 A 
ATOM      5  C   LIG d   1      10.055   9.281  -4.600  0.00  0.00     0.128 A 
ATOM      6  C   LIG d   1       9.422   8.783  -5.730  0.00  0.00    -0.019 A 
ATOM      7  C   LIG d   1      11.048   8.933  -2.341  0.00  0.00     0.201 C 
ATOM      8  O   LIG d   1      11.578  10.028  -2.335  0.00  0.00    -0.286 OA
ATOM      9  C   LIG d   1      11.038   8.084  -1.132  0.00  0.00     0.068 A 
ATOM     10  C   LIG d   1      10.749   6.724  -1.246  0.00  0.00    -0.023 A 
ATOM     11  C   LIG d   1      10.730   5.944  -0.104  0.00  0.00    -0.052 A 
ATOM     12  C   LIG d   1      11.003   6.500   1.133  0.00  0.00    -0.018 A 
ATOM     13  C   LIG d   1      11.299   7.843   1.252  0.00  0.00    -0.014 A 
ATOM     14  C   LIG d   1      11.319   8.647   0.119  0.00  0.00     0.128 A 
ATOM     15  C   LIG d   1      10.471   6.078  -2.570  0.00  0.00     0.040 C 
ATOM     16  H   LIG d   1       9.651   5.371  -2.446  0.00  0.00     0.042 H 
ATOM     17  H   LIG d   1       8.637   7.051  -6.696  0.00  0.00     0.062 H 
ATOM     18  H   LIG d   1       9.242   5.523  -4.874  0.00  0.00     0.062 H 
ATOM     19  H   LIG d   1       9.156   9.448  -6.539  0.00  0.00     0.065 H 
ATOM     20  H   LIG d   1      10.499   4.892  -0.179  0.00  0.00     0.062 H 
ATOM     21  H   LIG d   1      11.514   8.268   2.221  0.00  0.00     0.066 H 
ENDROOT
BRANCH  15  22
ATOM     22  C   LIG d   1      11.717   5.304  -3.006  0.00  0.00     0.098 C 
ATOM     23  H   LIG d   1      12.451   5.315  -2.201  0.00  0.00     0.063 H 
ATOM     24  O   LIG d   1      12.277   5.917  -4.170  0.00  0.00    -0.365 OA
ATOM     25  C   LIG d   1      13.465   5.285  -4.648  0.00  0.00     0.110 C 
ATOM     26  C   LIG d   1      13.151   3.838  -5.035  0.00  0.00     0.112 C 
ATOM     27  H   LIG d   1      13.836   5.822  -5.520  0.00  0.00     0.065 H 
ATOM     28  C   LIG d   1      12.573   3.105  -3.821  0.00  0.00     0.112 C 
ATOM     29  H   LIG d   1      12.423   3.827  -5.847  0.00  0.00     0.065 H 
ATOM     30  C   LIG d   1      11.333   3.858  -3.327  0.00  0.00     0.110 C 
ATOM     31  H   LIG d   1      12.296   2.090  -4.104  0.00  0.00     0.065 H 
ATOM     32  H   LIG d   1      10.568   3.848  -4.104  0.00  0.00     0.065 H 
BRANCH  25  33
ATOM     33  C   LIG d   1      14.528   5.299  -3.549  0.00  0.00     0.073 C 
ATOM     34  H   LIG d   1      14.549   6.281  -3.075  0.00  0.00     0.058 H 
ATOM     35  H   LIG d   1      14.290   4.541  -2.802  0.00  0.00     0.058 H 
BRANCH  33  36
ATOM     36  O   LIG d   1      15.808   5.020  -4.120  0.00  0.00    -0.392 OA
ATOM     37  H   LIG d   1      16.122   5.697  -4.734  0.00  0.00     0.209 HD
ENDBRANCH  33  36
ENDBRANCH  25  33
BRANCH  26  38
ATOM     38  O   LIG d   1      14.349   3.185  -5.460  0.00  0.00    -0.387 OA
ATOM     39  H   LIG d   1      14.881   2.827  -4.736  0.00  0.00     0.210 HD
ENDBRANCH  26  38
BRANCH  28  40
ATOM     40  O   LIG d   1      13.550   3.060  -2.778  0.00  0.00    -0.387 OA
ATOM     41  H   LIG d   1      13.196   2.789  -1.919  0.00  0.00     0.210 HD
ENDBRANCH  28  40
BRANCH  30  42
ATOM     42  O   LIG d   1      10.825   3.225  -2.150  0.00  0.00    -0.387 OA
ATOM     43  H   LIG d   1       9.863   3.265  -2.067  0.00  0.00     0.210 HD
ENDBRANCH  30  42
ENDBRANCH  15  22
BRANCH   5  44
ATOM     44  O   LIG d   1      10.345  10.602  -4.505  0.00  0.00    -0.506 OA
ATOM     45  H   LIG d   1      10.256  10.962  -3.612  0.00  0.00     0.292 HD
ENDBRANCH   5  44
BRANCH  14  46
ATOM     46  O   LIG d   1      11.607   9.968   0.226  0.00  0.00    -0.506 OA
ATOM     47  H   LIG d   1      12.491  10.204  -0.090  0.00  0.00     0.292 HD
ENDBRANCH  14  46
BRANCH  12  48
ATOM     48  C   LIG d   1      10.978   5.630   2.364  0.00  0.00     0.069 C 
ATOM     49  H   LIG d   1      10.042   5.072   2.396  0.00  0.00     0.061 H 
ATOM     50  H   LIG d   1      11.815   4.934   2.334  0.00  0.00     0.061 H 
BRANCH  48  51
ATOM     51  O   LIG d   1      11.081   6.451   3.529  0.00  0.00    -0.390 OA
ATOM     52  H   LIG d   1      10.885   7.386   3.371  0.00  0.00     0.210 HD
ENDBRANCH  48  51
ENDBRANCH  12  48
TORSDOF 10
ENDMDL
MODEL 7
REMARK VINA RESULT:      -5.7      2.260      6.502
REMARK  10 active torsions:
REMARK  status: ('A' for Active; 'I' for Inactive)
REMARK    1  A    between atoms: C_5  and  O_7 
REMARK    2  A    between atoms: C_13  and  C_17 
REMARK    3  A    between atoms: C_15  and  O_16 
REMARK    4  A    between atoms: C_17  and  O_18 
REMARK    5  A    between atoms: C_19  and  C_21 
REMARK    6  A    between atoms: C_23  and  O_36 
REMARK    7  A    between atoms: C_25  and  O_35 
REMARK    8  A    between atoms: C_27  and  O_34 
REMARK    9  A    between atoms: C_29  and  C_32 
REMARK   10  A    between atoms: C_32  and  O_33 
ROOT
ATOM      1  C   LIG d   1       5.929  -4.981  -8.233  0.00  0.00    -0.058 A 
ATOM      2  C   LIG d   1       6.418  -3.691  -8.126  0.00  0.00    -0.057 A 
ATOM      3  C   LIG d   1       6.092  -2.902  -7.036  0.00  0.00    -0.023 A 
ATOM      4  C   LIG d   1       5.265  -3.428  -6.043  0.00  0.00     0.068 A 
ATOM      5  C   LIG d   1       4.765  -4.732  -6.155  0.00  0.00     0.128 A 
ATOM      6  C   LIG d   1       5.103  -5.503  -7.258  0.00  0.00    -0.019 A 
ATOM      7  C   LIG d   1       4.929  -2.608  -4.863  0.00  0.00     0.201 C 
ATOM      8  O   LIG d   1       3.996  -2.901  -4.139  0.00  0.00    -0.286 OA
ATOM      9  C   LIG d   1       5.762  -1.419  -4.589  0.00  0.00     0.068 A 
ATOM     10  C   LIG d   1       6.583  -0.906  -5.593  0.00  0.00    -0.023 A 
ATOM     11  C   LIG d   1       7.368   0.200  -5.319  0.00  0.00    -0.052 A 
ATOM     12  C   LIG d   1       7.333   0.796  -4.070  0.00  0.00    -0.018 A 
ATOM     13  C   LIG d   1       6.516   0.298  -3.075  0.00  0.00    -0.014 A 
ATOM     14  C   LIG d   1       5.724  -0.814  -3.327  0.00  0.00     0.128 A 
ATOM     15  C   LIG d   1       6.632  -1.505  -6.966  0.00  0.00     0.040 C 
ATOM     16  H   LIG d   1       7.668  -1.516  -7.304  0.00  0.00     0.042 H 
ATOM     17  H   LIG d   1       6.193  -5.584  -9.090  0.00  0.00     0.062 H 
ATOM     18  H   LIG d   1       7.060  -3.296  -8.899  0.00  0.00     0.062 H 
ATOM     19  H   LIG d   1       4.722  -6.510  -7.353  0.00  0.00     0.065 H 
ATOM     20  H   LIG d   1       8.014   0.601  -6.085  0.00  0.00     0.062 H 
ATOM     21  H   LIG d   1       6.493   0.771  -2.105  0.00  0.00     0.066 H 
ENDROOT
BRANCH  15  22
ATOM     22  C   LIG d   1       5.822  -0.621  -7.915  0.00  0.00     0.098 C 
ATOM     23  H   LIG d   1       5.752   0.386  -7.502  0.00  0.00     0.063 H 
ATOM     24  O   LIG d   1       4.509  -1.164  -8.070  0.00  0.00    -0.365 OA
ATOM     25  C   LIG d   1       3.656  -0.397  -8.921  0.00  0.00     0.110 C 
ATOM     26  C   LIG d   1       4.262  -0.332 -10.325  0.00  0.00     0.112 C 
ATOM     27  H   LIG d   1       2.674  -0.866  -8.970  0.00  0.00     0.065 H 
ATOM     28  C   LIG d   1       5.667   0.273 -10.241  0.00  0.00     0.112 C 
ATOM     29  H   LIG d   1       4.324  -1.338 -10.742  0.00  0.00     0.065 H 
ATOM     30  C   LIG d   1       6.514  -0.565  -9.279  0.00  0.00     0.110 C 
ATOM     31  H   LIG d   1       6.125   0.270 -11.229  0.00  0.00     0.065 H 
ATOM     32  H   LIG d   1       6.622  -1.575  -9.674  0.00  0.00     0.065 H 
BRANCH  25  33
ATOM     33  C   LIG d   1       3.518   1.020  -8.361  0.00  0.00     0.073 C 
ATOM     34  H   LIG d   1       3.364   0.971  -7.282  0.00  0.00     0.058 H 
ATOM     35  H   LIG d   1       4.425   1.586  -8.573  0.00  0.00     0.058 H 
BRANCH  33  36
ATOM     36  O   LIG d   1       2.399   1.667  -8.971  0.00  0.00    -0.392 OA
ATOM     37  H   LIG d   1       1.591   1.136  -8.975  0.00  0.00     0.209 HD
ENDBRANCH  33  36
ENDBRANCH  25  33
BRANCH  26  38
ATOM     38  O   LIG d   1       3.442   0.482 -11.165  0.00  0.00    -0.387 OA
ATOM     39  H   LIG d   1       3.920   0.909 -11.889  0.00  0.00     0.210 HD
ENDBRANCH  26  38
BRANCH  28  40
ATOM     40  O   LIG d   1       5.582   1.615  -9.757  0.00  0.00    -0.387 OA
ATOM     41  H   LIG d   1       5.995   2.269 -10.338  0.00  0.00     0.210 HD
ENDBRANCH  28  40
BRANCH  30  42
ATOM     42  O   LIG d   1       7.806   0.030  -9.135  0.00  0.00    -0.387 OA
ATOM     43  H   LIG d   1       8.158   0.408  -9.953  0.00  0.00     0.210 HD
ENDBRANCH  30  42
ENDBRANCH  15  22
BRANCH   5  44
ATOM     44  O   LIG d   1       3.954  -5.236  -5.192  0.00  0.00    -0.506 OA
ATOM     45  H   LIG d   1       4.128  -4.885  -4.308  0.00  0.00     0.292 HD
ENDBRANCH   5  44
BRANCH  14  46
ATOM     46  O   LIG d   1       4.918  -1.312  -2.355  0.00  0.00    -0.506 OA
ATOM     47  H   LIG d   1       4.276  -1.962  -2.672  0.00  0.00     0.292 HD
ENDBRANCH  14  46
BRANCH  12  48
ATOM     48  C   LIG d   1       8.196   2.000  -3.794  0.00  0.00     0.069 C 
ATOM     49  H   LIG d   1       8.135   2.692  -4.634  0.00  0.00     0.061 H 
ATOM     50  H   LIG d   1       7.847   2.496  -2.889  0.00  0.00     0.061 H 
BRANCH  48  51
ATOM     51  O   LIG d   1       9.552   1.584  -3.618  0.00  0.00    -0.390 OA
ATOM     52  H   LIG d   1       9.900   1.743  -2.729  0.00  0.00     0.210 HD
ENDBRANCH  48  51
ENDBRANCH  12  48
TORSDOF 10
ENDMDL
MODEL 8
REMARK VINA RESULT:      -5.7     10.260     12.372
REMARK  10 active torsions:
REMARK  status: ('A' for Active; 'I' for Inactive)
REMARK    1  A    between atoms: C_5  and  O_7 
REMARK    2  A    between atoms: C_13  and  C_17 
REMARK    3  A    between atoms: C_15  and  O_16 
REMARK    4  A    between atoms: C_17  and  O_18 
REMARK    5  A    between atoms: C_19  and  C_21 
REMARK    6  A    between atoms: C_23  and  O_36 
REMARK    7  A    between atoms: C_25  and  O_35 
REMARK    8  A    between atoms: C_27  and  O_34 
REMARK    9  A    between atoms: C_29  and  C_32 
REMARK   10  A    between atoms: C_32  and  O_33 
ROOT
ATOM      1  C   LIG d   1       9.940   5.585  -2.320  0.00  0.00    -0.058 A 
ATOM      2  C   LIG d   1       9.557   6.904  -2.488  0.00  0.00    -0.057 A 
ATOM      3  C   LIG d   1      10.260   7.739  -3.339  0.00  0.00    -0.023 A 
ATOM      4  C   LIG d   1      11.361   7.230  -4.029  0.00  0.00     0.068 A 
ATOM      5  C   LIG d   1      11.753   5.896  -3.853  0.00  0.00     0.128 A 
ATOM      6  C   LIG d   1      11.034   5.079  -2.993  0.00  0.00    -0.019 A 
ATOM      7  C   LIG d   1      12.107   8.101  -4.959  0.00  0.00     0.201 C 
ATOM      8  O   LIG d   1      13.222   7.803  -5.343  0.00  0.00    -0.286 OA
ATOM      9  C   LIG d   1      11.455   9.349  -5.409  0.00  0.00     0.068 A 
ATOM     10  C   LIG d   1      10.355   9.843  -4.707  0.00  0.00    -0.023 A 
ATOM     11  C   LIG d   1       9.745  11.005  -5.147  0.00  0.00    -0.052 A 
ATOM     12  C   LIG d   1      10.224  11.673  -6.261  0.00  0.00    -0.018 A 
ATOM     13  C   LIG d   1      11.318  11.193  -6.954  0.00  0.00    -0.014 A 
ATOM     14  C   LIG d   1      11.942  10.026  -6.533  0.00  0.00     0.128 A 
ATOM     15  C   LIG d   1       9.820   9.164  -3.482  0.00  0.00     0.040 C 
ATOM     16  H   LIG d   1       8.731   9.190  -3.519  0.00  0.00     0.042 H 
ATOM     17  H   LIG d   1       9.380   4.946  -1.653  0.00  0.00     0.062 H 
ATOM     18  H   LIG d   1       8.701   7.285  -1.952  0.00  0.00     0.062 H 
ATOM     19  H   LIG d   1      11.329   4.049  -2.851  0.00  0.00     0.065 H 
ATOM     20  H   LIG d   1       8.889  11.393  -4.618  0.00  0.00     0.062 H 
ATOM     21  H   LIG d   1      11.687  11.722  -7.819  0.00  0.00     0.066 H 
ENDROOT
BRANCH  15  22
ATOM     22  C   LIG d   1      10.282   9.944  -2.251  0.00  0.00     0.098 C 
ATOM     23  H   LIG d   1      10.402  10.996  -2.511  0.00  0.00     0.063 H 
ATOM     24  O   LIG d   1      11.532   9.420  -1.795  0.00  0.00    -0.365 OA
ATOM     25  C   LIG d   1      12.069  10.097  -0.658  0.00  0.00     0.110 C 
ATOM     26  C   LIG d   1      11.097   9.969   0.518  0.00  0.00     0.112 C 
ATOM     27  H   LIG d   1      13.026   9.652  -0.388  0.00  0.00     0.065 H 
ATOM     28  C   LIG d   1       9.736  10.542   0.111  0.00  0.00     0.112 C 
ATOM     29  H   LIG d   1      10.983   8.918   0.784  0.00  0.00     0.065 H 
ATOM     30  C   LIG d   1       9.239   9.809  -1.139  0.00  0.00     0.110 C 
ATOM     31  H   LIG d   1       9.024  10.403   0.923  0.00  0.00     0.065 H 
ATOM     32  H   LIG d   1       9.088   8.755  -0.907  0.00  0.00     0.065 H 
BRANCH  25  33
ATOM     33  C   LIG d   1      12.271  11.576  -0.993  0.00  0.00     0.073 C 
ATOM     34  H   LIG d   1      12.720  11.668  -1.982  0.00  0.00     0.058 H 
ATOM     35  H   LIG d   1      11.307  12.087  -0.983  0.00  0.00     0.058 H 
BRANCH  33  36
ATOM     36  O   LIG d   1      13.134  12.171  -0.022  0.00  0.00    -0.392 OA
ATOM     37  H   LIG d   1      12.794  12.137   0.882  0.00  0.00     0.209 HD
ENDBRANCH  33  36
ENDBRANCH  25  33
BRANCH  26  38
ATOM     38  O   LIG d   1      11.603  10.692   1.640  0.00  0.00    -0.387 OA
ATOM     39  H   LIG d   1      11.458  11.648   1.591  0.00  0.00     0.210 HD
ENDBRANCH  26  38
BRANCH  28  40
ATOM     40  O   LIG d   1       9.869  11.936  -0.175  0.00  0.00    -0.387 OA
ATOM     41  H   LIG d   1      10.685  12.331   0.163  0.00  0.00     0.210 HD
ENDBRANCH  28  40
BRANCH  30  42
ATOM     42  O   LIG d   1       8.003  10.384  -1.572  0.00  0.00    -0.387 OA
ATOM     43  H   LIG d   1       8.103  11.219  -2.048  0.00  0.00     0.210 HD
ENDBRANCH  30  42
ENDBRANCH  15  22
BRANCH   5  44
ATOM     44  O   LIG d   1      12.829   5.409  -4.519  0.00  0.00    -0.506 OA
ATOM     45  H   LIG d   1      13.152   4.563  -4.180  0.00  0.00     0.292 HD
ENDBRANCH   5  44
BRANCH  14  46
ATOM     46  O   LIG d   1      13.016   9.546  -7.208  0.00  0.00    -0.506 OA
ATOM     47  H   LIG d   1      12.845   9.369  -8.144  0.00  0.00     0.292 HD
ENDBRANCH  14  46
BRANCH  12  48
ATOM     48  C   LIG d   1       9.546  12.937  -6.721  0.00  0.00     0.069 C 
ATOM     49  H   LIG d   1       8.848  13.275  -5.955  0.00  0.00     0.061 H 
ATOM     50  H   LIG d   1      10.295  13.708  -6.897  0.00  0.00     0.061 H 
BRANCH  48  51
ATOM     51  O   LIG d   1       8.833  12.680  -7.933  0.00  0.00    -0.390 OA
ATOM     52  H   LIG d   1       8.258  13.406  -8.213  0.00  0.00     0.210 HD
ENDBRANCH  48  51
ENDBRANCH  12  48
TORSDOF 10
ENDMDL
MODEL 9
REMARK VINA RESULT:      -5.6      2.830      6.153
REMARK  10 active torsions:
REMARK  status: ('A' for Active; 'I' for Inactive)
REMARK    1  A    between atoms: C_5  and  O_7 
REMARK    2  A    between atoms: C_13  and  C_17 
REMARK    3  A    between atoms: C_15  and  O_16 
REMARK    4  A    between atoms: C_17  and  O_18 
REMARK    5  A    between atoms: C_19  and  C_21 
REMARK    6  A    between atoms: C_23  and  O_36 
REMARK    7  A    between atoms: C_25  and  O_35 
REMARK    8  A    between atoms: C_27  and  O_34 
REMARK    9  A    between atoms: C_29  and  C_32 
REMARK   10  A    between atoms: C_32  and  O_33 
ROOT
ATOM      1  C   LIG d   1       4.293  -1.396  -2.001  0.00  0.00    -0.058 A 
ATOM      2  C   LIG d   1       5.167  -2.221  -2.687  0.00  0.00    -0.057 A 
ATOM      3  C   LIG d   1       6.145  -1.685  -3.507  0.00  0.00    -0.023 A 
ATOM      4  C   LIG d   1       6.241  -0.298  -3.628  0.00  0.00     0.068 A 
ATOM      5  C   LIG d   1       5.352   0.536  -2.938  0.00  0.00     0.128 A 
ATOM      6  C   LIG d   1       4.377  -0.023  -2.124  0.00  0.00    -0.019 A 
ATOM      7  C   LIG d   1       7.295   0.290  -4.478  0.00  0.00     0.201 C 
ATOM      8  O   LIG d   1       7.233   1.447  -4.847  0.00  0.00    -0.286 OA
ATOM      9  C   LIG d   1       8.428  -0.575  -4.869  0.00  0.00     0.068 A 
ATOM     10  C   LIG d   1       8.315  -1.960  -4.741  0.00  0.00    -0.023 A 
ATOM     11  C   LIG d   1       9.389  -2.756  -5.097  0.00  0.00    -0.052 A 
ATOM     12  C   LIG d   1      10.555  -2.190  -5.583  0.00  0.00    -0.018 A 
ATOM     13  C   LIG d   1      10.669  -0.821  -5.720  0.00  0.00    -0.014 A 
ATOM     14  C   LIG d   1       9.606  -0.002  -5.363  0.00  0.00     0.128 A 
ATOM     15  C   LIG d   1       7.062  -2.614  -4.243  0.00  0.00     0.040 C 
ATOM     16  H   LIG d   1       7.338  -3.431  -3.576  0.00  0.00     0.042 H 
ATOM     17  H   LIG d   1       3.535  -1.830  -1.365  0.00  0.00     0.062 H 
ATOM     18  H   LIG d   1       5.084  -3.292  -2.582  0.00  0.00     0.062 H 
ATOM     19  H   LIG d   1       3.688   0.613  -1.589  0.00  0.00     0.065 H 
ATOM     20  H   LIG d   1       9.317  -3.828  -4.995  0.00  0.00     0.062 H 
ATOM     21  H   LIG d   1      11.581  -0.388  -6.102  0.00  0.00     0.066 H 
ENDROOT
BRANCH  15  22
ATOM     22  C   LIG d   1       6.308  -3.198  -5.438  0.00  0.00     0.098 C 
ATOM     23  H   LIG d   1       6.913  -3.088  -6.338  0.00  0.00     0.063 H 
ATOM     24  O   LIG d   1       5.070  -2.504  -5.608  0.00  0.00    -0.365 OA
ATOM     25  C   LIG d   1       4.294  -2.956  -6.719  0.00  0.00     0.110 C 
ATOM     26  C   LIG d   1       3.935  -4.431  -6.522  0.00  0.00     0.112 C 
ATOM     27  H   LIG d   1       3.381  -2.365  -6.789  0.00  0.00     0.065 H 
ATOM     28  C   LIG d   1       5.221  -5.246  -6.364  0.00  0.00     0.112 C 
ATOM     29  H   LIG d   1       3.322  -4.540  -5.627  0.00  0.00     0.065 H 
ATOM     30  C   LIG d   1       6.029  -4.683  -5.190  0.00  0.00     0.110 C 
ATOM     31  H   LIG d   1       4.971  -6.288  -6.168  0.00  0.00     0.065 H 
ATOM     32  H   LIG d   1       5.459  -4.797  -4.268  0.00  0.00     0.065 H 
BRANCH  25  33
ATOM     33  C   LIG d   1       5.106  -2.797  -8.006  0.00  0.00     0.073 C 
ATOM     34  H   LIG d   1       6.170  -2.838  -7.773  0.00  0.00     0.058 H 
ATOM     35  H   LIG d   1       4.854  -3.602  -8.697  0.00  0.00     0.058 H 
BRANCH  33  36
ATOM     36  O   LIG d   1       4.800  -1.539  -8.610  0.00  0.00    -0.392 OA
ATOM     37  H   LIG d   1       4.197  -1.600  -9.364  0.00  0.00     0.209 HD
ENDBRANCH  33  36
ENDBRANCH  25  33
BRANCH  26  38
ATOM     38  O   LIG d   1       3.208  -4.902  -7.658  0.00  0.00    -0.387 OA
ATOM     39  H   LIG d   1       2.254  -4.980  -7.511  0.00  0.00     0.210 HD
ENDBRANCH  26  38
BRANCH  28  40
ATOM     40  O   LIG d   1       5.996  -5.159  -7.562  0.00  0.00    -0.387 OA
ATOM     41  H   LIG d   1       6.889  -4.811  -7.428  0.00  0.00     0.210 HD
ENDBRANCH  28  40
BRANCH  30  42
ATOM     42  O   LIG d   1       7.266  -5.389  -5.077  0.00  0.00    -0.387 OA
ATOM     43  H   LIG d   1       7.547  -5.546  -4.164  0.00  0.00     0.210 HD
ENDBRANCH  30  42
ENDBRANCH  15  22
BRANCH   5  44
ATOM     44  O   LIG d   1       5.444   1.884  -3.066  0.00  0.00    -0.506 OA
ATOM     45  H   LIG d   1       6.351   2.216  -3.097  0.00  0.00     0.292 HD
ENDBRANCH   5  44
BRANCH  14  46
ATOM     46  O   LIG d   1       9.709   1.344  -5.493  0.00  0.00    -0.506 OA
ATOM     47  H   LIG d   1      10.017   1.793  -4.694  0.00  0.00     0.292 HD
ENDBRANCH  14  46
BRANCH  12  48
ATOM     48  C   LIG d   1      11.711  -3.077  -5.966  0.00  0.00     0.069 C 
ATOM     49  H   LIG d   1      12.636  -2.664  -5.564  0.00  0.00     0.061 H 
ATOM     50  H   LIG d   1      11.553  -4.076  -5.560  0.00  0.00     0.061 H 
BRANCH  48  51
ATOM     51  O   LIG d   1      11.803  -3.151  -7.390  0.00  0.00    -0.390 OA
ATOM     52  H   LIG d   1      12.063  -4.021  -7.723  0.00  0.00     0.210 HD
ENDBRANCH  48  51
ENDBRANCH  12  48
TORSDOF 10
ENDMDL
