MODEL 1
REMARK VINA RESULT:      -4.9      0.000      0.000
REMARK  2 active torsions:
REMARK  status: ('A' for Active; 'I' for Inactive)
REMARK    1  A    between atoms: C_1  and  O_2 
REMARK    2  A    between atoms: O_2  and  C_3 
ROOT
ATOM      1  C   LIG d   1       7.128   1.123  -3.523  0.00  0.00     0.120 A 
ATOM      2  C   LIG d   1       7.603  -0.083  -4.018  0.00  0.00    -0.020 A 
ATOM      3  C   LIG d   1       6.789  -1.195  -4.017  0.00  0.00    -0.054 A 
ATOM      4  C   LIG d   1       5.495  -1.118  -3.520  0.00  0.00    -0.030 A 
ATOM      5  C   LIG d   1       5.020   0.077  -3.025  0.00  0.00    -0.038 A 
ATOM      6  C   LIG d   1       5.837   1.197  -3.021  0.00  0.00    -0.016 A 
ATOM      7  C   LIG d   1       3.627   0.205  -2.465  0.00  0.00    -0.015 C 
ATOM      8  C   LIG d   1       2.772  -0.978  -2.919  0.00  0.00     0.000 C 
ATOM      9  N   LIG d   1       3.505  -2.222  -2.634  0.00  0.00    -0.312 N 
ATOM     10  C   LIG d   1       4.644  -2.361  -3.546  0.00  0.00     0.021 C 
ATOM     11  H   LIG d   1       8.610  -0.150  -4.405  0.00  0.00     0.065 H 
ATOM     12  H   LIG d   1       7.160  -2.132  -4.404  0.00  0.00     0.062 H 
ATOM     13  H   LIG d   1       5.466   2.133  -2.632  0.00  0.00     0.066 H 
ATOM     14  H   LIG d   1       3.674   0.220  -1.376  0.00  0.00     0.033 H 
ATOM     15  H   LIG d   1       3.178   1.133  -2.818  0.00  0.00     0.033 H 
ATOM     16  H   LIG d   1       1.826  -0.977  -2.376  0.00  0.00     0.043 H 
ATOM     17  H   LIG d   1       2.582  -0.903  -3.991  0.00  0.00     0.043 H 
ATOM     18  H   LIG d   1       4.275  -2.525  -4.559  0.00  0.00     0.047 H 
ATOM     19  H   LIG d   1       5.246  -3.217  -3.242  0.00  0.00     0.047 H 
ATOM     20  H   LIG d   1       3.806  -2.250  -1.672  0.00  0.00     0.122 HD
ENDROOT
BRANCH   1  21
ATOM     21  O   LIG d   1       7.924   2.223  -3.523  0.00  0.00    -0.495 OA
BRANCH  21  22
ATOM     22  C   LIG d   1       9.310   2.021  -3.806  0.00  0.00     0.079 C 
ATOM     23  H   LIG d   1       9.444   1.058  -4.297  0.00  0.00     0.066 H 
ATOM     24  H   LIG d   1       9.667   2.816  -4.461  0.00  0.00     0.066 H 
ATOM     25  H   LIG d   1       9.876   2.037  -2.874  0.00  0.00     0.066 H 
ENDBRANCH  21  22
ENDBRANCH   1  21
TORSDOF 2
ENDMDL
MODEL 2
REMARK VINA RESULT:      -4.9      2.864      4.319
REMARK  2 active torsions:
REMARK  status: ('A' for Active; 'I' for Inactive)
REMARK    1  A    between atoms: C_1  and  O_2 
REMARK    2  A    between atoms: O_2  and  C_3 
ROOT
ATOM      1  C   LIG d   1       4.845  -3.232  -4.266  0.00  0.00     0.120 A 
ATOM      2  C   LIG d   1       6.075  -2.824  -4.760  0.00  0.00    -0.020 A 
ATOM      3  C   LIG d   1       6.553  -1.566  -4.461  0.00  0.00    -0.054 A 
ATOM      4  C   LIG d   1       5.809  -0.702  -3.669  0.00  0.00    -0.030 A 
ATOM      5  C   LIG d   1       4.584  -1.104  -3.179  0.00  0.00    -0.038 A 
ATOM      6  C   LIG d   1       4.100  -2.366  -3.480  0.00  0.00    -0.016 A 
ATOM      7  C   LIG d   1       3.737  -0.195  -2.325  0.00  0.00    -0.015 C 
ATOM      8  C   LIG d   1       4.588   0.950  -1.778  0.00  0.00     0.000 C 
ATOM      9  N   LIG d   1       5.323   1.563  -2.896  0.00  0.00    -0.312 N 
ATOM     10  C   LIG d   1       6.377   0.661  -3.367  0.00  0.00     0.021 C 
ATOM     11  H   LIG d   1       6.659  -3.492  -5.378  0.00  0.00     0.065 H 
ATOM     12  H   LIG d   1       7.512  -1.250  -4.844  0.00  0.00     0.062 H 
ATOM     13  H   LIG d   1       3.140  -2.680  -3.098  0.00  0.00     0.066 H 
ATOM     14  H   LIG d   1       2.925   0.213  -2.927  0.00  0.00     0.033 H 
ATOM     15  H   LIG d   1       3.318  -0.765  -1.495  0.00  0.00     0.033 H 
ATOM     16  H   LIG d   1       3.943   1.695  -1.311  0.00  0.00     0.043 H 
ATOM     17  H   LIG d   1       5.295   0.563  -1.044  0.00  0.00     0.043 H 
ATOM     18  H   LIG d   1       7.143   0.569  -2.596  0.00  0.00     0.047 H 
ATOM     19  H   LIG d   1       6.826   1.072  -4.270  0.00  0.00     0.047 H 
ATOM     20  H   LIG d   1       4.696   1.811  -3.647  0.00  0.00     0.122 HD
ENDROOT
BRANCH   1  21
ATOM     21  O   LIG d   1       4.370  -4.472  -4.555  0.00  0.00    -0.495 OA
BRANCH  21  22
ATOM     22  C   LIG d   1       5.009  -5.180  -5.618  0.00  0.00     0.079 C 
ATOM     23  H   LIG d   1       4.263  -5.735  -6.186  0.00  0.00     0.066 H 
ATOM     24  H   LIG d   1       5.512  -4.472  -6.276  0.00  0.00     0.066 H 
ATOM     25  H   LIG d   1       5.741  -5.874  -5.203  0.00  0.00     0.066 H 
ENDBRANCH  21  22
ENDBRANCH   1  21
TORSDOF 2
ENDMDL
MODEL 3
REMARK VINA RESULT:      -4.4      1.183      2.404
REMARK  2 active torsions:
REMARK  status: ('A' for Active; 'I' for Inactive)
REMARK    1  A    between atoms: C_1  and  O_2 
REMARK    2  A    between atoms: O_2  and  C_3 
ROOT
ATOM      1  C   LIG d   1       6.378   1.072  -3.386  0.00  0.00     0.120 A 
ATOM      2  C   LIG d   1       5.363   0.945  -2.448  0.00  0.00    -0.020 A 
ATOM      3  C   LIG d   1       4.626  -0.218  -2.387  0.00  0.00    -0.054 A 
ATOM      4  C   LIG d   1       4.890  -1.265  -3.259  0.00  0.00    -0.030 A 
ATOM      5  C   LIG d   1       5.896  -1.141  -4.194  0.00  0.00    -0.038 A 
ATOM      6  C   LIG d   1       6.637   0.028  -4.261  0.00  0.00    -0.016 A 
ATOM      7  C   LIG d   1       6.211  -2.246  -5.169  0.00  0.00    -0.015 C 
ATOM      8  C   LIG d   1       5.594  -3.559  -4.687  0.00  0.00     0.000 C 
ATOM      9  N   LIG d   1       4.178  -3.321  -4.367  0.00  0.00    -0.312 N 
ATOM     10  C   LIG d   1       4.060  -2.517  -3.147  0.00  0.00     0.021 C 
ATOM     11  H   LIG d   1       5.152   1.756  -1.766  0.00  0.00     0.065 H 
ATOM     12  H   LIG d   1       3.838  -0.316  -1.655  0.00  0.00     0.062 H 
ATOM     13  H   LIG d   1       7.423   0.126  -4.994  0.00  0.00     0.066 H 
ATOM     14  H   LIG d   1       5.802  -1.993  -6.148  0.00  0.00     0.033 H 
ATOM     15  H   LIG d   1       7.292  -2.362  -5.250  0.00  0.00     0.033 H 
ATOM     16  H   LIG d   1       5.672  -4.311  -5.473  0.00  0.00     0.043 H 
ATOM     17  H   LIG d   1       6.118  -3.904  -3.794  0.00  0.00     0.043 H 
ATOM     18  H   LIG d   1       4.405  -3.104  -2.295  0.00  0.00     0.047 H 
ATOM     19  H   LIG d   1       3.016  -2.245  -2.995  0.00  0.00     0.047 H 
ATOM     20  H   LIG d   1       3.703  -2.879  -5.139  0.00  0.00     0.122 HD
ENDROOT
BRANCH   1  21
ATOM     21  O   LIG d   1       7.110   2.214  -3.451  0.00  0.00    -0.495 OA
BRANCH  21  22
ATOM     22  C   LIG d   1       8.461   2.095  -3.899  0.00  0.00     0.079 C 
ATOM     23  H   LIG d   1       9.089   1.759  -3.074  0.00  0.00     0.066 H 
ATOM     24  H   LIG d   1       8.512   1.370  -4.711  0.00  0.00     0.066 H 
ATOM     25  H   LIG d   1       8.813   3.064  -4.253  0.00  0.00     0.066 H 
ENDBRANCH  21  22
ENDBRANCH   1  21
TORSDOF 2
ENDMDL
MODEL 4
REMARK VINA RESULT:      -4.4      2.218      3.230
REMARK  2 active torsions:
REMARK  status: ('A' for Active; 'I' for Inactive)
REMARK    1  A    between atoms: C_1  and  O_2 
REMARK    2  A    between atoms: O_2  and  C_3 
ROOT
ATOM      1  C   LIG d   1       7.061  -2.338  -3.921  0.00  0.00     0.120 A 
ATOM      2  C   LIG d   1       5.977  -3.087  -4.356  0.00  0.00    -0.020 A 
ATOM      3  C   LIG d   1       4.698  -2.597  -4.204  0.00  0.00    -0.054 A 
ATOM      4  C   LIG d   1       4.485  -1.358  -3.615  0.00  0.00    -0.030 A 
ATOM      5  C   LIG d   1       5.560  -0.613  -3.179  0.00  0.00    -0.038 A 
ATOM      6  C   LIG d   1       6.847  -1.104  -3.327  0.00  0.00    -0.016 A 
ATOM      7  C   LIG d   1       5.376   0.732  -2.524  0.00  0.00    -0.015 C 
ATOM      8  C   LIG d   1       3.975   1.268  -2.815  0.00  0.00     0.000 C 
ATOM      9  N   LIG d   1       2.996   0.219  -2.493  0.00  0.00    -0.312 N 
ATOM     10  C   LIG d   1       3.068  -0.865  -3.477  0.00  0.00     0.021 C 
ATOM     11  H   LIG d   1       6.135  -4.053  -4.815  0.00  0.00     0.065 H 
ATOM     12  H   LIG d   1       3.855  -3.180  -4.546  0.00  0.00     0.062 H 
ATOM     13  H   LIG d   1       7.688  -0.521  -2.984  0.00  0.00     0.066 H 
ATOM     14  H   LIG d   1       5.507   0.630  -1.446  0.00  0.00     0.033 H 
ATOM     15  H   LIG d   1       6.119   1.429  -2.912  0.00  0.00     0.033 H 
ATOM     16  H   LIG d   1       3.784   2.149  -2.202  0.00  0.00     0.043 H 
ATOM     17  H   LIG d   1       3.896   1.530  -3.871  0.00  0.00     0.043 H 
ATOM     18  H   LIG d   1       2.718  -0.497  -4.443  0.00  0.00     0.047 H 
ATOM     19  H   LIG d   1       2.430  -1.687  -3.156  0.00  0.00     0.047 H 
ATOM     20  H   LIG d   1       3.138  -0.133  -1.558  0.00  0.00     0.122 HD
ENDROOT
BRANCH   1  21
ATOM     21  O   LIG d   1       8.324  -2.815  -4.069  0.00  0.00    -0.495 OA
BRANCH  21  22
ATOM     22  C   LIG d   1       8.475  -4.231  -4.181  0.00  0.00     0.079 C 
ATOM     23  H   LIG d   1       9.435  -4.459  -4.642  0.00  0.00     0.066 H 
ATOM     24  H   LIG d   1       8.433  -4.680  -3.189  0.00  0.00     0.066 H 
ATOM     25  H   LIG d   1       7.671  -4.634  -4.797  0.00  0.00     0.066 H 
ENDBRANCH  21  22
ENDBRANCH   1  21
TORSDOF 2
ENDMDL
MODEL 5
REMARK VINA RESULT:      -4.3      1.039      2.110
REMARK  2 active torsions:
REMARK  status: ('A' for Active; 'I' for Inactive)
REMARK    1  A    between atoms: C_1  and  O_2 
REMARK    2  A    between atoms: O_2  and  C_3 
ROOT
ATOM      1  C   LIG d   1       7.646   0.154  -4.218  0.00  0.00     0.120 A 
ATOM      2  C   LIG d   1       7.118   1.328  -3.701  0.00  0.00    -0.020 A 
ATOM      3  C   LIG d   1       5.873   1.319  -3.110  0.00  0.00    -0.054 A 
ATOM      4  C   LIG d   1       5.141   0.143  -3.030  0.00  0.00    -0.030 A 
ATOM      5  C   LIG d   1       5.662  -1.025  -3.545  0.00  0.00    -0.038 A 
ATOM      6  C   LIG d   1       6.912  -1.019  -4.143  0.00  0.00    -0.016 A 
ATOM      7  C   LIG d   1       4.899  -2.324  -3.491  0.00  0.00    -0.015 C 
ATOM      8  C   LIG d   1       3.770  -2.223  -2.465  0.00  0.00     0.000 C 
ATOM      9  N   LIG d   1       3.002  -0.997  -2.733  0.00  0.00    -0.312 N 
ATOM     10  C   LIG d   1       3.788   0.185  -2.369  0.00  0.00     0.021 C 
ATOM     11  H   LIG d   1       7.683   2.248  -3.761  0.00  0.00     0.065 H 
ATOM     12  H   LIG d   1       5.464   2.234  -2.706  0.00  0.00     0.062 H 
ATOM     13  H   LIG d   1       7.319  -1.934  -4.548  0.00  0.00     0.066 H 
ATOM     14  H   LIG d   1       4.477  -2.536  -4.473  0.00  0.00     0.033 H 
ATOM     15  H   LIG d   1       5.575  -3.130  -3.208  0.00  0.00     0.033 H 
ATOM     16  H   LIG d   1       3.116  -3.092  -2.553  0.00  0.00     0.043 H 
ATOM     17  H   LIG d   1       4.191  -2.179  -1.460  0.00  0.00     0.043 H 
ATOM     18  H   LIG d   1       3.916   0.212  -1.286  0.00  0.00     0.047 H 
ATOM     19  H   LIG d   1       3.259   1.082  -2.689  0.00  0.00     0.047 H 
ATOM     20  H   LIG d   1       2.713  -0.956  -3.699  0.00  0.00     0.122 HD
ENDROOT
BRANCH   1  21
ATOM     21  O   LIG d   1       8.874   0.155  -4.800  0.00  0.00    -0.495 OA
BRANCH  21  22
ATOM     22  C   LIG d   1       9.687   1.312  -4.598  0.00  0.00     0.079 C 
ATOM     23  H   LIG d   1      10.232   1.539  -5.514  0.00  0.00     0.066 H 
ATOM     24  H   LIG d   1       9.054   2.159  -4.333  0.00  0.00     0.066 H 
ATOM     25  H   LIG d   1      10.396   1.121  -3.791  0.00  0.00     0.066 H 
ENDBRANCH  21  22
ENDBRANCH   1  21
TORSDOF 2
ENDMDL
MODEL 6
REMARK VINA RESULT:      -4.3      2.543      4.068
REMARK  2 active torsions:
REMARK  status: ('A' for Active; 'I' for Inactive)
REMARK    1  A    between atoms: C_1  and  O_2 
REMARK    2  A    between atoms: O_2  and  C_3 
ROOT
ATOM      1  C   LIG d   1       4.822  -0.723  -2.443  0.00  0.00     0.120 A 
ATOM      2  C   LIG d   1       3.998  -1.813  -2.682  0.00  0.00    -0.020 A 
ATOM      3  C   LIG d   1       4.421  -2.822  -3.520  0.00  0.00    -0.054 A 
ATOM      4  C   LIG d   1       5.665  -2.754  -4.131  0.00  0.00    -0.030 A 
ATOM      5  C   LIG d   1       6.485  -1.670  -3.899  0.00  0.00    -0.038 A 
ATOM      6  C   LIG d   1       6.062  -0.653  -3.059  0.00  0.00    -0.016 A 
ATOM      7  C   LIG d   1       7.839  -1.548  -4.549  0.00  0.00    -0.015 C 
ATOM      8  C   LIG d   1       8.285  -2.908  -5.087  0.00  0.00     0.000 C 
ATOM      9  N   LIG d   1       7.193  -3.471  -5.897  0.00  0.00    -0.312 N 
ATOM     10  C   LIG d   1       6.082  -3.886  -5.035  0.00  0.00     0.021 C 
ATOM     11  H   LIG d   1       3.028  -1.872  -2.210  0.00  0.00     0.065 H 
ATOM     12  H   LIG d   1       3.779  -3.672  -3.703  0.00  0.00     0.062 H 
ATOM     13  H   LIG d   1       6.704   0.197  -2.878  0.00  0.00     0.066 H 
ATOM     14  H   LIG d   1       7.782  -0.835  -5.372  0.00  0.00     0.033 H 
ATOM     15  H   LIG d   1       8.563  -1.194  -3.815  0.00  0.00     0.033 H 
ATOM     16  H   LIG d   1       9.174  -2.784  -5.705  0.00  0.00     0.043 H 
ATOM     17  H   LIG d   1       8.505  -3.577  -4.254  0.00  0.00     0.043 H 
ATOM     18  H   LIG d   1       6.396  -4.736  -4.428  0.00  0.00     0.047 H 
ATOM     19  H   LIG d   1       5.236  -4.182  -5.655  0.00  0.00     0.047 H 
ATOM     20  H   LIG d   1       6.883  -2.811  -6.594  0.00  0.00     0.122 HD
ENDROOT
BRANCH   1  21
ATOM     21  O   LIG d   1       4.414   0.274  -1.616  0.00  0.00    -0.495 OA
BRANCH  21  22
ATOM     22  C   LIG d   1       3.755   1.390  -2.220  0.00  0.00     0.079 C 
ATOM     23  H   LIG d   1       3.918   2.280  -1.614  0.00  0.00     0.066 H 
ATOM     24  H   LIG d   1       4.158   1.552  -3.219  0.00  0.00     0.066 H 
ATOM     25  H   LIG d   1       2.686   1.187  -2.287  0.00  0.00     0.066 H 
ENDBRANCH  21  22
ENDBRANCH   1  21
TORSDOF 2
ENDMDL
MODEL 7
REMARK VINA RESULT:      -4.3      3.399      4.517
REMARK  2 active torsions:
REMARK  status: ('A' for Active; 'I' for Inactive)
REMARK    1  A    between atoms: C_1  and  O_2 
REMARK    2  A    between atoms: O_2  and  C_3 
ROOT
ATOM      1  C   LIG d   1       3.472  -0.018  -6.930  0.00  0.00     0.120 A 
ATOM      2  C   LIG d   1       2.484   0.615  -6.189  0.00  0.00    -0.020 A 
ATOM      3  C   LIG d   1       2.403   0.402  -4.830  0.00  0.00    -0.054 A 
ATOM      4  C   LIG d   1       3.302  -0.444  -4.196  0.00  0.00    -0.030 A 
ATOM      5  C   LIG d   1       4.283  -1.077  -4.930  0.00  0.00    -0.038 A 
ATOM      6  C   LIG d   1       4.366  -0.867  -6.297  0.00  0.00    -0.016 A 
ATOM      7  C   LIG d   1       5.273  -2.013  -4.286  0.00  0.00    -0.015 C 
ATOM      8  C   LIG d   1       5.286  -1.800  -2.773  0.00  0.00     0.000 C 
ATOM      9  N   LIG d   1       3.898  -1.841  -2.283  0.00  0.00    -0.312 N 
ATOM     10  C   LIG d   1       3.174  -0.640  -2.707  0.00  0.00     0.021 C 
ATOM     11  H   LIG d   1       1.781   1.275  -6.677  0.00  0.00     0.065 H 
ATOM     12  H   LIG d   1       1.635   0.897  -4.254  0.00  0.00     0.062 H 
ATOM     13  H   LIG d   1       5.133  -1.364  -6.872  0.00  0.00     0.066 H 
ATOM     14  H   LIG d   1       4.991  -3.043  -4.504  0.00  0.00     0.033 H 
ATOM     15  H   LIG d   1       6.268  -1.820  -4.687  0.00  0.00     0.033 H 
ATOM     16  H   LIG d   1       5.866  -2.591  -2.296  0.00  0.00     0.043 H 
ATOM     17  H   LIG d   1       5.726  -0.829  -2.543  0.00  0.00     0.043 H 
ATOM     18  H   LIG d   1       3.586   0.229  -2.192  0.00  0.00     0.047 H 
ATOM     19  H   LIG d   1       2.121  -0.743  -2.447  0.00  0.00     0.047 H 
ATOM     20  H   LIG d   1       3.429  -2.677  -2.599  0.00  0.00     0.122 HD
ENDROOT
BRANCH   1  21
ATOM     21  O   LIG d   1       3.560   0.190  -8.270  0.00  0.00    -0.495 OA
BRANCH  21  22
ATOM     22  C   LIG d   1       2.898   1.344  -8.792  0.00  0.00     0.079 C 
ATOM     23  H   LIG d   1       3.365   2.243  -8.391  0.00  0.00     0.066 H 
ATOM     24  H   LIG d   1       2.979   1.348  -9.879  0.00  0.00     0.066 H 
ATOM     25  H   LIG d   1       1.847   1.321  -8.506  0.00  0.00     0.066 H 
ENDBRANCH  21  22
ENDBRANCH   1  21
TORSDOF 2
ENDMDL
MODEL 8
REMARK VINA RESULT:      -4.1      3.639      4.208
REMARK  2 active torsions:
REMARK  status: ('A' for Active; 'I' for Inactive)
REMARK    1  A    between atoms: C_1  and  O_2 
REMARK    2  A    between atoms: O_2  and  C_3 
ROOT
ATOM      1  C   LIG d   1       3.155  -0.011  -7.145  0.00  0.00     0.120 A 
ATOM      2  C   LIG d   1       4.145  -0.940  -7.432  0.00  0.00    -0.020 A 
ATOM      3  C   LIG d   1       4.790  -1.595  -6.405  0.00  0.00    -0.054 A 
ATOM      4  C   LIG d   1       4.459  -1.331  -5.084  0.00  0.00    -0.030 A 
ATOM      5  C   LIG d   1       3.477  -0.406  -4.795  0.00  0.00    -0.038 A 
ATOM      6  C   LIG d   1       2.829   0.257  -5.825  0.00  0.00    -0.016 A 
ATOM      7  C   LIG d   1       3.092  -0.078  -3.376  0.00  0.00    -0.015 C 
ATOM      8  C   LIG d   1       3.600  -1.167  -2.431  0.00  0.00     0.000 C 
ATOM      9  N   LIG d   1       5.027  -1.399  -2.709  0.00  0.00    -0.312 N 
ATOM     10  C   LIG d   1       5.190  -2.077  -3.998  0.00  0.00     0.021 C 
ATOM     11  H   LIG d   1       4.409  -1.150  -8.459  0.00  0.00     0.065 H 
ATOM     12  H   LIG d   1       5.560  -2.320  -6.630  0.00  0.00     0.062 H 
ATOM     13  H   LIG d   1       2.061   0.982  -5.599  0.00  0.00     0.066 H 
ATOM     14  H   LIG d   1       3.531   0.879  -3.094  0.00  0.00     0.033 H 
ATOM     15  H   LIG d   1       2.006  -0.012  -3.301  0.00  0.00     0.033 H 
ATOM     16  H   LIG d   1       3.476  -0.844  -1.398  0.00  0.00     0.043 H 
ATOM     17  H   LIG d   1       3.041  -2.088  -2.599  0.00  0.00     0.043 H 
ATOM     18  H   LIG d   1       4.791  -3.090  -3.925  0.00  0.00     0.047 H 
ATOM     19  H   LIG d   1       6.249  -2.128  -4.247  0.00  0.00     0.047 H 
ATOM     20  H   LIG d   1       5.544  -0.533  -2.689  0.00  0.00     0.122 HD
ENDROOT
BRANCH   1  21
ATOM     21  O   LIG d   1       2.513   0.636  -8.152  0.00  0.00    -0.495 OA
BRANCH  21  22
ATOM     22  C   LIG d   1       2.967   1.953  -8.470  0.00  0.00     0.079 C 
ATOM     23  H   LIG d   1       3.148   2.507  -7.550  0.00  0.00     0.066 H 
ATOM     24  H   LIG d   1       3.892   1.890  -9.043  0.00  0.00     0.066 H 
ATOM     25  H   LIG d   1       2.208   2.466  -9.060  0.00  0.00     0.066 H 
ENDBRANCH  21  22
ENDBRANCH   1  21
TORSDOF 2
ENDMDL
MODEL 9
REMARK VINA RESULT:      -4.1      7.316      7.776
REMARK  2 active torsions:
REMARK  status: ('A' for Active; 'I' for Inactive)
REMARK    1  A    between atoms: C_1  and  O_2 
REMARK    2  A    between atoms: O_2  and  C_3 
ROOT
ATOM      1  C   LIG d   1       3.129   1.101  -8.221  0.00  0.00     0.120 A 
ATOM      2  C   LIG d   1       4.067   1.785  -8.981  0.00  0.00    -0.020 A 
ATOM      3  C   LIG d   1       4.273   1.432 -10.297  0.00  0.00    -0.054 A 
ATOM      4  C   LIG d   1       3.551   0.393 -10.868  0.00  0.00    -0.030 A 
ATOM      5  C   LIG d   1       2.621  -0.290 -10.115  0.00  0.00    -0.038 A 
ATOM      6  C   LIG d   1       2.412   0.060  -8.791  0.00  0.00    -0.016 A 
ATOM      7  C   LIG d   1       1.821  -1.432 -10.689  0.00  0.00    -0.015 C 
ATOM      8  C   LIG d   1       1.886  -1.399 -12.216  0.00  0.00     0.000 C 
ATOM      9  N   LIG d   1       3.297  -1.287 -12.622  0.00  0.00    -0.312 N 
ATOM     10  C   LIG d   1       3.811   0.050 -12.312  0.00  0.00     0.021 C 
ATOM     11  H   LIG d   1       4.633   2.595  -8.542  0.00  0.00     0.065 H 
ATOM     12  H   LIG d   1       5.002   1.967 -10.888  0.00  0.00     0.062 H 
ATOM     13  H   LIG d   1       1.685  -0.476  -8.200  0.00  0.00     0.066 H 
ATOM     14  H   LIG d   1       2.231  -2.376 -10.330  0.00  0.00     0.033 H 
ATOM     15  H   LIG d   1       0.783  -1.345 -10.369  0.00  0.00     0.033 H 
ATOM     16  H   LIG d   1       1.459  -2.316 -12.621  0.00  0.00     0.043 H 
ATOM     17  H   LIG d   1       1.330  -0.537 -12.588  0.00  0.00     0.043 H 
ATOM     18  H   LIG d   1       3.317   0.782 -12.952  0.00  0.00     0.047 H 
ATOM     19  H   LIG d   1       4.883   0.076 -12.501  0.00  0.00     0.047 H 
ATOM     20  H   LIG d   1       3.857  -2.001 -12.181  0.00  0.00     0.122 HD
ENDROOT
BRANCH   1  21
ATOM     21  O   LIG d   1       2.918   1.446  -6.924  0.00  0.00    -0.495 OA
BRANCH  21  22
ATOM     22  C   LIG d   1       2.819   0.380  -5.977  0.00  0.00     0.079 C 
ATOM     23  H   LIG d   1       3.715   0.360  -5.358  0.00  0.00     0.066 H 
ATOM     24  H   LIG d   1       1.945   0.536  -5.345  0.00  0.00     0.066 H 
ATOM     25  H   LIG d   1       2.721  -0.568  -6.507  0.00  0.00     0.066 H 
ENDBRANCH  21  22
ENDBRANCH   1  21
TORSDOF 2
ENDMDL
MODEL 10
REMARK VINA RESULT:      -4.1      7.871      9.676
REMARK  2 active torsions:
REMARK  status: ('A' for Active; 'I' for Inactive)
REMARK    1  A    between atoms: C_1  and  O_2 
REMARK    2  A    between atoms: O_2  and  C_3 
ROOT
ATOM      1  C   LIG d   1       9.534   9.126  -0.938  0.00  0.00     0.120 A 
ATOM      2  C   LIG d   1      10.401   9.187   0.144  0.00  0.00    -0.020 A 
ATOM      3  C   LIG d   1      11.148   8.081   0.488  0.00  0.00    -0.054 A 
ATOM      4  C   LIG d   1      11.037   6.903  -0.239  0.00  0.00    -0.030 A 
ATOM      5  C   LIG d   1      10.174   6.839  -1.312  0.00  0.00    -0.038 A 
ATOM      6  C   LIG d   1       9.419   7.948  -1.659  0.00  0.00    -0.016 A 
ATOM      7  C   LIG d   1      10.012   5.579  -2.123  0.00  0.00    -0.015 C 
ATOM      8  C   LIG d   1      11.185   4.634  -1.859  0.00  0.00     0.000 C 
ATOM      9  N   LIG d   1      11.349   4.487  -0.404  0.00  0.00    -0.312 N 
ATOM     10  C   LIG d   1      11.879   5.724   0.175  0.00  0.00     0.021 C 
ATOM     11  H   LIG d   1      10.492  10.100   0.714  0.00  0.00     0.065 H 
ATOM     12  H   LIG d   1      11.824   8.130   1.329  0.00  0.00     0.062 H 
ATOM     13  H   LIG d   1       8.742   7.897  -2.499  0.00  0.00     0.066 H 
ATOM     14  H   LIG d   1       9.081   5.086  -1.843  0.00  0.00     0.033 H 
ATOM     15  H   LIG d   1       9.981   5.831  -3.183  0.00  0.00     0.033 H 
ATOM     16  H   LIG d   1      10.979   3.661  -2.306  0.00  0.00     0.043 H 
ATOM     17  H   LIG d   1      12.096   5.052  -2.290  0.00  0.00     0.043 H 
ATOM     18  H   LIG d   1      12.903   5.874  -0.170  0.00  0.00     0.047 H 
ATOM     19  H   LIG d   1      11.876   5.643   1.262  0.00  0.00     0.047 H 
ATOM     20  H   LIG d   1      10.478   4.227   0.033  0.00  0.00     0.122 HD
ENDROOT
BRANCH   1  21
ATOM     21  O   LIG d   1       8.797  10.213  -1.284  0.00  0.00    -0.495 OA
BRANCH  21  22
ATOM     22  C   LIG d   1       9.306  11.034  -2.337  0.00  0.00     0.079 C 
ATOM     23  H   LIG d   1       9.626  11.992  -1.929  0.00  0.00     0.066 H 
ATOM     24  H   LIG d   1      10.156  10.537  -2.806  0.00  0.00     0.066 H 
ATOM     25  H   LIG d   1       8.525  11.198  -3.080  0.00  0.00     0.066 H 
ENDBRANCH  21  22
ENDBRANCH   1  21
TORSDOF 2
ENDMDL
