MODEL 1
REMARK VINA RESULT:      -7.7      0.000      0.000
REMARK  11 active torsions:
REMARK  status: ('A' for Active; 'I' for Inactive)
REMARK    1  A    between atoms: C_1  and  O_2 
REMARK    2  A    between atoms: O_2  and  C_3 
REMARK    3  A    between atoms: C_6  and  C_13 
REMARK    4  A    between atoms: C_7  and  O_11 
REMARK    5  A    between atoms: C_8  and  O_9 
REMARK    6  A    between atoms: O_9  and  C_10 
REMARK    7  A    between atoms: O_11  and  C_12 
REMARK    8  A    between atoms: C_13  and  N_14 
REMARK       I    between atoms: N_17  and  C_20 
REMARK    9  A    between atoms: C_20  and  C_22 
REMARK   10  A    between atoms: C_22  and  C_23 
REMARK   11  A    between atoms: C_23  and  C_24 
ROOT
ATOM      1  N   LIG d   1      10.231   3.045  -4.269  0.00  0.00     0.241 N 
ATOM      2  C   LIG d   1      11.005   2.145  -5.132  0.00  0.00    -0.015 C 
ATOM      3  C   LIG d   1      10.463   0.718  -4.998  0.00  0.00     0.055 C 
ATOM      4  N   LIG d   1       9.020   0.739  -5.282  0.00  0.00    -0.291 N 
ATOM      5  C   LIG d   1       8.190   1.727  -4.576  0.00  0.00     0.055 C 
ATOM      6  C   LIG d   1       8.838   3.106  -4.731  0.00  0.00    -0.015 C 
ATOM      7  C   LIG d   1       8.475  -0.123  -6.163  0.00  0.00     0.216 C 
ATOM      8  O   LIG d   1       9.176  -0.931  -6.734  0.00  0.00    -0.276 OA
ATOM      9  H   LIG d   1      10.917   2.471  -6.169  0.00  0.00     0.083 H 
ATOM     10  H   LIG d   1      12.053   2.166  -4.832  0.00  0.00     0.083 H 
ATOM     11  H   LIG d   1      10.967   0.066  -5.711  0.00  0.00     0.052 H 
ATOM     12  H   LIG d   1      10.632   0.356  -3.984  0.00  0.00     0.052 H 
ATOM     13  H   LIG d   1       7.189   1.741  -5.011  0.00  0.00     0.052 H 
ATOM     14  H   LIG d   1       8.129   1.466  -3.520  0.00  0.00     0.052 H 
ATOM     15  H   LIG d   1       8.289   3.835  -4.135  0.00  0.00     0.083 H 
ATOM     16  H   LIG d   1       8.816   3.402  -5.779  0.00  0.00     0.083 H 
ATOM     17  H   LIG d   1      10.255   2.701  -3.321  0.00  0.00     0.204 HD
ENDROOT
BRANCH   7  18
ATOM     18  C   LIG d   1       6.993  -0.084  -6.437  0.00  0.00     0.026 C 
ATOM     19  H   LIG d   1       6.586   0.867  -6.095  0.00  0.00     0.036 H 
ATOM     20  H   LIG d   1       6.820  -0.189  -7.509  0.00  0.00     0.036 H 
BRANCH  18  21
ATOM     21  C   LIG d   1       6.306  -1.231  -5.694  0.00  0.00    -0.018 C 
ATOM     22  H   LIG d   1       7.026  -2.029  -5.512  0.00  0.00     0.029 H 
ATOM     23  H   LIG d   1       5.920  -0.867  -4.742  0.00  0.00     0.029 H 
BRANCH  21  24
ATOM     24  C   LIG d   1       5.151  -1.768  -6.542  0.00  0.00     0.100 C 
ATOM     25  H   LIG d   1       5.531  -2.097  -7.509  0.00  0.00     0.059 H 
ATOM     26  N   LIG d   1       4.156  -0.714  -6.738  0.00  0.00    -0.300 N 
ATOM     27  C   LIG d   1       3.578  -0.103  -5.703  0.00  0.00     0.246 C 
ATOM     28  H   LIG d   1       3.912  -0.456  -7.641  0.00  0.00     0.150 HD
ATOM     29  C   LIG d   1       3.876  -0.392  -4.295  0.00  0.00     0.058 A 
ATOM     30  O   LIG d   1       2.749   0.753  -5.943  0.00  0.00    -0.270 OA
ATOM     31  C   LIG d   1       4.084  -1.682  -3.809  0.00  0.00     0.046 A 
ATOM     32  C   LIG d   1       3.956   0.698  -3.412  0.00  0.00    -0.048 A 
ATOM     33  N   LIG d   1       4.019  -2.815  -4.600  0.00  0.00    -0.283 N 
ATOM     34  C   LIG d   1       4.374  -1.862  -2.454  0.00  0.00    -0.040 A 
ATOM     35  C   LIG d   1       4.503  -2.926  -5.834  0.00  0.00     0.238 C 
ATOM     36  H   LIG d   1       3.581  -3.594  -4.224  0.00  0.00     0.155 HD
ATOM     37  O   LIG d   1       4.421  -3.994  -6.403  0.00  0.00    -0.273 OA
ATOM     38  C   LIG d   1       4.451  -0.784  -1.601  0.00  0.00    -0.060 A 
ATOM     39  H   LIG d   1       4.538  -2.859  -2.072  0.00  0.00     0.064 H 
ATOM     40  C   LIG d   1       4.241   0.498  -2.082  0.00  0.00    -0.061 A 
ATOM     41  H   LIG d   1       4.676  -0.939  -0.557  0.00  0.00     0.062 H 
ATOM     42  H   LIG d   1       4.300   1.342  -1.410  0.00  0.00     0.062 H 
ATOM     43  H   LIG d   1       3.793   1.700  -3.780  0.00  0.00     0.063 H 
ENDBRANCH  21  24
ENDBRANCH  18  21
ENDBRANCH   7  18
BRANCH   1  44
ATOM     44  C   LIG d   1      10.819   4.390  -4.314  0.00  0.00    -0.002 C 
ATOM     45  H   LIG d   1      10.257   5.008  -5.015  0.00  0.00     0.087 H 
ATOM     46  H   LIG d   1      11.857   4.322  -4.639  0.00  0.00     0.087 H 
BRANCH  44  47
ATOM     47  C   LIG d   1      10.762   5.009  -2.941  0.00  0.00     0.043 A 
ATOM     48  C   LIG d   1      11.575   4.527  -1.932  0.00  0.00    -0.046 A 
ATOM     49  C   LIG d   1      11.527   5.092  -0.671  0.00  0.00    -0.016 A 
ATOM     50  H   LIG d   1      12.249   3.707  -2.129  0.00  0.00     0.062 H 
ATOM     51  C   LIG d   1      10.662   6.145  -0.413  0.00  0.00     0.165 A 
ATOM     52  H   LIG d   1      12.164   4.712   0.114  0.00  0.00     0.066 H 
ATOM     53  C   LIG d   1       9.840   6.629  -1.423  0.00  0.00     0.204 A 
ATOM     54  C   LIG d   1       9.894   6.062  -2.691  0.00  0.00     0.173 A 
BRANCH  51  55
ATOM     55  O   LIG d   1      10.616   6.700   0.827  0.00  0.00    -0.491 OA
BRANCH  55  56
ATOM     56  C   LIG d   1      10.962   5.857   1.928  0.00  0.00     0.079 C 
ATOM     57  H   LIG d   1      11.925   6.165   2.333  0.00  0.00     0.066 H 
ATOM     58  H   LIG d   1      10.200   5.941   2.703  0.00  0.00     0.066 H 
ATOM     59  H   LIG d   1      11.023   4.823   1.588  0.00  0.00     0.066 H 
ENDBRANCH  55  56
ENDBRANCH  51  55
BRANCH  53  60
ATOM     60  O   LIG d   1       8.986   7.658  -1.173  0.00  0.00    -0.488 OA
BRANCH  60  61
ATOM     61  C   LIG d   1       9.532   8.978  -1.211  0.00  0.00     0.079 C 
ATOM     62  H   LIG d   1       8.996   9.612  -0.506  0.00  0.00     0.066 H 
ATOM     63  H   LIG d   1      10.587   8.943  -0.939  0.00  0.00     0.066 H 
ATOM     64  H   LIG d   1       9.429   9.385  -2.217  0.00  0.00     0.066 H 
ENDBRANCH  60  61
ENDBRANCH  53  60
BRANCH  54  65
ATOM     65  O   LIG d   1       9.096   6.536  -3.685  0.00  0.00    -0.491 OA
BRANCH  65  66
ATOM     66  C   LIG d   1       9.669   7.494  -4.575  0.00  0.00     0.079 C 
ATOM     67  H   LIG d   1       8.946   7.748  -5.351  0.00  0.00     0.066 H 
ATOM     68  H   LIG d   1       9.935   8.394  -4.020  0.00  0.00     0.066 H 
ATOM     69  H   LIG d   1      10.562   7.074  -5.036  0.00  0.00     0.066 H 
ENDBRANCH  65  66
ENDBRANCH  54  65
ENDBRANCH  44  47
ENDBRANCH   1  44
TORSDOF 11
ENDMDL
MODEL 2
REMARK VINA RESULT:      -7.3      1.079      1.944
REMARK  11 active torsions:
REMARK  status: ('A' for Active; 'I' for Inactive)
REMARK    1  A    between atoms: C_1  and  O_2 
REMARK    2  A    between atoms: O_2  and  C_3 
REMARK    3  A    between atoms: C_6  and  C_13 
REMARK    4  A    between atoms: C_7  and  O_11 
REMARK    5  A    between atoms: C_8  and  O_9 
REMARK    6  A    between atoms: O_9  and  C_10 
REMARK    7  A    between atoms: O_11  and  C_12 
REMARK    8  A    between atoms: C_13  and  N_14 
REMARK       I    between atoms: N_17  and  C_20 
REMARK    9  A    between atoms: C_20  and  C_22 
REMARK   10  A    between atoms: C_22  and  C_23 
REMARK   11  A    between atoms: C_23  and  C_24 
ROOT
ATOM      1  N   LIG d   1      10.070   2.965  -4.894  0.00  0.00     0.241 N 
ATOM      2  C   LIG d   1      10.801   2.009  -5.734  0.00  0.00    -0.015 C 
ATOM      3  C   LIG d   1      10.316   0.588  -5.429  0.00  0.00     0.055 C 
ATOM      4  N   LIG d   1       8.855   0.548  -5.595  0.00  0.00    -0.291 N 
ATOM      5  C   LIG d   1       8.053   1.576  -4.914  0.00  0.00     0.055 C 
ATOM      6  C   LIG d   1       8.644   2.951  -5.244  0.00  0.00    -0.015 C 
ATOM      7  C   LIG d   1       8.268  -0.403  -6.348  0.00  0.00     0.216 C 
ATOM      8  O   LIG d   1       8.947  -1.243  -6.901  0.00  0.00    -0.276 OA
ATOM      9  H   LIG d   1      10.621   2.237  -6.785  0.00  0.00     0.083 H 
ATOM     10  H   LIG d   1      11.867   2.082  -5.523  0.00  0.00     0.083 H 
ATOM     11  H   LIG d   1      10.782  -0.114  -6.120  0.00  0.00     0.052 H 
ATOM     12  H   LIG d   1      10.575   0.324  -4.404  0.00  0.00     0.052 H 
ATOM     13  H   LIG d   1       7.021   1.527  -5.266  0.00  0.00     0.052 H 
ATOM     14  H   LIG d   1       8.083   1.412  -3.838  0.00  0.00     0.052 H 
ATOM     15  H   LIG d   1       8.121   3.718  -4.672  0.00  0.00     0.083 H 
ATOM     16  H   LIG d   1       8.529   3.150  -6.309  0.00  0.00     0.083 H 
ATOM     17  H   LIG d   1      10.179   2.710  -3.924  0.00  0.00     0.204 HD
ENDROOT
BRANCH   7  18
ATOM     18  C   LIG d   1       6.769  -0.424  -6.503  0.00  0.00     0.026 C 
ATOM     19  H   LIG d   1       6.373   0.577  -6.337  0.00  0.00     0.036 H 
ATOM     20  H   LIG d   1       6.513  -0.755  -7.510  0.00  0.00     0.036 H 
BRANCH  18  21
ATOM     21  C   LIG d   1       6.164  -1.388  -5.481  0.00  0.00    -0.018 C 
ATOM     22  H   LIG d   1       6.927  -2.095  -5.152  0.00  0.00     0.029 H 
ATOM     23  H   LIG d   1       5.797  -0.825  -4.623  0.00  0.00     0.029 H 
BRANCH  21  24
ATOM     24  C   LIG d   1       5.004  -2.151  -6.124  0.00  0.00     0.100 C 
ATOM     25  H   LIG d   1       5.359  -2.676  -7.010  0.00  0.00     0.059 H 
ATOM     26  N   LIG d   1       3.949  -1.212  -6.500  0.00  0.00    -0.300 N 
ATOM     27  C   LIG d   1       3.384  -0.406  -5.600  0.00  0.00     0.246 C 
ATOM     28  H   LIG d   1       3.654  -1.176  -7.424  0.00  0.00     0.150 HD
ATOM     29  C   LIG d   1       3.754  -0.353  -4.181  0.00  0.00     0.058 A 
ATOM     30  O   LIG d   1       2.502   0.339  -5.983  0.00  0.00    -0.270 OA
ATOM     31  C   LIG d   1       4.049  -1.490  -3.428  0.00  0.00     0.046 A 
ATOM     32  C   LIG d   1       3.814   0.911  -3.572  0.00  0.00    -0.048 A 
ATOM     33  N   LIG d   1       4.010  -2.775  -3.940  0.00  0.00    -0.283 N 
ATOM     34  C   LIG d   1       4.404  -1.345  -2.085  0.00  0.00    -0.040 A 
ATOM     35  C   LIG d   1       4.447  -3.144  -5.140  0.00  0.00     0.238 C 
ATOM     36  H   LIG d   1       3.629  -3.465  -3.375  0.00  0.00     0.155 HD
ATOM     37  O   LIG d   1       4.397  -4.315  -5.450  0.00  0.00    -0.273 OA
ATOM     38  C   LIG d   1       4.460  -0.099  -1.502  0.00  0.00    -0.060 A 
ATOM     39  H   LIG d   1       4.636  -2.222  -1.497  0.00  0.00     0.064 H 
ATOM     40  C   LIG d   1       4.164   1.031  -2.247  0.00  0.00    -0.061 A 
ATOM     41  H   LIG d   1       4.737  -0.003  -0.463  0.00  0.00     0.062 H 
ATOM     42  H   LIG d   1       4.208   2.007  -1.787  0.00  0.00     0.062 H 
ATOM     43  H   LIG d   1       3.585   1.795  -4.147  0.00  0.00     0.063 H 
ENDBRANCH  21  24
ENDBRANCH  18  21
ENDBRANCH   7  18
BRANCH   1  44
ATOM     44  C   LIG d   1      10.610   4.314  -5.106  0.00  0.00    -0.002 C 
ATOM     45  H   LIG d   1      10.113   4.774  -5.961  0.00  0.00     0.087 H 
ATOM     46  H   LIG d   1      11.681   4.251  -5.299  0.00  0.00     0.087 H 
BRANCH  44  47
ATOM     47  C   LIG d   1      10.371   5.151  -3.876  0.00  0.00     0.043 A 
ATOM     48  C   LIG d   1       9.494   6.219  -3.927  0.00  0.00    -0.046 A 
ATOM     49  C   LIG d   1       9.270   6.989  -2.801  0.00  0.00    -0.016 A 
ATOM     50  H   LIG d   1       8.982   6.451  -4.849  0.00  0.00     0.062 H 
ATOM     51  C   LIG d   1       9.925   6.694  -1.615  0.00  0.00     0.165 A 
ATOM     52  H   LIG d   1       8.584   7.822  -2.845  0.00  0.00     0.066 H 
ATOM     53  C   LIG d   1      10.812   5.625  -1.562  0.00  0.00     0.204 A 
ATOM     54  C   LIG d   1      11.030   4.849  -2.694  0.00  0.00     0.173 A 
BRANCH  51  55
ATOM     55  O   LIG d   1       9.704   7.452  -0.508  0.00  0.00    -0.491 OA
BRANCH  55  56
ATOM     56  C   LIG d   1       9.442   8.841  -0.716  0.00  0.00     0.079 C 
ATOM     57  H   LIG d   1       9.412   9.353   0.246  0.00  0.00     0.066 H 
ATOM     58  H   LIG d   1      10.231   9.272  -1.331  0.00  0.00     0.066 H 
ATOM     59  H   LIG d   1       8.482   8.958  -1.220  0.00  0.00     0.066 H 
ENDBRANCH  55  56
ENDBRANCH  51  55
BRANCH  53  60
ATOM     60  O   LIG d   1      11.461   5.336  -0.402  0.00  0.00    -0.488 OA
BRANCH  60  61
ATOM     61  C   LIG d   1      12.663   6.060  -0.133  0.00  0.00     0.079 C 
ATOM     62  H   LIG d   1      13.361   5.418   0.403  0.00  0.00     0.066 H 
ATOM     63  H   LIG d   1      13.112   6.381  -1.072  0.00  0.00     0.066 H 
ATOM     64  H   LIG d   1      12.432   6.934   0.477  0.00  0.00     0.066 H 
ENDBRANCH  60  61
ENDBRANCH  53  60
BRANCH  54  65
ATOM     65  O   LIG d   1      11.892   3.799  -2.645  0.00  0.00    -0.491 OA
BRANCH  65  66
ATOM     66  C   LIG d   1      13.215   4.022  -3.135  0.00  0.00     0.079 C 
ATOM     67  H   LIG d   1      13.691   4.809  -2.550  0.00  0.00     0.066 H 
ATOM     68  H   LIG d   1      13.795   3.104  -3.046  0.00  0.00     0.066 H 
ATOM     69  H   LIG d   1      13.169   4.324  -4.180  0.00  0.00     0.066 H 
ENDBRANCH  65  66
ENDBRANCH  54  65
ENDBRANCH  44  47
ENDBRANCH   1  44
TORSDOF 11
ENDMDL
MODEL 3
REMARK VINA RESULT:      -7.0      2.130      3.472
REMARK  11 active torsions:
REMARK  status: ('A' for Active; 'I' for Inactive)
REMARK    1  A    between atoms: C_1  and  O_2 
REMARK    2  A    between atoms: O_2  and  C_3 
REMARK    3  A    between atoms: C_6  and  C_13 
REMARK    4  A    between atoms: C_7  and  O_11 
REMARK    5  A    between atoms: C_8  and  O_9 
REMARK    6  A    between atoms: O_9  and  C_10 
REMARK    7  A    between atoms: O_11  and  C_12 
REMARK    8  A    between atoms: C_13  and  N_14 
REMARK       I    between atoms: N_17  and  C_20 
REMARK    9  A    between atoms: C_20  and  C_22 
REMARK   10  A    between atoms: C_22  and  C_23 
REMARK   11  A    between atoms: C_23  and  C_24 
ROOT
ATOM      1  N   LIG d   1       9.337   3.239  -4.781  0.00  0.00     0.241 N 
ATOM      2  C   LIG d   1       9.072   2.360  -3.635  0.00  0.00    -0.015 C 
ATOM      3  C   LIG d   1       7.678   1.740  -3.781  0.00  0.00     0.055 C 
ATOM      4  N   LIG d   1       7.600   1.072  -5.089  0.00  0.00    -0.291 N 
ATOM      5  C   LIG d   1       8.006   1.833  -6.281  0.00  0.00     0.055 C 
ATOM      6  C   LIG d   1       9.384   2.448  -6.018  0.00  0.00    -0.015 C 
ATOM      7  C   LIG d   1       7.167  -0.201  -5.193  0.00  0.00     0.216 C 
ATOM      8  O   LIG d   1       6.836  -0.811  -4.199  0.00  0.00    -0.276 OA
ATOM      9  H   LIG d   1       9.820   1.568  -3.603  0.00  0.00     0.083 H 
ATOM     10  H   LIG d   1       9.116   2.941  -2.714  0.00  0.00     0.083 H 
ATOM     11  H   LIG d   1       7.517   1.010  -2.988  0.00  0.00     0.052 H 
ATOM     12  H   LIG d   1       6.921   2.522  -3.723  0.00  0.00     0.052 H 
ATOM     13  H   LIG d   1       8.061   1.163  -7.141  0.00  0.00     0.052 H 
ATOM     14  H   LIG d   1       7.282   2.623  -6.475  0.00  0.00     0.052 H 
ATOM     15  H   LIG d   1       9.659   3.094  -6.852  0.00  0.00     0.083 H 
ATOM     16  H   LIG d   1      10.122   1.654  -5.913  0.00  0.00     0.083 H 
ATOM     17  H   LIG d   1       8.603   3.927  -4.851  0.00  0.00     0.204 HD
ENDROOT
BRANCH   7  18
ATOM     18  C   LIG d   1       7.095  -0.865  -6.545  0.00  0.00     0.026 C 
ATOM     19  H   LIG d   1       7.918  -0.514  -7.166  0.00  0.00     0.036 H 
ATOM     20  H   LIG d   1       7.166  -1.946  -6.422  0.00  0.00     0.036 H 
BRANCH  18  21
ATOM     21  C   LIG d   1       5.765  -0.514  -7.214  0.00  0.00    -0.018 C 
ATOM     22  H   LIG d   1       5.610   0.565  -7.172  0.00  0.00     0.029 H 
ATOM     23  H   LIG d   1       5.786  -0.837  -8.255  0.00  0.00     0.029 H 
BRANCH  21  24
ATOM     24  C   LIG d   1       4.624  -1.222  -6.482  0.00  0.00     0.100 C 
ATOM     25  H   LIG d   1       5.027  -1.805  -5.654  0.00  0.00     0.059 H 
ATOM     26  N   LIG d   1       3.922  -2.109  -7.410  0.00  0.00    -0.300 N 
ATOM     27  C   LIG d   1       3.383  -1.646  -8.539  0.00  0.00     0.246 C 
ATOM     28  H   LIG d   1       3.848  -3.053  -7.198  0.00  0.00     0.150 HD
ATOM     29  C   LIG d   1       3.444  -0.247  -8.977  0.00  0.00     0.058 A 
ATOM     30  O   LIG d   1       2.802  -2.439  -9.254  0.00  0.00    -0.270 OA
ATOM     31  C   LIG d   1       3.297   0.832  -8.106  0.00  0.00     0.046 A 
ATOM     32  C   LIG d   1       3.666  -0.003 -10.343  0.00  0.00    -0.048 A 
ATOM     33  N   LIG d   1       3.069   0.690  -6.749  0.00  0.00    -0.283 N 
ATOM     34  C   LIG d   1       3.382   2.132  -8.609  0.00  0.00    -0.040 A 
ATOM     35  C   LIG d   1       3.653  -0.202  -5.954  0.00  0.00     0.238 C 
ATOM     36  H   LIG d   1       2.426   1.292  -6.342  0.00  0.00     0.155 HD
ATOM     37  O   LIG d   1       3.398  -0.190  -4.769  0.00  0.00    -0.273 OA
ATOM     38  C   LIG d   1       3.602   2.355  -9.950  0.00  0.00    -0.060 A 
ATOM     39  H   LIG d   1       3.271   2.972  -7.939  0.00  0.00     0.064 H 
ATOM     40  C   LIG d   1       3.744   1.284 -10.818  0.00  0.00    -0.061 A 
ATOM     41  H   LIG d   1       3.665   3.365 -10.324  0.00  0.00     0.062 H 
ATOM     42  H   LIG d   1       3.916   1.462 -11.870  0.00  0.00     0.062 H 
ATOM     43  H   LIG d   1       3.778  -0.833 -11.024  0.00  0.00     0.063 H 
ENDBRANCH  21  24
ENDBRANCH  18  21
ENDBRANCH   7  18
BRANCH   1  44
ATOM     44  C   LIG d   1      10.625   3.918  -4.587  0.00  0.00    -0.002 C 
ATOM     45  H   LIG d   1      10.783   4.634  -5.394  0.00  0.00     0.087 H 
ATOM     46  H   LIG d   1      11.428   3.181  -4.592  0.00  0.00     0.087 H 
BRANCH  44  47
ATOM     47  C   LIG d   1      10.617   4.643  -3.266  0.00  0.00     0.043 A 
ATOM     48  C   LIG d   1      11.410   4.193  -2.227  0.00  0.00    -0.046 A 
ATOM     49  C   LIG d   1      11.407   4.855  -1.013  0.00  0.00    -0.016 A 
ATOM     50  H   LIG d   1      12.035   3.323  -2.364  0.00  0.00     0.062 H 
ATOM     51  C   LIG d   1      10.606   5.973  -0.833  0.00  0.00     0.165 A 
ATOM     52  H   LIG d   1      12.028   4.501  -0.204  0.00  0.00     0.066 H 
ATOM     53  C   LIG d   1       9.803   6.424  -1.873  0.00  0.00     0.204 A 
ATOM     54  C   LIG d   1       9.813   5.759  -3.094  0.00  0.00     0.173 A 
BRANCH  51  55
ATOM     55  O   LIG d   1      10.604   6.623   0.361  0.00  0.00    -0.491 OA
BRANCH  55  56
ATOM     56  C   LIG d   1      11.044   5.885   1.503  0.00  0.00     0.079 C 
ATOM     57  H   LIG d   1      11.439   6.573   2.250  0.00  0.00     0.066 H 
ATOM     58  H   LIG d   1      10.203   5.334   1.925  0.00  0.00     0.066 H 
ATOM     59  H   LIG d   1      11.824   5.186   1.203  0.00  0.00     0.066 H 
ENDBRANCH  55  56
ENDBRANCH  51  55
BRANCH  53  60
ATOM     60  O   LIG d   1       9.011   7.517  -1.699  0.00  0.00    -0.488 OA
BRANCH  60  61
ATOM     61  C   LIG d   1       9.647   8.795  -1.762  0.00  0.00     0.079 C 
ATOM     62  H   LIG d   1       9.176   9.470  -1.048  0.00  0.00     0.066 H 
ATOM     63  H   LIG d   1      10.704   8.688  -1.518  0.00  0.00     0.066 H 
ATOM     64  H   LIG d   1       9.546   9.202  -2.768  0.00  0.00     0.066 H 
ENDBRANCH  60  61
ENDBRANCH  53  60
BRANCH  54  65
ATOM     65  O   LIG d   1       9.033   6.201  -4.117  0.00  0.00    -0.491 OA
BRANCH  65  66
ATOM     66  C   LIG d   1       9.619   7.139  -5.020  0.00  0.00     0.079 C 
ATOM     67  H   LIG d   1      10.274   6.614  -5.716  0.00  0.00     0.066 H 
ATOM     68  H   LIG d   1       8.832   7.648  -5.577  0.00  0.00     0.066 H 
ATOM     69  H   LIG d   1      10.199   7.871  -4.459  0.00  0.00     0.066 H 
ENDBRANCH  65  66
ENDBRANCH  54  65
ENDBRANCH  44  47
ENDBRANCH   1  44
TORSDOF 11
ENDMDL
MODEL 4
REMARK VINA RESULT:      -7.0      5.301     12.126
REMARK  11 active torsions:
REMARK  status: ('A' for Active; 'I' for Inactive)
REMARK    1  A    between atoms: C_1  and  O_2 
REMARK    2  A    between atoms: O_2  and  C_3 
REMARK    3  A    between atoms: C_6  and  C_13 
REMARK    4  A    between atoms: C_7  and  O_11 
REMARK    5  A    between atoms: C_8  and  O_9 
REMARK    6  A    between atoms: O_9  and  C_10 
REMARK    7  A    between atoms: O_11  and  C_12 
REMARK    8  A    between atoms: C_13  and  N_14 
REMARK       I    between atoms: N_17  and  C_20 
REMARK    9  A    between atoms: C_20  and  C_22 
REMARK   10  A    between atoms: C_22  and  C_23 
REMARK   11  A    between atoms: C_23  and  C_24 
ROOT
ATOM      1  N   LIG d   1       2.330  -2.904 -10.097  0.00  0.00     0.241 N 
ATOM      2  C   LIG d   1       2.002  -1.478 -10.217  0.00  0.00    -0.015 C 
ATOM      3  C   LIG d   1       2.214  -0.791  -8.864  0.00  0.00     0.055 C 
ATOM      4  N   LIG d   1       3.588  -1.063  -8.413  0.00  0.00    -0.291 N 
ATOM      5  C   LIG d   1       4.055  -2.457  -8.417  0.00  0.00     0.055 C 
ATOM      6  C   LIG d   1       3.757  -3.065  -9.791  0.00  0.00    -0.015 C 
ATOM      7  C   LIG d   1       4.395  -0.062  -8.008  0.00  0.00     0.216 C 
ATOM      8  O   LIG d   1       3.991   1.082  -8.011  0.00  0.00    -0.276 OA
ATOM      9  H   LIG d   1       2.650  -1.018 -10.964  0.00  0.00     0.083 H 
ATOM     10  H   LIG d   1       0.962  -1.369 -10.521  0.00  0.00     0.083 H 
ATOM     11  H   LIG d   1       2.070   0.284  -8.972  0.00  0.00     0.052 H 
ATOM     12  H   LIG d   1       1.505  -1.187  -8.137  0.00  0.00     0.052 H 
ATOM     13  H   LIG d   1       5.130  -2.484  -8.230  0.00  0.00     0.052 H 
ATOM     14  H   LIG d   1       3.533  -3.021  -7.645  0.00  0.00     0.052 H 
ATOM     15  H   LIG d   1       4.009  -4.126  -9.782  0.00  0.00     0.083 H 
ATOM     16  H   LIG d   1       4.351  -2.558 -10.550  0.00  0.00     0.083 H 
ATOM     17  H   LIG d   1       1.780  -3.312  -9.356  0.00  0.00     0.204 HD
ENDROOT
BRANCH   7  18
ATOM     18  C   LIG d   1       5.799  -0.364  -7.550  0.00  0.00     0.026 C 
ATOM     19  H   LIG d   1       6.128  -1.307  -7.986  0.00  0.00     0.036 H 
ATOM     20  H   LIG d   1       6.465   0.437  -7.870  0.00  0.00     0.036 H 
BRANCH  18  21
ATOM     21  C   LIG d   1       5.825  -0.471  -6.024  0.00  0.00    -0.018 C 
ATOM     22  H   LIG d   1       6.260   0.436  -5.604  0.00  0.00     0.029 H 
ATOM     23  H   LIG d   1       4.809  -0.593  -5.650  0.00  0.00     0.029 H 
BRANCH  21  24
ATOM     24  C   LIG d   1       6.669  -1.679  -5.613  0.00  0.00     0.100 C 
ATOM     25  H   LIG d   1       7.274  -2.007  -6.458  0.00  0.00     0.059 H 
ATOM     26  N   LIG d   1       5.790  -2.768  -5.187  0.00  0.00    -0.300 N 
ATOM     27  C   LIG d   1       4.908  -2.603  -4.200  0.00  0.00     0.246 C 
ATOM     28  H   LIG d   1       5.852  -3.629  -5.631  0.00  0.00     0.150 HD
ATOM     29  C   LIG d   1       4.707  -1.348  -3.465  0.00  0.00     0.058 A 
ATOM     30  O   LIG d   1       4.221  -3.557  -3.890  0.00  0.00    -0.270 OA
ATOM     31  C   LIG d   1       5.757  -0.517  -3.076  0.00  0.00     0.046 A 
ATOM     32  C   LIG d   1       3.388  -0.983  -3.152  0.00  0.00    -0.048 A 
ATOM     33  N   LIG d   1       7.087  -0.797  -3.334  0.00  0.00    -0.283 N 
ATOM     34  C   LIG d   1       5.473   0.666  -2.389  0.00  0.00    -0.040 A 
ATOM     35  C   LIG d   1       7.567  -1.300  -4.467  0.00  0.00     0.238 C 
ATOM     36  H   LIG d   1       7.725  -0.612  -2.626  0.00  0.00     0.155 HD
ATOM     37  O   LIG d   1       8.765  -1.456  -4.581  0.00  0.00    -0.273 OA
ATOM     38  C   LIG d   1       4.174   1.011  -2.091  0.00  0.00    -0.060 A 
ATOM     39  H   LIG d   1       6.281   1.315  -2.087  0.00  0.00     0.064 H 
ATOM     40  C   LIG d   1       3.129   0.185  -2.473  0.00  0.00    -0.061 A 
ATOM     41  H   LIG d   1       3.969   1.929  -1.560  0.00  0.00     0.062 H 
ATOM     42  H   LIG d   1       2.111   0.458  -2.237  0.00  0.00     0.062 H 
ATOM     43  H   LIG d   1       2.569  -1.622  -3.447  0.00  0.00     0.063 H 
ENDBRANCH  21  24
ENDBRANCH  18  21
ENDBRANCH   7  18
BRANCH   1  44
ATOM     44  C   LIG d   1       2.023  -3.584 -11.363  0.00  0.00    -0.002 C 
ATOM     45  H   LIG d   1       2.793  -4.326 -11.572  0.00  0.00     0.087 H 
ATOM     46  H   LIG d   1       1.993  -2.852 -12.170  0.00  0.00     0.087 H 
BRANCH  44  47
ATOM     47  C   LIG d   1       0.683  -4.266 -11.254  0.00  0.00     0.043 A 
ATOM     48  C   LIG d   1      -0.396  -3.788 -11.974  0.00  0.00    -0.046 A 
ATOM     49  C   LIG d   1      -1.626  -4.411 -11.879  0.00  0.00    -0.016 A 
ATOM     50  H   LIG d   1      -0.277  -2.926 -12.614  0.00  0.00     0.062 H 
ATOM     51  C   LIG d   1      -1.783  -5.518 -11.058  0.00  0.00     0.165 A 
ATOM     52  H   LIG d   1      -2.466  -4.035 -12.444  0.00  0.00     0.066 H 
ATOM     53  C   LIG d   1      -0.703  -5.998 -10.328  0.00  0.00     0.204 A 
ATOM     54  C   LIG d   1       0.535  -5.372 -10.431  0.00  0.00     0.173 A 
BRANCH  51  55
ATOM     55  O   LIG d   1      -2.994  -6.130 -10.965  0.00  0.00    -0.491 OA
BRANCH  55  56
ATOM     56  C   LIG d   1      -4.126  -5.293 -10.721  0.00  0.00     0.079 C 
ATOM     57  H   LIG d   1      -3.990  -4.763  -9.779  0.00  0.00     0.066 H 
ATOM     58  H   LIG d   1      -4.227  -4.573 -11.532  0.00  0.00     0.066 H 
ATOM     59  H   LIG d   1      -5.025  -5.907 -10.666  0.00  0.00     0.066 H 
ENDBRANCH  55  56
ENDBRANCH  51  55
BRANCH  53  60
ATOM     60  O   LIG d   1      -0.854  -7.080  -9.518  0.00  0.00    -0.488 OA
BRANCH  60  61
ATOM     61  C   LIG d   1      -0.847  -8.365 -10.144  0.00  0.00     0.079 C 
ATOM     62  H   LIG d   1       0.071  -8.485 -10.717  0.00  0.00     0.066 H 
ATOM     63  H   LIG d   1      -0.904  -9.141  -9.380  0.00  0.00     0.066 H 
ATOM     64  H   LIG d   1      -1.705  -8.448 -10.811  0.00  0.00     0.066 H 
ENDBRANCH  60  61
ENDBRANCH  53  60
BRANCH  54  65
ATOM     65  O   LIG d   1       1.596  -5.842  -9.724  0.00  0.00    -0.491 OA
BRANCH  65  66
ATOM     66  C   LIG d   1       2.435  -6.799 -10.372  0.00  0.00     0.079 C 
ATOM     67  H   LIG d   1       2.324  -6.708 -11.452  0.00  0.00     0.066 H 
ATOM     68  H   LIG d   1       3.474  -6.617 -10.098  0.00  0.00     0.066 H 
ATOM     69  H   LIG d   1       2.148  -7.803 -10.061  0.00  0.00     0.066 H 
ENDBRANCH  65  66
ENDBRANCH  54  65
ENDBRANCH  44  47
ENDBRANCH   1  44
TORSDOF 11
ENDMDL
MODEL 5
REMARK VINA RESULT:      -7.0      1.463      2.072
REMARK  11 active torsions:
REMARK  status: ('A' for Active; 'I' for Inactive)
REMARK    1  A    between atoms: C_1  and  O_2 
REMARK    2  A    between atoms: O_2  and  C_3 
REMARK    3  A    between atoms: C_6  and  C_13 
REMARK    4  A    between atoms: C_7  and  O_11 
REMARK    5  A    between atoms: C_8  and  O_9 
REMARK    6  A    between atoms: O_9  and  C_10 
REMARK    7  A    between atoms: O_11  and  C_12 
REMARK    8  A    between atoms: C_13  and  N_14 
REMARK       I    between atoms: N_17  and  C_20 
REMARK    9  A    between atoms: C_20  and  C_22 
REMARK   10  A    between atoms: C_22  and  C_23 
REMARK   11  A    between atoms: C_23  and  C_24 
ROOT
ATOM      1  N   LIG d   1      10.129   3.949  -4.242  0.00  0.00     0.241 N 
ATOM      2  C   LIG d   1       9.683   4.142  -5.627  0.00  0.00    -0.015 C 
ATOM      3  C   LIG d   1      10.019   2.893  -6.449  0.00  0.00     0.055 C 
ATOM      4  N   LIG d   1       9.432   1.722  -5.779  0.00  0.00    -0.291 N 
ATOM      5  C   LIG d   1       9.696   1.541  -4.344  0.00  0.00     0.055 C 
ATOM      6  C   LIG d   1       9.374   2.853  -3.621  0.00  0.00    -0.015 C 
ATOM      7  C   LIG d   1       8.675   0.841  -6.462  0.00  0.00     0.216 C 
ATOM      8  O   LIG d   1       8.469   1.007  -7.646  0.00  0.00    -0.276 OA
ATOM      9  H   LIG d   1       8.605   4.308  -5.643  0.00  0.00     0.083 H 
ATOM     10  H   LIG d   1      10.190   5.006  -6.055  0.00  0.00     0.083 H 
ATOM     11  H   LIG d   1       9.600   2.990  -7.450  0.00  0.00     0.052 H 
ATOM     12  H   LIG d   1      11.101   2.775  -6.511  0.00  0.00     0.052 H 
ATOM     13  H   LIG d   1       9.063   0.742  -3.954  0.00  0.00     0.052 H 
ATOM     14  H   LIG d   1      10.744   1.287  -4.193  0.00  0.00     0.052 H 
ATOM     15  H   LIG d   1       9.654   2.767  -2.571  0.00  0.00     0.083 H 
ATOM     16  H   LIG d   1       8.307   3.057  -3.697  0.00  0.00     0.083 H 
ATOM     17  H   LIG d   1      11.112   3.725  -4.236  0.00  0.00     0.204 HD
ENDROOT
BRANCH   7  18
ATOM     18  C   LIG d   1       8.084  -0.353  -5.755  0.00  0.00     0.026 C 
ATOM     19  H   LIG d   1       8.245  -1.247  -6.357  0.00  0.00     0.036 H 
ATOM     20  H   LIG d   1       8.567  -0.475  -4.785  0.00  0.00     0.036 H 
BRANCH  18  21
ATOM     21  C   LIG d   1       6.583  -0.135  -5.554  0.00  0.00    -0.018 C 
ATOM     22  H   LIG d   1       6.340  -0.235  -4.496  0.00  0.00     0.029 H 
ATOM     23  H   LIG d   1       6.312   0.863  -5.896  0.00  0.00     0.029 H 
BRANCH  21  24
ATOM     24  C   LIG d   1       5.806  -1.179  -6.358  0.00  0.00     0.100 C 
ATOM     25  H   LIG d   1       6.363  -1.437  -7.258  0.00  0.00     0.059 H 
ATOM     26  N   LIG d   1       4.499  -0.638  -6.729  0.00  0.00    -0.300 N 
ATOM     27  C   LIG d   1       3.643  -0.195  -5.806  0.00  0.00     0.246 C 
ATOM     28  H   LIG d   1       4.250  -0.602  -7.666  0.00  0.00     0.150 HD
ATOM     29  C   LIG d   1       3.910  -0.181  -4.363  0.00  0.00     0.058 A 
ATOM     30  O   LIG d   1       2.569   0.227  -6.188  0.00  0.00    -0.270 OA
ATOM     31  C   LIG d   1       4.563  -1.218  -3.699  0.00  0.00     0.046 A 
ATOM     32  C   LIG d   1       3.484   0.942  -3.635  0.00  0.00    -0.048 A 
ATOM     33  N   LIG d   1       5.013  -2.365  -4.329  0.00  0.00    -0.283 N 
ATOM     34  C   LIG d   1       4.786  -1.115  -2.323  0.00  0.00    -0.040 A 
ATOM     35  C   LIG d   1       5.604  -2.412  -5.520  0.00  0.00     0.238 C 
ATOM     36  H   LIG d   1       4.884  -3.206  -3.864  0.00  0.00     0.155 HD
ATOM     37  O   LIG d   1       5.993  -3.481  -5.941  0.00  0.00    -0.273 OA
ATOM     38  C   LIG d   1       4.364  -0.007  -1.624  0.00  0.00    -0.060 A 
ATOM     39  H   LIG d   1       5.293  -1.914  -1.803  0.00  0.00     0.064 H 
ATOM     40  C   LIG d   1       3.711   1.023  -2.282  0.00  0.00    -0.061 A 
ATOM     41  H   LIG d   1       4.543   0.060  -0.561  0.00  0.00     0.062 H 
ATOM     42  H   LIG d   1       3.379   1.891  -1.730  0.00  0.00     0.062 H 
ATOM     43  H   LIG d   1       2.975   1.748  -4.142  0.00  0.00     0.063 H 
ENDBRANCH  21  24
ENDBRANCH  18  21
ENDBRANCH   7  18
BRANCH   1  44
ATOM     44  C   LIG d   1       9.906   5.186  -3.481  0.00  0.00    -0.002 C 
ATOM     45  H   LIG d   1       8.986   5.095  -2.902  0.00  0.00     0.087 H 
ATOM     46  H   LIG d   1       9.820   6.026  -4.170  0.00  0.00     0.087 H 
BRANCH  44  47
ATOM     47  C   LIG d   1      11.067   5.418  -2.549  0.00  0.00     0.043 A 
ATOM     48  C   LIG d   1      12.333   4.993  -2.904  0.00  0.00    -0.046 A 
ATOM     49  C   LIG d   1      13.402   5.205  -2.052  0.00  0.00    -0.016 A 
ATOM     50  H   LIG d   1      12.489   4.496  -3.850  0.00  0.00     0.062 H 
ATOM     51  C   LIG d   1      13.206   5.844  -0.837  0.00  0.00     0.165 A 
ATOM     52  H   LIG d   1      14.389   4.871  -2.334  0.00  0.00     0.066 H 
ATOM     53  C   LIG d   1      11.934   6.267  -0.474  0.00  0.00     0.204 A 
ATOM     54  C   LIG d   1      10.863   6.058  -1.335  0.00  0.00     0.173 A 
BRANCH  51  55
ATOM     55  O   LIG d   1      14.258   6.051  -0.000  0.00  0.00    -0.491 OA
BRANCH  55  56
ATOM     56  C   LIG d   1      15.559   5.744  -0.506  0.00  0.00     0.079 C 
ATOM     57  H   LIG d   1      15.885   4.783  -0.110  0.00  0.00     0.066 H 
ATOM     58  H   LIG d   1      15.524   5.696  -1.594  0.00  0.00     0.066 H 
ATOM     59  H   LIG d   1      16.260   6.521  -0.199  0.00  0.00     0.066 H 
ENDBRANCH  55  56
ENDBRANCH  51  55
BRANCH  53  60
ATOM     60  O   LIG d   1      11.737   6.889   0.720  0.00  0.00    -0.488 OA
BRANCH  60  61
ATOM     61  C   LIG d   1      11.136   6.118   1.762  0.00  0.00     0.079 C 
ATOM     62  H   LIG d   1      11.916   5.656   2.367  0.00  0.00     0.066 H 
ATOM     63  H   LIG d   1      10.526   6.767   2.389  0.00  0.00     0.066 H 
ATOM     64  H   LIG d   1      10.509   5.341   1.324  0.00  0.00     0.066 H 
ENDBRANCH  60  61
ENDBRANCH  53  60
BRANCH  54  65
ATOM     65  O   LIG d   1       9.617   6.476  -0.987  0.00  0.00    -0.491 OA
BRANCH  65  66
ATOM     66  C   LIG d   1       9.295   7.842  -1.248  0.00  0.00     0.079 C 
ATOM     67  H   LIG d   1      10.165   8.347  -1.671  0.00  0.00     0.066 H 
ATOM     68  H   LIG d   1       8.468   7.893  -1.957  0.00  0.00     0.066 H 
ATOM     69  H   LIG d   1       9.007   8.333  -0.319  0.00  0.00     0.066 H 
ENDBRANCH  65  66
ENDBRANCH  54  65
ENDBRANCH  44  47
ENDBRANCH   1  44
TORSDOF 11
ENDMDL
MODEL 6
REMARK VINA RESULT:      -6.9      4.899     11.318
REMARK  11 active torsions:
REMARK  status: ('A' for Active; 'I' for Inactive)
REMARK    1  A    between atoms: C_1  and  O_2 
REMARK    2  A    between atoms: O_2  and  C_3 
REMARK    3  A    between atoms: C_6  and  C_13 
REMARK    4  A    between atoms: C_7  and  O_11 
REMARK    5  A    between atoms: C_8  and  O_9 
REMARK    6  A    between atoms: O_9  and  C_10 
REMARK    7  A    between atoms: O_11  and  C_12 
REMARK    8  A    between atoms: C_13  and  N_14 
REMARK       I    between atoms: N_17  and  C_20 
REMARK    9  A    between atoms: C_20  and  C_22 
REMARK   10  A    between atoms: C_22  and  C_23 
REMARK   11  A    between atoms: C_23  and  C_24 
ROOT
ATOM      1  N   LIG d   1       6.082  -6.383  -6.111  0.00  0.00     0.241 N 
ATOM      2  C   LIG d   1       4.818  -5.935  -6.708  0.00  0.00    -0.015 C 
ATOM      3  C   LIG d   1       4.393  -4.610  -6.066  0.00  0.00     0.055 C 
ATOM      4  N   LIG d   1       5.501  -3.651  -6.199  0.00  0.00    -0.291 N 
ATOM      5  C   LIG d   1       6.843  -4.080  -5.773  0.00  0.00     0.055 C 
ATOM      6  C   LIG d   1       7.152  -5.429  -6.430  0.00  0.00    -0.015 C 
ATOM      7  C   LIG d   1       5.293  -2.416  -6.695  0.00  0.00     0.216 C 
ATOM      8  O   LIG d   1       4.180  -2.080  -7.039  0.00  0.00    -0.276 OA
ATOM      9  H   LIG d   1       4.952  -5.792  -7.781  0.00  0.00     0.083 H 
ATOM     10  H   LIG d   1       4.047  -6.685  -6.535  0.00  0.00     0.083 H 
ATOM     11  H   LIG d   1       3.511  -4.222  -6.575  0.00  0.00     0.052 H 
ATOM     12  H   LIG d   1       4.171  -4.768  -5.011  0.00  0.00     0.052 H 
ATOM     13  H   LIG d   1       7.580  -3.341  -6.090  0.00  0.00     0.052 H 
ATOM     14  H   LIG d   1       6.867  -4.185  -4.689  0.00  0.00     0.052 H 
ATOM     15  H   LIG d   1       8.101  -5.808  -6.051  0.00  0.00     0.083 H 
ATOM     16  H   LIG d   1       7.216  -5.302  -7.510  0.00  0.00     0.083 H 
ATOM     17  H   LIG d   1       5.975  -6.446  -5.110  0.00  0.00     0.204 HD
ENDROOT
BRANCH   7  18
ATOM     18  C   LIG d   1       6.444  -1.450  -6.821  0.00  0.00     0.026 C 
ATOM     19  H   LIG d   1       7.362  -1.935  -6.491  0.00  0.00     0.036 H 
ATOM     20  H   LIG d   1       6.547  -1.143  -7.862  0.00  0.00     0.036 H 
BRANCH  18  21
ATOM     21  C   LIG d   1       6.176  -0.221  -5.950  0.00  0.00    -0.018 C 
ATOM     22  H   LIG d   1       5.855   0.609  -6.582  0.00  0.00     0.029 H 
ATOM     23  H   LIG d   1       5.393  -0.451  -5.228  0.00  0.00     0.029 H 
BRANCH  21  24
ATOM     24  C   LIG d   1       7.456   0.167  -5.209  0.00  0.00     0.100 C 
ATOM     25  H   LIG d   1       8.239   0.401  -5.930  0.00  0.00     0.059 H 
ATOM     26  N   LIG d   1       7.887  -0.943  -4.360  0.00  0.00    -0.300 N 
ATOM     27  C   LIG d   1       7.083  -1.456  -3.428  0.00  0.00     0.246 C 
ATOM     28  H   LIG d   1       8.777  -1.312  -4.478  0.00  0.00     0.150 HD
ATOM     29  C   LIG d   1       5.713  -0.998  -3.167  0.00  0.00     0.058 A 
ATOM     30  O   LIG d   1       7.514  -2.369  -2.750  0.00  0.00    -0.270 OA
ATOM     31  C   LIG d   1       5.344   0.347  -3.179  0.00  0.00     0.046 A 
ATOM     32  C   LIG d   1       4.741  -1.976  -2.899  0.00  0.00    -0.048 A 
ATOM     33  N   LIG d   1       6.232   1.379  -3.426  0.00  0.00    -0.283 N 
ATOM     34  C   LIG d   1       4.013   0.692  -2.931  0.00  0.00    -0.040 A 
ATOM     35  C   LIG d   1       7.193   1.370  -4.344  0.00  0.00     0.238 C 
ATOM     36  H   LIG d   1       6.147   2.177  -2.881  0.00  0.00     0.155 HD
ATOM     37  O   LIG d   1       7.876   2.362  -4.490  0.00  0.00    -0.273 OA
ATOM     38  C   LIG d   1       3.072  -0.279  -2.672  0.00  0.00    -0.060 A 
ATOM     39  H   LIG d   1       3.721   1.732  -2.940  0.00  0.00     0.064 H 
ATOM     40  C   LIG d   1       3.437  -1.615  -2.656  0.00  0.00    -0.061 A 
ATOM     41  H   LIG d   1       2.047   0.003  -2.482  0.00  0.00     0.062 H 
ATOM     42  H   LIG d   1       2.696  -2.374  -2.451  0.00  0.00     0.062 H 
ATOM     43  H   LIG d   1       5.019  -3.019  -2.885  0.00  0.00     0.063 H 
ENDBRANCH  21  24
ENDBRANCH  18  21
ENDBRANCH   7  18
BRANCH   1  44
ATOM     44  C   LIG d   1       6.432  -7.706  -6.648  0.00  0.00    -0.002 C 
ATOM     45  H   LIG d   1       7.434  -7.670  -7.075  0.00  0.00     0.087 H 
ATOM     46  H   LIG d   1       5.717  -7.985  -7.421  0.00  0.00     0.087 H 
BRANCH  44  47
ATOM     47  C   LIG d   1       6.394  -8.724  -5.537  0.00  0.00     0.043 A 
ATOM     48  C   LIG d   1       7.425  -8.780  -4.617  0.00  0.00    -0.046 A 
ATOM     49  C   LIG d   1       7.395  -9.712  -3.596  0.00  0.00    -0.016 A 
ATOM     50  H   LIG d   1       8.255  -8.094  -4.696  0.00  0.00     0.062 H 
ATOM     51  C   LIG d   1       6.330 -10.595  -3.492  0.00  0.00     0.165 A 
ATOM     52  H   LIG d   1       8.201  -9.753  -2.879  0.00  0.00     0.066 H 
ATOM     53  C   LIG d   1       5.296 -10.545  -4.418  0.00  0.00     0.204 A 
ATOM     54  C   LIG d   1       5.326  -9.603  -5.440  0.00  0.00     0.173 A 
BRANCH  51  55
ATOM     55  O   LIG d   1       6.301 -11.510  -2.487  0.00  0.00    -0.491 OA
BRANCH  55  56
ATOM     56  C   LIG d   1       6.182 -11.008  -1.154  0.00  0.00     0.079 C 
ATOM     57  H   LIG d   1       6.908 -11.505  -0.512  0.00  0.00     0.066 H 
ATOM     58  H   LIG d   1       6.370  -9.935  -1.153  0.00  0.00     0.066 H 
ATOM     59  H   LIG d   1       5.176 -11.202  -0.783  0.00  0.00     0.066 H 
ENDBRANCH  55  56
ENDBRANCH  51  55
BRANCH  53  60
ATOM     60  O   LIG d   1       4.252 -11.412  -4.322  0.00  0.00    -0.488 OA
BRANCH  60  61
ATOM     61  C   LIG d   1       3.129 -10.994  -3.544  0.00  0.00     0.079 C 
ATOM     62  H   LIG d   1       3.428 -10.890  -2.502  0.00  0.00     0.066 H 
ATOM     63  H   LIG d   1       2.766 -10.036  -3.916  0.00  0.00     0.066 H 
ATOM     64  H   LIG d   1       2.336 -11.737  -3.623  0.00  0.00     0.066 H 
ENDBRANCH  60  61
ENDBRANCH  53  60
BRANCH  54  65
ATOM     65  O   LIG d   1       4.313  -9.546  -6.345  0.00  0.00    -0.491 OA
BRANCH  65  66
ATOM     66  C   LIG d   1       4.441 -10.359  -7.512  0.00  0.00     0.079 C 
ATOM     67  H   LIG d   1       3.877  -9.910  -8.331  0.00  0.00     0.066 H 
ATOM     68  H   LIG d   1       5.492 -10.431  -7.793  0.00  0.00     0.066 H 
ATOM     69  H   LIG d   1       4.050 -11.355  -7.306  0.00  0.00     0.066 H 
ENDBRANCH  65  66
ENDBRANCH  54  65
ENDBRANCH  44  47
ENDBRANCH   1  44
TORSDOF 11
ENDMDL
MODEL 7
REMARK VINA RESULT:      -6.9      1.995      3.128
REMARK  11 active torsions:
REMARK  status: ('A' for Active; 'I' for Inactive)
REMARK    1  A    between atoms: C_1  and  O_2 
REMARK    2  A    between atoms: O_2  and  C_3 
REMARK    3  A    between atoms: C_6  and  C_13 
REMARK    4  A    between atoms: C_7  and  O_11 
REMARK    5  A    between atoms: C_8  and  O_9 
REMARK    6  A    between atoms: O_9  and  C_10 
REMARK    7  A    between atoms: O_11  and  C_12 
REMARK    8  A    between atoms: C_13  and  N_14 
REMARK       I    between atoms: N_17  and  C_20 
REMARK    9  A    between atoms: C_20  and  C_22 
REMARK   10  A    between atoms: C_22  and  C_23 
REMARK   11  A    between atoms: C_23  and  C_24 
ROOT
ATOM      1  N   LIG d   1      10.217   3.142  -6.023  0.00  0.00     0.241 N 
ATOM      2  C   LIG d   1      11.075   1.979  -5.763  0.00  0.00    -0.015 C 
ATOM      3  C   LIG d   1      10.336   0.995  -4.851  0.00  0.00     0.055 C 
ATOM      4  N   LIG d   1       9.042   0.668  -5.469  0.00  0.00    -0.291 N 
ATOM      5  C   LIG d   1       8.186   1.779  -5.911  0.00  0.00     0.055 C 
ATOM      6  C   LIG d   1       9.026   2.726  -6.774  0.00  0.00    -0.015 C 
ATOM      7  C   LIG d   1       8.652  -0.613  -5.625  0.00  0.00     0.216 C 
ATOM      8  O   LIG d   1       9.372  -1.516  -5.254  0.00  0.00    -0.276 OA
ATOM      9  H   LIG d   1      11.319   1.489  -6.706  0.00  0.00     0.083 H 
ATOM     10  H   LIG d   1      11.993   2.307  -5.276  0.00  0.00     0.083 H 
ATOM     11  H   LIG d   1      10.927   0.086  -4.738  0.00  0.00     0.052 H 
ATOM     12  H   LIG d   1      10.171   1.452  -3.876  0.00  0.00     0.052 H 
ATOM     13  H   LIG d   1       7.354   1.388  -6.499  0.00  0.00     0.052 H 
ATOM     14  H   LIG d   1       7.803   2.315  -5.043  0.00  0.00     0.052 H 
ATOM     15  H   LIG d   1       8.433   3.604  -7.031  0.00  0.00     0.083 H 
ATOM     16  H   LIG d   1       9.330   2.213  -7.685  0.00  0.00     0.083 H 
ATOM     17  H   LIG d   1       9.935   3.551  -5.146  0.00  0.00     0.204 HD
ENDROOT
BRANCH   7  18
ATOM     18  C   LIG d   1       7.321  -0.924  -6.261  0.00  0.00     0.026 C 
ATOM     19  H   LIG d   1       6.934  -0.029  -6.748  0.00  0.00     0.036 H 
ATOM     20  H   LIG d   1       7.448  -1.715  -7.000  0.00  0.00     0.036 H 
BRANCH  18  21
ATOM     21  C   LIG d   1       6.337  -1.385  -5.184  0.00  0.00    -0.018 C 
ATOM     22  H   LIG d   1       6.862  -1.994  -4.448  0.00  0.00     0.029 H 
ATOM     23  H   LIG d   1       5.904  -0.514  -4.691  0.00  0.00     0.029 H 
BRANCH  21  24
ATOM     24  C   LIG d   1       5.224  -2.211  -5.831  0.00  0.00     0.100 C 
ATOM     25  H   LIG d   1       5.636  -2.800  -6.651  0.00  0.00     0.059 H 
ATOM     26  N   LIG d   1       4.184  -1.319  -6.342  0.00  0.00    -0.300 N 
ATOM     27  C   LIG d   1       3.560  -0.452  -5.544  0.00  0.00     0.246 C 
ATOM     28  H   LIG d   1       3.944  -1.360  -7.282  0.00  0.00     0.150 HD
ATOM     29  C   LIG d   1       3.845  -0.283  -4.114  0.00  0.00     0.058 A 
ATOM     30  O   LIG d   1       2.696   0.249  -6.036  0.00  0.00    -0.270 OA
ATOM     31  C   LIG d   1       4.105  -1.352  -3.257  0.00  0.00     0.046 A 
ATOM     32  C   LIG d   1       3.858   1.026  -3.605  0.00  0.00    -0.048 A 
ATOM     33  N   LIG d   1       4.107  -2.674  -3.666  0.00  0.00    -0.283 N 
ATOM     34  C   LIG d   1       4.378  -1.097  -1.911  0.00  0.00    -0.040 A 
ATOM     35  C   LIG d   1       4.618  -3.130  -4.806  0.00  0.00     0.238 C 
ATOM     36  H   LIG d   1       3.700  -3.323  -3.072  0.00  0.00     0.155 HD
ATOM     37  O   LIG d   1       4.597  -4.323  -5.024  0.00  0.00    -0.273 OA
ATOM     38  C   LIG d   1       4.389   0.192  -1.427  0.00  0.00    -0.060 A 
ATOM     39  H   LIG d   1       4.582  -1.921  -1.243  0.00  0.00     0.064 H 
ATOM     40  C   LIG d   1       4.128   1.255  -2.276  0.00  0.00    -0.061 A 
ATOM     41  H   LIG d   1       4.603   0.373  -0.385  0.00  0.00     0.062 H 
ATOM     42  H   LIG d   1       4.135   2.265  -1.893  0.00  0.00     0.062 H 
ATOM     43  H   LIG d   1       3.655   1.859  -4.261  0.00  0.00     0.063 H 
ENDBRANCH  21  24
ENDBRANCH  18  21
ENDBRANCH   7  18
BRANCH   1  44
ATOM     44  C   LIG d   1      10.965   4.134  -6.807  0.00  0.00    -0.002 C 
ATOM     45  H   LIG d   1      10.807   3.952  -7.870  0.00  0.00     0.087 H 
ATOM     46  H   LIG d   1      12.027   4.052  -6.578  0.00  0.00     0.087 H 
BRANCH  44  47
ATOM     47  C   LIG d   1      10.481   5.518  -6.457  0.00  0.00     0.043 A 
ATOM     48  C   LIG d   1       9.983   6.346  -7.446  0.00  0.00    -0.046 A 
ATOM     49  C   LIG d   1       9.537   7.616  -7.129  0.00  0.00    -0.016 A 
ATOM     50  H   LIG d   1       9.941   5.999  -8.467  0.00  0.00     0.062 H 
ATOM     51  C   LIG d   1       9.589   8.065  -5.818  0.00  0.00     0.165 A 
ATOM     52  H   LIG d   1       9.148   8.259  -7.905  0.00  0.00     0.066 H 
ATOM     53  C   LIG d   1      10.095   7.238  -4.823  0.00  0.00     0.204 A 
ATOM     54  C   LIG d   1      10.537   5.960  -5.143  0.00  0.00     0.173 A 
BRANCH  51  55
ATOM     55  O   LIG d   1       9.150   9.314  -5.509  0.00  0.00    -0.491 OA
BRANCH  55  56
ATOM     56  C   LIG d   1       9.815  10.410  -6.140  0.00  0.00     0.079 C 
ATOM     57  H   LIG d   1      10.743  10.625  -5.612  0.00  0.00     0.066 H 
ATOM     58  H   LIG d   1      10.038  10.152  -7.175  0.00  0.00     0.066 H 
ATOM     59  H   LIG d   1       9.170  11.289  -6.115  0.00  0.00     0.066 H 
ENDBRANCH  55  56
ENDBRANCH  51  55
BRANCH  53  60
ATOM     60  O   LIG d   1      10.153   7.676  -3.536  0.00  0.00    -0.488 OA
BRANCH  60  61
ATOM     61  C   LIG d   1      11.263   8.505  -3.183  0.00  0.00     0.079 C 
ATOM     62  H   LIG d   1      11.853   8.721  -4.073  0.00  0.00     0.066 H 
ATOM     63  H   LIG d   1      10.898   9.437  -2.752  0.00  0.00     0.066 H 
ATOM     64  H   LIG d   1      11.884   7.986  -2.452  0.00  0.00     0.066 H 
ENDBRANCH  60  61
ENDBRANCH  53  60
BRANCH  54  65
ATOM     65  O   LIG d   1      11.027   5.144  -4.172  0.00  0.00    -0.491 OA
BRANCH  65  66
ATOM     66  C   LIG d   1      12.435   5.190  -3.936  0.00  0.00     0.079 C 
ATOM     67  H   LIG d   1      12.815   6.179  -4.193  0.00  0.00     0.066 H 
ATOM     68  H   LIG d   1      12.634   4.987  -2.884  0.00  0.00     0.066 H 
ATOM     69  H   LIG d   1      12.931   4.440  -4.551  0.00  0.00     0.066 H 
ENDBRANCH  65  66
ENDBRANCH  54  65
ENDBRANCH  44  47
ENDBRANCH   1  44
TORSDOF 11
ENDMDL
MODEL 8
REMARK VINA RESULT:      -6.9      3.406      4.620
REMARK  11 active torsions:
REMARK  status: ('A' for Active; 'I' for Inactive)
REMARK    1  A    between atoms: C_1  and  O_2 
REMARK    2  A    between atoms: O_2  and  C_3 
REMARK    3  A    between atoms: C_6  and  C_13 
REMARK    4  A    between atoms: C_7  and  O_11 
REMARK    5  A    between atoms: C_8  and  O_9 
REMARK    6  A    between atoms: O_9  and  C_10 
REMARK    7  A    between atoms: O_11  and  C_12 
REMARK    8  A    between atoms: C_13  and  N_14 
REMARK       I    between atoms: N_17  and  C_20 
REMARK    9  A    between atoms: C_20  and  C_22 
REMARK   10  A    between atoms: C_22  and  C_23 
REMARK   11  A    between atoms: C_23  and  C_24 
ROOT
ATOM      1  N   LIG d   1       9.502   3.779  -6.794  0.00  0.00     0.241 N 
ATOM      2  C   LIG d   1       9.680   3.382  -5.392  0.00  0.00    -0.015 C 
ATOM      3  C   LIG d   1       8.399   2.710  -4.886  0.00  0.00     0.055 C 
ATOM      4  N   LIG d   1       8.064   1.601  -5.793  0.00  0.00    -0.291 N 
ATOM      5  C   LIG d   1       8.025   1.877  -7.238  0.00  0.00     0.055 C 
ATOM      6  C   LIG d   1       9.324   2.587  -7.632  0.00  0.00    -0.015 C 
ATOM      7  C   LIG d   1       7.801   0.370  -5.315  0.00  0.00     0.216 C 
ATOM      8  O   LIG d   1       7.838   0.163  -4.120  0.00  0.00    -0.276 OA
ATOM      9  H   LIG d   1      10.512   2.682  -5.314  0.00  0.00     0.083 H 
ATOM     10  H   LIG d   1       9.889   4.264  -4.788  0.00  0.00     0.083 H 
ATOM     11  H   LIG d   1       8.560   2.324  -3.880  0.00  0.00     0.052 H 
ATOM     12  H   LIG d   1       7.584   3.434  -4.877  0.00  0.00     0.052 H 
ATOM     13  H   LIG d   1       7.939   0.938  -7.786  0.00  0.00     0.052 H 
ATOM     14  H   LIG d   1       7.173   2.516  -7.466  0.00  0.00     0.052 H 
ATOM     15  H   LIG d   1       9.271   2.884  -8.680  0.00  0.00     0.083 H 
ATOM     16  H   LIG d   1      10.166   1.911  -7.488  0.00  0.00     0.083 H 
ATOM     17  H   LIG d   1       8.688   4.370  -6.873  0.00  0.00     0.204 HD
ENDROOT
BRANCH   7  18
ATOM     18  C   LIG d   1       7.460  -0.751  -6.263  0.00  0.00     0.026 C 
ATOM     19  H   LIG d   1       6.957  -0.344  -7.140  0.00  0.00     0.036 H 
ATOM     20  H   LIG d   1       8.376  -1.257  -6.571  0.00  0.00     0.036 H 
BRANCH  18  21
ATOM     21  C   LIG d   1       6.536  -1.749  -5.563  0.00  0.00    -0.018 C 
ATOM     22  H   LIG d   1       7.108  -2.631  -5.272  0.00  0.00     0.029 H 
ATOM     23  H   LIG d   1       6.107  -1.286  -4.675  0.00  0.00     0.029 H 
BRANCH  21  24
ATOM     24  C   LIG d   1       5.413  -2.160  -6.517  0.00  0.00     0.100 C 
ATOM     25  H   LIG d   1       5.842  -2.550  -7.440  0.00  0.00     0.059 H 
ATOM     26  N   LIG d   1       4.576  -0.999  -6.817  0.00  0.00    -0.300 N 
ATOM     27  C   LIG d   1       3.978  -0.305  -5.848  0.00  0.00     0.246 C 
ATOM     28  H   LIG d   1       4.453  -0.730  -7.742  0.00  0.00     0.150 HD
ATOM     29  C   LIG d   1       4.100  -0.601  -4.415  0.00  0.00     0.058 A 
ATOM     30  O   LIG d   1       3.285   0.639  -6.174  0.00  0.00    -0.270 OA
ATOM     31  C   LIG d   1       4.103  -1.898  -3.903  0.00  0.00     0.046 A 
ATOM     32  C   LIG d   1       4.224   0.487  -3.536  0.00  0.00    -0.048 A 
ATOM     33  N   LIG d   1       3.980  -3.029  -4.690  0.00  0.00    -0.283 N 
ATOM     34  C   LIG d   1       4.236  -2.087  -2.525  0.00  0.00    -0.040 A 
ATOM     35  C   LIG d   1       4.564  -3.220  -5.869  0.00  0.00     0.238 C 
ATOM     36  H   LIG d   1       3.417  -3.744  -4.354  0.00  0.00     0.155 HD
ATOM     37  O   LIG d   1       4.410  -4.280  -6.438  0.00  0.00    -0.273 OA
ATOM     38  C   LIG d   1       4.359  -1.011  -1.676  0.00  0.00    -0.060 A 
ATOM     39  H   LIG d   1       4.241  -3.090  -2.123  0.00  0.00     0.064 H 
ATOM     40  C   LIG d   1       4.352   0.279  -2.183  0.00  0.00    -0.061 A 
ATOM     41  H   LIG d   1       4.461  -1.172  -0.614  0.00  0.00     0.062 H 
ATOM     42  H   LIG d   1       4.447   1.122  -1.514  0.00  0.00     0.062 H 
ATOM     43  H   LIG d   1       4.220   1.494  -3.924  0.00  0.00     0.063 H 
ENDBRANCH  21  24
ENDBRANCH  18  21
ENDBRANCH   7  18
BRANCH   1  44
ATOM     44  C   LIG d   1      10.688   4.520  -7.245  0.00  0.00    -0.002 C 
ATOM     45  H   LIG d   1      11.043   4.098  -8.185  0.00  0.00     0.087 H 
ATOM     46  H   LIG d   1      11.472   4.443  -6.492  0.00  0.00     0.087 H 
BRANCH  44  47
ATOM     47  C   LIG d   1      10.327   5.969  -7.448  0.00  0.00     0.043 A 
ATOM     48  C   LIG d   1       9.973   6.751  -6.365  0.00  0.00    -0.046 A 
ATOM     49  C   LIG d   1       9.642   8.081  -6.546  0.00  0.00    -0.016 A 
ATOM     50  H   LIG d   1       9.956   6.322  -5.374  0.00  0.00     0.062 H 
ATOM     51  C   LIG d   1       9.664   8.636  -7.817  0.00  0.00     0.165 A 
ATOM     52  H   LIG d   1       9.367   8.689  -5.697  0.00  0.00     0.066 H 
ATOM     53  C   LIG d   1      10.013   7.851  -8.909  0.00  0.00     0.204 A 
ATOM     54  C   LIG d   1      10.351   6.516  -8.723  0.00  0.00     0.173 A 
BRANCH  51  55
ATOM     55  O   LIG d   1       9.338   9.944  -7.994  0.00  0.00    -0.491 OA
BRANCH  55  56
ATOM     56  C   LIG d   1      10.147  10.911  -7.321  0.00  0.00     0.079 C 
ATOM     57  H   LIG d   1       9.753  11.081  -6.320  0.00  0.00     0.066 H 
ATOM     58  H   LIG d   1      11.170  10.542  -7.250  0.00  0.00     0.066 H 
ATOM     59  H   LIG d   1      10.136  11.846  -7.880  0.00  0.00     0.066 H 
ENDBRANCH  55  56
ENDBRANCH  51  55
BRANCH  53  60
ATOM     60  O   LIG d   1      10.030   8.390 -10.158  0.00  0.00    -0.488 OA
BRANCH  60  61
ATOM     61  C   LIG d   1      11.269   8.938 -10.612  0.00  0.00     0.079 C 
ATOM     62  H   LIG d   1      11.330   9.986 -10.321  0.00  0.00     0.066 H 
ATOM     63  H   LIG d   1      12.096   8.387 -10.165  0.00  0.00     0.066 H 
ATOM     64  H   LIG d   1      11.325   8.860 -11.698  0.00  0.00     0.066 H 
ENDBRANCH  60  61
ENDBRANCH  53  60
BRANCH  54  65
ATOM     65  O   LIG d   1      10.699   5.746  -9.787  0.00  0.00    -0.491 OA
BRANCH  65  66
ATOM     66  C   LIG d   1       9.639   5.109 -10.502  0.00  0.00     0.079 C 
ATOM     67  H   LIG d   1       8.846   4.833  -9.806  0.00  0.00     0.066 H 
ATOM     68  H   LIG d   1       9.242   5.795 -11.251  0.00  0.00     0.066 H 
ATOM     69  H   LIG d   1      10.018   4.214 -10.994  0.00  0.00     0.066 H 
ENDBRANCH  65  66
ENDBRANCH  54  65
ENDBRANCH  44  47
ENDBRANCH   1  44
TORSDOF 11
ENDMDL
MODEL 9
REMARK VINA RESULT:      -6.8      1.729      2.616
REMARK  11 active torsions:
REMARK  status: ('A' for Active; 'I' for Inactive)
REMARK    1  A    between atoms: C_1  and  O_2 
REMARK    2  A    between atoms: O_2  and  C_3 
REMARK    3  A    between atoms: C_6  and  C_13 
REMARK    4  A    between atoms: C_7  and  O_11 
REMARK    5  A    between atoms: C_8  and  O_9 
REMARK    6  A    between atoms: O_9  and  C_10 
REMARK    7  A    between atoms: O_11  and  C_12 
REMARK    8  A    between atoms: C_13  and  N_14 
REMARK       I    between atoms: N_17  and  C_20 
REMARK    9  A    between atoms: C_20  and  C_22 
REMARK   10  A    between atoms: C_22  and  C_23 
REMARK   11  A    between atoms: C_23  and  C_24 
ROOT
ATOM      1  N   LIG d   1      10.289   2.449  -4.397  0.00  0.00     0.241 N 
ATOM      2  C   LIG d   1       9.049   3.119  -4.805  0.00  0.00    -0.015 C 
ATOM      3  C   LIG d   1       8.619   2.602  -6.182  0.00  0.00     0.055 C 
ATOM      4  N   LIG d   1       8.524   1.135  -6.121  0.00  0.00    -0.291 N 
ATOM      5  C   LIG d   1       9.667   0.390  -5.569  0.00  0.00     0.055 C 
ATOM      6  C   LIG d   1      10.046   1.011  -4.221  0.00  0.00    -0.015 C 
ATOM      7  C   LIG d   1       7.423   0.493  -6.557  0.00  0.00     0.216 C 
ATOM      8  O   LIG d   1       6.492   1.125  -7.010  0.00  0.00    -0.276 OA
ATOM      9  H   LIG d   1       8.265   2.909  -4.077  0.00  0.00     0.083 H 
ATOM     10  H   LIG d   1       9.217   4.195  -4.858  0.00  0.00     0.083 H 
ATOM     11  H   LIG d   1       7.648   3.021  -6.444  0.00  0.00     0.052 H 
ATOM     12  H   LIG d   1       9.359   2.890  -6.929  0.00  0.00     0.052 H 
ATOM     13  H   LIG d   1       9.387  -0.654  -5.425  0.00  0.00     0.052 H 
ATOM     14  H   LIG d   1      10.511   0.455  -6.253  0.00  0.00     0.052 H 
ATOM     15  H   LIG d   1      10.950   0.533  -3.842  0.00  0.00     0.083 H 
ATOM     16  H   LIG d   1       9.233   0.865  -3.511  0.00  0.00     0.083 H 
ATOM     17  H   LIG d   1      10.992   2.585  -5.107  0.00  0.00     0.204 HD
ENDROOT
BRANCH   7  18
ATOM     18  C   LIG d   1       7.349  -1.011  -6.485  0.00  0.00     0.026 C 
ATOM     19  H   LIG d   1       7.095  -1.409  -7.467  0.00  0.00     0.036 H 
ATOM     20  H   LIG d   1       8.315  -1.407  -6.170  0.00  0.00     0.036 H 
BRANCH  18  21
ATOM     21  C   LIG d   1       6.275  -1.420  -5.475  0.00  0.00    -0.018 C 
ATOM     22  H   LIG d   1       6.693  -2.145  -4.775  0.00  0.00     0.029 H 
ATOM     23  H   LIG d   1       5.936  -0.541  -4.929  0.00  0.00     0.029 H 
BRANCH  21  24
ATOM     24  C   LIG d   1       5.093  -2.049  -6.215  0.00  0.00     0.100 C 
ATOM     25  H   LIG d   1       5.448  -2.538  -7.122  0.00  0.00     0.059 H 
ATOM     26  N   LIG d   1       4.126  -1.009  -6.566  0.00  0.00    -0.300 N 
ATOM     27  C   LIG d   1       3.581  -0.225  -5.635  0.00  0.00     0.246 C 
ATOM     28  H   LIG d   1       3.876  -0.890  -7.496  0.00  0.00     0.150 HD
ATOM     29  C   LIG d   1       3.892  -0.297  -4.201  0.00  0.00     0.058 A 
ATOM     30  O   LIG d   1       2.774   0.608  -5.998  0.00  0.00    -0.270 OA
ATOM     31  C   LIG d   1       4.070  -1.500  -3.520  0.00  0.00     0.046 A 
ATOM     32  C   LIG d   1       4.016   0.916  -3.503  0.00  0.00    -0.048 A 
ATOM     33  N   LIG d   1       3.960  -2.741  -4.121  0.00  0.00    -0.283 N 
ATOM     34  C   LIG d   1       4.375  -1.473  -2.156  0.00  0.00    -0.040 A 
ATOM     35  C   LIG d   1       4.422  -3.060  -5.327  0.00  0.00     0.238 C 
ATOM     36  H   LIG d   1       3.506  -3.438  -3.622  0.00  0.00     0.155 HD
ATOM     37  O   LIG d   1       4.301  -4.202  -5.719  0.00  0.00    -0.273 OA
ATOM     38  C   LIG d   1       4.495  -0.277  -1.486  0.00  0.00    -0.060 A 
ATOM     39  H   LIG d   1       4.516  -2.402  -1.623  0.00  0.00     0.064 H 
ATOM     40  C   LIG d   1       4.315   0.920  -2.161  0.00  0.00    -0.061 A 
ATOM     41  H   LIG d   1       4.732  -0.272  -0.433  0.00  0.00     0.062 H 
ATOM     42  H   LIG d   1       4.409   1.857  -1.632  0.00  0.00     0.062 H 
ATOM     43  H   LIG d   1       3.877   1.851  -4.023  0.00  0.00     0.063 H 
ENDBRANCH  21  24
ENDBRANCH  18  21
ENDBRANCH   7  18
BRANCH   1  44
ATOM     44  C   LIG d   1      10.760   3.023  -3.129  0.00  0.00    -0.002 C 
ATOM     45  H   LIG d   1      11.767   2.663  -2.920  0.00  0.00     0.087 H 
ATOM     46  H   LIG d   1      10.091   2.721  -2.323  0.00  0.00     0.087 H 
BRANCH  44  47
ATOM     47  C   LIG d   1      10.774   4.526  -3.233  0.00  0.00     0.043 A 
ATOM     48  C   LIG d   1       9.970   5.283  -2.402  0.00  0.00    -0.046 A 
ATOM     49  C   LIG d   1       9.980   6.663  -2.493  0.00  0.00    -0.016 A 
ATOM     50  H   LIG d   1       9.333   4.796  -1.678  0.00  0.00     0.062 H 
ATOM     51  C   LIG d   1      10.796   7.292  -3.420  0.00  0.00     0.165 A 
ATOM     52  H   LIG d   1       9.350   7.251  -1.841  0.00  0.00     0.066 H 
ATOM     53  C   LIG d   1      11.601   6.535  -4.261  0.00  0.00     0.204 A 
ATOM     54  C   LIG d   1      11.593   5.148  -4.163  0.00  0.00     0.173 A 
BRANCH  51  55
ATOM     55  O   LIG d   1      10.805   8.649  -3.508  0.00  0.00    -0.491 OA
BRANCH  55  56
ATOM     56  C   LIG d   1      11.372   9.367  -2.410  0.00  0.00     0.079 C 
ATOM     57  H   LIG d   1      11.397   8.726  -1.530  0.00  0.00     0.066 H 
ATOM     58  H   LIG d   1      12.387   9.675  -2.663  0.00  0.00     0.066 H 
ATOM     59  H   LIG d   1      10.766  10.249  -2.201  0.00  0.00     0.066 H 
ENDBRANCH  55  56
ENDBRANCH  51  55
BRANCH  53  60
ATOM     60  O   LIG d   1      12.400   7.148  -5.176  0.00  0.00    -0.488 OA
BRANCH  60  61
ATOM     61  C   LIG d   1      11.830   7.414  -6.460  0.00  0.00     0.079 C 
ATOM     62  H   LIG d   1      12.441   8.149  -6.983  0.00  0.00     0.066 H 
ATOM     63  H   LIG d   1      11.794   6.492  -7.039  0.00  0.00     0.066 H 
ATOM     64  H   LIG d   1      10.820   7.804  -6.335  0.00  0.00     0.066 H 
ENDBRANCH  60  61
ENDBRANCH  53  60
BRANCH  54  65
ATOM     65  O   LIG d   1      12.384   4.402  -4.980  0.00  0.00    -0.491 OA
BRANCH  65  66
ATOM     66  C   LIG d   1      13.749   4.244  -4.593  0.00  0.00     0.079 C 
ATOM     67  H   LIG d   1      13.967   4.902  -3.751  0.00  0.00     0.066 H 
ATOM     68  H   LIG d   1      13.927   3.209  -4.299  0.00  0.00     0.066 H 
ATOM     69  H   LIG d   1      14.397   4.501  -5.431  0.00  0.00     0.066 H 
ENDBRANCH  65  66
ENDBRANCH  54  65
ENDBRANCH  44  47
ENDBRANCH   1  44
TORSDOF 11
ENDMDL
MODEL 10
REMARK VINA RESULT:      -6.7      5.351     10.913
REMARK  11 active torsions:
REMARK  status: ('A' for Active; 'I' for Inactive)
REMARK    1  A    between atoms: C_1  and  O_2 
REMARK    2  A    between atoms: O_2  and  C_3 
REMARK    3  A    between atoms: C_6  and  C_13 
REMARK    4  A    between atoms: C_7  and  O_11 
REMARK    5  A    between atoms: C_8  and  O_9 
REMARK    6  A    between atoms: O_9  and  C_10 
REMARK    7  A    between atoms: O_11  and  C_12 
REMARK    8  A    between atoms: C_13  and  N_14 
REMARK       I    between atoms: N_17  and  C_20 
REMARK    9  A    between atoms: C_20  and  C_22 
REMARK   10  A    between atoms: C_22  and  C_23 
REMARK   11  A    between atoms: C_23  and  C_24 
ROOT
ATOM      1  N   LIG d   1       6.241  -6.881  -5.221  0.00  0.00     0.241 N 
ATOM      2  C   LIG d   1       5.046  -6.658  -6.044  0.00  0.00    -0.015 C 
ATOM      3  C   LIG d   1       4.485  -5.261  -5.759  0.00  0.00     0.055 C 
ATOM      4  N   LIG d   1       5.558  -4.276  -5.968  0.00  0.00    -0.291 N 
ATOM      5  C   LIG d   1       6.851  -4.511  -5.307  0.00  0.00     0.055 C 
ATOM      6  C   LIG d   1       7.300  -5.943  -5.613  0.00  0.00    -0.015 C 
ATOM      7  C   LIG d   1       5.362  -3.190  -6.742  0.00  0.00     0.216 C 
ATOM      8  O   LIG d   1       4.288  -3.014  -7.278  0.00  0.00    -0.276 OA
ATOM      9  H   LIG d   1       5.311  -6.735  -7.099  0.00  0.00     0.083 H 
ATOM     10  H   LIG d   1       4.293  -7.407  -5.802  0.00  0.00     0.083 H 
ATOM     11  H   LIG d   1       3.660  -5.051  -6.440  0.00  0.00     0.052 H 
ATOM     12  H   LIG d   1       4.136  -5.209  -4.728  0.00  0.00     0.052 H 
ATOM     13  H   LIG d   1       7.590  -3.805  -5.688  0.00  0.00     0.052 H 
ATOM     14  H   LIG d   1       6.741  -4.383  -4.230  0.00  0.00     0.052 H 
ATOM     15  H   LIG d   1       8.209  -6.166  -5.054  0.00  0.00     0.083 H 
ATOM     16  H   LIG d   1       7.497  -6.041  -6.680  0.00  0.00     0.083 H 
ATOM     17  H   LIG d   1       6.009  -6.738  -4.250  0.00  0.00     0.204 HD
ENDROOT
BRANCH   7  18
ATOM     18  C   LIG d   1       6.476  -2.194  -6.940  0.00  0.00     0.026 C 
ATOM     19  H   LIG d   1       7.410  -2.618  -6.573  0.00  0.00     0.036 H 
ATOM     20  H   LIG d   1       6.573  -1.966  -8.002  0.00  0.00     0.036 H 
BRANCH  18  21
ATOM     21  C   LIG d   1       6.158  -0.912  -6.169  0.00  0.00    -0.018 C 
ATOM     22  H   LIG d   1       5.748  -0.169  -6.853  0.00  0.00     0.029 H 
ATOM     23  H   LIG d   1       5.428  -1.129  -5.389  0.00  0.00     0.029 H 
BRANCH  21  24
ATOM     24  C   LIG d   1       7.439  -0.370  -5.533  0.00  0.00     0.100 C 
ATOM     25  H   LIG d   1       8.210  -0.266  -6.295  0.00  0.00     0.059 H 
ATOM     26  N   LIG d   1       7.898  -1.290  -4.493  0.00  0.00    -0.300 N 
ATOM     27  C   LIG d   1       7.112  -1.628  -3.469  0.00  0.00     0.246 C 
ATOM     28  H   LIG d   1       8.793  -1.661  -4.550  0.00  0.00     0.150 HD
ATOM     29  C   LIG d   1       5.737  -1.150  -3.282  0.00  0.00     0.058 A 
ATOM     30  O   LIG d   1       7.567  -2.387  -2.635  0.00  0.00    -0.270 OA
ATOM     31  C   LIG d   1       5.344   0.162  -3.546  0.00  0.00     0.046 A 
ATOM     32  C   LIG d   1       4.786  -2.074  -2.819  0.00  0.00    -0.048 A 
ATOM     33  N   LIG d   1       6.211   1.141  -3.997  0.00  0.00    -0.283 N 
ATOM     34  C   LIG d   1       4.010   0.527  -3.350  0.00  0.00    -0.040 A 
ATOM     35  C   LIG d   1       7.163   0.972  -4.910  0.00  0.00     0.238 C 
ATOM     36  H   LIG d   1       6.117   2.027  -3.614  0.00  0.00     0.155 HD
ATOM     37  O   LIG d   1       7.826   1.928  -5.252  0.00  0.00    -0.273 OA
ATOM     38  C   LIG d   1       3.089  -0.390  -2.898  0.00  0.00    -0.060 A 
ATOM     39  H   LIG d   1       3.699   1.541  -3.555  0.00  0.00     0.064 H 
ATOM     40  C   LIG d   1       3.478  -1.693  -2.632  0.00  0.00    -0.061 A 
ATOM     41  H   LIG d   1       2.061  -0.094  -2.752  0.00  0.00     0.062 H 
ATOM     42  H   LIG d   1       2.753  -2.411  -2.275  0.00  0.00     0.062 H 
ATOM     43  H   LIG d   1       5.083  -3.090  -2.610  0.00  0.00     0.063 H 
ENDBRANCH  21  24
ENDBRANCH  18  21
ENDBRANCH   7  18
BRANCH   1  44
ATOM     44  C   LIG d   1       6.714  -8.258  -5.412  0.00  0.00    -0.002 C 
ATOM     45  H   LIG d   1       7.755  -8.243  -5.737  0.00  0.00     0.087 H 
ATOM     46  H   LIG d   1       6.104  -8.750  -6.170  0.00  0.00     0.087 H 
BRANCH  44  47
ATOM     47  C   LIG d   1       6.604  -9.012  -4.112  0.00  0.00     0.043 A 
ATOM     48  C   LIG d   1       5.440  -9.691  -3.803  0.00  0.00    -0.046 A 
ATOM     49  C   LIG d   1       5.334 -10.384  -2.612  0.00  0.00    -0.016 A 
ATOM     50  H   LIG d   1       4.611  -9.680  -4.495  0.00  0.00     0.062 H 
ATOM     51  C   LIG d   1       6.397 -10.401  -1.721  0.00  0.00     0.165 A 
ATOM     52  H   LIG d   1       4.423 -10.913  -2.375  0.00  0.00     0.066 H 
ATOM     53  C   LIG d   1       7.566  -9.716  -2.025  0.00  0.00     0.204 A 
ATOM     54  C   LIG d   1       7.671  -9.024  -3.226  0.00  0.00     0.173 A 
BRANCH  51  55
ATOM     55  O   LIG d   1       6.292 -11.084  -0.550  0.00  0.00    -0.491 OA
BRANCH  55  56
ATOM     56  C   LIG d   1       6.409 -12.507  -0.615  0.00  0.00     0.079 C 
ATOM     57  H   LIG d   1       7.457 -12.790  -0.524  0.00  0.00     0.066 H 
ATOM     58  H   LIG d   1       5.839 -12.956   0.198  0.00  0.00     0.066 H 
ATOM     59  H   LIG d   1       6.019 -12.859  -1.570  0.00  0.00     0.066 H 
ENDBRANCH  55  56
ENDBRANCH  51  55
BRANCH  53  60
ATOM     60  O   LIG d   1       8.609  -9.725  -1.151  0.00  0.00    -0.488 OA
BRANCH  60  61
ATOM     61  C   LIG d   1       9.607 -10.730  -1.342  0.00  0.00     0.079 C 
ATOM     62  H   LIG d   1      10.593 -10.298  -1.178  0.00  0.00     0.066 H 
ATOM     63  H   LIG d   1       9.444 -11.543  -0.635  0.00  0.00     0.066 H 
ATOM     64  H   LIG d   1       9.544 -11.116  -2.360  0.00  0.00     0.066 H 
ENDBRANCH  60  61
ENDBRANCH  53  60
BRANCH  54  65
ATOM     65  O   LIG d   1       8.816  -8.357  -3.531  0.00  0.00    -0.491 OA
BRANCH  65  66
ATOM     66  C   LIG d   1       9.109  -7.188  -2.765  0.00  0.00     0.079 C 
ATOM     67  H   LIG d   1      10.184  -7.009  -2.770  0.00  0.00     0.066 H 
ATOM     68  H   LIG d   1       8.597  -6.329  -3.201  0.00  0.00     0.066 H 
ATOM     69  H   LIG d   1       8.769  -7.330  -1.740  0.00  0.00     0.066 H 
ENDBRANCH  65  66
ENDBRANCH  54  65
ENDBRANCH  44  47
ENDBRANCH   1  44
TORSDOF 11
ENDMDL
