MODEL 1
REMARK VINA RESULT:      -6.5      0.000      0.000
REMARK  4 active torsions:
REMARK  status: ('A' for Active; 'I' for Inactive)
REMARK    1  A    between atoms: C_1  and  C_2 
REMARK    2  A    between atoms: C_2  and  C_4 
REMARK    3  A    between atoms: C_4  and  O_5 
REMARK    4  A    between atoms: O_5  and  C_6 
ROOT
ATOM      1  C   LIG d   1       3.416  -1.034  -8.140  0.00  0.00     0.124 A 
ATOM      2  C   LIG d   1       2.624  -0.043  -7.562  0.00  0.00    -0.019 A 
ATOM      3  C   LIG d   1       2.776   0.282  -6.246  0.00  0.00    -0.047 A 
ATOM      4  C   LIG d   1       3.733  -0.383  -5.471  0.00  0.00     0.021 A 
ATOM      5  C   LIG d   1       4.535  -1.384  -6.049  0.00  0.00     0.143 A 
ATOM      6  C   LIG d   1       4.368  -1.702  -7.388  0.00  0.00     0.023 A 
ATOM      7  O   LIG d   1       5.457  -2.023  -5.296  0.00  0.00    -0.422 OA
ATOM      8  C   LIG d   1       5.631  -1.723  -4.000  0.00  0.00     0.341 A 
ATOM      9  O   LIG d   1       6.475  -2.327  -3.362  0.00  0.00    -0.245 OA
ATOM     10  C   LIG d   1       4.859  -0.732  -3.352  0.00  0.00     0.041 A 
ATOM     11  C   LIG d   1       3.919  -0.052  -4.056  0.00  0.00    -0.027 A 
ATOM     12  C   LIG d   1       3.226   0.956  -3.169  0.00  0.00    -0.026 C 
ATOM     13  C   LIG d   1       4.153   1.117  -1.944  0.00  0.00    -0.045 C 
ATOM     14  C   LIG d   1       4.893  -0.238  -1.922  0.00  0.00    -0.020 C 
ATOM     15  H   LIG d   1       1.886   0.469  -8.160  0.00  0.00     0.065 H 
ATOM     16  H   LIG d   1       2.158   1.049  -5.803  0.00  0.00     0.063 H 
ATOM     17  H   LIG d   1       4.979  -2.469  -7.843  0.00  0.00     0.069 H 
ATOM     18  H   LIG d   1       3.118   1.907  -3.690  0.00  0.00     0.031 H 
ATOM     19  H   LIG d   1       2.251   0.580  -2.859  0.00  0.00     0.031 H 
ATOM     20  H   LIG d   1       4.853   1.939  -2.092  0.00  0.00     0.027 H 
ATOM     21  H   LIG d   1       3.573   1.259  -1.034  0.00  0.00     0.027 H 
ATOM     22  H   LIG d   1       5.923  -0.101  -1.591  0.00  0.00     0.032 H 
ATOM     23  H   LIG d   1       4.376  -0.941  -1.268  0.00  0.00     0.032 H 
ENDROOT
BRANCH   1  24
ATOM     24  O   LIG d   1       3.254  -1.345  -9.451  0.00  0.00    -0.488 OA
BRANCH  24  25
ATOM     25  C   LIG d   1       2.570  -0.391 -10.265  0.00  0.00     0.110 C 
ATOM     26  H   LIG d   1       1.968  -0.913 -11.008  0.00  0.00     0.074 H 
ATOM     27  H   LIG d   1       1.922   0.223  -9.639  0.00  0.00     0.074 H 
BRANCH  25  28
ATOM     28  C   LIG d   1       3.576   0.489 -10.961  0.00  0.00    -0.043 C 
ATOM     29  C   LIG d   1       4.206   0.050 -12.023  0.00  0.00    -0.097 C 
ATOM     30  H   LIG d   1       4.005  -0.942 -12.399  0.00  0.00     0.053 H 
ATOM     31  H   LIG d   1       4.927   0.681 -12.522  0.00  0.00     0.053 H 
BRANCH  28  32
ATOM     32  C   LIG d   1       3.856   1.874 -10.437  0.00  0.00    -0.041 C 
ATOM     33  H   LIG d   1       3.011   2.525 -10.661  0.00  0.00     0.028 H 
ATOM     34  H   LIG d   1       4.005   1.831  -9.358  0.00  0.00     0.028 H 
ATOM     35  H   LIG d   1       4.754   2.268 -10.913  0.00  0.00     0.028 H 
ENDBRANCH  28  32
ENDBRANCH  25  28
ENDBRANCH  24  25
ENDBRANCH   1  24
TORSDOF 4
ENDMDL
MODEL 2
REMARK VINA RESULT:      -6.2      4.869      6.210
REMARK  4 active torsions:
REMARK  status: ('A' for Active; 'I' for Inactive)
REMARK    1  A    between atoms: C_1  and  C_2 
REMARK    2  A    between atoms: C_2  and  C_4 
REMARK    3  A    between atoms: C_4  and  O_5 
REMARK    4  A    between atoms: O_5  and  C_6 
ROOT
ATOM      1  C   LIG d   1       8.919   1.681  -4.731  0.00  0.00     0.124 A 
ATOM      2  C   LIG d   1       8.985   0.361  -5.174  0.00  0.00    -0.019 A 
ATOM      3  C   LIG d   1       8.041  -0.546  -4.787  0.00  0.00    -0.047 A 
ATOM      4  C   LIG d   1       6.999  -0.147  -3.942  0.00  0.00     0.021 A 
ATOM      5  C   LIG d   1       6.928   1.184  -3.491  0.00  0.00     0.143 A 
ATOM      6  C   LIG d   1       7.895   2.092  -3.894  0.00  0.00     0.023 A 
ATOM      7  O   LIG d   1       5.921   1.562  -2.674  0.00  0.00    -0.422 OA
ATOM      8  C   LIG d   1       4.977   0.696  -2.279  0.00  0.00     0.341 A 
ATOM      9  O   LIG d   1       4.089   1.084  -1.542  0.00  0.00    -0.245 OA
ATOM     10  C   LIG d   1       4.988  -0.658  -2.688  0.00  0.00     0.041 A 
ATOM     11  C   LIG d   1       5.971  -1.098  -3.512  0.00  0.00    -0.027 A 
ATOM     12  C   LIG d   1       5.779  -2.565  -3.822  0.00  0.00    -0.026 C 
ATOM     13  C   LIG d   1       4.314  -2.867  -3.440  0.00  0.00    -0.045 C 
ATOM     14  C   LIG d   1       4.033  -1.788  -2.372  0.00  0.00    -0.020 C 
ATOM     15  H   LIG d   1       9.788   0.053  -5.826  0.00  0.00     0.065 H 
ATOM     16  H   LIG d   1       8.098  -1.568  -5.132  0.00  0.00     0.063 H 
ATOM     17  H   LIG d   1       7.851   3.117  -3.555  0.00  0.00     0.069 H 
ATOM     18  H   LIG d   1       5.940  -2.751  -4.885  0.00  0.00     0.031 H 
ATOM     19  H   LIG d   1       6.460  -3.171  -3.224  0.00  0.00     0.031 H 
ATOM     20  H   LIG d   1       3.654  -2.744  -4.299  0.00  0.00     0.027 H 
ATOM     21  H   LIG d   1       4.220  -3.867  -3.018  0.00  0.00     0.027 H 
ATOM     22  H   LIG d   1       2.999  -1.445  -2.443  0.00  0.00     0.032 H 
ATOM     23  H   LIG d   1       4.231  -2.181  -1.375  0.00  0.00     0.032 H 
ENDROOT
BRANCH   1  24
ATOM     24  O   LIG d   1       9.865   2.570  -5.126  0.00  0.00    -0.488 OA
BRANCH  24  25
ATOM     25  C   LIG d   1       9.964   3.785  -4.381  0.00  0.00     0.110 C 
ATOM     26  H   LIG d   1       9.240   3.772  -3.566  0.00  0.00     0.074 H 
ATOM     27  H   LIG d   1      10.971   3.879  -3.971  0.00  0.00     0.074 H 
BRANCH  25  28
ATOM     28  C   LIG d   1       9.681   4.955  -5.287  0.00  0.00    -0.043 C 
ATOM     29  C   LIG d   1       9.861   4.841  -6.580  0.00  0.00    -0.097 C 
ATOM     30  H   LIG d   1      10.213   3.909  -6.995  0.00  0.00     0.053 H 
ATOM     31  H   LIG d   1       9.657   5.680  -7.229  0.00  0.00     0.053 H 
BRANCH  28  32
ATOM     32  C   LIG d   1       9.188   6.256  -4.706  0.00  0.00    -0.041 C 
ATOM     33  H   LIG d   1       8.235   6.520  -5.163  0.00  0.00     0.028 H 
ATOM     34  H   LIG d   1       9.058   6.147  -3.630  0.00  0.00     0.028 H 
ATOM     35  H   LIG d   1       9.916   7.042  -4.907  0.00  0.00     0.028 H 
ENDBRANCH  28  32
ENDBRANCH  25  28
ENDBRANCH  24  25
ENDBRANCH   1  24
TORSDOF 4
ENDMDL
MODEL 3
REMARK VINA RESULT:      -6.1      1.625      2.380
REMARK  4 active torsions:
REMARK  status: ('A' for Active; 'I' for Inactive)
REMARK    1  A    between atoms: C_1  and  C_2 
REMARK    2  A    between atoms: C_2  and  C_4 
REMARK    3  A    between atoms: C_4  and  O_5 
REMARK    4  A    between atoms: O_5  and  C_6 
ROOT
ATOM      1  C   LIG d   1       3.630  -1.367  -8.189  0.00  0.00     0.124 A 
ATOM      2  C   LIG d   1       4.278  -2.395  -7.506  0.00  0.00    -0.019 A 
ATOM      3  C   LIG d   1       4.525  -2.287  -6.168  0.00  0.00    -0.047 A 
ATOM      4  C   LIG d   1       4.125  -1.137  -5.478  0.00  0.00     0.021 A 
ATOM      5  C   LIG d   1       3.471  -0.096  -6.163  0.00  0.00     0.143 A 
ATOM      6  C   LIG d   1       3.228  -0.222  -7.521  0.00  0.00     0.023 A 
ATOM      7  O   LIG d   1       3.088   1.011  -5.491  0.00  0.00    -0.422 OA
ATOM      8  C   LIG d   1       3.314   1.146  -4.176  0.00  0.00     0.341 A 
ATOM      9  O   LIG d   1       2.950   2.163  -3.614  0.00  0.00    -0.245 OA
ATOM     10  C   LIG d   1       3.970   0.143  -3.425  0.00  0.00     0.041 A 
ATOM     11  C   LIG d   1       4.375  -0.995  -4.041  0.00  0.00    -0.027 A 
ATOM     12  C   LIG d   1       5.040  -1.921  -3.050  0.00  0.00    -0.026 C 
ATOM     13  C   LIG d   1       4.605  -1.402  -1.662  0.00  0.00    -0.045 C 
ATOM     14  C   LIG d   1       4.317   0.086  -1.953  0.00  0.00    -0.020 C 
ATOM     15  H   LIG d   1       4.587  -3.282  -8.038  0.00  0.00     0.065 H 
ATOM     16  H   LIG d   1       5.029  -3.086  -5.645  0.00  0.00     0.063 H 
ATOM     17  H   LIG d   1       2.726   0.570  -8.058  0.00  0.00     0.069 H 
ATOM     18  H   LIG d   1       4.694  -2.945  -3.197  0.00  0.00     0.031 H 
ATOM     19  H   LIG d   1       6.124  -1.869  -3.151  0.00  0.00     0.031 H 
ATOM     20  H   LIG d   1       3.705  -1.913  -1.321  0.00  0.00     0.027 H 
ATOM     21  H   LIG d   1       5.411  -1.508  -0.937  0.00  0.00     0.027 H 
ATOM     22  H   LIG d   1       3.477   0.434  -1.349  0.00  0.00     0.032 H 
ATOM     23  H   LIG d   1       5.202   0.690  -1.751  0.00  0.00     0.032 H 
ENDROOT
BRANCH   1  24
ATOM     24  O   LIG d   1       3.391  -1.490  -9.519  0.00  0.00    -0.488 OA
BRANCH  24  25
ATOM     25  C   LIG d   1       2.634  -0.450 -10.142  0.00  0.00     0.110 C 
ATOM     26  H   LIG d   1       1.890  -0.889 -10.805  0.00  0.00     0.074 H 
ATOM     27  H   LIG d   1       2.134   0.144  -9.377  0.00  0.00     0.074 H 
BRANCH  25  28
ATOM     28  C   LIG d   1       3.558   0.434 -10.940  0.00  0.00    -0.043 C 
ATOM     29  C   LIG d   1       4.115  -0.020 -12.036  0.00  0.00    -0.097 C 
ATOM     30  H   LIG d   1       3.911  -1.027 -12.367  0.00  0.00     0.053 H 
ATOM     31  H   LIG d   1       4.776   0.614 -12.608  0.00  0.00     0.053 H 
BRANCH  28  32
ATOM     32  C   LIG d   1       3.841   1.840 -10.477  0.00  0.00    -0.041 C 
ATOM     33  H   LIG d   1       3.756   1.890  -9.392  0.00  0.00     0.028 H 
ATOM     34  H   LIG d   1       4.850   2.125 -10.777  0.00  0.00     0.028 H 
ATOM     35  H   LIG d   1       3.121   2.523 -10.929  0.00  0.00     0.028 H 
ENDBRANCH  28  32
ENDBRANCH  25  28
ENDBRANCH  24  25
ENDBRANCH   1  24
TORSDOF 4
ENDMDL
MODEL 4
REMARK VINA RESULT:      -6.1      1.938      6.558
REMARK  4 active torsions:
REMARK  status: ('A' for Active; 'I' for Inactive)
REMARK    1  A    between atoms: C_1  and  C_2 
REMARK    2  A    between atoms: C_2  and  C_4 
REMARK    3  A    between atoms: C_4  and  O_5 
REMARK    4  A    between atoms: O_5  and  C_6 
ROOT
ATOM      1  C   LIG d   1       5.620  -1.579  -5.332  0.00  0.00     0.124 A 
ATOM      2  C   LIG d   1       4.661  -2.334  -6.005  0.00  0.00    -0.019 A 
ATOM      3  C   LIG d   1       4.187  -1.926  -7.218  0.00  0.00    -0.047 A 
ATOM      4  C   LIG d   1       4.668  -0.743  -7.790  0.00  0.00     0.021 A 
ATOM      5  C   LIG d   1       5.635   0.024  -7.115  0.00  0.00     0.143 A 
ATOM      6  C   LIG d   1       6.106  -0.405  -5.884  0.00  0.00     0.023 A 
ATOM      7  O   LIG d   1       6.094   1.165  -7.673  0.00  0.00    -0.422 OA
ATOM      8  C   LIG d   1       5.650   1.590  -8.865  0.00  0.00     0.341 A 
ATOM      9  O   LIG d   1       6.094   2.626  -9.327  0.00  0.00    -0.245 OA
ATOM     10  C   LIG d   1       4.676   0.874  -9.597  0.00  0.00     0.041 A 
ATOM     11  C   LIG d   1       4.178  -0.283  -9.092  0.00  0.00    -0.027 A 
ATOM     12  C   LIG d   1       3.163  -0.877 -10.041  0.00  0.00    -0.026 C 
ATOM     13  C   LIG d   1       3.416  -0.171 -11.392  0.00  0.00    -0.045 C 
ATOM     14  C   LIG d   1       4.047   1.164 -10.943  0.00  0.00    -0.020 C 
ATOM     15  H   LIG d   1       4.290  -3.246  -5.563  0.00  0.00     0.065 H 
ATOM     16  H   LIG d   1       3.443  -2.515  -7.734  0.00  0.00     0.063 H 
ATOM     17  H   LIG d   1       6.850   0.175  -5.357  0.00  0.00     0.069 H 
ATOM     18  H   LIG d   1       3.320  -1.951 -10.139  0.00  0.00     0.031 H 
ATOM     19  H   LIG d   1       2.151  -0.671  -9.691  0.00  0.00     0.031 H 
ATOM     20  H   LIG d   1       4.114  -0.744 -12.004  0.00  0.00     0.027 H 
ATOM     21  H   LIG d   1       2.481  -0.002 -11.924  0.00  0.00     0.027 H 
ATOM     22  H   LIG d   1       4.806   1.484 -11.657  0.00  0.00     0.032 H 
ATOM     23  H   LIG d   1       3.278   1.930 -10.841  0.00  0.00     0.032 H 
ENDROOT
BRANCH   1  24
ATOM     24  O   LIG d   1       6.083  -1.998  -4.127  0.00  0.00    -0.488 OA
BRANCH  24  25
ATOM     25  C   LIG d   1       6.154  -1.024  -3.084  0.00  0.00     0.110 C 
ATOM     26  H   LIG d   1       6.903  -1.329  -2.353  0.00  0.00     0.074 H 
ATOM     27  H   LIG d   1       6.431  -0.058  -3.507  0.00  0.00     0.074 H 
BRANCH  25  28
ATOM     28  C   LIG d   1       4.811  -0.910  -2.410  0.00  0.00    -0.043 C 
ATOM     29  C   LIG d   1       4.431   0.234  -1.897  0.00  0.00    -0.097 C 
ATOM     30  H   LIG d   1       5.080   1.095  -1.957  0.00  0.00     0.053 H 
ATOM     31  H   LIG d   1       3.468   0.316  -1.414  0.00  0.00     0.053 H 
BRANCH  28  32
ATOM     32  C   LIG d   1       3.905  -2.112  -2.327  0.00  0.00    -0.041 C 
ATOM     33  H   LIG d   1       4.404  -2.973  -2.770  0.00  0.00     0.028 H 
ATOM     34  H   LIG d   1       3.675  -2.321  -1.282  0.00  0.00     0.028 H 
ATOM     35  H   LIG d   1       2.982  -1.908  -2.869  0.00  0.00     0.028 H 
ENDBRANCH  28  32
ENDBRANCH  25  28
ENDBRANCH  24  25
ENDBRANCH   1  24
TORSDOF 4
ENDMDL
MODEL 5
REMARK VINA RESULT:      -5.8      5.162      7.153
REMARK  4 active torsions:
REMARK  status: ('A' for Active; 'I' for Inactive)
REMARK    1  A    between atoms: C_1  and  C_2 
REMARK    2  A    between atoms: C_2  and  C_4 
REMARK    3  A    between atoms: C_4  and  O_5 
REMARK    4  A    between atoms: O_5  and  C_6 
ROOT
ATOM      1  C   LIG d   1       6.841   0.038  -4.767  0.00  0.00     0.124 A 
ATOM      2  C   LIG d   1       7.076   0.301  -6.116  0.00  0.00    -0.019 A 
ATOM      3  C   LIG d   1       7.872   1.346  -6.487  0.00  0.00    -0.047 A 
ATOM      4  C   LIG d   1       8.456   2.158  -5.508  0.00  0.00     0.021 A 
ATOM      5  C   LIG d   1       8.221   1.897  -4.145  0.00  0.00     0.143 A 
ATOM      6  C   LIG d   1       7.411   0.832  -3.785  0.00  0.00     0.023 A 
ATOM      7  O   LIG d   1       8.787   2.685  -3.205  0.00  0.00    -0.422 OA
ATOM      8  C   LIG d   1       9.576   3.717  -3.539  0.00  0.00     0.341 A 
ATOM      9  O   LIG d   1      10.064   4.399  -2.655  0.00  0.00    -0.245 OA
ATOM     10  C   LIG d   1       9.852   4.041  -4.887  0.00  0.00     0.041 A 
ATOM     11  C   LIG d   1       9.316   3.285  -5.878  0.00  0.00    -0.027 A 
ATOM     12  C   LIG d   1       9.749   3.806  -7.229  0.00  0.00    -0.026 C 
ATOM     13  C   LIG d   1      10.967   4.709  -6.938  0.00  0.00    -0.045 C 
ATOM     14  C   LIG d   1      10.706   5.141  -5.479  0.00  0.00    -0.020 C 
ATOM     15  H   LIG d   1       6.626  -0.325  -6.871  0.00  0.00     0.065 H 
ATOM     16  H   LIG d   1       8.050   1.546  -7.533  0.00  0.00     0.063 H 
ATOM     17  H   LIG d   1       7.224   0.622  -2.742  0.00  0.00     0.069 H 
ATOM     18  H   LIG d   1      10.036   2.979  -7.879  0.00  0.00     0.031 H 
ATOM     19  H   LIG d   1       8.947   4.386  -7.685  0.00  0.00     0.031 H 
ATOM     20  H   LIG d   1      11.897   4.145  -7.016  0.00  0.00     0.027 H 
ATOM     21  H   LIG d   1      10.979   5.572  -7.603  0.00  0.00     0.027 H 
ATOM     22  H   LIG d   1      11.647   5.227  -4.936  0.00  0.00     0.032 H 
ATOM     23  H   LIG d   1      10.168   6.089  -5.456  0.00  0.00     0.032 H 
ENDROOT
BRANCH   1  24
ATOM     24  O   LIG d   1       6.049  -1.005  -4.414  0.00  0.00    -0.488 OA
BRANCH  24  25
ATOM     25  C   LIG d   1       6.084  -1.413  -3.045  0.00  0.00     0.110 C 
ATOM     26  H   LIG d   1       6.331  -2.473  -2.988  0.00  0.00     0.074 H 
ATOM     27  H   LIG d   1       6.840  -0.835  -2.512  0.00  0.00     0.074 H 
BRANCH  25  28
ATOM     28  C   LIG d   1       4.736  -1.176  -2.415  0.00  0.00    -0.043 C 
ATOM     29  C   LIG d   1       3.834  -2.128  -2.419  0.00  0.00    -0.097 C 
ATOM     30  H   LIG d   1       4.058  -3.081  -2.873  0.00  0.00     0.053 H 
ATOM     31  H   LIG d   1       2.868  -1.958  -1.967  0.00  0.00     0.053 H 
BRANCH  28  32
ATOM     32  C   LIG d   1       4.424   0.154  -1.779  0.00  0.00    -0.041 C 
ATOM     33  H   LIG d   1       4.939   0.229  -0.822  0.00  0.00     0.028 H 
ATOM     34  H   LIG d   1       4.759   0.957  -2.436  0.00  0.00     0.028 H 
ATOM     35  H   LIG d   1       3.349   0.238  -1.621  0.00  0.00     0.028 H 
ENDBRANCH  28  32
ENDBRANCH  25  28
ENDBRANCH  24  25
ENDBRANCH   1  24
TORSDOF 4
ENDMDL
MODEL 6
REMARK VINA RESULT:      -5.7      1.593      6.650
REMARK  4 active torsions:
REMARK  status: ('A' for Active; 'I' for Inactive)
REMARK    1  A    between atoms: C_1  and  C_2 
REMARK    2  A    between atoms: C_2  and  C_4 
REMARK    3  A    between atoms: C_4  and  O_5 
REMARK    4  A    between atoms: O_5  and  C_6 
ROOT
ATOM      1  C   LIG d   1       4.519  -1.149  -5.777  0.00  0.00     0.124 A 
ATOM      2  C   LIG d   1       3.573  -0.179  -6.106  0.00  0.00    -0.019 A 
ATOM      3  C   LIG d   1       2.970  -0.190  -7.331  0.00  0.00    -0.047 A 
ATOM      4  C   LIG d   1       3.303  -1.181  -8.261  0.00  0.00     0.021 A 
ATOM      5  C   LIG d   1       4.258  -2.161  -7.934  0.00  0.00     0.143 A 
ATOM      6  C   LIG d   1       4.860  -2.136  -6.686  0.00  0.00     0.023 A 
ATOM      7  O   LIG d   1       4.576  -3.114  -8.837  0.00  0.00    -0.422 OA
ATOM      8  C   LIG d   1       3.999  -3.153 -10.047  0.00  0.00     0.341 A 
ATOM      9  O   LIG d   1       4.318  -4.032 -10.827  0.00  0.00    -0.245 OA
ATOM     10  C   LIG d   1       3.035  -2.198 -10.445  0.00  0.00     0.041 A 
ATOM     11  C   LIG d   1       2.670  -1.218  -9.582  0.00  0.00    -0.027 A 
ATOM     12  C   LIG d   1       1.630  -0.323 -10.213  0.00  0.00    -0.026 C 
ATOM     13  C   LIG d   1       1.079  -1.129 -11.409  0.00  0.00    -0.045 C 
ATOM     14  C   LIG d   1       2.265  -2.060 -11.741  0.00  0.00    -0.020 C 
ATOM     15  H   LIG d   1       3.316   0.585  -5.389  0.00  0.00     0.065 H 
ATOM     16  H   LIG d   1       2.239   0.565  -7.580  0.00  0.00     0.063 H 
ATOM     17  H   LIG d   1       5.595  -2.884  -6.424  0.00  0.00     0.069 H 
ATOM     18  H   LIG d   1       0.832  -0.109  -9.501  0.00  0.00     0.031 H 
ATOM     19  H   LIG d   1       2.087   0.605 -10.559  0.00  0.00     0.031 H 
ATOM     20  H   LIG d   1       0.201  -1.706 -11.118  0.00  0.00     0.027 H 
ATOM     21  H   LIG d   1       0.852  -0.473 -12.249  0.00  0.00     0.027 H 
ATOM     22  H   LIG d   1       1.901  -3.033 -12.073  0.00  0.00     0.032 H 
ATOM     23  H   LIG d   1       2.896  -1.611 -12.508  0.00  0.00     0.032 H 
ENDROOT
BRANCH   1  24
ATOM     24  O   LIG d   1       5.109  -1.125  -4.555  0.00  0.00    -0.488 OA
BRANCH  24  25
ATOM     25  C   LIG d   1       5.092   0.118  -3.850  0.00  0.00     0.110 C 
ATOM     26  H   LIG d   1       6.093   0.546  -3.845  0.00  0.00     0.074 H 
ATOM     27  H   LIG d   1       4.404   0.806  -4.342  0.00  0.00     0.074 H 
BRANCH  25  28
ATOM     28  C   LIG d   1       4.638  -0.115  -2.431  0.00  0.00    -0.043 C 
ATOM     29  C   LIG d   1       4.528   0.895  -1.605  0.00  0.00    -0.097 C 
ATOM     30  H   LIG d   1       4.762   1.895  -1.940  0.00  0.00     0.053 H 
ATOM     31  H   LIG d   1       4.203   0.728  -0.588  0.00  0.00     0.053 H 
BRANCH  28  32
ATOM     32  C   LIG d   1       4.311  -1.510  -1.965  0.00  0.00    -0.041 C 
ATOM     33  H   LIG d   1       3.467  -1.474  -1.276  0.00  0.00     0.028 H 
ATOM     34  H   LIG d   1       4.053  -2.129  -2.824  0.00  0.00     0.028 H 
ATOM     35  H   LIG d   1       5.176  -1.936  -1.456  0.00  0.00     0.028 H 
ENDBRANCH  28  32
ENDBRANCH  25  28
ENDBRANCH  24  25
ENDBRANCH   1  24
TORSDOF 4
ENDMDL
MODEL 7
REMARK VINA RESULT:      -5.5      5.085      7.161
REMARK  4 active torsions:
REMARK  status: ('A' for Active; 'I' for Inactive)
REMARK    1  A    between atoms: C_1  and  C_2 
REMARK    2  A    between atoms: C_2  and  C_4 
REMARK    3  A    between atoms: C_4  and  O_5 
REMARK    4  A    between atoms: O_5  and  C_6 
ROOT
ATOM      1  C   LIG d   1       6.879   0.086  -4.676  0.00  0.00     0.124 A 
ATOM      2  C   LIG d   1       7.353   0.921  -3.665  0.00  0.00    -0.019 A 
ATOM      3  C   LIG d   1       8.128   2.002  -3.968  0.00  0.00    -0.047 A 
ATOM      4  C   LIG d   1       8.448   2.276  -5.303  0.00  0.00     0.021 A 
ATOM      5  C   LIG d   1       7.974   1.436  -6.327  0.00  0.00     0.143 A 
ATOM      6  C   LIG d   1       7.188   0.342  -6.001  0.00  0.00     0.023 A 
ATOM      7  O   LIG d   1       8.288   1.704  -7.613  0.00  0.00    -0.422 OA
ATOM      8  C   LIG d   1       9.044   2.760  -7.944  0.00  0.00     0.341 A 
ATOM      9  O   LIG d   1       9.301   2.961  -9.117  0.00  0.00    -0.245 OA
ATOM     10  C   LIG d   1       9.560   3.644  -6.968  0.00  0.00     0.041 A 
ATOM     11  C   LIG d   1       9.276   3.431  -5.658  0.00  0.00    -0.027 A 
ATOM     12  C   LIG d   1       9.920   4.496  -4.801  0.00  0.00    -0.026 C 
ATOM     13  C   LIG d   1      10.273   5.638  -5.779  0.00  0.00    -0.045 C 
ATOM     14  C   LIG d   1      10.417   4.882  -7.117  0.00  0.00    -0.020 C 
ATOM     15  H   LIG d   1       7.105   0.711  -2.635  0.00  0.00     0.065 H 
ATOM     16  H   LIG d   1       8.493   2.645  -3.181  0.00  0.00     0.063 H 
ATOM     17  H   LIG d   1       6.817  -0.310  -6.779  0.00  0.00     0.069 H 
ATOM     18  H   LIG d   1       9.219   4.847  -4.044  0.00  0.00     0.031 H 
ATOM     19  H   LIG d   1      10.824   4.108  -4.331  0.00  0.00     0.031 H 
ATOM     20  H   LIG d   1       9.465   6.369  -5.830  0.00  0.00     0.027 H 
ATOM     21  H   LIG d   1      11.210   6.116  -5.498  0.00  0.00     0.027 H 
ATOM     22  H   LIG d   1      10.056   5.499  -7.941  0.00  0.00     0.032 H 
ATOM     23  H   LIG d   1      11.457   4.602  -7.283  0.00  0.00     0.032 H 
ENDROOT
BRANCH   1  24
ATOM     24  O   LIG d   1       6.108  -0.984  -4.357  0.00  0.00    -0.488 OA
BRANCH  24  25
ATOM     25  C   LIG d   1       6.102  -1.396  -2.989  0.00  0.00     0.110 C 
ATOM     26  H   LIG d   1       6.358  -2.454  -2.927  0.00  0.00     0.074 H 
ATOM     27  H   LIG d   1       6.834  -0.812  -2.430  0.00  0.00     0.074 H 
BRANCH  25  28
ATOM     28  C   LIG d   1       4.731  -1.175  -2.404  0.00  0.00    -0.043 C 
ATOM     29  C   LIG d   1       3.841  -2.136  -2.441  0.00  0.00    -0.097 C 
ATOM     30  H   LIG d   1       4.090  -3.086  -2.890  0.00  0.00     0.053 H 
ATOM     31  H   LIG d   1       2.859  -1.978  -2.021  0.00  0.00     0.053 H 
BRANCH  28  32
ATOM     32  C   LIG d   1       4.385   0.150  -1.775  0.00  0.00    -0.041 C 
ATOM     33  H   LIG d   1       5.272   0.571  -1.304  0.00  0.00     0.028 H 
ATOM     34  H   LIG d   1       4.022   0.832  -2.544  0.00  0.00     0.028 H 
ATOM     35  H   LIG d   1       3.609   0.003  -1.023  0.00  0.00     0.028 H 
ENDBRANCH  28  32
ENDBRANCH  25  28
ENDBRANCH  24  25
ENDBRANCH   1  24
TORSDOF 4
ENDMDL
MODEL 8
REMARK VINA RESULT:      -5.4      3.631      6.358
REMARK  4 active torsions:
REMARK  status: ('A' for Active; 'I' for Inactive)
REMARK    1  A    between atoms: C_1  and  C_2 
REMARK    2  A    between atoms: C_2  and  C_4 
REMARK    3  A    between atoms: C_4  and  O_5 
REMARK    4  A    between atoms: O_5  and  C_6 
ROOT
ATOM      1  C   LIG d   1       5.777  -0.973  -4.750  0.00  0.00     0.124 A 
ATOM      2  C   LIG d   1       4.632  -1.591  -5.250  0.00  0.00    -0.019 A 
ATOM      3  C   LIG d   1       4.630  -2.929  -5.518  0.00  0.00    -0.047 A 
ATOM      4  C   LIG d   1       5.785  -3.685  -5.289  0.00  0.00     0.021 A 
ATOM      5  C   LIG d   1       6.944  -3.067  -4.785  0.00  0.00     0.143 A 
ATOM      6  C   LIG d   1       6.929  -1.707  -4.518  0.00  0.00     0.023 A 
ATOM      7  O   LIG d   1       8.055  -3.803  -4.567  0.00  0.00    -0.422 OA
ATOM      8  C   LIG d   1       8.083  -5.120  -4.818  0.00  0.00     0.341 A 
ATOM      9  O   LIG d   1       9.109  -5.741  -4.605  0.00  0.00    -0.245 OA
ATOM     10  C   LIG d   1       6.958  -5.807  -5.329  0.00  0.00     0.041 A 
ATOM     11  C   LIG d   1       5.810  -5.124  -5.565  0.00  0.00    -0.027 A 
ATOM     12  C   LIG d   1       4.746  -6.055  -6.098  0.00  0.00    -0.026 C 
ATOM     13  C   LIG d   1       5.244  -7.475  -5.749  0.00  0.00    -0.045 C 
ATOM     14  C   LIG d   1       6.772  -7.269  -5.673  0.00  0.00    -0.020 C 
ATOM     15  H   LIG d   1       3.741  -1.007  -5.427  0.00  0.00     0.065 H 
ATOM     16  H   LIG d   1       3.740  -3.402  -5.906  0.00  0.00     0.063 H 
ATOM     17  H   LIG d   1       7.812  -1.221  -4.131  0.00  0.00     0.069 H 
ATOM     18  H   LIG d   1       3.791  -5.857  -5.609  0.00  0.00     0.031 H 
ATOM     19  H   LIG d   1       4.650  -5.942  -7.178  0.00  0.00     0.031 H 
ATOM     20  H   LIG d   1       4.847  -7.800  -4.788  0.00  0.00     0.027 H 
ATOM     21  H   LIG d   1       4.985  -8.182  -6.536  0.00  0.00     0.027 H 
ATOM     22  H   LIG d   1       7.200  -7.901  -4.895  0.00  0.00     0.032 H 
ATOM     23  H   LIG d   1       7.232  -7.491  -6.636  0.00  0.00     0.032 H 
ENDROOT
BRANCH   1  24
ATOM     24  O   LIG d   1       5.763   0.359  -4.488  0.00  0.00    -0.488 OA
BRANCH  24  25
ATOM     25  C   LIG d   1       5.935   0.754  -3.125  0.00  0.00     0.110 C 
ATOM     26  H   LIG d   1       6.753   0.185  -2.683  0.00  0.00     0.074 H 
ATOM     27  H   LIG d   1       6.168   1.818  -3.082  0.00  0.00     0.074 H 
BRANCH  25  28
ATOM     28  C   LIG d   1       4.665   0.486  -2.360  0.00  0.00    -0.043 C 
ATOM     29  C   LIG d   1       3.712   1.386  -2.336  0.00  0.00    -0.097 C 
ATOM     30  H   LIG d   1       3.838   2.318  -2.865  0.00  0.00     0.053 H 
ATOM     31  H   LIG d   1       2.802   1.193  -1.788  0.00  0.00     0.053 H 
BRANCH  28  32
ATOM     32  C   LIG d   1       4.490  -0.817  -1.622  0.00  0.00    -0.041 C 
ATOM     33  H   LIG d   1       3.746  -0.691  -0.836  0.00  0.00     0.028 H 
ATOM     34  H   LIG d   1       4.157  -1.586  -2.319  0.00  0.00     0.028 H 
ATOM     35  H   LIG d   1       5.440  -1.114  -1.179  0.00  0.00     0.028 H 
ENDBRANCH  28  32
ENDBRANCH  25  28
ENDBRANCH  24  25
ENDBRANCH   1  24
TORSDOF 4
ENDMDL
MODEL 9
REMARK VINA RESULT:      -5.2      8.285     10.121
REMARK  4 active torsions:
REMARK  status: ('A' for Active; 'I' for Inactive)
REMARK    1  A    between atoms: C_1  and  C_2 
REMARK    2  A    between atoms: C_2  and  C_4 
REMARK    3  A    between atoms: C_4  and  O_5 
REMARK    4  A    between atoms: O_5  and  C_6 
ROOT
ATOM      1  C   LIG d   1       9.898   4.528  -3.582  0.00  0.00     0.124 A 
ATOM      2  C   LIG d   1       9.505   5.723  -4.182  0.00  0.00    -0.019 A 
ATOM      3  C   LIG d   1       9.575   6.898  -3.492  0.00  0.00    -0.047 A 
ATOM      4  C   LIG d   1      10.046   6.903  -2.174  0.00  0.00     0.021 A 
ATOM      5  C   LIG d   1      10.443   5.699  -1.563  0.00  0.00     0.143 A 
ATOM      6  C   LIG d   1      10.365   4.515  -2.278  0.00  0.00     0.023 A 
ATOM      7  O   LIG d   1      10.895   5.711  -0.290  0.00  0.00    -0.422 OA
ATOM      8  C   LIG d   1      10.978   6.850   0.413  0.00  0.00     0.341 A 
ATOM      9  O   LIG d   1      11.392   6.810   1.558  0.00  0.00    -0.245 OA
ATOM     10  C   LIG d   1      10.592   8.095  -0.134  0.00  0.00     0.041 A 
ATOM     11  C   LIG d   1      10.134   8.150  -1.410  0.00  0.00    -0.027 A 
ATOM     12  C   LIG d   1       9.791   9.573  -1.783  0.00  0.00    -0.026 C 
ATOM     13  C   LIG d   1      10.504  10.448  -0.729  0.00  0.00    -0.045 C 
ATOM     14  C   LIG d   1      10.609   9.482   0.470  0.00  0.00    -0.020 C 
ATOM     15  H   LIG d   1       9.143   5.720  -5.199  0.00  0.00     0.065 H 
ATOM     16  H   LIG d   1       9.268   7.821  -3.961  0.00  0.00     0.063 H 
ATOM     17  H   LIG d   1      10.668   3.584  -1.820  0.00  0.00     0.069 H 
ATOM     18  H   LIG d   1      10.163   9.803  -2.782  0.00  0.00     0.031 H 
ATOM     19  H   LIG d   1       8.712   9.728  -1.736  0.00  0.00     0.031 H 
ATOM     20  H   LIG d   1      11.494  10.745  -1.077  0.00  0.00     0.027 H 
ATOM     21  H   LIG d   1       9.903  11.320  -0.476  0.00  0.00     0.027 H 
ATOM     22  H   LIG d   1      11.541   9.651   1.011  0.00  0.00     0.032 H 
ATOM     23  H   LIG d   1       9.757   9.613   1.137  0.00  0.00     0.032 H 
ENDROOT
BRANCH   1  24
ATOM     24  O   LIG d   1       9.823   3.368  -4.282  0.00  0.00    -0.488 OA
BRANCH  24  25
ATOM     25  C   LIG d   1       9.305   2.227  -3.596  0.00  0.00     0.110 C 
ATOM     26  H   LIG d   1      10.072   1.454  -3.545  0.00  0.00     0.074 H 
ATOM     27  H   LIG d   1       9.011   2.513  -2.585  0.00  0.00     0.074 H 
BRANCH  25  28
ATOM     28  C   LIG d   1       8.105   1.696  -4.337  0.00  0.00    -0.043 C 
ATOM     29  C   LIG d   1       8.100   1.678  -5.647  0.00  0.00    -0.097 C 
ATOM     30  H   LIG d   1       8.956   2.043  -6.195  0.00  0.00     0.053 H 
ATOM     31  H   LIG d   1       7.240   1.297  -6.178  0.00  0.00     0.053 H 
BRANCH  28  32
ATOM     32  C   LIG d   1       6.911   1.186  -3.571  0.00  0.00    -0.041 C 
ATOM     33  H   LIG d   1       5.998   1.554  -4.036  0.00  0.00     0.028 H 
ATOM     34  H   LIG d   1       6.912   0.096  -3.583  0.00  0.00     0.028 H 
ATOM     35  H   LIG d   1       6.963   1.538  -2.541  0.00  0.00     0.028 H 
ENDBRANCH  28  32
ENDBRANCH  25  28
ENDBRANCH  24  25
ENDBRANCH   1  24
TORSDOF 4
ENDMDL
MODEL 10
REMARK VINA RESULT:      -5.1      4.463      6.188
REMARK  4 active torsions:
REMARK  status: ('A' for Active; 'I' for Inactive)
REMARK    1  A    between atoms: C_1  and  C_2 
REMARK    2  A    between atoms: C_2  and  C_4 
REMARK    3  A    between atoms: C_4  and  O_5 
REMARK    4  A    between atoms: O_5  and  C_6 
ROOT
ATOM      1  C   LIG d   1       9.277  -0.987  -5.281  0.00  0.00     0.124 A 
ATOM      2  C   LIG d   1       9.066   0.331  -4.877  0.00  0.00    -0.019 A 
ATOM      3  C   LIG d   1       7.903   0.685  -4.257  0.00  0.00    -0.047 A 
ATOM      4  C   LIG d   1       6.918  -0.281  -4.022  0.00  0.00     0.021 A 
ATOM      5  C   LIG d   1       7.126  -1.612  -4.427  0.00  0.00     0.143 A 
ATOM      6  C   LIG d   1       8.312  -1.955  -5.057  0.00  0.00     0.023 A 
ATOM      7  O   LIG d   1       6.171  -2.540  -4.199  0.00  0.00    -0.422 OA
ATOM      8  C   LIG d   1       5.019  -2.223  -3.589  0.00  0.00     0.341 A 
ATOM      9  O   LIG d   1       4.188  -3.094  -3.405  0.00  0.00    -0.245 OA
ATOM     10  C   LIG d   1       4.740  -0.906  -3.158  0.00  0.00     0.041 A 
ATOM     11  C   LIG d   1       5.661   0.070  -3.355  0.00  0.00    -0.027 A 
ATOM     12  C   LIG d   1       5.156   1.387  -2.813  0.00  0.00    -0.026 C 
ATOM     13  C   LIG d   1       3.993   1.012  -1.868  0.00  0.00    -0.045 C 
ATOM     14  C   LIG d   1       3.526  -0.338  -2.455  0.00  0.00    -0.020 C 
ATOM     15  H   LIG d   1       9.825   1.076  -5.058  0.00  0.00     0.065 H 
ATOM     16  H   LIG d   1       7.744   1.707  -3.947  0.00  0.00     0.063 H 
ATOM     17  H   LIG d   1       8.484  -2.974  -5.372  0.00  0.00     0.069 H 
ATOM     18  H   LIG d   1       5.945   1.896  -2.259  0.00  0.00     0.031 H 
ATOM     19  H   LIG d   1       4.795   2.018  -3.626  0.00  0.00     0.031 H 
ATOM     20  H   LIG d   1       4.348   0.889  -0.845  0.00  0.00     0.027 H 
ATOM     21  H   LIG d   1       3.198   1.754  -1.916  0.00  0.00     0.027 H 
ATOM     22  H   LIG d   1       3.202  -1.006  -1.656  0.00  0.00     0.032 H 
ATOM     23  H   LIG d   1       2.717  -0.181  -3.167  0.00  0.00     0.032 H 
ENDROOT
BRANCH   1  24
ATOM     24  O   LIG d   1      10.439  -1.323  -5.896  0.00  0.00    -0.488 OA
BRANCH  24  25
ATOM     25  C   LIG d   1      11.575  -1.550  -5.059  0.00  0.00     0.110 C 
ATOM     26  H   LIG d   1      12.444  -1.047  -5.482  0.00  0.00     0.074 H 
ATOM     27  H   LIG d   1      11.377  -1.155  -4.062  0.00  0.00     0.074 H 
BRANCH  25  28
ATOM     28  C   LIG d   1      11.845  -3.030  -4.968  0.00  0.00    -0.043 C 
ATOM     29  C   LIG d   1      11.725  -3.784  -6.033  0.00  0.00    -0.097 C 
ATOM     30  H   LIG d   1      11.432  -3.345  -6.975  0.00  0.00     0.053 H 
ATOM     31  H   LIG d   1      11.919  -4.844  -5.968  0.00  0.00     0.053 H 
BRANCH  28  32
ATOM     32  C   LIG d   1      12.255  -3.642  -3.653  0.00  0.00    -0.041 C 
ATOM     33  H   LIG d   1      13.236  -4.103  -3.758  0.00  0.00     0.028 H 
ATOM     34  H   LIG d   1      12.297  -2.866  -2.889  0.00  0.00     0.028 H 
ATOM     35  H   LIG d   1      11.527  -4.399  -3.363  0.00  0.00     0.028 H 
ENDBRANCH  28  32
ENDBRANCH  25  28
ENDBRANCH  24  25
ENDBRANCH   1  24
TORSDOF 4
ENDMDL
