MODEL 1
REMARK VINA RESULT:      -6.7      0.000      0.000
REMARK  2 active torsions:
REMARK  status: ('A' for Active; 'I' for Inactive)
REMARK    1  A    between atoms: C_1  and  N_2 
REMARK    2  A    between atoms: C_17  and  O_20 
ROOT
ATOM      1  N   LIG d   1       3.543  -1.736  -8.060  0.00  0.00    -0.298 N 
ATOM      2  C   LIG d   1       3.080  -0.390  -8.401  0.00  0.00     0.003 C 
ATOM      3  C   LIG d   1       2.465   0.292  -7.191  0.00  0.00    -0.014 C 
ATOM      4  C   LIG d   1       3.208  -0.017  -5.922  0.00  0.00    -0.037 A 
ATOM      5  C   LIG d   1       2.841   0.667  -4.768  0.00  0.00    -0.013 A 
ATOM      6  C   LIG d   1       3.501   0.449  -3.573  0.00  0.00     0.167 A 
ATOM      7  C   LIG d   1       4.540  -0.475  -3.517  0.00  0.00     0.174 A 
ATOM      8  C   LIG d   1       4.895  -1.177  -4.666  0.00  0.00     0.033 A 
ATOM      9  C   LIG d   1       4.231  -0.939  -5.874  0.00  0.00    -0.015 A 
ATOM     10  C   LIG d   1       4.665  -1.679  -7.111  0.00  0.00     0.040 C 
ATOM     11  H   LIG d   1       5.502  -1.155  -7.573  0.00  0.00     0.051 H 
ATOM     12  C   LIG d   1       5.096  -3.104  -6.772  0.00  0.00    -0.007 C 
ATOM     13  C   LIG d   1       6.107  -3.102  -5.659  0.00  0.00    -0.037 A 
ATOM     14  C   LIG d   1       5.995  -2.171  -4.628  0.00  0.00    -0.007 A 
ATOM     15  C   LIG d   1       6.910  -2.175  -3.582  0.00  0.00    -0.012 A 
ATOM     16  C   LIG d   1       7.941  -3.102  -3.577  0.00  0.00     0.117 A 
ATOM     17  C   LIG d   1       8.055  -4.018  -4.612  0.00  0.00    -0.020 A 
ATOM     18  C   LIG d   1       7.141  -4.016  -5.650  0.00  0.00    -0.054 A 
ATOM     19  O   LIG d   1       5.033  -0.503  -2.245  0.00  0.00    -0.452 OA
ATOM     20  C   LIG d   1       4.551   0.700  -1.619  0.00  0.00     0.233 C 
ATOM     21  O   LIG d   1       3.334   0.991  -2.330  0.00  0.00    -0.453 OA
ATOM     22  H   LIG d   1       3.924   0.201  -8.755  0.00  0.00     0.043 H 
ATOM     23  H   LIG d   1       2.333  -0.457  -9.193  0.00  0.00     0.043 H 
ATOM     24  H   LIG d   1       2.474   1.370  -7.351  0.00  0.00     0.033 H 
ATOM     25  H   LIG d   1       1.433  -0.039  -7.085  0.00  0.00     0.033 H 
ATOM     26  H   LIG d   1       2.031   1.380  -4.807  0.00  0.00     0.066 H 
ATOM     27  H   LIG d   1       4.223  -3.679  -6.463  0.00  0.00     0.033 H 
ATOM     28  H   LIG d   1       5.536  -3.567  -7.656  0.00  0.00     0.033 H 
ATOM     29  H   LIG d   1       6.819  -1.460  -2.777  0.00  0.00     0.066 H 
ATOM     30  H   LIG d   1       8.862  -4.735  -4.610  0.00  0.00     0.065 H 
ATOM     31  H   LIG d   1       7.234  -4.732  -6.453  0.00  0.00     0.062 H 
ATOM     32  H   LIG d   1       4.345   0.525  -0.562  0.00  0.00     0.117 H 
ATOM     33  H   LIG d   1       5.269   1.511  -1.740  0.00  0.00     0.117 H 
ENDROOT
BRANCH   1  34
ATOM     34  C   LIG d   1       3.912  -2.487  -9.268  0.00  0.00    -0.012 C 
ATOM     35  H   LIG d   1       3.509  -1.983 -10.146  0.00  0.00     0.039 H 
ATOM     36  H   LIG d   1       4.998  -2.540  -9.345  0.00  0.00     0.039 H 
ATOM     37  H   LIG d   1       3.502  -3.495  -9.207  0.00  0.00     0.039 H 
ENDBRANCH   1  34
BRANCH  16  38
ATOM     38  O   LIG d   1       8.840  -3.114  -2.557  0.00  0.00    -0.507 OA
ATOM     39  H   LIG d   1       9.471  -2.382  -2.581  0.00  0.00     0.292 HD
ENDBRANCH  16  38
TORSDOF 2
ENDMDL
MODEL 2
REMARK VINA RESULT:      -6.7      2.283      4.568
REMARK  2 active torsions:
REMARK  status: ('A' for Active; 'I' for Inactive)
REMARK    1  A    between atoms: C_1  and  N_2 
REMARK    2  A    between atoms: C_17  and  O_20 
ROOT
ATOM      1  N   LIG d   1       5.572  -4.490  -6.583  0.00  0.00    -0.298 N 
ATOM      2  C   LIG d   1       6.325  -4.332  -7.828  0.00  0.00     0.003 C 
ATOM      3  C   LIG d   1       5.565  -3.458  -8.812  0.00  0.00    -0.014 C 
ATOM      4  C   LIG d   1       4.862  -2.316  -8.135  0.00  0.00    -0.037 A 
ATOM      5  C   LIG d   1       4.259  -1.353  -8.938  0.00  0.00    -0.013 A 
ATOM      6  C   LIG d   1       3.617  -0.263  -8.380  0.00  0.00     0.167 A 
ATOM      7  C   LIG d   1       3.563  -0.129  -6.996  0.00  0.00     0.174 A 
ATOM      8  C   LIG d   1       4.147  -1.102  -6.190  0.00  0.00     0.033 A 
ATOM      9  C   LIG d   1       4.806  -2.193  -6.763  0.00  0.00    -0.015 A 
ATOM     10  C   LIG d   1       5.468  -3.208  -5.869  0.00  0.00     0.040 C 
ATOM     11  H   LIG d   1       6.467  -2.860  -5.604  0.00  0.00     0.051 H 
ATOM     12  C   LIG d   1       4.659  -3.420  -4.592  0.00  0.00    -0.007 C 
ATOM     13  C   LIG d   1       4.359  -2.103  -3.929  0.00  0.00    -0.037 A 
ATOM     14  C   LIG d   1       4.096  -0.982  -4.713  0.00  0.00    -0.007 A 
ATOM     15  C   LIG d   1       3.794   0.235  -4.111  0.00  0.00    -0.012 A 
ATOM     16  C   LIG d   1       3.770   0.327  -2.728  0.00  0.00     0.117 A 
ATOM     17  C   LIG d   1       4.046  -0.790  -1.952  0.00  0.00    -0.020 A 
ATOM     18  C   LIG d   1       4.340  -2.000  -2.553  0.00  0.00    -0.054 A 
ATOM     19  O   LIG d   1       2.894   1.021  -6.694  0.00  0.00    -0.452 OA
ATOM     20  C   LIG d   1       2.886   1.793  -7.910  0.00  0.00     0.233 C 
ATOM     21  O   LIG d   1       2.969   0.797  -8.946  0.00  0.00    -0.453 OA
ATOM     22  H   LIG d   1       7.288  -3.873  -7.610  0.00  0.00     0.043 H 
ATOM     23  H   LIG d   1       6.489  -5.314  -8.274  0.00  0.00     0.043 H 
ATOM     24  H   LIG d   1       6.267  -3.057  -9.542  0.00  0.00     0.033 H 
ATOM     25  H   LIG d   1       4.828  -4.069  -9.331  0.00  0.00     0.033 H 
ATOM     26  H   LIG d   1       4.294  -1.459 -10.013  0.00  0.00     0.066 H 
ATOM     27  H   LIG d   1       3.722  -3.919  -4.839  0.00  0.00     0.033 H 
ATOM     28  H   LIG d   1       5.229  -4.046  -3.904  0.00  0.00     0.033 H 
ATOM     29  H   LIG d   1       3.580   1.103  -4.717  0.00  0.00     0.066 H 
ATOM     30  H   LIG d   1       4.032  -0.714  -0.875  0.00  0.00     0.065 H 
ATOM     31  H   LIG d   1       4.554  -2.867  -1.944  0.00  0.00     0.062 H 
ATOM     32  H   LIG d   1       1.959   2.361  -7.996  0.00  0.00     0.117 H 
ATOM     33  H   LIG d   1       3.748   2.458  -7.948  0.00  0.00     0.117 H 
ENDROOT
BRANCH   1  34
ATOM     34  C   LIG d   1       6.177  -5.521  -5.729  0.00  0.00    -0.012 C 
ATOM     35  H   LIG d   1       6.230  -6.461  -6.277  0.00  0.00     0.039 H 
ATOM     36  H   LIG d   1       7.182  -5.211  -5.441  0.00  0.00     0.039 H 
ATOM     37  H   LIG d   1       5.568  -5.654  -4.835  0.00  0.00     0.039 H 
ENDBRANCH   1  34
BRANCH  16  38
ATOM     38  O   LIG d   1       3.475   1.512  -2.131  0.00  0.00    -0.507 OA
ATOM     39  H   LIG d   1       3.948   2.269  -2.503  0.00  0.00     0.292 HD
ENDBRANCH  16  38
TORSDOF 2
ENDMDL
MODEL 3
REMARK VINA RESULT:      -6.4      9.407     11.078
REMARK  2 active torsions:
REMARK  status: ('A' for Active; 'I' for Inactive)
REMARK    1  A    between atoms: C_1  and  N_2 
REMARK    2  A    between atoms: C_17  and  O_20 
ROOT
ATOM      1  N   LIG d   1      10.526   9.944  -4.415  0.00  0.00    -0.298 N 
ATOM      2  C   LIG d   1       9.467   9.885  -5.424  0.00  0.00     0.003 C 
ATOM      3  C   LIG d   1       9.403   8.507  -6.060  0.00  0.00    -0.014 C 
ATOM      4  C   LIG d   1       9.642   7.407  -5.065  0.00  0.00    -0.037 A 
ATOM      5  C   LIG d   1       9.457   6.095  -5.487  0.00  0.00    -0.013 A 
ATOM      6  C   LIG d   1       9.636   5.037  -4.615  0.00  0.00     0.167 A 
ATOM      7  C   LIG d   1      10.015   5.284  -3.299  0.00  0.00     0.174 A 
ATOM      8  C   LIG d   1      10.221   6.596  -2.881  0.00  0.00     0.033 A 
ATOM      9  C   LIG d   1      10.024   7.660  -3.766  0.00  0.00    -0.015 A 
ATOM     10  C   LIG d   1      10.211   9.072  -3.275  0.00  0.00     0.040 C 
ATOM     11  H   LIG d   1       9.291   9.414  -2.801  0.00  0.00     0.051 H 
ATOM     12  C   LIG d   1      11.351   9.151  -2.263  0.00  0.00    -0.007 C 
ATOM     13  C   LIG d   1      11.168   8.129  -1.175  0.00  0.00    -0.037 A 
ATOM     14  C   LIG d   1      10.631   6.882  -1.484  0.00  0.00    -0.007 A 
ATOM     15  C   LIG d   1      10.479   5.921  -0.491  0.00  0.00    -0.012 A 
ATOM     16  C   LIG d   1      10.853   6.218   0.811  0.00  0.00     0.117 A 
ATOM     17  C   LIG d   1      11.375   7.466   1.116  0.00  0.00    -0.020 A 
ATOM     18  C   LIG d   1      11.531   8.419   0.126  0.00  0.00    -0.054 A 
ATOM     19  O   LIG d   1      10.114   4.093  -2.641  0.00  0.00    -0.452 OA
ATOM     20  C   LIG d   1       9.406   3.141  -3.458  0.00  0.00     0.233 C 
ATOM     21  O   LIG d   1       9.511   3.688  -4.786  0.00  0.00    -0.453 OA
ATOM     22  H   LIG d   1       8.510  10.108  -4.953  0.00  0.00     0.043 H 
ATOM     23  H   LIG d   1       9.667  10.628  -6.197  0.00  0.00     0.043 H 
ATOM     24  H   LIG d   1       8.418   8.371  -6.508  0.00  0.00     0.033 H 
ATOM     25  H   LIG d   1      10.157   8.445  -6.844  0.00  0.00     0.033 H 
ATOM     26  H   LIG d   1       9.170   5.900  -6.510  0.00  0.00     0.066 H 
ATOM     27  H   LIG d   1      12.297   8.967  -2.773  0.00  0.00     0.033 H 
ATOM     28  H   LIG d   1      11.371  10.147  -1.820  0.00  0.00     0.033 H 
ATOM     29  H   LIG d   1      10.072   4.950  -0.731  0.00  0.00     0.066 H 
ATOM     30  H   LIG d   1      11.660   7.697   2.132  0.00  0.00     0.065 H 
ATOM     31  H   LIG d   1      11.938   9.389   0.368  0.00  0.00     0.062 H 
ATOM     32  H   LIG d   1       9.884   2.163  -3.407  0.00  0.00     0.117 H 
ATOM     33  H   LIG d   1       8.363   3.075  -3.152  0.00  0.00     0.117 H 
ENDROOT
BRANCH   1  34
ATOM     34  C   LIG d   1      10.756  11.326  -3.973  0.00  0.00    -0.012 C 
ATOM     35  H   LIG d   1      11.614  11.739  -4.504  0.00  0.00     0.039 H 
ATOM     36  H   LIG d   1       9.873  11.928  -4.186  0.00  0.00     0.039 H 
ATOM     37  H   LIG d   1      10.953  11.336  -2.901  0.00  0.00     0.039 H 
ENDBRANCH   1  34
BRANCH  16  38
ATOM     38  O   LIG d   1      10.709   5.284   1.789  0.00  0.00    -0.507 OA
ATOM     39  H   LIG d   1      11.240   5.458   2.579  0.00  0.00     0.292 HD
ENDBRANCH  16  38
TORSDOF 2
ENDMDL
MODEL 4
REMARK VINA RESULT:      -6.3      3.121      5.295
REMARK  2 active torsions:
REMARK  status: ('A' for Active; 'I' for Inactive)
REMARK    1  A    between atoms: C_1  and  N_2 
REMARK    2  A    between atoms: C_17  and  O_20 
ROOT
ATOM      1  N   LIG d   1       8.064  -4.211  -5.485  0.00  0.00    -0.298 N 
ATOM      2  C   LIG d   1       9.528  -4.228  -5.485  0.00  0.00     0.003 C 
ATOM      3  C   LIG d   1      10.083  -2.920  -6.021  0.00  0.00    -0.014 C 
ATOM      4  C   LIG d   1       9.283  -1.732  -5.567  0.00  0.00    -0.037 A 
ATOM      5  C   LIG d   1       9.776  -0.464  -5.859  0.00  0.00    -0.013 A 
ATOM      6  C   LIG d   1       9.102   0.671  -5.448  0.00  0.00     0.167 A 
ATOM      7  C   LIG d   1       7.909   0.548  -4.742  0.00  0.00     0.174 A 
ATOM      8  C   LIG d   1       7.404  -0.720  -4.467  0.00  0.00     0.033 A 
ATOM      9  C   LIG d   1       8.099  -1.862  -4.874  0.00  0.00    -0.015 A 
ATOM     10  C   LIG d   1       7.553  -3.222  -4.525  0.00  0.00     0.040 C 
ATOM     11  H   LIG d   1       7.876  -3.494  -3.520  0.00  0.00     0.051 H 
ATOM     12  C   LIG d   1       6.028  -3.226  -4.577  0.00  0.00    -0.007 C 
ATOM     13  C   LIG d   1       5.465  -2.097  -3.758  0.00  0.00    -0.037 A 
ATOM     14  C   LIG d   1       6.132  -0.874  -3.721  0.00  0.00    -0.007 A 
ATOM     15  C   LIG d   1       5.608   0.184  -2.986  0.00  0.00    -0.012 A 
ATOM     16  C   LIG d   1       4.426   0.010  -2.282  0.00  0.00     0.117 A 
ATOM     17  C   LIG d   1       3.773  -1.214  -2.312  0.00  0.00    -0.020 A 
ATOM     18  C   LIG d   1       4.293  -2.264  -3.048  0.00  0.00    -0.054 A 
ATOM     19  O   LIG d   1       7.447   1.796  -4.442  0.00  0.00    -0.452 OA
ATOM     20  C   LIG d   1       8.571   2.678  -4.625  0.00  0.00     0.233 C 
ATOM     21  O   LIG d   1       9.380   2.000  -5.604  0.00  0.00    -0.453 OA
ATOM     22  H   LIG d   1       9.886  -4.381  -4.467  0.00  0.00     0.043 H 
ATOM     23  H   LIG d   1       9.876  -5.049  -6.113  0.00  0.00     0.043 H 
ATOM     24  H   LIG d   1      11.111  -2.805  -5.675  0.00  0.00     0.033 H 
ATOM     25  H   LIG d   1      10.080  -2.953  -7.109  0.00  0.00     0.033 H 
ATOM     26  H   LIG d   1      10.698  -0.365  -6.413  0.00  0.00     0.066 H 
ATOM     27  H   LIG d   1       5.703  -3.116  -5.612  0.00  0.00     0.033 H 
ATOM     28  H   LIG d   1       5.657  -4.174  -4.185  0.00  0.00     0.033 H 
ATOM     29  H   LIG d   1       6.119   1.136  -2.963  0.00  0.00     0.066 H 
ATOM     30  H   LIG d   1       2.857  -1.349  -1.758  0.00  0.00     0.065 H 
ATOM     31  H   LIG d   1       3.780  -3.214  -3.068  0.00  0.00     0.062 H 
ATOM     32  H   LIG d   1       8.240   3.645  -5.004  0.00  0.00     0.117 H 
ATOM     33  H   LIG d   1       9.120   2.799  -3.691  0.00  0.00     0.117 H 
ENDROOT
BRANCH   1  34
ATOM     34  C   LIG d   1       7.521  -5.547  -5.204  0.00  0.00    -0.012 C 
ATOM     35  H   LIG d   1       7.170  -5.999  -6.132  0.00  0.00     0.039 H 
ATOM     36  H   LIG d   1       8.301  -6.171  -4.768  0.00  0.00     0.039 H 
ATOM     37  H   LIG d   1       6.691  -5.461  -4.504  0.00  0.00     0.039 H 
ENDBRANCH   1  34
BRANCH  16  38
ATOM     38  O   LIG d   1       3.907   1.039  -1.562  0.00  0.00    -0.507 OA
ATOM     39  H   LIG d   1       3.898   0.886  -0.607  0.00  0.00     0.292 HD
ENDBRANCH  16  38
TORSDOF 2
ENDMDL
MODEL 5
REMARK VINA RESULT:      -6.3      9.369     10.580
REMARK  2 active torsions:
REMARK  status: ('A' for Active; 'I' for Inactive)
REMARK    1  A    between atoms: C_1  and  N_2 
REMARK    2  A    between atoms: C_17  and  O_20 
ROOT
ATOM      1  N   LIG d   1       9.535   9.314  -5.344  0.00  0.00    -0.298 N 
ATOM      2  C   LIG d   1      10.381  10.471  -5.049  0.00  0.00     0.003 C 
ATOM      3  C   LIG d   1      10.372  10.782  -3.562  0.00  0.00    -0.014 C 
ATOM      4  C   LIG d   1      10.369   9.539  -2.719  0.00  0.00    -0.037 A 
ATOM      5  C   LIG d   1      10.517   9.684  -1.343  0.00  0.00    -0.013 A 
ATOM      6  C   LIG d   1      10.549   8.579  -0.513  0.00  0.00     0.167 A 
ATOM      7  C   LIG d   1      10.422   7.304  -1.055  0.00  0.00     0.174 A 
ATOM      8  C   LIG d   1      10.252   7.158  -2.429  0.00  0.00     0.033 A 
ATOM      9  C   LIG d   1      10.236   8.280  -3.263  0.00  0.00    -0.015 A 
ATOM     10  C   LIG d   1      10.095   8.091  -4.750  0.00  0.00     0.040 C 
ATOM     11  H   LIG d   1      11.076   7.896  -5.184  0.00  0.00     0.051 H 
ATOM     12  C   LIG d   1       9.169   6.920  -5.067  0.00  0.00    -0.007 C 
ATOM     13  C   LIG d   1       9.596   5.688  -4.317  0.00  0.00    -0.037 A 
ATOM     14  C   LIG d   1      10.109   5.809  -3.028  0.00  0.00    -0.007 A 
ATOM     15  C   LIG d   1      10.484   4.674  -2.317  0.00  0.00    -0.012 A 
ATOM     16  C   LIG d   1      10.357   3.425  -2.904  0.00  0.00     0.117 A 
ATOM     17  C   LIG d   1       9.858   3.311  -4.194  0.00  0.00    -0.020 A 
ATOM     18  C   LIG d   1       9.480   4.440  -4.897  0.00  0.00    -0.054 A 
ATOM     19  O   LIG d   1      10.495   6.389  -0.045  0.00  0.00    -0.452 OA
ATOM     20  C   LIG d   1      11.067   7.094   1.073  0.00  0.00     0.233 C 
ATOM     21  O   LIG d   1      10.688   8.464   0.842  0.00  0.00    -0.453 OA
ATOM     22  H   LIG d   1      11.402  10.259  -5.365  0.00  0.00     0.043 H 
ATOM     23  H   LIG d   1      10.009  11.336  -5.599  0.00  0.00     0.043 H 
ATOM     24  H   LIG d   1      11.256  11.372  -3.319  0.00  0.00     0.033 H 
ATOM     25  H   LIG d   1       9.483  11.369  -3.329  0.00  0.00     0.033 H 
ATOM     26  H   LIG d   1      10.610  10.673  -0.919  0.00  0.00     0.066 H 
ATOM     27  H   LIG d   1       8.150   7.180  -4.779  0.00  0.00     0.033 H 
ATOM     28  H   LIG d   1       9.198   6.717  -6.138  0.00  0.00     0.033 H 
ATOM     29  H   LIG d   1      10.873   4.766  -1.313  0.00  0.00     0.066 H 
ATOM     30  H   LIG d   1       9.766   2.338  -4.651  0.00  0.00     0.065 H 
ATOM     31  H   LIG d   1       9.092   4.346  -5.901  0.00  0.00     0.062 H 
ATOM     32  H   LIG d   1      10.644   6.733   2.010  0.00  0.00     0.117 H 
ATOM     33  H   LIG d   1      12.152   6.992   1.077  0.00  0.00     0.117 H 
ENDROOT
BRANCH   1  34
ATOM     34  C   LIG d   1       9.343   9.157  -6.792  0.00  0.00    -0.012 C 
ATOM     35  H   LIG d   1       8.354   9.521  -7.069  0.00  0.00     0.039 H 
ATOM     36  H   LIG d   1      10.103   9.730  -7.323  0.00  0.00     0.039 H 
ATOM     37  H   LIG d   1       9.431   8.103  -7.057  0.00  0.00     0.039 H 
ENDBRANCH   1  34
BRANCH  16  38
ATOM     38  O   LIG d   1      10.721   2.311  -2.216  0.00  0.00    -0.507 OA
ATOM     39  H   LIG d   1      11.493   1.857  -2.582  0.00  0.00     0.292 HD
ENDBRANCH  16  38
TORSDOF 2
ENDMDL
MODEL 6
REMARK VINA RESULT:      -6.2      3.377      6.438
REMARK  2 active torsions:
REMARK  status: ('A' for Active; 'I' for Inactive)
REMARK    1  A    between atoms: C_1  and  N_2 
REMARK    2  A    between atoms: C_17  and  O_20 
ROOT
ATOM      1  N   LIG d   1       3.579  -0.796  -4.002  0.00  0.00    -0.298 N 
ATOM      2  C   LIG d   1       4.607  -1.565  -3.298  0.00  0.00     0.003 C 
ATOM      3  C   LIG d   1       4.802  -2.926  -3.945  0.00  0.00    -0.014 C 
ATOM      4  C   LIG d   1       4.716  -2.863  -5.444  0.00  0.00    -0.037 A 
ATOM      5  C   LIG d   1       5.031  -4.011  -6.163  0.00  0.00    -0.013 A 
ATOM      6  C   LIG d   1       4.996  -4.013  -7.546  0.00  0.00     0.167 A 
ATOM      7  C   LIG d   1       4.633  -2.857  -8.229  0.00  0.00     0.174 A 
ATOM      8  C   LIG d   1       4.298  -1.713  -7.510  0.00  0.00     0.033 A 
ATOM      9  C   LIG d   1       4.349  -1.715  -6.113  0.00  0.00    -0.015 A 
ATOM     10  C   LIG d   1       4.024  -0.452  -5.360  0.00  0.00     0.040 C 
ATOM     11  H   LIG d   1       4.915   0.174  -5.301  0.00  0.00     0.051 H 
ATOM     12  C   LIG d   1       2.913   0.329  -6.059  0.00  0.00    -0.007 C 
ATOM     13  C   LIG d   1       3.242   0.533  -7.513  0.00  0.00    -0.037 A 
ATOM     14  C   LIG d   1       3.902  -0.471  -8.217  0.00  0.00    -0.007 A 
ATOM     15  C   LIG d   1       4.190  -0.303  -9.567  0.00  0.00    -0.012 A 
ATOM     16  C   LIG d   1       3.826   0.874 -10.203  0.00  0.00     0.117 A 
ATOM     17  C   LIG d   1       3.179   1.876  -9.494  0.00  0.00    -0.020 A 
ATOM     18  C   LIG d   1       2.889   1.705  -8.152  0.00  0.00    -0.054 A 
ATOM     19  O   LIG d   1       4.686  -3.105  -9.570  0.00  0.00    -0.452 OA
ATOM     20  C   LIG d   1       5.469  -4.306  -9.708  0.00  0.00     0.233 C 
ATOM     21  O   LIG d   1       5.263  -4.993  -8.459  0.00  0.00    -0.453 OA
ATOM     22  H   LIG d   1       5.548  -1.017  -3.325  0.00  0.00     0.043 H 
ATOM     23  H   LIG d   1       4.302  -1.702  -2.259  0.00  0.00     0.043 H 
ATOM     24  H   LIG d   1       5.781  -3.313  -3.663  0.00  0.00     0.033 H 
ATOM     25  H   LIG d   1       4.035  -3.606  -3.575  0.00  0.00     0.033 H 
ATOM     26  H   LIG d   1       5.306  -4.911  -5.635  0.00  0.00     0.066 H 
ATOM     27  H   LIG d   1       1.978  -0.225  -5.976  0.00  0.00     0.033 H 
ATOM     28  H   LIG d   1       2.797   1.300  -5.577  0.00  0.00     0.033 H 
ATOM     29  H   LIG d   1       4.693  -1.084 -10.118  0.00  0.00     0.066 H 
ATOM     30  H   LIG d   1       2.903   2.794  -9.989  0.00  0.00     0.065 H 
ATOM     31  H   LIG d   1       2.386   2.488  -7.604  0.00  0.00     0.062 H 
ATOM     32  H   LIG d   1       5.103  -4.907 -10.541  0.00  0.00     0.117 H 
ATOM     33  H   LIG d   1       6.522  -4.064  -9.844  0.00  0.00     0.117 H 
ENDROOT
BRANCH   1  34
ATOM     34  C   LIG d   1       3.213   0.409  -3.246  0.00  0.00    -0.012 C 
ATOM     35  H   LIG d   1       2.672   0.121  -2.344  0.00  0.00     0.039 H 
ATOM     36  H   LIG d   1       4.116   0.953  -2.970  0.00  0.00     0.039 H 
ATOM     37  H   LIG d   1       2.578   1.045  -3.863  0.00  0.00     0.039 H 
ENDBRANCH   1  34
BRANCH  16  38
ATOM     38  O   LIG d   1       4.101   1.047 -11.523  0.00  0.00    -0.507 OA
ATOM     39  H   LIG d   1       3.387   1.467 -12.022  0.00  0.00     0.292 HD
ENDBRANCH  16  38
TORSDOF 2
ENDMDL
MODEL 7
REMARK VINA RESULT:      -6.2      9.162     10.482
REMARK  2 active torsions:
REMARK  status: ('A' for Active; 'I' for Inactive)
REMARK    1  A    between atoms: C_1  and  N_2 
REMARK    2  A    between atoms: C_17  and  O_20 
ROOT
ATOM      1  N   LIG d   1      10.685   3.386  -4.303  0.00  0.00    -0.298 N 
ATOM      2  C   LIG d   1      10.226   3.196  -2.926  0.00  0.00     0.003 C 
ATOM      3  C   LIG d   1      10.589   4.394  -2.066  0.00  0.00    -0.014 C 
ATOM      4  C   LIG d   1      10.435   5.694  -2.803  0.00  0.00    -0.037 A 
ATOM      5  C   LIG d   1      10.586   6.874  -2.082  0.00  0.00    -0.013 A 
ATOM      6  C   LIG d   1      10.433   8.104  -2.695  0.00  0.00     0.167 A 
ATOM      7  C   LIG d   1      10.134   8.167  -4.052  0.00  0.00     0.174 A 
ATOM      8  C   LIG d   1      10.003   6.987  -4.780  0.00  0.00     0.033 A 
ATOM      9  C   LIG d   1      10.145   5.748  -4.149  0.00  0.00    -0.015 A 
ATOM     10  C   LIG d   1       9.955   4.487  -4.950  0.00  0.00     0.040 C 
ATOM     11  H   LIG d   1       8.894   4.241  -4.992  0.00  0.00     0.051 H 
ATOM     12  C   LIG d   1      10.483   4.659  -6.372  0.00  0.00    -0.007 C 
ATOM     13  C   LIG d   1       9.907   5.895  -7.006  0.00  0.00    -0.037 A 
ATOM     14  C   LIG d   1       9.690   7.031  -6.229  0.00  0.00    -0.007 A 
ATOM     15  C   LIG d   1       9.180   8.187  -6.809  0.00  0.00    -0.012 A 
ATOM     16  C   LIG d   1       8.878   8.198  -8.162  0.00  0.00     0.117 A 
ATOM     17  C   LIG d   1       9.085   7.060  -8.929  0.00  0.00    -0.020 A 
ATOM     18  C   LIG d   1       9.597   5.913  -8.351  0.00  0.00    -0.054 A 
ATOM     19  O   LIG d   1      10.022   9.477  -4.416  0.00  0.00    -0.452 OA
ATOM     20  C   LIG d   1       9.863  10.207  -3.184  0.00  0.00     0.233 C 
ATOM     21  O   LIG d   1      10.523   9.378  -2.210  0.00  0.00    -0.453 OA
ATOM     22  H   LIG d   1       9.144   3.066  -2.923  0.00  0.00     0.043 H 
ATOM     23  H   LIG d   1      10.694   2.302  -2.513  0.00  0.00     0.043 H 
ATOM     24  H   LIG d   1       9.941   4.407  -1.189  0.00  0.00     0.033 H 
ATOM     25  H   LIG d   1      11.623   4.293  -1.738  0.00  0.00     0.033 H 
ATOM     26  H   LIG d   1      10.825   6.828  -1.030  0.00  0.00     0.066 H 
ATOM     27  H   LIG d   1      11.569   4.742  -6.345  0.00  0.00     0.033 H 
ATOM     28  H   LIG d   1      10.206   3.788  -6.967  0.00  0.00     0.033 H 
ATOM     29  H   LIG d   1       9.020   9.071  -6.210  0.00  0.00     0.066 H 
ATOM     30  H   LIG d   1       8.843   7.070  -9.981  0.00  0.00     0.065 H 
ATOM     31  H   LIG d   1       9.756   5.030  -8.953  0.00  0.00     0.062 H 
ATOM     32  H   LIG d   1      10.348  11.181  -3.252  0.00  0.00     0.117 H 
ATOM     33  H   LIG d   1       8.807  10.320  -2.939  0.00  0.00     0.117 H 
ENDROOT
BRANCH   1  34
ATOM     34  C   LIG d   1      10.558   2.144  -5.077  0.00  0.00    -0.012 C 
ATOM     35  H   LIG d   1      11.428   1.512  -4.895  0.00  0.00     0.039 H 
ATOM     36  H   LIG d   1       9.655   1.615  -4.771  0.00  0.00     0.039 H 
ATOM     37  H   LIG d   1      10.498   2.382  -6.139  0.00  0.00     0.039 H 
ENDBRANCH   1  34
BRANCH  16  38
ATOM     38  O   LIG d   1       8.381   9.324  -8.738  0.00  0.00    -0.507 OA
ATOM     39  H   LIG d   1       8.433  10.109  -8.176  0.00  0.00     0.292 HD
ENDBRANCH  16  38
TORSDOF 2
ENDMDL
MODEL 8
REMARK VINA RESULT:      -6.1     10.408     11.853
REMARK  2 active torsions:
REMARK  status: ('A' for Active; 'I' for Inactive)
REMARK    1  A    between atoms: C_1  and  N_2 
REMARK    2  A    between atoms: C_17  and  O_20 
ROOT
ATOM      1  N   LIG d   1       9.441   6.582  -4.966  0.00  0.00    -0.298 N 
ATOM      2  C   LIG d   1       9.864   7.312  -6.162  0.00  0.00     0.003 C 
ATOM      3  C   LIG d   1       9.478   8.778  -6.065  0.00  0.00    -0.014 C 
ATOM      4  C   LIG d   1       9.649   9.323  -4.676  0.00  0.00    -0.037 A 
ATOM      5  C   LIG d   1       9.478  10.691  -4.486  0.00  0.00    -0.013 A 
ATOM      6  C   LIG d   1       9.645  11.260  -3.237  0.00  0.00     0.167 A 
ATOM      7  C   LIG d   1       9.979  10.457  -2.151  0.00  0.00     0.174 A 
ATOM      8  C   LIG d   1      10.130   9.085  -2.335  0.00  0.00     0.033 A 
ATOM      9  C   LIG d   1       9.973   8.520  -3.604  0.00  0.00    -0.015 A 
ATOM     10  C   LIG d   1      10.185   7.040  -3.784  0.00  0.00     0.040 C 
ATOM     11  H   LIG d   1      11.248   6.841  -3.926  0.00  0.00     0.051 H 
ATOM     12  C   LIG d   1       9.694   6.266  -2.563  0.00  0.00    -0.007 C 
ATOM     13  C   LIG d   1      10.285   6.834  -1.301  0.00  0.00    -0.037 A 
ATOM     14  C   LIG d   1      10.480   8.209  -1.191  0.00  0.00    -0.007 A 
ATOM     15  C   LIG d   1      11.003   8.748  -0.021  0.00  0.00    -0.012 A 
ATOM     16  C   LIG d   1      11.340   7.907   1.029  0.00  0.00     0.117 A 
ATOM     17  C   LIG d   1      11.155   6.537   0.909  0.00  0.00    -0.020 A 
ATOM     18  C   LIG d   1      10.629   6.004  -0.254  0.00  0.00    -0.054 A 
ATOM     19  O   LIG d   1      10.099  11.245  -1.044  0.00  0.00    -0.452 OA
ATOM     20  C   LIG d   1      10.225  12.591  -1.541  0.00  0.00     0.233 C 
ATOM     21  O   LIG d   1       9.541  12.552  -2.807  0.00  0.00    -0.453 OA
ATOM     22  H   LIG d   1      10.946   7.233  -6.268  0.00  0.00     0.043 H 
ATOM     23  H   LIG d   1       9.386   6.872  -7.038  0.00  0.00     0.043 H 
ATOM     24  H   LIG d   1      10.103   9.354  -6.749  0.00  0.00     0.033 H 
ATOM     25  H   LIG d   1       8.436   8.890  -6.363  0.00  0.00     0.033 H 
ATOM     26  H   LIG d   1       9.212  11.315  -5.326  0.00  0.00     0.066 H 
ATOM     27  H   LIG d   1       8.607   6.330  -2.511  0.00  0.00     0.033 H 
ATOM     28  H   LIG d   1       9.987   5.220  -2.657  0.00  0.00     0.033 H 
ATOM     29  H   LIG d   1      11.147   9.815   0.071  0.00  0.00     0.066 H 
ATOM     30  H   LIG d   1      11.423   5.884   1.726  0.00  0.00     0.065 H 
ATOM     31  H   LIG d   1      10.487   4.937  -0.342  0.00  0.00     0.062 H 
ATOM     32  H   LIG d   1       9.741  13.295  -0.864  0.00  0.00     0.117 H 
ATOM     33  H   LIG d   1      11.274  12.852  -1.679  0.00  0.00     0.117 H 
ENDROOT
BRANCH   1  34
ATOM     34  C   LIG d   1       9.589   5.133  -5.154  0.00  0.00    -0.012 C 
ATOM     35  H   LIG d   1       9.235   4.614  -4.263  0.00  0.00     0.039 H 
ATOM     36  H   LIG d   1       9.001   4.816  -6.015  0.00  0.00     0.039 H 
ATOM     37  H   LIG d   1      10.639   4.894  -5.322  0.00  0.00     0.039 H 
ENDBRANCH   1  34
BRANCH  16  38
ATOM     38  O   LIG d   1      11.851   8.425   2.178  0.00  0.00    -0.507 OA
ATOM     39  H   LIG d   1      11.595   9.343   2.343  0.00  0.00     0.292 HD
ENDBRANCH  16  38
TORSDOF 2
ENDMDL
MODEL 9
REMARK VINA RESULT:      -6.1     10.112     11.676
REMARK  2 active torsions:
REMARK  status: ('A' for Active; 'I' for Inactive)
REMARK    1  A    between atoms: C_1  and  N_2 
REMARK    2  A    between atoms: C_17  and  O_20 
ROOT
ATOM      1  N   LIG d   1      11.155   5.461  -2.473  0.00  0.00    -0.298 N 
ATOM      2  C   LIG d   1      10.560   5.617  -1.145  0.00  0.00     0.003 C 
ATOM      3  C   LIG d   1      10.580   7.073  -0.712  0.00  0.00    -0.014 C 
ATOM      4  C   LIG d   1      10.291   8.011  -1.849  0.00  0.00    -0.037 A 
ATOM      5  C   LIG d   1      10.126   9.361  -1.556  0.00  0.00    -0.013 A 
ATOM      6  C   LIG d   1       9.834  10.273  -2.552  0.00  0.00     0.167 A 
ATOM      7  C   LIG d   1       9.711   9.841  -3.869  0.00  0.00     0.174 A 
ATOM      8  C   LIG d   1       9.896   8.494  -4.168  0.00  0.00     0.033 A 
ATOM      9  C   LIG d   1      10.178   7.576  -3.152  0.00  0.00    -0.015 A 
ATOM     10  C   LIG d   1      10.329   6.118  -3.497  0.00  0.00     0.040 C 
ATOM     11  H   LIG d   1       9.346   5.648  -3.524  0.00  0.00     0.051 H 
ATOM     12  C   LIG d   1      11.001   5.946  -4.857  0.00  0.00    -0.007 C 
ATOM     13  C   LIG d   1      10.298   6.766  -5.904  0.00  0.00    -0.037 A 
ATOM     14  C   LIG d   1       9.775   8.012  -5.566  0.00  0.00    -0.007 A 
ATOM     15  C   LIG d   1       9.144   8.789  -6.531  0.00  0.00    -0.012 A 
ATOM     16  C   LIG d   1       9.028   8.311  -7.827  0.00  0.00     0.117 A 
ATOM     17  C   LIG d   1       9.539   7.063  -8.155  0.00  0.00    -0.020 A 
ATOM     18  C   LIG d   1      10.171   6.294  -7.195  0.00  0.00    -0.054 A 
ATOM     19  O   LIG d   1       9.410  10.915  -4.656  0.00  0.00    -0.452 OA
ATOM     20  C   LIG d   1       8.959  11.941  -3.752  0.00  0.00     0.233 C 
ATOM     21  O   LIG d   1       9.624  11.623  -2.516  0.00  0.00    -0.453 OA
ATOM     22  H   LIG d   1       9.529   5.264  -1.169  0.00  0.00     0.043 H 
ATOM     23  H   LIG d   1      11.125   5.021  -0.427  0.00  0.00     0.043 H 
ATOM     24  H   LIG d   1       9.830   7.220   0.066  0.00  0.00     0.033 H 
ATOM     25  H   LIG d   1      11.562   7.306  -0.303  0.00  0.00     0.033 H 
ATOM     26  H   LIG d   1      10.228   9.700  -0.536  0.00  0.00     0.066 H 
ATOM     27  H   LIG d   1      12.040   6.267  -4.787  0.00  0.00     0.033 H 
ATOM     28  H   LIG d   1      10.969   4.894  -5.144  0.00  0.00     0.033 H 
ATOM     29  H   LIG d   1       8.747   9.761  -6.273  0.00  0.00     0.066 H 
ATOM     30  H   LIG d   1       9.442   6.690  -9.163  0.00  0.00     0.065 H 
ATOM     31  H   LIG d   1      10.567   5.323  -7.455  0.00  0.00     0.062 H 
ATOM     32  H   LIG d   1       9.262  12.925  -4.109  0.00  0.00     0.117 H 
ATOM     33  H   LIG d   1       7.877  11.894  -3.629  0.00  0.00     0.117 H 
ENDROOT
BRANCH   1  34
ATOM     34  C   LIG d   1      11.362   4.042  -2.794  0.00  0.00    -0.012 C 
ATOM     35  H   LIG d   1      11.819   3.540  -1.942  0.00  0.00     0.039 H 
ATOM     36  H   LIG d   1      10.402   3.576  -3.017  0.00  0.00     0.039 H 
ATOM     37  H   LIG d   1      12.017   3.958  -3.661  0.00  0.00     0.039 H 
ENDBRANCH   1  34
BRANCH  16  38
ATOM     38  O   LIG d   1       8.414   9.064  -8.777  0.00  0.00    -0.507 OA
ATOM     39  H   LIG d   1       8.199   9.962  -8.489  0.00  0.00     0.292 HD
ENDBRANCH  16  38
TORSDOF 2
ENDMDL
MODEL 10
REMARK VINA RESULT:      -6.0     10.210     11.261
REMARK  2 active torsions:
REMARK  status: ('A' for Active; 'I' for Inactive)
REMARK    1  A    between atoms: C_1  and  N_2 
REMARK    2  A    between atoms: C_17  and  O_20 
ROOT
ATOM      1  N   LIG d   1       9.285   9.265  -6.551  0.00  0.00    -0.298 N 
ATOM      2  C   LIG d   1       9.966  10.547  -6.737  0.00  0.00     0.003 C 
ATOM      3  C   LIG d   1       9.827  11.417  -5.500  0.00  0.00    -0.014 C 
ATOM      4  C   LIG d   1       9.922  10.622  -4.228  0.00  0.00    -0.037 A 
ATOM      5  C   LIG d   1       9.966  11.319  -3.025  0.00  0.00    -0.013 A 
ATOM      6  C   LIG d   1      10.079  10.649  -1.821  0.00  0.00     0.167 A 
ATOM      7  C   LIG d   1      10.140   9.259  -1.808  0.00  0.00     0.174 A 
ATOM      8  C   LIG d   1      10.075   8.559  -3.010  0.00  0.00     0.033 A 
ATOM      9  C   LIG d   1       9.975   9.245  -4.224  0.00  0.00    -0.015 A 
ATOM     10  C   LIG d   1       9.951   8.465  -5.512  0.00  0.00     0.040 C 
ATOM     11  H   LIG d   1      10.974   8.249  -5.822  0.00  0.00     0.051 H 
ATOM     12  C   LIG d   1       9.194   7.151  -5.340  0.00  0.00    -0.007 C 
ATOM     13  C   LIG d   1       9.719   6.387  -4.156  0.00  0.00    -0.037 A 
ATOM     14  C   LIG d   1      10.132   7.077  -3.018  0.00  0.00    -0.007 A 
ATOM     15  C   LIG d   1      10.597   6.379  -1.909  0.00  0.00    -0.012 A 
ATOM     16  C   LIG d   1      10.658   4.995  -1.947  0.00  0.00     0.117 A 
ATOM     17  C   LIG d   1      10.258   4.313  -3.087  0.00  0.00    -0.020 A 
ATOM     18  C   LIG d   1       9.790   5.008  -4.188  0.00  0.00    -0.054 A 
ATOM     19  O   LIG d   1      10.260   8.838  -0.515  0.00  0.00    -0.452 OA
ATOM     20  C   LIG d   1      10.672   9.999   0.231  0.00  0.00     0.233 C 
ATOM     21  O   LIG d   1      10.146  11.100  -0.533  0.00  0.00    -0.453 OA
ATOM     22  H   LIG d   1      11.023  10.368  -6.932  0.00  0.00     0.043 H 
ATOM     23  H   LIG d   1       9.527  11.064  -7.591  0.00  0.00     0.043 H 
ATOM     24  H   LIG d   1      10.617  12.168  -5.506  0.00  0.00     0.033 H 
ATOM     25  H   LIG d   1       8.862  11.922  -5.529  0.00  0.00     0.033 H 
ATOM     26  H   LIG d   1       9.912  12.397  -3.032  0.00  0.00     0.066 H 
ATOM     27  H   LIG d   1       8.136   7.363  -5.190  0.00  0.00     0.033 H 
ATOM     28  H   LIG d   1       9.314   6.546  -6.239  0.00  0.00     0.033 H 
ATOM     29  H   LIG d   1      10.909   6.912  -1.023  0.00  0.00     0.066 H 
ATOM     30  H   LIG d   1      10.312   3.235  -3.117  0.00  0.00     0.065 H 
ATOM     31  H   LIG d   1       9.479   4.473  -5.073  0.00  0.00     0.062 H 
ATOM     32  H   LIG d   1      10.238   9.984   1.231  0.00  0.00     0.117 H 
ATOM     33  H   LIG d   1      11.759  10.054   0.285  0.00  0.00     0.117 H 
ENDROOT
BRANCH   1  34
ATOM     34  C   LIG d   1       9.205   8.522  -7.816  0.00  0.00    -0.012 C 
ATOM     35  H   LIG d   1       9.049   7.464  -7.606  0.00  0.00     0.039 H 
ATOM     36  H   LIG d   1       8.372   8.902  -8.408  0.00  0.00     0.039 H 
ATOM     37  H   LIG d   1      10.134   8.650  -8.371  0.00  0.00     0.039 H 
ENDBRANCH   1  34
BRANCH  16  38
ATOM     38  O   LIG d   1      11.110   4.304  -0.867  0.00  0.00    -0.507 OA
ATOM     39  H   LIG d   1      10.480   3.655  -0.524  0.00  0.00     0.292 HD
ENDBRANCH  16  38
TORSDOF 2
ENDMDL
