MODEL 1
REMARK VINA RESULT:      -7.1      0.000      0.000
REMARK  8 active torsions:
REMARK  status: ('A' for Active; 'I' for Inactive)
REMARK    1  A    between atoms: C_1  and  O_2 
REMARK    2  A    between atoms: O_2  and  C_3 
REMARK    3  A    between atoms: C_3  and  C_5 
REMARK    4  A    between atoms: C_21  and  C_31 
REMARK    5  A    between atoms: C_24  and  N_27 
REMARK    6  A    between atoms: N_27  and  C_28 
REMARK    7  A    between atoms: C_34  and  O_37 
REMARK    8  A    between atoms: O_37  and  C_38 
ROOT
ATOM      1  C   LIG d   1       4.172  -4.335  -6.989  0.00  0.00     0.113 C 
ATOM      2  H   LIG d   1       3.597  -3.730  -6.287  0.00  0.00     0.058 H 
ATOM      3  C   LIG d   1       3.347  -4.565  -8.263  0.00  0.00     0.001 C 
ATOM      4  C   LIG d   1       3.280  -3.263  -9.020  0.00  0.00    -0.016 A 
ATOM      5  C   LIG d   1       2.392  -2.872 -10.092  0.00  0.00     0.003 A 
ATOM      6  C   LIG d   1       1.351  -3.533 -10.753  0.00  0.00    -0.052 A 
ATOM      7  C   LIG d   1       0.709  -2.840 -11.748  0.00  0.00    -0.061 A 
ATOM      8  C   LIG d   1       1.064  -1.546 -12.092  0.00  0.00    -0.060 A 
ATOM      9  C   LIG d   1       2.089  -0.868 -11.455  0.00  0.00    -0.038 A 
ATOM     10  C   LIG d   1       2.760  -1.546 -10.441  0.00  0.00     0.047 A 
ATOM     11  N   LIG d   1       3.794  -1.183  -9.625  0.00  0.00    -0.356 N 
ATOM     12  H   LIG d   1       4.244  -0.324  -9.645  0.00  0.00     0.166 HD
ATOM     13  C   LIG d   1       4.099  -2.213  -8.778  0.00  0.00     0.038 A 
ATOM     14  C   LIG d   1       5.169  -2.239  -7.714  0.00  0.00     0.057 C 
ATOM     15  H   LIG d   1       4.831  -1.676  -6.844  0.00  0.00     0.053 H 
ATOM     16  N   LIG d   1       5.416  -3.637  -7.330  0.00  0.00    -0.274 N 
ATOM     17  C   LIG d   1       6.401  -3.715  -6.244  0.00  0.00     0.042 C 
ATOM     18  H   LIG d   1       6.536  -4.756  -5.952  0.00  0.00     0.051 H 
ATOM     19  C   LIG d   1       7.735  -3.143  -6.730  0.00  0.00     0.010 C 
ATOM     20  C   LIG d   1       7.537  -1.690  -7.169  0.00  0.00    -0.019 C 
ATOM     21  H   LIG d   1       8.475  -1.298  -7.563  0.00  0.00     0.085 H 
ATOM     22  C   LIG d   1       6.459  -1.621  -8.255  0.00  0.00     0.011 C 
ATOM     23  H   LIG d   1       3.826  -5.325  -8.879  0.00  0.00     0.033 H 
ATOM     24  H   LIG d   1       2.341  -4.887  -7.996  0.00  0.00     0.033 H 
ATOM     25  H   LIG d   1       1.067  -4.541 -10.492  0.00  0.00     0.062 H 
ATOM     26  H   LIG d   1      -0.101  -3.319 -12.280  0.00  0.00     0.062 H 
ATOM     27  H   LIG d   1       0.523  -1.049 -12.884  0.00  0.00     0.062 H 
ATOM     28  H   LIG d   1       2.356   0.141 -11.734  0.00  0.00     0.064 H 
ATOM     29  H   LIG d   1       8.463  -3.182  -5.920  0.00  0.00     0.034 H 
ATOM     30  H   LIG d   1       8.097  -3.730  -7.574  0.00  0.00     0.034 H 
ATOM     31  H   LIG d   1       6.792  -2.180  -9.129  0.00  0.00     0.034 H 
ATOM     32  H   LIG d   1       6.277  -0.583  -8.531  0.00  0.00     0.034 H 
ENDROOT
BRANCH  17  33
ATOM     33  C   LIG d   1       5.911  -2.920  -5.063  0.00  0.00    -0.030 A 
ATOM     34  C   LIG d   1       6.736  -2.727  -3.971  0.00  0.00    -0.054 A 
ATOM     35  C   LIG d   1       6.290  -1.993  -2.888  0.00  0.00    -0.019 A 
ATOM     36  H   LIG d   1       7.731  -3.145  -3.965  0.00  0.00     0.062 H 
ATOM     37  C   LIG d   1       5.009  -1.460  -2.893  0.00  0.00     0.130 A 
ATOM     38  H   LIG d   1       6.937  -1.838  -2.037  0.00  0.00     0.065 H 
ATOM     39  C   LIG d   1       4.181  -1.661  -3.986  0.00  0.00    -0.019 A 
ATOM     40  C   LIG d   1       4.633  -2.390  -5.069  0.00  0.00    -0.054 A 
ATOM     41  H   LIG d   1       3.184  -1.246  -3.993  0.00  0.00     0.065 H 
ATOM     42  H   LIG d   1       3.989  -2.547  -5.921  0.00  0.00     0.062 H 
BRANCH  37  43
ATOM     43  O   LIG d   1       4.568  -0.742  -1.827  0.00  0.00    -0.406 OA
BRANCH  43  44
ATOM     44  C   LIG d   1       4.361   0.658  -2.027  0.00  0.00     0.575 C 
ATOM     45  F   LIG d   1       4.760   1.355  -0.881  0.00  0.00    -0.133 F 
ATOM     46  F   LIG d   1       5.117   1.089  -3.122  0.00  0.00    -0.133 F 
ATOM     47  F   LIG d   1       3.006   0.900  -2.271  0.00  0.00    -0.133 F 
ENDBRANCH  43  44
ENDBRANCH  37  43
ENDBRANCH  17  33
BRANCH   1  48
ATOM     48  C   LIG d   1       4.500  -5.663  -6.356  0.00  0.00     0.325 C 
ATOM     49  O   LIG d   1       4.123  -5.907  -5.235  0.00  0.00    -0.249 OA
BRANCH  48  50
ATOM     50  O   LIG d   1       5.211  -6.574  -7.038  0.00  0.00    -0.467 OA
BRANCH  50  51
ATOM     51  C   LIG d   1       4.671  -7.895  -7.112  0.00  0.00     0.082 C 
ATOM     52  H   LIG d   1       4.116  -8.113  -6.199  0.00  0.00     0.066 H 
ATOM     53  H   LIG d   1       4.002  -7.968  -7.970  0.00  0.00     0.066 H 
ATOM     54  H   LIG d   1       5.484  -8.614  -7.223  0.00  0.00     0.066 H 
ENDBRANCH  50  51
ENDBRANCH  48  50
ENDBRANCH   1  48
BRANCH  20  55
ATOM     55  N   LIG d   1       7.116  -0.882  -6.016  0.00  0.00     0.231 N 
ATOM     56  H   LIG d   1       6.309  -0.331  -6.270  0.00  0.00     0.202 HD
ATOM     57  H   LIG d   1       6.879  -1.491  -5.247  0.00  0.00     0.202 HD
BRANCH  55  58
ATOM     58  C   LIG d   1       8.212   0.010  -5.616  0.00  0.00    -0.022 A 
ATOM     59  C   LIG d   1       8.005   1.514  -5.809  0.00  0.00    -0.005 A 
ATOM     60  C   LIG d   1       7.982   0.912  -4.402  0.00  0.00    -0.005 A 
ATOM     61  H   LIG d   1       8.874   2.109  -6.086  0.00  0.00     0.032 H 
ATOM     62  H   LIG d   1       7.055   1.841  -6.232  0.00  0.00     0.032 H 
ATOM     63  H   LIG d   1       7.017   0.843  -3.901  0.00  0.00     0.032 H 
ATOM     64  H   LIG d   1       8.835   1.112  -3.755  0.00  0.00     0.032 H 
ATOM     65  H   LIG d   1       9.218  -0.383  -5.769  0.00  0.00     0.085 H 
ENDBRANCH  55  58
ENDBRANCH  20  55
TORSDOF 8
ENDMDL
MODEL 2
REMARK VINA RESULT:      -6.8      3.434      6.501
REMARK  8 active torsions:
REMARK  status: ('A' for Active; 'I' for Inactive)
REMARK    1  A    between atoms: C_1  and  O_2 
REMARK    2  A    between atoms: O_2  and  C_3 
REMARK    3  A    between atoms: C_3  and  C_5 
REMARK    4  A    between atoms: C_21  and  C_31 
REMARK    5  A    between atoms: C_24  and  N_27 
REMARK    6  A    between atoms: N_27  and  C_28 
REMARK    7  A    between atoms: C_34  and  O_37 
REMARK    8  A    between atoms: O_37  and  C_38 
ROOT
ATOM      1  C   LIG d   1       5.757  -4.199  -5.819  0.00  0.00     0.113 C 
ATOM      2  H   LIG d   1       5.960  -3.505  -6.636  0.00  0.00     0.058 H 
ATOM      3  C   LIG d   1       6.889  -5.232  -5.732  0.00  0.00     0.001 C 
ATOM      4  C   LIG d   1       8.117  -4.540  -5.197  0.00  0.00    -0.016 A 
ATOM      5  C   LIG d   1       9.495  -4.975  -5.218  0.00  0.00     0.003 A 
ATOM      6  C   LIG d   1      10.123  -6.123  -5.713  0.00  0.00    -0.052 A 
ATOM      7  C   LIG d   1      11.483  -6.205  -5.554  0.00  0.00    -0.061 A 
ATOM      8  C   LIG d   1      12.213  -5.205  -4.935  0.00  0.00    -0.060 A 
ATOM      9  C   LIG d   1      11.619  -4.058  -4.434  0.00  0.00    -0.038 A 
ATOM     10  C   LIG d   1      10.239  -3.947  -4.582  0.00  0.00     0.047 A 
ATOM     11  N   LIG d   1       9.355  -2.972  -4.215  0.00  0.00    -0.356 N 
ATOM     12  H   LIG d   1       9.590  -2.150  -3.758  0.00  0.00     0.166 HD
ATOM     13  C   LIG d   1       8.088  -3.332  -4.586  0.00  0.00     0.038 A 
ATOM     14  C   LIG d   1       6.815  -2.550  -4.380  0.00  0.00     0.057 C 
ATOM     15  H   LIG d   1       6.759  -1.745  -5.113  0.00  0.00     0.053 H 
ATOM     16  N   LIG d   1       5.672  -3.457  -4.557  0.00  0.00    -0.274 N 
ATOM     17  C   LIG d   1       4.403  -2.730  -4.436  0.00  0.00     0.042 C 
ATOM     18  H   LIG d   1       3.573  -3.416  -4.610  0.00  0.00     0.051 H 
ATOM     19  C   LIG d   1       4.290  -2.140  -3.028  0.00  0.00     0.010 C 
ATOM     20  C   LIG d   1       5.471  -1.200  -2.773  0.00  0.00    -0.019 C 
ATOM     21  H   LIG d   1       5.419  -0.820  -1.753  0.00  0.00     0.085 H 
ATOM     22  C   LIG d   1       6.787  -1.960  -2.969  0.00  0.00     0.011 C 
ATOM     23  H   LIG d   1       6.599  -6.039  -5.059  0.00  0.00     0.033 H 
ATOM     24  H   LIG d   1       7.096  -5.635  -6.723  0.00  0.00     0.033 H 
ATOM     25  H   LIG d   1       9.561  -6.908  -6.198  0.00  0.00     0.062 H 
ATOM     26  H   LIG d   1      12.001  -7.077  -5.926  0.00  0.00     0.062 H 
ATOM     27  H   LIG d   1      13.283  -5.323  -4.837  0.00  0.00     0.062 H 
ATOM     28  H   LIG d   1      12.201  -3.286  -3.953  0.00  0.00     0.064 H 
ATOM     29  H   LIG d   1       3.358  -1.583  -2.941  0.00  0.00     0.034 H 
ATOM     30  H   LIG d   1       4.303  -2.945  -2.293  0.00  0.00     0.034 H 
ATOM     31  H   LIG d   1       6.851  -2.765  -2.236  0.00  0.00     0.034 H 
ATOM     32  H   LIG d   1       7.630  -1.281  -2.841  0.00  0.00     0.034 H 
ENDROOT
BRANCH  17  33
ATOM     33  C   LIG d   1       4.360  -1.620  -5.454  0.00  0.00    -0.030 A 
ATOM     34  C   LIG d   1       3.281  -0.757  -5.488  0.00  0.00    -0.054 A 
ATOM     35  C   LIG d   1       3.243   0.265  -6.417  0.00  0.00    -0.019 A 
ATOM     36  H   LIG d   1       2.470  -0.878  -4.786  0.00  0.00     0.062 H 
ATOM     37  C   LIG d   1       4.283   0.417  -7.323  0.00  0.00     0.130 A 
ATOM     38  H   LIG d   1       2.402   0.943  -6.441  0.00  0.00     0.065 H 
ATOM     39  C   LIG d   1       5.361  -0.454  -7.290  0.00  0.00    -0.019 A 
ATOM     40  C   LIG d   1       5.398  -1.471  -6.355  0.00  0.00    -0.054 A 
ATOM     41  H   LIG d   1       6.173  -0.337  -7.993  0.00  0.00     0.065 H 
ATOM     42  H   LIG d   1       6.237  -2.150  -6.330  0.00  0.00     0.062 H 
BRANCH  37  43
ATOM     43  O   LIG d   1       4.245   1.419  -8.240  0.00  0.00    -0.406 OA
BRANCH  43  44
ATOM     44  C   LIG d   1       3.261   1.319  -9.271  0.00  0.00     0.575 C 
ATOM     45  F   LIG d   1       2.135   2.069  -8.915  0.00  0.00    -0.133 F 
ATOM     46  F   LIG d   1       3.789   1.811 -10.470  0.00  0.00    -0.133 F 
ATOM     47  F   LIG d   1       2.895  -0.020  -9.439  0.00  0.00    -0.133 F 
ENDBRANCH  43  44
ENDBRANCH  37  43
ENDBRANCH  17  33
BRANCH   1  48
ATOM     48  C   LIG d   1       4.451  -4.906  -6.074  0.00  0.00     0.325 C 
ATOM     49  O   LIG d   1       4.060  -5.750  -5.303  0.00  0.00    -0.249 OA
BRANCH  48  50
ATOM     50  O   LIG d   1       3.721  -4.598  -7.158  0.00  0.00    -0.467 OA
BRANCH  50  51
ATOM     51  C   LIG d   1       4.428  -4.412  -8.385  0.00  0.00     0.082 C 
ATOM     52  H   LIG d   1       4.337  -3.373  -8.704  0.00  0.00     0.066 H 
ATOM     53  H   LIG d   1       5.480  -4.656  -8.240  0.00  0.00     0.066 H 
ATOM     54  H   LIG d   1       4.006  -5.064  -9.150  0.00  0.00     0.066 H 
ENDBRANCH  50  51
ENDBRANCH  48  50
ENDBRANCH   1  48
BRANCH  20  55
ATOM     55  N   LIG d   1       5.416  -0.076  -3.717  0.00  0.00     0.231 N 
ATOM     56  H   LIG d   1       6.280  -0.032  -4.237  0.00  0.00     0.202 HD
ATOM     57  H   LIG d   1       4.647  -0.210  -4.356  0.00  0.00     0.202 HD
BRANCH  55  58
ATOM     58  C   LIG d   1       5.226   1.178  -2.976  0.00  0.00    -0.022 A 
ATOM     59  C   LIG d   1       3.799   1.719  -2.859  0.00  0.00    -0.005 A 
ATOM     60  C   LIG d   1       4.486   1.102  -1.638  0.00  0.00    -0.005 A 
ATOM     61  H   LIG d   1       3.669   2.801  -2.869  0.00  0.00     0.032 H 
ATOM     62  H   LIG d   1       3.002   1.144  -3.331  0.00  0.00     0.032 H 
ATOM     63  H   LIG d   1       4.142   0.122  -1.309  0.00  0.00     0.032 H 
ATOM     64  H   LIG d   1       4.808   1.778  -0.847  0.00  0.00     0.032 H 
ATOM     65  H   LIG d   1       6.034   1.904  -3.065  0.00  0.00     0.085 H 
ENDBRANCH  55  58
ENDBRANCH  20  55
TORSDOF 8
ENDMDL
MODEL 3
REMARK VINA RESULT:      -6.6      4.263      6.923
REMARK  8 active torsions:
REMARK  status: ('A' for Active; 'I' for Inactive)
REMARK    1  A    between atoms: C_1  and  O_2 
REMARK    2  A    between atoms: O_2  and  C_3 
REMARK    3  A    between atoms: C_3  and  C_5 
REMARK    4  A    between atoms: C_21  and  C_31 
REMARK    5  A    between atoms: C_24  and  N_27 
REMARK    6  A    between atoms: N_27  and  C_28 
REMARK    7  A    between atoms: C_34  and  O_37 
REMARK    8  A    between atoms: O_37  and  C_38 
ROOT
ATOM      1  C   LIG d   1       5.141  -3.464  -6.969  0.00  0.00     0.113 C 
ATOM      2  H   LIG d   1       4.449  -4.190  -6.542  0.00  0.00     0.058 H 
ATOM      3  C   LIG d   1       4.668  -2.044  -6.630  0.00  0.00     0.001 C 
ATOM      4  C   LIG d   1       4.905  -1.809  -5.159  0.00  0.00    -0.016 A 
ATOM      5  C   LIG d   1       4.365  -0.780  -4.298  0.00  0.00     0.003 A 
ATOM      6  C   LIG d   1       3.489   0.286  -4.524  0.00  0.00    -0.052 A 
ATOM      7  C   LIG d   1       3.189   1.082  -3.448  0.00  0.00    -0.061 A 
ATOM      8  C   LIG d   1       3.721   0.851  -2.190  0.00  0.00    -0.060 A 
ATOM      9  C   LIG d   1       4.591  -0.196  -1.937  0.00  0.00    -0.038 A 
ATOM     10  C   LIG d   1       4.914  -1.021  -3.011  0.00  0.00     0.047 A 
ATOM     11  N   LIG d   1       5.719  -2.120  -3.111  0.00  0.00    -0.356 N 
ATOM     12  H   LIG d   1       6.224  -2.510  -2.380  0.00  0.00     0.166 HD
ATOM     13  C   LIG d   1       5.709  -2.586  -4.398  0.00  0.00     0.038 A 
ATOM     14  C   LIG d   1       6.453  -3.778  -4.947  0.00  0.00     0.057 C 
ATOM     15  H   LIG d   1       5.942  -4.695  -4.652  0.00  0.00     0.053 H 
ATOM     16  N   LIG d   1       6.482  -3.680  -6.413  0.00  0.00    -0.274 N 
ATOM     17  C   LIG d   1       7.134  -4.854  -7.005  0.00  0.00     0.042 C 
ATOM     18  H   LIG d   1       7.107  -4.776  -8.092  0.00  0.00     0.051 H 
ATOM     19  C   LIG d   1       8.590  -4.914  -6.533  0.00  0.00     0.010 C 
ATOM     20  C   LIG d   1       8.628  -4.993  -5.005  0.00  0.00    -0.019 C 
ATOM     21  H   LIG d   1       9.664  -4.984  -4.667  0.00  0.00     0.085 H 
ATOM     22  C   LIG d   1       7.884  -3.795  -4.407  0.00  0.00     0.011 C 
ATOM     23  H   LIG d   1       5.234  -1.318  -7.214  0.00  0.00     0.033 H 
ATOM     24  H   LIG d   1       3.606  -1.947  -6.851  0.00  0.00     0.033 H 
ATOM     25  H   LIG d   1       3.069   0.474  -5.501  0.00  0.00     0.062 H 
ATOM     26  H   LIG d   1       2.515   1.915  -3.585  0.00  0.00     0.062 H 
ATOM     27  H   LIG d   1       3.450   1.511  -1.379  0.00  0.00     0.062 H 
ATOM     28  H   LIG d   1       4.999  -0.364  -0.951  0.00  0.00     0.064 H 
ATOM     29  H   LIG d   1       9.072  -5.795  -6.955  0.00  0.00     0.034 H 
ATOM     30  H   LIG d   1       9.116  -4.018  -6.863  0.00  0.00     0.034 H 
ATOM     31  H   LIG d   1       8.393  -2.875  -4.695  0.00  0.00     0.034 H 
ATOM     32  H   LIG d   1       7.863  -3.876  -3.321  0.00  0.00     0.034 H 
ENDROOT
BRANCH  17  33
ATOM     33  C   LIG d   1       6.412  -6.103  -6.571  0.00  0.00    -0.030 A 
ATOM     34  C   LIG d   1       6.824  -7.336  -7.039  0.00  0.00    -0.054 A 
ATOM     35  C   LIG d   1       6.165  -8.483  -6.639  0.00  0.00    -0.019 A 
ATOM     36  H   LIG d   1       7.663  -7.404  -7.715  0.00  0.00     0.062 H 
ATOM     37  C   LIG d   1       5.083  -8.395  -5.775  0.00  0.00     0.130 A 
ATOM     38  H   LIG d   1       6.491  -9.447  -7.001  0.00  0.00     0.065 H 
ATOM     39  C   LIG d   1       4.668  -7.156  -5.312  0.00  0.00    -0.019 A 
ATOM     40  C   LIG d   1       5.333  -6.012  -5.711  0.00  0.00    -0.054 A 
ATOM     41  H   LIG d   1       3.826  -7.084  -4.639  0.00  0.00     0.065 H 
ATOM     42  H   LIG d   1       5.010  -5.047  -5.351  0.00  0.00     0.062 H 
BRANCH  37  43
ATOM     43  O   LIG d   1       4.432  -9.521  -5.384  0.00  0.00    -0.406 OA
BRANCH  43  44
ATOM     44  C   LIG d   1       4.626  -9.949  -4.034  0.00  0.00     0.575 C 
ATOM     45  F   LIG d   1       4.634 -11.347  -3.985  0.00  0.00    -0.133 F 
ATOM     46  F   LIG d   1       5.848  -9.459  -3.561  0.00  0.00    -0.133 F 
ATOM     47  F   LIG d   1       3.588  -9.460  -3.235  0.00  0.00    -0.133 F 
ENDBRANCH  43  44
ENDBRANCH  37  43
ENDBRANCH  17  33
BRANCH   1  48
ATOM     48  C   LIG d   1       5.187  -3.633  -8.466  0.00  0.00     0.325 C 
ATOM     49  O   LIG d   1       5.753  -2.813  -9.150  0.00  0.00    -0.249 OA
BRANCH  48  50
ATOM     50  O   LIG d   1       4.598  -4.694  -9.040  0.00  0.00    -0.467 OA
BRANCH  50  51
ATOM     51  C   LIG d   1       3.242  -4.960  -8.675  0.00  0.00     0.082 C 
ATOM     52  H   LIG d   1       2.631  -4.080  -8.879  0.00  0.00     0.066 H 
ATOM     53  H   LIG d   1       2.868  -5.804  -9.256  0.00  0.00     0.066 H 
ATOM     54  H   LIG d   1       3.192  -5.199  -7.613  0.00  0.00     0.066 H 
ENDBRANCH  50  51
ENDBRANCH  48  50
ENDBRANCH   1  48
BRANCH  20  55
ATOM     55  N   LIG d   1       7.980  -6.235  -4.562  0.00  0.00     0.231 N 
ATOM     56  H   LIG d   1       7.327  -6.027  -3.821  0.00  0.00     0.202 HD
ATOM     57  H   LIG d   1       7.487  -6.653  -5.337  0.00  0.00     0.202 HD
BRANCH  55  58
ATOM     58  C   LIG d   1       9.000  -7.170  -4.068  0.00  0.00    -0.022 A 
ATOM     59  C   LIG d   1       9.689  -6.829  -2.745  0.00  0.00    -0.005 A 
ATOM     60  C   LIG d   1       8.672  -7.971  -2.806  0.00  0.00    -0.005 A 
ATOM     61  H   LIG d   1      10.740  -7.098  -2.642  0.00  0.00     0.032 H 
ATOM     62  H   LIG d   1       9.386  -5.911  -2.241  0.00  0.00     0.032 H 
ATOM     63  H   LIG d   1       7.699  -7.803  -2.343  0.00  0.00     0.032 H 
ATOM     64  H   LIG d   1       9.054  -8.989  -2.743  0.00  0.00     0.032 H 
ATOM     65  H   LIG d   1       9.598  -7.661  -4.835  0.00  0.00     0.085 H 
ENDBRANCH  55  58
ENDBRANCH  20  55
TORSDOF 8
ENDMDL
MODEL 4
REMARK VINA RESULT:      -6.6      5.122      6.936
REMARK  8 active torsions:
REMARK  status: ('A' for Active; 'I' for Inactive)
REMARK    1  A    between atoms: C_1  and  O_2 
REMARK    2  A    between atoms: O_2  and  C_3 
REMARK    3  A    between atoms: C_3  and  C_5 
REMARK    4  A    between atoms: C_21  and  C_31 
REMARK    5  A    between atoms: C_24  and  N_27 
REMARK    6  A    between atoms: N_27  and  C_28 
REMARK    7  A    between atoms: C_34  and  O_37 
REMARK    8  A    between atoms: O_37  and  C_38 
ROOT
ATOM      1  C   LIG d   1       6.613  -4.384  -4.936  0.00  0.00     0.113 C 
ATOM      2  H   LIG d   1       6.864  -4.782  -3.952  0.00  0.00     0.058 H 
ATOM      3  C   LIG d   1       5.364  -3.499  -4.828  0.00  0.00     0.001 C 
ATOM      4  C   LIG d   1       5.750  -2.228  -4.114  0.00  0.00    -0.016 A 
ATOM      5  C   LIG d   1       4.903  -1.230  -3.500  0.00  0.00     0.003 A 
ATOM      6  C   LIG d   1       3.516  -1.111  -3.367  0.00  0.00    -0.052 A 
ATOM      7  C   LIG d   1       3.047  -0.002  -2.709  0.00  0.00    -0.061 A 
ATOM      8  C   LIG d   1       3.897   0.962  -2.194  0.00  0.00    -0.060 A 
ATOM      9  C   LIG d   1       5.274   0.871  -2.310  0.00  0.00    -0.038 A 
ATOM     10  C   LIG d   1       5.779  -0.244  -2.974  0.00  0.00     0.047 A 
ATOM     11  N   LIG d   1       7.055  -0.640  -3.258  0.00  0.00    -0.356 N 
ATOM     12  H   LIG d   1       7.857  -0.152  -3.016  0.00  0.00     0.166 HD
ATOM     13  C   LIG d   1       7.031  -1.827  -3.939  0.00  0.00     0.038 A 
ATOM     14  C   LIG d   1       8.211  -2.619  -4.443  0.00  0.00     0.057 C 
ATOM     15  H   LIG d   1       8.675  -3.151  -3.611  0.00  0.00     0.053 H 
ATOM     16  N   LIG d   1       7.736  -3.587  -5.442  0.00  0.00    -0.274 N 
ATOM     17  C   LIG d   1       8.837  -4.435  -5.914  0.00  0.00     0.042 C 
ATOM     18  H   LIG d   1       8.452  -5.169  -6.623  0.00  0.00     0.051 H 
ATOM     19  C   LIG d   1       9.888  -3.561  -6.604  0.00  0.00     0.010 C 
ATOM     20  C   LIG d   1      10.407  -2.513  -5.617  0.00  0.00    -0.019 C 
ATOM     21  H   LIG d   1      11.117  -1.858  -6.122  0.00  0.00     0.085 H 
ATOM     22  C   LIG d   1       9.235  -1.682  -5.084  0.00  0.00     0.011 C 
ATOM     23  H   LIG d   1       4.993  -3.262  -5.825  0.00  0.00     0.033 H 
ATOM     24  H   LIG d   1       4.593  -4.019  -4.261  0.00  0.00     0.033 H 
ATOM     25  H   LIG d   1       2.845  -1.858  -3.766  0.00  0.00     0.062 H 
ATOM     26  H   LIG d   1       1.981   0.122  -2.588  0.00  0.00     0.062 H 
ATOM     27  H   LIG d   1       3.472   1.815  -1.685  0.00  0.00     0.062 H 
ATOM     28  H   LIG d   1       5.926   1.631  -1.904  0.00  0.00     0.064 H 
ATOM     29  H   LIG d   1      10.716  -4.185  -6.939  0.00  0.00     0.034 H 
ATOM     30  H   LIG d   1       9.439  -3.061  -7.462  0.00  0.00     0.034 H 
ATOM     31  H   LIG d   1       8.769  -1.145  -5.911  0.00  0.00     0.034 H 
ATOM     32  H   LIG d   1       9.593  -0.970  -4.341  0.00  0.00     0.034 H 
ENDROOT
BRANCH  17  33
ATOM     33  C   LIG d   1       9.462  -5.147  -4.743  0.00  0.00    -0.030 A 
ATOM     34  C   LIG d   1      10.418  -6.122  -4.958  0.00  0.00    -0.054 A 
ATOM     35  C   LIG d   1      10.996  -6.773  -3.884  0.00  0.00    -0.019 A 
ATOM     36  H   LIG d   1      10.716  -6.374  -5.965  0.00  0.00     0.062 H 
ATOM     37  C   LIG d   1      10.609  -6.454  -2.591  0.00  0.00     0.130 A 
ATOM     38  H   LIG d   1      11.746  -7.531  -4.053  0.00  0.00     0.065 H 
ATOM     39  C   LIG d   1       9.646  -5.479  -2.379  0.00  0.00    -0.019 A 
ATOM     40  C   LIG d   1       9.074  -4.828  -3.454  0.00  0.00    -0.054 A 
ATOM     41  H   LIG d   1       9.343  -5.229  -1.372  0.00  0.00     0.065 H 
ATOM     42  H   LIG d   1       8.324  -4.069  -3.290  0.00  0.00     0.062 H 
BRANCH  37  43
ATOM     43  O   LIG d   1      11.173  -7.095  -1.534  0.00  0.00    -0.406 OA
BRANCH  43  44
ATOM     44  C   LIG d   1      10.621  -8.363  -1.174  0.00  0.00     0.575 C 
ATOM     45  F   LIG d   1      10.717  -8.535   0.212  0.00  0.00    -0.133 F 
ATOM     46  F   LIG d   1       9.276  -8.412  -1.557  0.00  0.00    -0.133 F 
ATOM     47  F   LIG d   1      11.327  -9.382  -1.819  0.00  0.00    -0.133 F 
ENDBRANCH  43  44
ENDBRANCH  37  43
ENDBRANCH  17  33
BRANCH   1  48
ATOM     48  C   LIG d   1       6.340  -5.524  -5.883  0.00  0.00     0.325 C 
ATOM     49  O   LIG d   1       6.039  -5.296  -7.031  0.00  0.00    -0.249 OA
BRANCH  48  50
ATOM     50  O   LIG d   1       6.431  -6.791  -5.453  0.00  0.00    -0.467 OA
BRANCH  50  51
ATOM     51  C   LIG d   1       5.225  -7.558  -5.434  0.00  0.00     0.082 C 
ATOM     52  H   LIG d   1       5.305  -8.379  -6.147  0.00  0.00     0.066 H 
ATOM     53  H   LIG d   1       5.066  -7.960  -4.433  0.00  0.00     0.066 H 
ATOM     54  H   LIG d   1       4.385  -6.920  -5.707  0.00  0.00     0.066 H 
ENDBRANCH  50  51
ENDBRANCH  48  50
ENDBRANCH   1  48
BRANCH  20  55
ATOM     55  N   LIG d   1      11.074  -3.184  -4.493  0.00  0.00     0.231 N 
ATOM     56  H   LIG d   1      10.705  -2.829  -3.624  0.00  0.00     0.202 HD
ATOM     57  H   LIG d   1      10.908  -4.178  -4.548  0.00  0.00     0.202 HD
BRANCH  55  58
ATOM     58  C   LIG d   1      12.519  -2.924  -4.556  0.00  0.00    -0.022 A 
ATOM     59  C   LIG d   1      13.402  -3.588  -3.497  0.00  0.00    -0.005 A 
ATOM     60  C   LIG d   1      13.430  -4.091  -4.942  0.00  0.00    -0.005 A 
ATOM     61  H   LIG d   1      14.267  -3.030  -3.142  0.00  0.00     0.032 H 
ATOM     62  H   LIG d   1      12.911  -4.218  -2.755  0.00  0.00     0.032 H 
ATOM     63  H   LIG d   1      12.957  -5.051  -5.150  0.00  0.00     0.032 H 
ATOM     64  H   LIG d   1      14.314  -3.863  -5.537  0.00  0.00     0.032 H 
ATOM     65  H   LIG d   1      12.803  -1.928  -4.895  0.00  0.00     0.085 H 
ENDBRANCH  55  58
ENDBRANCH  20  55
TORSDOF 8
ENDMDL
MODEL 5
REMARK VINA RESULT:      -6.5      4.030      7.285
REMARK  8 active torsions:
REMARK  status: ('A' for Active; 'I' for Inactive)
REMARK    1  A    between atoms: C_1  and  O_2 
REMARK    2  A    between atoms: O_2  and  C_3 
REMARK    3  A    between atoms: C_3  and  C_5 
REMARK    4  A    between atoms: C_21  and  C_31 
REMARK    5  A    between atoms: C_24  and  N_27 
REMARK    6  A    between atoms: N_27  and  C_28 
REMARK    7  A    between atoms: C_34  and  O_37 
REMARK    8  A    between atoms: O_37  and  C_38 
ROOT
ATOM      1  C   LIG d   1       3.102  -0.966  -8.001  0.00  0.00     0.113 C 
ATOM      2  H   LIG d   1       2.681  -1.917  -7.674  0.00  0.00     0.058 H 
ATOM      3  C   LIG d   1       2.956   0.071  -6.880  0.00  0.00     0.001 C 
ATOM      4  C   LIG d   1       3.924  -0.287  -5.780  0.00  0.00    -0.016 A 
ATOM      5  C   LIG d   1       3.962   0.173  -4.410  0.00  0.00     0.003 A 
ATOM      6  C   LIG d   1       3.161   1.056  -3.680  0.00  0.00    -0.052 A 
ATOM      7  C   LIG d   1       3.501   1.263  -2.367  0.00  0.00    -0.061 A 
ATOM      8  C   LIG d   1       4.585   0.632  -1.779  0.00  0.00    -0.060 A 
ATOM      9  C   LIG d   1       5.396  -0.247  -2.476  0.00  0.00    -0.038 A 
ATOM     10  C   LIG d   1       5.075  -0.476  -3.812  0.00  0.00     0.047 A 
ATOM     11  N   LIG d   1       5.648  -1.266  -4.768  0.00  0.00    -0.356 N 
ATOM     12  H   LIG d   1       6.429  -1.825  -4.635  0.00  0.00     0.166 HD
ATOM     13  C   LIG d   1       4.954  -1.149  -5.942  0.00  0.00     0.038 A 
ATOM     14  C   LIG d   1       5.239  -1.846  -7.249  0.00  0.00     0.057 C 
ATOM     15  H   LIG d   1       4.894  -2.879  -7.194  0.00  0.00     0.053 H 
ATOM     16  N   LIG d   1       4.522  -1.144  -8.323  0.00  0.00    -0.274 N 
ATOM     17  C   LIG d   1       4.708  -1.825  -9.610  0.00  0.00     0.042 C 
ATOM     18  H   LIG d   1       4.135  -1.309 -10.380  0.00  0.00     0.051 H 
ATOM     19  C   LIG d   1       6.194  -1.808  -9.980  0.00  0.00     0.010 C 
ATOM     20  C   LIG d   1       7.001  -2.506  -8.883  0.00  0.00    -0.019 C 
ATOM     21  H   LIG d   1       8.063  -2.449  -9.121  0.00  0.00     0.085 H 
ATOM     22  C   LIG d   1       6.741  -1.824  -7.537  0.00  0.00     0.011 C 
ATOM     23  H   LIG d   1       3.188   1.064  -7.264  0.00  0.00     0.033 H 
ATOM     24  H   LIG d   1       1.938   0.054  -6.493  0.00  0.00     0.033 H 
ATOM     25  H   LIG d   1       2.314   1.553  -4.130  0.00  0.00     0.062 H 
ATOM     26  H   LIG d   1       2.904   1.939  -1.772  0.00  0.00     0.062 H 
ATOM     27  H   LIG d   1       4.806   0.834  -0.740  0.00  0.00     0.062 H 
ATOM     28  H   LIG d   1       6.238  -0.732  -2.006  0.00  0.00     0.064 H 
ATOM     29  H   LIG d   1       6.338  -2.329 -10.925  0.00  0.00     0.034 H 
ATOM     30  H   LIG d   1       6.532  -0.776 -10.078  0.00  0.00     0.034 H 
ATOM     31  H   LIG d   1       7.088  -0.791  -7.584  0.00  0.00     0.034 H 
ATOM     32  H   LIG d   1       7.272  -2.351  -6.745  0.00  0.00     0.034 H 
ENDROOT
BRANCH  17  33
ATOM     33  C   LIG d   1       4.232  -3.250  -9.498  0.00  0.00    -0.030 A 
ATOM     34  C   LIG d   1       4.238  -4.068 -10.612  0.00  0.00    -0.054 A 
ATOM     35  C   LIG d   1       3.807  -5.378 -10.510  0.00  0.00    -0.019 A 
ATOM     36  H   LIG d   1       4.584  -3.686 -11.561  0.00  0.00     0.062 H 
ATOM     37  C   LIG d   1       3.357  -5.866  -9.292  0.00  0.00     0.130 A 
ATOM     38  H   LIG d   1       3.816  -6.018 -11.380  0.00  0.00     0.065 H 
ATOM     39  C   LIG d   1       3.347  -5.041  -8.178  0.00  0.00    -0.019 A 
ATOM     40  C   LIG d   1       3.785  -3.735  -8.283  0.00  0.00    -0.054 A 
ATOM     41  H   LIG d   1       2.998  -5.420  -7.228  0.00  0.00     0.065 H 
ATOM     42  H   LIG d   1       3.776  -3.092  -7.416  0.00  0.00     0.062 H 
BRANCH  37  43
ATOM     43  O   LIG d   1       2.929  -7.152  -9.192  0.00  0.00    -0.406 OA
BRANCH  43  44
ATOM     44  C   LIG d   1       3.886  -8.125  -8.769  0.00  0.00     0.575 C 
ATOM     45  F   LIG d   1       4.029  -8.063  -7.378  0.00  0.00    -0.133 F 
ATOM     46  F   LIG d   1       3.447  -9.401  -9.136  0.00  0.00    -0.133 F 
ATOM     47  F   LIG d   1       5.118  -7.863  -9.375  0.00  0.00    -0.133 F 
ENDBRANCH  43  44
ENDBRANCH  37  43
ENDBRANCH  17  33
BRANCH   1  48
ATOM     48  C   LIG d   1       2.367  -0.487  -9.227  0.00  0.00     0.325 C 
ATOM     49  O   LIG d   1       2.598   0.610  -9.679  0.00  0.00    -0.249 OA
BRANCH  48  50
ATOM     50  O   LIG d   1       1.456  -1.277  -9.816  0.00  0.00    -0.467 OA
BRANCH  50  51
ATOM     51  C   LIG d   1       1.293  -1.138 -11.228  0.00  0.00     0.082 C 
ATOM     52  H   LIG d   1       0.231  -1.142 -11.474  0.00  0.00     0.066 H 
ATOM     53  H   LIG d   1       1.738  -0.199 -11.556  0.00  0.00     0.066 H 
ATOM     54  H   LIG d   1       1.786  -1.969 -11.734  0.00  0.00     0.066 H 
ENDBRANCH  50  51
ENDBRANCH  48  50
ENDBRANCH   1  48
BRANCH  20  55
ATOM     55  N   LIG d   1       6.595  -3.916  -8.797  0.00  0.00     0.231 N 
ATOM     56  H   LIG d   1       5.631  -3.970  -8.501  0.00  0.00     0.202 HD
ATOM     57  H   LIG d   1       6.692  -4.350  -9.703  0.00  0.00     0.202 HD
BRANCH  55  58
ATOM     58  C   LIG d   1       7.446  -4.613  -7.824  0.00  0.00    -0.022 A 
ATOM     59  C   LIG d   1       6.752  -5.474  -6.767  0.00  0.00    -0.005 A 
ATOM     60  C   LIG d   1       7.517  -6.139  -7.913  0.00  0.00    -0.005 A 
ATOM     61  H   LIG d   1       7.201  -5.511  -5.774  0.00  0.00     0.032 H 
ATOM     62  H   LIG d   1       5.663  -5.524  -6.793  0.00  0.00     0.032 H 
ATOM     63  H   LIG d   1       6.932  -6.624  -8.693  0.00  0.00     0.032 H 
ATOM     64  H   LIG d   1       8.469  -6.612  -7.674  0.00  0.00     0.032 H 
ATOM     65  H   LIG d   1       8.351  -4.082  -7.526  0.00  0.00     0.085 H 
ENDBRANCH  55  58
ENDBRANCH  20  55
TORSDOF 8
ENDMDL
MODEL 6
REMARK VINA RESULT:      -6.4      3.769      7.866
REMARK  8 active torsions:
REMARK  status: ('A' for Active; 'I' for Inactive)
REMARK    1  A    between atoms: C_1  and  O_2 
REMARK    2  A    between atoms: O_2  and  C_3 
REMARK    3  A    between atoms: C_3  and  C_5 
REMARK    4  A    between atoms: C_21  and  C_31 
REMARK    5  A    between atoms: C_24  and  N_27 
REMARK    6  A    between atoms: N_27  and  C_28 
REMARK    7  A    between atoms: C_34  and  O_37 
REMARK    8  A    between atoms: O_37  and  C_38 
ROOT
ATOM      1  C   LIG d   1       9.101  -0.737  -5.735  0.00  0.00     0.113 C 
ATOM      2  H   LIG d   1       8.727  -0.170  -6.588  0.00  0.00     0.058 H 
ATOM      3  C   LIG d   1      10.413  -0.111  -5.240  0.00  0.00     0.001 C 
ATOM      4  C   LIG d   1      10.084   1.199  -4.570  0.00  0.00    -0.016 A 
ATOM      5  C   LIG d   1      10.962   2.294  -4.222  0.00  0.00     0.003 A 
ATOM      6  C   LIG d   1      12.336   2.498  -4.379  0.00  0.00    -0.052 A 
ATOM      7  C   LIG d   1      12.845   3.687  -3.918  0.00  0.00    -0.061 A 
ATOM      8  C   LIG d   1      12.045   4.648  -3.323  0.00  0.00    -0.060 A 
ATOM      9  C   LIG d   1      10.682   4.473  -3.153  0.00  0.00    -0.038 A 
ATOM     10  C   LIG d   1      10.138   3.276  -3.612  0.00  0.00     0.047 A 
ATOM     11  N   LIG d   1       8.861   2.790  -3.606  0.00  0.00    -0.356 N 
ATOM     12  H   LIG d   1       8.089   3.254  -3.247  0.00  0.00     0.166 HD
ATOM     13  C   LIG d   1       8.836   1.548  -4.181  0.00  0.00     0.038 A 
ATOM     14  C   LIG d   1       7.637   0.656  -4.383  0.00  0.00     0.057 C 
ATOM     15  H   LIG d   1       7.052   1.016  -5.230  0.00  0.00     0.053 H 
ATOM     16  N   LIG d   1       8.108  -0.710  -4.656  0.00  0.00    -0.274 N 
ATOM     17  C   LIG d   1       6.980  -1.608  -4.931  0.00  0.00     0.042 C 
ATOM     18  H   LIG d   1       7.357  -2.603  -5.168  0.00  0.00     0.051 H 
ATOM     19  C   LIG d   1       6.082  -1.685  -3.693  0.00  0.00     0.010 C 
ATOM     20  C   LIG d   1       5.576  -0.283  -3.342  0.00  0.00    -0.019 C 
ATOM     21  H   LIG d   1       4.978  -0.330  -2.432  0.00  0.00     0.085 H 
ATOM     22  C   LIG d   1       6.767   0.655  -3.125  0.00  0.00     0.011 C 
ATOM     23  H   LIG d   1      10.893  -0.779  -4.525  0.00  0.00     0.033 H 
ATOM     24  H   LIG d   1      11.078   0.065  -6.085  0.00  0.00     0.033 H 
ATOM     25  H   LIG d   1      12.968   1.755  -4.842  0.00  0.00     0.062 H 
ATOM     26  H   LIG d   1      13.903   3.879  -4.024  0.00  0.00     0.062 H 
ATOM     27  H   LIG d   1      12.500   5.565  -2.978  0.00  0.00     0.062 H 
ATOM     28  H   LIG d   1      10.070   5.231  -2.687  0.00  0.00     0.064 H 
ATOM     29  H   LIG d   1       5.233  -2.336  -3.901  0.00  0.00     0.034 H 
ATOM     30  H   LIG d   1       6.651  -2.086  -2.855  0.00  0.00     0.034 H 
ATOM     31  H   LIG d   1       7.354   0.302  -2.276  0.00  0.00     0.034 H 
ATOM     32  H   LIG d   1       6.411   1.666  -2.927  0.00  0.00     0.034 H 
ENDROOT
BRANCH  17  33
ATOM     33  C   LIG d   1       6.188  -1.078  -6.097  0.00  0.00    -0.030 A 
ATOM     34  C   LIG d   1       5.031  -1.721  -6.496  0.00  0.00    -0.054 A 
ATOM     35  C   LIG d   1       4.301  -1.233  -7.562  0.00  0.00    -0.019 A 
ATOM     36  H   LIG d   1       4.695  -2.603  -5.970  0.00  0.00     0.062 H 
ATOM     37  C   LIG d   1       4.735  -0.104  -8.241  0.00  0.00     0.130 A 
ATOM     38  H   LIG d   1       3.394  -1.734  -7.870  0.00  0.00     0.065 H 
ATOM     39  C   LIG d   1       5.899   0.536  -7.843  0.00  0.00    -0.019 A 
ATOM     40  C   LIG d   1       6.623   0.048  -6.772  0.00  0.00    -0.054 A 
ATOM     41  H   LIG d   1       6.239   1.416  -8.369  0.00  0.00     0.065 H 
ATOM     42  H   LIG d   1       7.530   0.545  -6.463  0.00  0.00     0.062 H 
BRANCH  37  43
ATOM     43  O   LIG d   1       4.020   0.374  -9.292  0.00  0.00    -0.406 OA
BRANCH  43  44
ATOM     44  C   LIG d   1       2.989   1.321  -9.001  0.00  0.00     0.575 C 
ATOM     45  F   LIG d   1       3.204   2.486  -9.745  0.00  0.00    -0.133 F 
ATOM     46  F   LIG d   1       1.746   0.775  -9.338  0.00  0.00    -0.133 F 
ATOM     47  F   LIG d   1       3.009   1.628  -7.637  0.00  0.00    -0.133 F 
ENDBRANCH  43  44
ENDBRANCH  37  43
ENDBRANCH  17  33
BRANCH   1  48
ATOM     48  C   LIG d   1       9.351  -2.163  -6.150  0.00  0.00     0.325 C 
ATOM     49  O   LIG d   1       9.843  -2.943  -5.369  0.00  0.00    -0.249 OA
BRANCH  48  50
ATOM     50  O   LIG d   1       9.029  -2.569  -7.388  0.00  0.00    -0.467 OA
BRANCH  50  51
ATOM     51  C   LIG d   1       9.398  -1.711  -8.469  0.00  0.00     0.082 C 
ATOM     52  H   LIG d   1       8.510  -1.208  -8.854  0.00  0.00     0.066 H 
ATOM     53  H   LIG d   1      10.112  -0.967  -8.116  0.00  0.00     0.066 H 
ATOM     54  H   LIG d   1       9.853  -2.302  -9.264  0.00  0.00     0.066 H 
ENDBRANCH  50  51
ENDBRANCH  48  50
ENDBRANCH   1  48
BRANCH  20  55
ATOM     55  N   LIG d   1       4.750   0.230  -4.443  0.00  0.00     0.231 N 
ATOM     56  H   LIG d   1       5.185   1.054  -4.833  0.00  0.00     0.202 HD
ATOM     57  H   LIG d   1       4.666  -0.476  -5.159  0.00  0.00     0.202 HD
BRANCH  55  58
ATOM     58  C   LIG d   1       3.416   0.575  -3.935  0.00  0.00    -0.022 A 
ATOM     59  C   LIG d   1       2.215   0.245  -4.825  0.00  0.00    -0.005 A 
ATOM     60  C   LIG d   1       2.482  -0.579  -3.564  0.00  0.00    -0.005 A 
ATOM     61  H   LIG d   1       1.371   0.934  -4.806  0.00  0.00     0.032 H 
ATOM     62  H   LIG d   1       2.415  -0.227  -5.787  0.00  0.00     0.032 H 
ATOM     63  H   LIG d   1       2.859  -1.593  -3.696  0.00  0.00     0.032 H 
ATOM     64  H   LIG d   1       1.814  -0.432  -2.715  0.00  0.00     0.032 H 
ATOM     65  H   LIG d   1       3.362   1.481  -3.333  0.00  0.00     0.085 H 
ENDBRANCH  55  58
ENDBRANCH  20  55
TORSDOF 8
ENDMDL
MODEL 7
REMARK VINA RESULT:      -6.4      2.833      4.450
REMARK  8 active torsions:
REMARK  status: ('A' for Active; 'I' for Inactive)
REMARK    1  A    between atoms: C_1  and  O_2 
REMARK    2  A    between atoms: O_2  and  C_3 
REMARK    3  A    between atoms: C_3  and  C_5 
REMARK    4  A    between atoms: C_21  and  C_31 
REMARK    5  A    between atoms: C_24  and  N_27 
REMARK    6  A    between atoms: N_27  and  C_28 
REMARK    7  A    between atoms: C_34  and  O_37 
REMARK    8  A    between atoms: O_37  and  C_38 
ROOT
ATOM      1  C   LIG d   1       3.486  -0.163  -6.064  0.00  0.00     0.113 C 
ATOM      2  H   LIG d   1       4.317   0.472  -6.372  0.00  0.00     0.058 H 
ATOM      3  C   LIG d   1       2.452  -0.237  -7.196  0.00  0.00     0.001 C 
ATOM      4  C   LIG d   1       3.032  -1.073  -8.309  0.00  0.00    -0.016 A 
ATOM      5  C   LIG d   1       2.604  -1.188  -9.685  0.00  0.00     0.003 A 
ATOM      6  C   LIG d   1       1.565  -0.596 -10.411  0.00  0.00    -0.052 A 
ATOM      7  C   LIG d   1       1.452  -0.947 -11.733  0.00  0.00    -0.061 A 
ATOM      8  C   LIG d   1       2.320  -1.844 -12.333  0.00  0.00    -0.060 A 
ATOM      9  C   LIG d   1       3.357  -2.445 -11.640  0.00  0.00    -0.038 A 
ATOM     10  C   LIG d   1       3.497  -2.107 -10.296  0.00  0.00     0.047 A 
ATOM     11  N   LIG d   1       4.390  -2.503  -9.341  0.00  0.00    -0.356 N 
ATOM     12  H   LIG d   1       5.115  -3.132  -9.482  0.00  0.00     0.166 HD
ATOM     13  C   LIG d   1       4.107  -1.880  -8.156  0.00  0.00     0.038 A 
ATOM     14  C   LIG d   1       4.841  -2.024  -6.846  0.00  0.00     0.057 C 
ATOM     15  H   LIG d   1       5.767  -1.449  -6.882  0.00  0.00     0.053 H 
ATOM     16  N   LIG d   1       3.985  -1.511  -5.768  0.00  0.00    -0.274 N 
ATOM     17  C   LIG d   1       4.681  -1.562  -4.476  0.00  0.00     0.042 C 
ATOM     18  H   LIG d   1       4.040  -1.140  -3.702  0.00  0.00     0.051 H 
ATOM     19  C   LIG d   1       5.004  -3.019  -4.135  0.00  0.00     0.010 C 
ATOM     20  C   LIG d   1       5.878  -3.620  -5.238  0.00  0.00    -0.019 C 
ATOM     21  H   LIG d   1       6.066  -4.672  -5.020  0.00  0.00     0.085 H 
ATOM     22  C   LIG d   1       5.164  -3.497  -6.587  0.00  0.00     0.011 C 
ATOM     23  H   LIG d   1       1.536  -0.700  -6.828  0.00  0.00     0.033 H 
ATOM     24  H   LIG d   1       2.236   0.766  -7.563  0.00  0.00     0.033 H 
ATOM     25  H   LIG d   1       0.883   0.104  -9.951  0.00  0.00     0.062 H 
ATOM     26  H   LIG d   1       0.661  -0.509 -12.324  0.00  0.00     0.062 H 
ATOM     27  H   LIG d   1       2.183  -2.083 -13.378  0.00  0.00     0.062 H 
ATOM     28  H   LIG d   1       4.027  -3.142 -12.121  0.00  0.00     0.064 H 
ATOM     29  H   LIG d   1       5.538  -3.060  -3.185  0.00  0.00     0.034 H 
ATOM     30  H   LIG d   1       4.077  -3.589  -4.055  0.00  0.00     0.034 H 
ATOM     31  H   LIG d   1       4.239  -4.073  -6.559  0.00  0.00     0.034 H 
ATOM     32  H   LIG d   1       5.806  -3.875  -7.382  0.00  0.00     0.034 H 
ENDROOT
BRANCH  17  33
ATOM     33  C   LIG d   1       5.958  -0.768  -4.561  0.00  0.00    -0.030 A 
ATOM     34  C   LIG d   1       6.720  -0.564  -3.427  0.00  0.00    -0.054 A 
ATOM     35  C   LIG d   1       7.896   0.159  -3.504  0.00  0.00    -0.019 A 
ATOM     36  H   LIG d   1       6.401  -0.974  -2.480  0.00  0.00     0.062 H 
ATOM     37  C   LIG d   1       8.304   0.690  -4.719  0.00  0.00     0.130 A 
ATOM     38  H   LIG d   1       8.493   0.314  -2.618  0.00  0.00     0.065 H 
ATOM     39  C   LIG d   1       7.533   0.489  -5.854  0.00  0.00    -0.019 A 
ATOM     40  C   LIG d   1       6.363  -0.240  -5.774  0.00  0.00    -0.054 A 
ATOM     41  H   LIG d   1       7.849   0.901  -6.802  0.00  0.00     0.065 H 
ATOM     42  H   LIG d   1       5.762  -0.396  -6.657  0.00  0.00     0.062 H 
BRANCH  37  43
ATOM     43  O   LIG d   1       9.456   1.405  -4.795  0.00  0.00    -0.406 OA
BRANCH  43  44
ATOM     44  C   LIG d   1       9.407   2.765  -4.358  0.00  0.00     0.575 C 
ATOM     45  F   LIG d   1       8.115   3.268  -4.546  0.00  0.00    -0.133 F 
ATOM     46  F   LIG d   1       9.740   2.830  -3.001  0.00  0.00    -0.133 F 
ATOM     47  F   LIG d   1      10.316   3.527  -5.098  0.00  0.00    -0.133 F 
ENDBRANCH  43  44
ENDBRANCH  37  43
ENDBRANCH  17  33
BRANCH   1  48
ATOM     48  C   LIG d   1       2.841   0.415  -4.832  0.00  0.00     0.325 C 
ATOM     49  O   LIG d   1       1.842  -0.091  -4.379  0.00  0.00    -0.249 OA
BRANCH  48  50
ATOM     50  O   LIG d   1       3.376   1.492  -4.236  0.00  0.00    -0.467 OA
BRANCH  50  51
ATOM     51  C   LIG d   1       3.533   1.438  -2.817  0.00  0.00     0.082 C 
ATOM     52  H   LIG d   1       4.241   2.205  -2.500  0.00  0.00     0.066 H 
ATOM     53  H   LIG d   1       2.570   1.611  -2.337  0.00  0.00     0.066 H 
ATOM     54  H   LIG d   1       3.910   0.456  -2.530  0.00  0.00     0.066 H 
ENDBRANCH  50  51
ENDBRANCH  48  50
ENDBRANCH   1  48
BRANCH  20  55
ATOM     55  N   LIG d   1       7.156  -2.898  -5.299  0.00  0.00     0.231 N 
ATOM     56  H   LIG d   1       7.325  -2.595  -6.246  0.00  0.00     0.202 HD
ATOM     57  H   LIG d   1       7.118  -2.094  -4.690  0.00  0.00     0.202 HD
BRANCH  55  58
ATOM     58  C   LIG d   1       8.243  -3.788  -4.868  0.00  0.00    -0.022 A 
ATOM     59  C   LIG d   1       9.625  -3.165  -4.660  0.00  0.00    -0.005 A 
ATOM     60  C   LIG d   1       8.791  -3.599  -3.452  0.00  0.00    -0.005 A 
ATOM     61  H   LIG d   1      10.493  -3.772  -4.915  0.00  0.00     0.032 H 
ATOM     62  H   LIG d   1       9.728  -2.095  -4.842  0.00  0.00     0.032 H 
ATOM     63  H   LIG d   1       8.345  -2.815  -2.841  0.00  0.00     0.032 H 
ATOM     64  H   LIG d   1       9.111  -4.491  -2.914  0.00  0.00     0.032 H 
ATOM     65  H   LIG d   1       8.203  -4.804  -5.262  0.00  0.00     0.085 H 
ENDBRANCH  55  58
ENDBRANCH  20  55
TORSDOF 8
ENDMDL
MODEL 8
REMARK VINA RESULT:      -6.3      5.532      8.363
REMARK  8 active torsions:
REMARK  status: ('A' for Active; 'I' for Inactive)
REMARK    1  A    between atoms: C_1  and  O_2 
REMARK    2  A    between atoms: O_2  and  C_3 
REMARK    3  A    between atoms: C_3  and  C_5 
REMARK    4  A    between atoms: C_21  and  C_31 
REMARK    5  A    between atoms: C_24  and  N_27 
REMARK    6  A    between atoms: N_27  and  C_28 
REMARK    7  A    between atoms: C_34  and  O_37 
REMARK    8  A    between atoms: O_37  and  C_38 
ROOT
ATOM      1  C   LIG d   1       9.044   2.078  -4.808  0.00  0.00     0.113 C 
ATOM      2  H   LIG d   1       8.542   2.762  -5.493  0.00  0.00     0.058 H 
ATOM      3  C   LIG d   1       8.121   1.772  -3.620  0.00  0.00     0.001 C 
ATOM      4  C   LIG d   1       7.001   0.890  -4.111  0.00  0.00    -0.016 A 
ATOM      5  C   LIG d   1       5.736   0.583  -3.482  0.00  0.00     0.003 A 
ATOM      6  C   LIG d   1       5.154   0.978  -2.273  0.00  0.00    -0.052 A 
ATOM      7  C   LIG d   1       3.908   0.478  -1.991  0.00  0.00    -0.061 A 
ATOM      8  C   LIG d   1       3.246  -0.379  -2.854  0.00  0.00    -0.060 A 
ATOM      9  C   LIG d   1       3.797  -0.788  -4.057  0.00  0.00    -0.038 A 
ATOM     10  C   LIG d   1       5.062  -0.296  -4.370  0.00  0.00     0.047 A 
ATOM     11  N   LIG d   1       5.877  -0.488  -5.450  0.00  0.00    -0.356 N 
ATOM     12  H   LIG d   1       5.667  -1.047  -6.214  0.00  0.00     0.166 HD
ATOM     13  C   LIG d   1       7.034   0.224  -5.288  0.00  0.00     0.038 A 
ATOM     14  C   LIG d   1       8.203   0.300  -6.238  0.00  0.00     0.057 C 
ATOM     15  H   LIG d   1       7.957   0.964  -7.067  0.00  0.00     0.053 H 
ATOM     16  N   LIG d   1       9.366   0.831  -5.512  0.00  0.00    -0.274 N 
ATOM     17  C   LIG d   1      10.516   0.993  -6.410  0.00  0.00     0.042 C 
ATOM     18  H   LIG d   1      11.350   1.424  -5.857  0.00  0.00     0.051 H 
ATOM     19  C   LIG d   1      10.922  -0.375  -6.962  0.00  0.00     0.010 C 
ATOM     20  C   LIG d   1       9.740  -0.994  -7.713  0.00  0.00    -0.019 C 
ATOM     21  H   LIG d   1      10.012  -1.989  -8.063  0.00  0.00     0.085 H 
ATOM     22  C   LIG d   1       8.530  -1.093  -6.779  0.00  0.00     0.011 C 
ATOM     23  H   LIG d   1       8.682   1.256  -2.842  0.00  0.00     0.033 H 
ATOM     24  H   LIG d   1       7.711   2.701  -3.225  0.00  0.00     0.033 H 
ATOM     25  H   LIG d   1       5.662   1.646  -1.594  0.00  0.00     0.062 H 
ATOM     26  H   LIG d   1       3.427   0.762  -1.066  0.00  0.00     0.062 H 
ATOM     27  H   LIG d   1       2.266  -0.743  -2.580  0.00  0.00     0.062 H 
ATOM     28  H   LIG d   1       3.270  -1.457  -4.721  0.00  0.00     0.064 H 
ATOM     29  H   LIG d   1      11.763  -0.256  -7.644  0.00  0.00     0.034 H 
ATOM     30  H   LIG d   1      11.211  -1.029  -6.139  0.00  0.00     0.034 H 
ATOM     31  H   LIG d   1       8.769  -1.758  -5.949  0.00  0.00     0.034 H 
ATOM     32  H   LIG d   1       7.671  -1.483  -7.325  0.00  0.00     0.034 H 
ENDROOT
BRANCH  17  33
ATOM     33  C   LIG d   1      10.141   1.906  -7.548  0.00  0.00    -0.030 A 
ATOM     34  C   LIG d   1      11.075   2.223  -8.515  0.00  0.00    -0.054 A 
ATOM     35  C   LIG d   1      10.731   3.056  -9.563  0.00  0.00    -0.019 A 
ATOM     36  H   LIG d   1      12.074   1.816  -8.455  0.00  0.00     0.062 H 
ATOM     37  C   LIG d   1       9.450   3.583  -9.637  0.00  0.00     0.130 A 
ATOM     38  H   LIG d   1      11.461   3.299 -10.321  0.00  0.00     0.065 H 
ATOM     39  C   LIG d   1       8.516   3.269  -8.661  0.00  0.00    -0.019 A 
ATOM     40  C   LIG d   1       8.863   2.431  -7.619  0.00  0.00    -0.054 A 
ATOM     41  H   LIG d   1       7.518   3.677  -8.717  0.00  0.00     0.065 H 
ATOM     42  H   LIG d   1       8.136   2.186  -6.859  0.00  0.00     0.062 H 
BRANCH  37  43
ATOM     43  O   LIG d   1       9.112   4.406 -10.664  0.00  0.00    -0.406 OA
BRANCH  43  44
ATOM     44  C   LIG d   1       8.959   5.794 -10.361  0.00  0.00     0.575 C 
ATOM     45  F   LIG d   1       9.909   6.169  -9.403  0.00  0.00    -0.133 F 
ATOM     46  F   LIG d   1       9.147   6.549 -11.524  0.00  0.00    -0.133 F 
ATOM     47  F   LIG d   1       7.675   6.025  -9.859  0.00  0.00    -0.133 F 
ENDBRANCH  43  44
ENDBRANCH  37  43
ENDBRANCH  17  33
BRANCH   1  48
ATOM     48  C   LIG d   1      10.315   2.712  -4.306  0.00  0.00     0.325 C 
ATOM     49  O   LIG d   1      10.973   2.157  -3.457  0.00  0.00    -0.249 OA
BRANCH  48  50
ATOM     50  O   LIG d   1      10.718   3.893  -4.800  0.00  0.00    -0.467 OA
BRANCH  50  51
ATOM     51  C   LIG d   1       9.718   4.900  -4.969  0.00  0.00     0.082 C 
ATOM     52  H   LIG d   1       9.002   4.843  -4.149  0.00  0.00     0.066 H 
ATOM     53  H   LIG d   1      10.189   5.884  -4.973  0.00  0.00     0.066 H 
ATOM     54  H   LIG d   1       9.199   4.742  -5.915  0.00  0.00     0.066 H 
ENDBRANCH  50  51
ENDBRANCH  48  50
ENDBRANCH   1  48
BRANCH  20  55
ATOM     55  N   LIG d   1       9.394  -0.149  -8.864  0.00  0.00     0.231 N 
ATOM     56  H   LIG d   1       9.067   0.748  -8.537  0.00  0.00     0.202 HD
ATOM     57  H   LIG d   1      10.211  -0.018  -9.443  0.00  0.00     0.202 HD
BRANCH  55  58
ATOM     58  C   LIG d   1       8.336  -0.800  -9.649  0.00  0.00    -0.022 A 
ATOM     59  C   LIG d   1       7.106   0.037 -10.006  0.00  0.00    -0.005 A 
ATOM     60  C   LIG d   1       8.128  -0.321 -11.088  0.00  0.00    -0.005 A 
ATOM     61  H   LIG d   1       6.143  -0.472 -10.037  0.00  0.00     0.032 H 
ATOM     62  H   LIG d   1       7.082   1.071  -9.660  0.00  0.00     0.032 H 
ATOM     63  H   LIG d   1       8.777   0.476 -11.451  0.00  0.00     0.032 H 
ATOM     64  H   LIG d   1       7.837  -1.066 -11.828  0.00  0.00     0.032 H 
ATOM     65  H   LIG d   1       8.182  -1.859  -9.443  0.00  0.00     0.085 H 
ENDBRANCH  55  58
ENDBRANCH  20  55
TORSDOF 8
ENDMDL
MODEL 9
REMARK VINA RESULT:      -6.3      2.714      5.770
REMARK  8 active torsions:
REMARK  status: ('A' for Active; 'I' for Inactive)
REMARK    1  A    between atoms: C_1  and  O_2 
REMARK    2  A    between atoms: O_2  and  C_3 
REMARK    3  A    between atoms: C_3  and  C_5 
REMARK    4  A    between atoms: C_21  and  C_31 
REMARK    5  A    between atoms: C_24  and  N_27 
REMARK    6  A    between atoms: N_27  and  C_28 
REMARK    7  A    between atoms: C_34  and  O_37 
REMARK    8  A    between atoms: O_37  and  C_38 
ROOT
ATOM      1  C   LIG d   1       8.607  -4.519  -5.167  0.00  0.00     0.113 C 
ATOM      2  H   LIG d   1       8.159  -4.161  -4.239  0.00  0.00     0.058 H 
ATOM      3  C   LIG d   1       8.702  -6.051  -5.132  0.00  0.00     0.001 C 
ATOM      4  C   LIG d   1       7.309  -6.611  -5.271  0.00  0.00    -0.016 A 
ATOM      5  C   LIG d   1       6.827  -7.946  -4.994  0.00  0.00     0.003 A 
ATOM      6  C   LIG d   1       7.455  -9.106  -4.529  0.00  0.00    -0.052 A 
ATOM      7  C   LIG d   1       6.670 -10.221  -4.381  0.00  0.00    -0.061 A 
ATOM      8  C   LIG d   1       5.316 -10.212  -4.674  0.00  0.00    -0.060 A 
ATOM      9  C   LIG d   1       4.668  -9.079  -5.136  0.00  0.00    -0.038 A 
ATOM     10  C   LIG d   1       5.440  -7.932  -5.296  0.00  0.00     0.047 A 
ATOM     11  N   LIG d   1       5.129  -6.671  -5.720  0.00  0.00    -0.356 N 
ATOM     12  H   LIG d   1       4.246  -6.377  -5.994  0.00  0.00     0.166 HD
ATOM     13  C   LIG d   1       6.250  -5.886  -5.702  0.00  0.00     0.038 A 
ATOM     14  C   LIG d   1       6.358  -4.432  -6.087  0.00  0.00     0.057 C 
ATOM     15  H   LIG d   1       5.959  -3.812  -5.283  0.00  0.00     0.053 H 
ATOM     16  N   LIG d   1       7.775  -4.106  -6.302  0.00  0.00    -0.274 N 
ATOM     17  C   LIG d   1       7.943  -2.681  -6.611  0.00  0.00     0.042 C 
ATOM     18  H   LIG d   1       9.004  -2.458  -6.727  0.00  0.00     0.051 H 
ATOM     19  C   LIG d   1       7.207  -2.355  -7.913  0.00  0.00     0.010 C 
ATOM     20  C   LIG d   1       5.723  -2.697  -7.760  0.00  0.00    -0.019 C 
ATOM     21  H   LIG d   1       5.208  -2.514  -8.703  0.00  0.00     0.085 H 
ATOM     22  C   LIG d   1       5.571  -4.171  -7.372  0.00  0.00     0.011 C 
ATOM     23  H   LIG d   1       9.322  -6.400  -5.958  0.00  0.00     0.033 H 
ATOM     24  H   LIG d   1       9.134  -6.371  -4.185  0.00  0.00     0.033 H 
ATOM     25  H   LIG d   1       8.510  -9.123  -4.297  0.00  0.00     0.062 H 
ATOM     26  H   LIG d   1       7.121 -11.135  -4.023  0.00  0.00     0.062 H 
ATOM     27  H   LIG d   1       4.746 -11.120  -4.539  0.00  0.00     0.062 H 
ATOM     28  H   LIG d   1       3.612  -9.086  -5.361  0.00  0.00     0.064 H 
ATOM     29  H   LIG d   1       7.314  -1.294  -8.136  0.00  0.00     0.034 H 
ATOM     30  H   LIG d   1       7.632  -2.942  -8.728  0.00  0.00     0.034 H 
ATOM     31  H   LIG d   1       5.965  -4.797  -8.173  0.00  0.00     0.034 H 
ATOM     32  H   LIG d   1       4.519  -4.405  -7.209  0.00  0.00     0.034 H 
ENDROOT
BRANCH  17  33
ATOM     33  C   LIG d   1       7.375  -1.852  -5.489  0.00  0.00    -0.030 A 
ATOM     34  C   LIG d   1       6.811  -2.473  -4.390  0.00  0.00    -0.054 A 
ATOM     35  C   LIG d   1       6.294  -1.714  -3.357  0.00  0.00    -0.019 A 
ATOM     36  H   LIG d   1       6.778  -3.551  -4.336  0.00  0.00     0.062 H 
ATOM     37  C   LIG d   1       6.330  -0.329  -3.430  0.00  0.00     0.130 A 
ATOM     38  H   LIG d   1       5.857  -2.200  -2.497  0.00  0.00     0.065 H 
ATOM     39  C   LIG d   1       6.891   0.291  -4.536  0.00  0.00    -0.019 A 
ATOM     40  C   LIG d   1       7.412  -0.472  -5.563  0.00  0.00    -0.054 A 
ATOM     41  H   LIG d   1       6.921   1.369  -4.594  0.00  0.00     0.065 H 
ATOM     42  H   LIG d   1       7.848   0.010  -6.425  0.00  0.00     0.062 H 
BRANCH  37  43
ATOM     43  O   LIG d   1       5.817   0.418  -2.417  0.00  0.00    -0.406 OA
BRANCH  43  44
ATOM     44  C   LIG d   1       4.434   0.234  -2.110  0.00  0.00     0.575 C 
ATOM     45  F   LIG d   1       3.918   1.414  -1.562  0.00  0.00    -0.133 F 
ATOM     46  F   LIG d   1       3.734  -0.081  -3.280  0.00  0.00    -0.133 F 
ATOM     47  F   LIG d   1       4.294  -0.808  -1.188  0.00  0.00    -0.133 F 
ENDBRANCH  43  44
ENDBRANCH  37  43
ENDBRANCH  17  33
BRANCH   1  48
ATOM     48  C   LIG d   1       9.987  -3.934  -5.318  0.00  0.00     0.325 C 
ATOM     49  O   LIG d   1      10.619  -4.130  -6.329  0.00  0.00    -0.249 OA
BRANCH  48  50
ATOM     50  O   LIG d   1      10.515  -3.196  -4.329  0.00  0.00    -0.467 OA
BRANCH  50  51
ATOM     51  C   LIG d   1      10.686  -3.835  -3.062  0.00  0.00     0.082 C 
ATOM     52  H   LIG d   1      11.406  -4.648  -3.159  0.00  0.00     0.066 H 
ATOM     53  H   LIG d   1      11.052  -3.110  -2.335  0.00  0.00     0.066 H 
ATOM     54  H   LIG d   1       9.729  -4.235  -2.725  0.00  0.00     0.066 H 
ENDBRANCH  50  51
ENDBRANCH  48  50
ENDBRANCH   1  48
BRANCH  20  55
ATOM     55  N   LIG d   1       5.133  -1.857  -6.709  0.00  0.00     0.231 N 
ATOM     56  H   LIG d   1       4.426  -2.383  -6.217  0.00  0.00     0.202 HD
ATOM     57  H   LIG d   1       5.852  -1.573  -6.061  0.00  0.00     0.202 HD
BRANCH  55  58
ATOM     58  C   LIG d   1       4.523  -0.668  -7.318  0.00  0.00    -0.022 A 
ATOM     59  C   LIG d   1       3.150  -0.835  -7.972  0.00  0.00    -0.005 A 
ATOM     60  C   LIG d   1       3.278  -0.088  -6.643  0.00  0.00    -0.005 A 
ATOM     61  H   LIG d   1       2.942  -0.243  -8.864  0.00  0.00     0.032 H 
ATOM     62  H   LIG d   1       2.698  -1.827  -7.950  0.00  0.00     0.032 H 
ATOM     63  H   LIG d   1       2.913  -0.589  -5.747  0.00  0.00     0.032 H 
ATOM     64  H   LIG d   1       3.155   0.995  -6.660  0.00  0.00     0.032 H 
ATOM     65  H   LIG d   1       5.218   0.033  -7.781  0.00  0.00     0.085 H 
ENDBRANCH  55  58
ENDBRANCH  20  55
TORSDOF 8
ENDMDL
MODEL 10
REMARK VINA RESULT:      -6.2      3.973      8.183
REMARK  8 active torsions:
REMARK  status: ('A' for Active; 'I' for Inactive)
REMARK    1  A    between atoms: C_1  and  O_2 
REMARK    2  A    between atoms: O_2  and  C_3 
REMARK    3  A    between atoms: C_3  and  C_5 
REMARK    4  A    between atoms: C_21  and  C_31 
REMARK    5  A    between atoms: C_24  and  N_27 
REMARK    6  A    between atoms: N_27  and  C_28 
REMARK    7  A    between atoms: C_34  and  O_37 
REMARK    8  A    between atoms: O_37  and  C_38 
ROOT
ATOM      1  C   LIG d   1       8.687   1.832  -6.317  0.00  0.00     0.113 C 
ATOM      2  H   LIG d   1       8.015   1.801  -5.459  0.00  0.00     0.058 H 
ATOM      3  C   LIG d   1       9.454   3.162  -6.318  0.00  0.00     0.001 C 
ATOM      4  C   LIG d   1      10.457   3.127  -5.193  0.00  0.00    -0.016 A 
ATOM      5  C   LIG d   1      11.189   4.216  -4.585  0.00  0.00     0.003 A 
ATOM      6  C   LIG d   1      11.215   5.594  -4.822  0.00  0.00    -0.052 A 
ATOM      7  C   LIG d   1      12.051   6.344  -4.035  0.00  0.00    -0.061 A 
ATOM      8  C   LIG d   1      12.839   5.776  -3.047  0.00  0.00    -0.060 A 
ATOM      9  C   LIG d   1      12.834   4.415  -2.790  0.00  0.00    -0.038 A 
ATOM     10  C   LIG d   1      11.994   3.628  -3.574  0.00  0.00     0.047 A 
ATOM     11  N   LIG d   1      11.748   2.285  -3.586  0.00  0.00    -0.356 N 
ATOM     12  H   LIG d   1      12.164   1.636  -2.998  0.00  0.00     0.166 HD
ATOM     13  C   LIG d   1      10.827   1.992  -4.556  0.00  0.00     0.038 A 
ATOM     14  C   LIG d   1      10.268   0.636  -4.909  0.00  0.00     0.057 C 
ATOM     15  H   LIG d   1       9.522   0.345  -4.169  0.00  0.00     0.053 H 
ATOM     16  N   LIG d   1       9.638   0.718  -6.235  0.00  0.00    -0.274 N 
ATOM     17  C   LIG d   1       9.013  -0.559  -6.599  0.00  0.00     0.042 C 
ATOM     18  H   LIG d   1       8.521  -0.460  -7.566  0.00  0.00     0.051 H 
ATOM     19  C   LIG d   1      10.091  -1.643  -6.683  0.00  0.00     0.010 C 
ATOM     20  C   LIG d   1      10.803  -1.760  -5.333  0.00  0.00    -0.019 C 
ATOM     21  H   LIG d   1      11.605  -2.495  -5.407  0.00  0.00     0.085 H 
ATOM     22  C   LIG d   1      11.391  -0.402  -4.939  0.00  0.00     0.011 C 
ATOM     23  H   LIG d   1       9.973   3.287  -7.269  0.00  0.00     0.033 H 
ATOM     24  H   LIG d   1       8.759   3.988  -6.166  0.00  0.00     0.033 H 
ATOM     25  H   LIG d   1      10.604   6.046  -5.590  0.00  0.00     0.062 H 
ATOM     26  H   LIG d   1      12.096   7.412  -4.190  0.00  0.00     0.062 H 
ATOM     27  H   LIG d   1      13.479   6.416  -2.458  0.00  0.00     0.062 H 
ATOM     28  H   LIG d   1      13.453   3.985  -2.017  0.00  0.00     0.064 H 
ATOM     29  H   LIG d   1       9.629  -2.597  -6.934  0.00  0.00     0.034 H 
ATOM     30  H   LIG d   1      10.816  -1.376  -7.453  0.00  0.00     0.034 H 
ATOM     31  H   LIG d   1      12.139  -0.106  -5.674  0.00  0.00     0.034 H 
ATOM     32  H   LIG d   1      11.852  -0.468  -3.954  0.00  0.00     0.034 H 
ENDROOT
BRANCH  17  33
ATOM     33  C   LIG d   1       7.997  -0.938  -5.553  0.00  0.00    -0.030 A 
ATOM     34  C   LIG d   1       7.246  -2.088  -5.705  0.00  0.00    -0.054 A 
ATOM     35  C   LIG d   1       6.317  -2.440  -4.744  0.00  0.00    -0.019 A 
ATOM     36  H   LIG d   1       7.386  -2.714  -6.574  0.00  0.00     0.062 H 
ATOM     37  C   LIG d   1       6.132  -1.632  -3.631  0.00  0.00     0.130 A 
ATOM     38  H   LIG d   1       5.733  -3.341  -4.862  0.00  0.00     0.065 H 
ATOM     39  C   LIG d   1       6.883  -0.476  -3.484  0.00  0.00    -0.019 A 
ATOM     40  C   LIG d   1       7.815  -0.131  -4.444  0.00  0.00    -0.054 A 
ATOM     41  H   LIG d   1       6.742   0.154  -2.618  0.00  0.00     0.065 H 
ATOM     42  H   LIG d   1       8.399   0.769  -4.330  0.00  0.00     0.062 H 
BRANCH  37  43
ATOM     43  O   LIG d   1       5.216  -1.975  -2.688  0.00  0.00    -0.406 OA
BRANCH  43  44
ATOM     44  C   LIG d   1       4.049  -1.156  -2.587  0.00  0.00     0.575 C 
ATOM     45  F   LIG d   1       2.938  -1.961  -2.311  0.00  0.00    -0.133 F 
ATOM     46  F   LIG d   1       4.219  -0.226  -1.556  0.00  0.00    -0.133 F 
ATOM     47  F   LIG d   1       3.847  -0.481  -3.795  0.00  0.00    -0.133 F 
ENDBRANCH  43  44
ENDBRANCH  37  43
ENDBRANCH  17  33
BRANCH   1  48
ATOM     48  C   LIG d   1       7.885   1.714  -7.587  0.00  0.00     0.325 C 
ATOM     49  O   LIG d   1       8.419   1.889  -8.657  0.00  0.00    -0.249 OA
BRANCH  48  50
ATOM     50  O   LIG d   1       6.578   1.416  -7.531  0.00  0.00    -0.467 OA
BRANCH  50  51
ATOM     51  C   LIG d   1       5.857   1.424  -8.765  0.00  0.00     0.082 C 
ATOM     52  H   LIG d   1       4.825   1.724  -8.581  0.00  0.00     0.066 H 
ATOM     53  H   LIG d   1       6.322   2.129  -9.454  0.00  0.00     0.066 H 
ATOM     54  H   LIG d   1       5.872   0.425  -9.202  0.00  0.00     0.066 H 
ENDBRANCH  50  51
ENDBRANCH  48  50
ENDBRANCH   1  48
BRANCH  20  55
ATOM     55  N   LIG d   1       9.842  -2.187  -4.307  0.00  0.00     0.231 N 
ATOM     56  H   LIG d   1       9.852  -1.528  -3.543  0.00  0.00     0.202 HD
ATOM     57  H   LIG d   1       8.916  -2.225  -4.708  0.00  0.00     0.202 HD
BRANCH  55  58
ATOM     58  C   LIG d   1      10.215  -3.519  -3.810  0.00  0.00    -0.022 A 
ATOM     59  C   LIG d   1       9.543  -4.006  -2.525  0.00  0.00    -0.005 A 
ATOM     60  C   LIG d   1       9.154  -4.619  -3.872  0.00  0.00    -0.005 A 
ATOM     61  H   LIG d   1      10.138  -4.619  -1.848  0.00  0.00     0.032 H 
ATOM     62  H   LIG d   1       8.823  -3.340  -2.049  0.00  0.00     0.032 H 
ATOM     63  H   LIG d   1       8.179  -4.355  -4.282  0.00  0.00     0.032 H 
ATOM     64  H   LIG d   1       9.493  -5.633  -4.081  0.00  0.00     0.032 H 
ATOM     65  H   LIG d   1      11.253  -3.809  -3.977  0.00  0.00     0.085 H 
ENDBRANCH  55  58
ENDBRANCH  20  55
TORSDOF 8
ENDMDL
