MODEL 1
REMARK VINA RESULT:      -5.9      0.000      0.000
REMARK  16 active torsions:
REMARK  status: ('A' for Active; 'I' for Inactive)
REMARK    1  A    between atoms: C_1  and  O_2 
REMARK    2  A    between atoms: O_2  and  C_3 
REMARK    3  A    between atoms: C_9  and  C_15 
REMARK    4  A    between atoms: C_12  and  O_13 
REMARK    5  A    between atoms: O_13  and  C_14 
REMARK    6  A    between atoms: C_15  and  C_16 
REMARK    7  A    between atoms: C_18  and  O_33 
REMARK    8  A    between atoms: C_19  and  O_31 
REMARK    9  A    between atoms: C_21  and  N_22 
REMARK       I    between atoms: N_22  and  C_23 
REMARK   10  A    between atoms: C_23  and  C_25 
REMARK   11  A    between atoms: C_25  and  C_26 
REMARK   12  A    between atoms: C_26  and  C_27 
REMARK   13  A    between atoms: C_27  and  O_29 
REMARK   14  A    between atoms: O_29  and  C_30 
REMARK   15  A    between atoms: O_31  and  C_32 
REMARK   16  A    between atoms: O_33  and  C_34 
ROOT
ATOM      1  C   LIG d   1       6.550  -0.024  -5.974  0.00  0.00    -0.017 A 
ATOM      2  C   LIG d   1       7.199   0.476  -7.088  0.00  0.00    -0.011 A 
ATOM      3  C   LIG d   1       8.177   1.446  -6.943  0.00  0.00     0.162 A 
ATOM      4  C   LIG d   1       8.506   1.919  -5.675  0.00  0.00     0.163 A 
ATOM      5  C   LIG d   1       7.856   1.418  -4.561  0.00  0.00     0.005 A 
ATOM      6  C   LIG d   1       6.873   0.449  -4.710  0.00  0.00     0.041 A 
ATOM      7  H   LIG d   1       6.944   0.111  -8.071  0.00  0.00     0.066 H 
ATOM      8  H   LIG d   1       8.111   1.783  -3.577  0.00  0.00     0.067 H 
ENDROOT
BRANCH   1   9
ATOM      9  C   LIG d   1       5.487  -1.081  -6.135  0.00  0.00     0.017 C 
ATOM     10  H   LIG d   1       5.035  -1.290  -5.166  0.00  0.00     0.038 H 
ATOM     11  H   LIG d   1       5.936  -1.991  -6.531  0.00  0.00     0.038 H 
BRANCH   9  12
ATOM     12  C   LIG d   1       4.428  -0.586  -7.087  0.00  0.00     0.053 A 
ATOM     13  N   LIG d   1       4.097   0.684  -7.100  0.00  0.00    -0.259 NA
ATOM     14  C   LIG d   1       3.174   1.177  -7.914  0.00  0.00     0.029 A 
ATOM     15  C   LIG d   1       2.501   0.390  -8.798  0.00  0.00    -0.036 A 
ATOM     16  H   LIG d   1       2.949   2.232  -7.874  0.00  0.00     0.083 H 
ATOM     17  C   LIG d   1       2.801  -0.985  -8.843  0.00  0.00    -0.011 A 
ATOM     18  H   LIG d   1       1.753   0.812  -9.453  0.00  0.00     0.064 H 
ATOM     19  C   LIG d   1       2.152  -1.860  -9.724  0.00  0.00    -0.009 A 
ATOM     20  C   LIG d   1       3.794  -1.484  -7.960  0.00  0.00     0.007 A 
ATOM     21  C   LIG d   1       2.485  -3.185  -9.723  0.00  0.00     0.162 A 
ATOM     22  H   LIG d   1       1.395  -1.491 -10.400  0.00  0.00     0.066 H 
ATOM     23  C   LIG d   1       3.461  -3.681  -8.847  0.00  0.00     0.162 A 
ATOM     24  C   LIG d   1       4.115  -2.851  -7.982  0.00  0.00    -0.007 A 
ATOM     25  H   LIG d   1       4.868  -3.243  -7.316  0.00  0.00     0.066 H 
BRANCH  21  26
ATOM     26  O   LIG d   1       1.856  -4.036 -10.577  0.00  0.00    -0.491 OA
BRANCH  26  27
ATOM     27  C   LIG d   1       1.757  -3.627 -11.943  0.00  0.00     0.079 C 
ATOM     28  H   LIG d   1       1.587  -4.501 -12.571  0.00  0.00     0.066 H 
ATOM     29  H   LIG d   1       0.923  -2.932 -12.054  0.00  0.00     0.066 H 
ATOM     30  H   LIG d   1       2.681  -3.137 -12.244  0.00  0.00     0.066 H 
ENDBRANCH  26  27
ENDBRANCH  21  26
BRANCH  23  31
ATOM     31  O   LIG d   1       3.768  -5.005  -8.864  0.00  0.00    -0.491 OA
BRANCH  31  32
ATOM     32  C   LIG d   1       4.015  -5.631  -7.603  0.00  0.00     0.079 C 
ATOM     33  H   LIG d   1       5.089  -5.737  -7.454  0.00  0.00     0.066 H 
ATOM     34  H   LIG d   1       3.596  -5.017  -6.805  0.00  0.00     0.066 H 
ATOM     35  H   LIG d   1       3.546  -6.615  -7.588  0.00  0.00     0.066 H 
ENDBRANCH  31  32
ENDBRANCH  23  31
ENDBRANCH   9  12
ENDBRANCH   1   9
BRANCH   6  36
ATOM     36  N   LIG d   1       6.210  -0.056  -3.583  0.00  0.00    -0.285 N 
ATOM     37  C   LIG d   1       5.311   0.708  -2.932  0.00  0.00     0.218 C 
ATOM     38  O   LIG d   1       5.014   1.800  -3.369  0.00  0.00    -0.276 OA
ATOM     39  H   LIG d   1       6.398  -0.956  -3.273  0.00  0.00     0.155 HD
BRANCH  37  40
ATOM     40  C   LIG d   1       4.674   0.206  -1.662  0.00  0.00     0.034 C 
ATOM     41  H   LIG d   1       5.335   0.408  -0.819  0.00  0.00     0.036 H 
ATOM     42  H   LIG d   1       3.722   0.715  -1.508  0.00  0.00     0.036 H 
BRANCH  40  43
ATOM     43  C   LIG d   1       4.435  -1.301  -1.773  0.00  0.00     0.053 C 
ATOM     44  H   LIG d   1       5.382  -1.806  -1.964  0.00  0.00     0.038 H 
ATOM     45  H   LIG d   1       4.007  -1.671  -0.841  0.00  0.00     0.038 H 
BRANCH  43  46
ATOM     46  C   LIG d   1       3.481  -1.575  -2.907  0.00  0.00     0.307 C 
ATOM     47  O   LIG d   1       3.736  -2.434  -3.718  0.00  0.00    -0.251 OA
BRANCH  46  48
ATOM     48  O   LIG d   1       2.348  -0.864  -3.017  0.00  0.00    -0.468 OA
BRANCH  48  49
ATOM     49  C   LIG d   1       2.107  -0.216  -4.268  0.00  0.00     0.082 C 
ATOM     50  H   LIG d   1       2.558   0.776  -4.256  0.00  0.00     0.066 H 
ATOM     51  H   LIG d   1       2.547  -0.805  -5.073  0.00  0.00     0.066 H 
ATOM     52  H   LIG d   1       1.033  -0.125  -4.429  0.00  0.00     0.066 H 
ENDBRANCH  48  49
ENDBRANCH  46  48
ENDBRANCH  43  46
ENDBRANCH  40  43
ENDBRANCH  37  40
ENDBRANCH   6  36
BRANCH   3  53
ATOM     53  O   LIG d   1       8.816   1.938  -8.040  0.00  0.00    -0.491 OA
BRANCH  53  54
ATOM     54  C   LIG d   1       9.554   1.006  -8.831  0.00  0.00     0.079 C 
ATOM     55  H   LIG d   1       8.865   0.406  -9.425  0.00  0.00     0.066 H 
ATOM     56  H   LIG d   1      10.229   1.547  -9.495  0.00  0.00     0.066 H 
ATOM     57  H   LIG d   1      10.134   0.353  -8.178  0.00  0.00     0.066 H 
ENDBRANCH  53  54
ENDBRANCH   3  53
BRANCH   4  58
ATOM     58  O   LIG d   1       9.467   2.872  -5.533  0.00  0.00    -0.491 OA
BRANCH  58  59
ATOM     59  C   LIG d   1       9.282   3.827  -4.486  0.00  0.00     0.079 C 
ATOM     60  H   LIG d   1      10.017   4.624  -4.587  0.00  0.00     0.066 H 
ATOM     61  H   LIG d   1       8.279   4.247  -4.550  0.00  0.00     0.066 H 
ATOM     62  H   LIG d   1       9.409   3.337  -3.520  0.00  0.00     0.066 H 
ENDBRANCH  58  59
ENDBRANCH   4  58
TORSDOF 16
ENDMDL
MODEL 2
REMARK VINA RESULT:      -5.7      3.179      4.508
REMARK  16 active torsions:
REMARK  status: ('A' for Active; 'I' for Inactive)
REMARK    1  A    between atoms: C_1  and  O_2 
REMARK    2  A    between atoms: O_2  and  C_3 
REMARK    3  A    between atoms: C_9  and  C_15 
REMARK    4  A    between atoms: C_12  and  O_13 
REMARK    5  A    between atoms: O_13  and  C_14 
REMARK    6  A    between atoms: C_15  and  C_16 
REMARK    7  A    between atoms: C_18  and  O_33 
REMARK    8  A    between atoms: C_19  and  O_31 
REMARK    9  A    between atoms: C_21  and  N_22 
REMARK       I    between atoms: N_22  and  C_23 
REMARK   10  A    between atoms: C_23  and  C_25 
REMARK   11  A    between atoms: C_25  and  C_26 
REMARK   12  A    between atoms: C_26  and  C_27 
REMARK   13  A    between atoms: C_27  and  O_29 
REMARK   14  A    between atoms: O_29  and  C_30 
REMARK   15  A    between atoms: O_31  and  C_32 
REMARK   16  A    between atoms: O_33  and  C_34 
ROOT
ATOM      1  C   LIG d   1       6.145  -3.236  -4.584  0.00  0.00    -0.017 A 
ATOM      2  C   LIG d   1       6.815  -4.251  -5.244  0.00  0.00    -0.011 A 
ATOM      3  C   LIG d   1       8.164  -4.457  -5.010  0.00  0.00     0.162 A 
ATOM      4  C   LIG d   1       8.847  -3.642  -4.111  0.00  0.00     0.163 A 
ATOM      5  C   LIG d   1       8.177  -2.628  -3.451  0.00  0.00     0.005 A 
ATOM      6  C   LIG d   1       6.826  -2.420  -3.691  0.00  0.00     0.041 A 
ATOM      7  H   LIG d   1       6.285  -4.882  -5.941  0.00  0.00     0.066 H 
ATOM      8  H   LIG d   1       8.706  -1.995  -2.753  0.00  0.00     0.067 H 
ENDROOT
BRANCH   1   9
ATOM      9  C   LIG d   1       4.676  -3.015  -4.839  0.00  0.00     0.017 C 
ATOM     10  H   LIG d   1       4.432  -1.966  -4.665  0.00  0.00     0.038 H 
ATOM     11  H   LIG d   1       4.092  -3.641  -4.167  0.00  0.00     0.038 H 
BRANCH   9  12
ATOM     12  C   LIG d   1       4.356  -3.373  -6.268  0.00  0.00     0.053 A 
ATOM     13  N   LIG d   1       3.901  -4.570  -6.559  0.00  0.00    -0.259 NA
ATOM     14  C   LIG d   1       3.601  -4.942  -7.796  0.00  0.00     0.029 A 
ATOM     15  C   LIG d   1       3.749  -4.100  -8.856  0.00  0.00    -0.036 A 
ATOM     16  H   LIG d   1       3.231  -5.942  -7.968  0.00  0.00     0.083 H 
ATOM     17  C   LIG d   1       4.233  -2.799  -8.623  0.00  0.00    -0.011 A 
ATOM     18  H   LIG d   1       3.499  -4.424  -9.856  0.00  0.00     0.064 H 
ATOM     19  C   LIG d   1       4.413  -1.874  -9.661  0.00  0.00    -0.009 A 
ATOM     20  C   LIG d   1       4.545  -2.428  -7.289  0.00  0.00     0.007 A 
ATOM     21  C   LIG d   1       4.886  -0.625  -9.375  0.00  0.00     0.162 A 
ATOM     22  H   LIG d   1       4.179  -2.147 -10.679  0.00  0.00     0.066 H 
ATOM     23  C   LIG d   1       5.201  -0.260  -8.057  0.00  0.00     0.162 A 
ATOM     24  C   LIG d   1       5.029  -1.137  -7.026  0.00  0.00    -0.007 A 
ATOM     25  H   LIG d   1       5.270  -0.842  -6.015  0.00  0.00     0.066 H 
BRANCH  21  26
ATOM     26  O   LIG d   1       5.062   0.272 -10.380  0.00  0.00    -0.491 OA
BRANCH  26  27
ATOM     27  C   LIG d   1       3.899   0.656 -11.117  0.00  0.00     0.079 C 
ATOM     28  H   LIG d   1       3.619   1.674 -10.848  0.00  0.00     0.066 H 
ATOM     29  H   LIG d   1       4.116   0.609 -12.185  0.00  0.00     0.066 H 
ATOM     30  H   LIG d   1       3.080  -0.021 -10.882  0.00  0.00     0.066 H 
ENDBRANCH  26  27
ENDBRANCH  21  26
BRANCH  23  31
ATOM     31  O   LIG d   1       5.675   0.988  -7.803  0.00  0.00    -0.491 OA
BRANCH  31  32
ATOM     32  C   LIG d   1       7.095   1.152  -7.787  0.00  0.00     0.079 C 
ATOM     33  H   LIG d   1       7.572   0.180  -7.671  0.00  0.00     0.066 H 
ATOM     34  H   LIG d   1       7.418   1.606  -8.724  0.00  0.00     0.066 H 
ATOM     35  H   LIG d   1       7.376   1.798  -6.955  0.00  0.00     0.066 H 
ENDBRANCH  31  32
ENDBRANCH  23  31
ENDBRANCH   9  12
ENDBRANCH   1   9
BRANCH   6  36
ATOM     36  N   LIG d   1       6.146  -1.389  -3.028  0.00  0.00    -0.285 N 
ATOM     37  C   LIG d   1       6.273  -0.116  -3.453  0.00  0.00     0.218 C 
ATOM     38  O   LIG d   1       6.906   0.127  -4.458  0.00  0.00    -0.276 OA
ATOM     39  H   LIG d   1       5.584  -1.592  -2.264  0.00  0.00     0.155 HD
BRANCH  37  40
ATOM     40  C   LIG d   1       5.626   1.004  -2.679  0.00  0.00     0.034 C 
ATOM     41  H   LIG d   1       6.331   1.391  -1.943  0.00  0.00     0.036 H 
ATOM     42  H   LIG d   1       5.344   1.803  -3.366  0.00  0.00     0.036 H 
BRANCH  40  43
ATOM     43  C   LIG d   1       4.379   0.479  -1.967  0.00  0.00     0.053 C 
ATOM     44  H   LIG d   1       4.612  -0.466  -1.476  0.00  0.00     0.038 H 
ATOM     45  H   LIG d   1       4.053   1.205  -1.222  0.00  0.00     0.038 H 
BRANCH  43  46
ATOM     46  C   LIG d   1       3.279   0.264  -2.975  0.00  0.00     0.307 C 
ATOM     47  O   LIG d   1       2.556  -0.699  -2.884  0.00  0.00    -0.251 OA
BRANCH  46  48
ATOM     48  O   LIG d   1       3.104   1.144  -3.973  0.00  0.00    -0.468 OA
BRANCH  48  49
ATOM     49  C   LIG d   1       2.458   0.663  -5.155  0.00  0.00     0.082 C 
ATOM     50  H   LIG d   1       2.871   1.172  -6.026  0.00  0.00     0.066 H 
ATOM     51  H   LIG d   1       2.624  -0.410  -5.248  0.00  0.00     0.066 H 
ATOM     52  H   LIG d   1       1.389   0.862  -5.091  0.00  0.00     0.066 H 
ENDBRANCH  48  49
ENDBRANCH  46  48
ENDBRANCH  43  46
ENDBRANCH  40  43
ENDBRANCH  37  40
ENDBRANCH   6  36
BRANCH   3  53
ATOM     53  O   LIG d   1       8.822  -5.456  -5.659  0.00  0.00    -0.491 OA
BRANCH  53  54
ATOM     54  C   LIG d   1       9.149  -5.231  -7.031  0.00  0.00     0.079 C 
ATOM     55  H   LIG d   1      10.232  -5.230  -7.152  0.00  0.00     0.066 H 
ATOM     56  H   LIG d   1       8.718  -6.024  -7.643  0.00  0.00     0.066 H 
ATOM     57  H   LIG d   1       8.748  -4.269  -7.348  0.00  0.00     0.066 H 
ENDBRANCH  53  54
ENDBRANCH   3  53
BRANCH   4  58
ATOM     58  O   LIG d   1      10.173  -3.846  -3.882  0.00  0.00    -0.491 OA
BRANCH  58  59
ATOM     59  C   LIG d   1      10.525  -4.505  -2.663  0.00  0.00     0.079 C 
ATOM     60  H   LIG d   1       9.870  -4.162  -1.862  0.00  0.00     0.066 H 
ATOM     61  H   LIG d   1      10.415  -5.581  -2.788  0.00  0.00     0.066 H 
ATOM     62  H   LIG d   1      11.560  -4.272  -2.410  0.00  0.00     0.066 H 
ENDBRANCH  58  59
ENDBRANCH   4  58
TORSDOF 16
ENDMDL
MODEL 3
REMARK VINA RESULT:      -5.6      3.418      7.850
REMARK  16 active torsions:
REMARK  status: ('A' for Active; 'I' for Inactive)
REMARK    1  A    between atoms: C_1  and  O_2 
REMARK    2  A    between atoms: O_2  and  C_3 
REMARK    3  A    between atoms: C_9  and  C_15 
REMARK    4  A    between atoms: C_12  and  O_13 
REMARK    5  A    between atoms: O_13  and  C_14 
REMARK    6  A    between atoms: C_15  and  C_16 
REMARK    7  A    between atoms: C_18  and  O_33 
REMARK    8  A    between atoms: C_19  and  O_31 
REMARK    9  A    between atoms: C_21  and  N_22 
REMARK       I    between atoms: N_22  and  C_23 
REMARK   10  A    between atoms: C_23  and  C_25 
REMARK   11  A    between atoms: C_25  and  C_26 
REMARK   12  A    between atoms: C_26  and  C_27 
REMARK   13  A    between atoms: C_27  and  O_29 
REMARK   14  A    between atoms: O_29  and  C_30 
REMARK   15  A    between atoms: O_31  and  C_32 
REMARK   16  A    between atoms: O_33  and  C_34 
ROOT
ATOM      1  C   LIG d   1       4.834  -3.783  -5.939  0.00  0.00    -0.017 A 
ATOM      2  C   LIG d   1       4.636  -2.678  -6.746  0.00  0.00    -0.011 A 
ATOM      3  C   LIG d   1       4.003  -2.817  -7.969  0.00  0.00     0.162 A 
ATOM      4  C   LIG d   1       3.565  -4.071  -8.388  0.00  0.00     0.163 A 
ATOM      5  C   LIG d   1       3.763  -5.177  -7.580  0.00  0.00     0.005 A 
ATOM      6  C   LIG d   1       4.403  -5.035  -6.356  0.00  0.00     0.041 A 
ATOM      7  H   LIG d   1       4.976  -1.706  -6.423  0.00  0.00     0.066 H 
ATOM      8  H   LIG d   1       3.424  -6.151  -7.903  0.00  0.00     0.067 H 
ENDROOT
BRANCH   1   9
ATOM      9  C   LIG d   1       5.523  -3.628  -4.607  0.00  0.00     0.017 C 
ATOM     10  H   LIG d   1       6.599  -3.544  -4.763  0.00  0.00     0.038 H 
ATOM     11  H   LIG d   1       5.312  -4.497  -3.985  0.00  0.00     0.038 H 
BRANCH   9  12
ATOM     12  C   LIG d   1       5.016  -2.384  -3.923  0.00  0.00     0.053 A 
ATOM     13  N   LIG d   1       3.813  -2.366  -3.400  0.00  0.00    -0.259 NA
ATOM     14  C   LIG d   1       3.314  -1.302  -2.785  0.00  0.00     0.029 A 
ATOM     15  C   LIG d   1       4.023  -0.147  -2.656  0.00  0.00    -0.036 A 
ATOM     16  H   LIG d   1       2.315  -1.352  -2.376  0.00  0.00     0.083 H 
ATOM     17  C   LIG d   1       5.323  -0.090  -3.193  0.00  0.00    -0.011 A 
ATOM     18  H   LIG d   1       3.597   0.708  -2.152  0.00  0.00     0.064 H 
ATOM     19  C   LIG d   1       6.117   1.062  -3.101  0.00  0.00    -0.009 A 
ATOM     20  C   LIG d   1       5.831  -1.244  -3.845  0.00  0.00     0.007 A 
ATOM     21  C   LIG d   1       7.372   1.059  -3.640  0.00  0.00     0.162 A 
ATOM     22  H   LIG d   1       5.740   1.945  -2.608  0.00  0.00     0.066 H 
ATOM     23  C   LIG d   1       7.873  -0.079  -4.290  0.00  0.00     0.162 A 
ATOM     24  C   LIG d   1       7.125  -1.217  -4.389  0.00  0.00    -0.007 A 
ATOM     25  H   LIG d   1       7.524  -2.088  -4.887  0.00  0.00     0.066 H 
BRANCH  21  26
ATOM     26  O   LIG d   1       8.142   2.175  -3.553  0.00  0.00    -0.491 OA
BRANCH  26  27
ATOM     27  C   LIG d   1       8.362   2.907  -4.761  0.00  0.00     0.079 C 
ATOM     28  H   LIG d   1       7.859   3.872  -4.697  0.00  0.00     0.066 H 
ATOM     29  H   LIG d   1       9.432   3.064  -4.900  0.00  0.00     0.066 H 
ATOM     30  H   LIG d   1       7.964   2.345  -5.605  0.00  0.00     0.066 H 
ENDBRANCH  26  27
ENDBRANCH  21  26
BRANCH  23  31
ATOM     31  O   LIG d   1       9.123  -0.051  -4.822  0.00  0.00    -0.491 OA
BRANCH  31  32
ATOM     32  C   LIG d   1       9.592  -1.252  -5.441  0.00  0.00     0.079 C 
ATOM     33  H   LIG d   1       9.610  -2.056  -4.707  0.00  0.00     0.066 H 
ATOM     34  H   LIG d   1       8.927  -1.521  -6.260  0.00  0.00     0.066 H 
ATOM     35  H   LIG d   1      10.599  -1.090  -5.829  0.00  0.00     0.066 H 
ENDBRANCH  31  32
ENDBRANCH  23  31
ENDBRANCH   9  12
ENDBRANCH   1   9
BRANCH   6  36
ATOM     36  N   LIG d   1       4.609  -6.154  -5.538  0.00  0.00    -0.285 N 
ATOM     37  C   LIG d   1       5.645  -6.982  -5.779  0.00  0.00     0.218 C 
ATOM     38  O   LIG d   1       6.447  -6.713  -6.648  0.00  0.00    -0.276 OA
ATOM     39  H   LIG d   1       4.007  -6.333  -4.800  0.00  0.00     0.155 HD
BRANCH  37  40
ATOM     40  C   LIG d   1       5.809  -8.241  -4.966  0.00  0.00     0.034 C 
ATOM     41  H   LIG d   1       6.769  -8.701  -5.200  0.00  0.00     0.036 H 
ATOM     42  H   LIG d   1       5.772  -7.994  -3.905  0.00  0.00     0.036 H 
BRANCH  40  43
ATOM     43  C   LIG d   1       4.679  -9.215  -5.303  0.00  0.00     0.053 C 
ATOM     44  H   LIG d   1       3.850  -8.668  -5.751  0.00  0.00     0.038 H 
ATOM     45  H   LIG d   1       5.043  -9.965  -6.006  0.00  0.00     0.038 H 
BRANCH  43  46
ATOM     46  C   LIG d   1       4.210  -9.895  -4.042  0.00  0.00     0.307 C 
ATOM     47  O   LIG d   1       3.225  -9.493  -3.470  0.00  0.00    -0.251 OA
BRANCH  46  48
ATOM     48  O   LIG d   1       4.888 -10.946  -3.556  0.00  0.00    -0.468 OA
BRANCH  48  49
ATOM     49  C   LIG d   1       5.516 -10.780  -2.282  0.00  0.00     0.082 C 
ATOM     50  H   LIG d   1       5.515 -11.731  -1.750  0.00  0.00     0.066 H 
ATOM     51  H   LIG d   1       6.543 -10.444  -2.424  0.00  0.00     0.066 H 
ATOM     52  H   LIG d   1       4.968 -10.039  -1.701  0.00  0.00     0.066 H 
ENDBRANCH  48  49
ENDBRANCH  46  48
ENDBRANCH  43  46
ENDBRANCH  40  43
ENDBRANCH  37  40
ENDBRANCH   6  36
BRANCH   3  53
ATOM     53  O   LIG d   1       3.808  -1.729  -8.763  0.00  0.00    -0.491 OA
BRANCH  53  54
ATOM     54  C   LIG d   1       2.812  -0.793  -8.346  0.00  0.00     0.079 C 
ATOM     55  H   LIG d   1       2.844  -0.686  -7.262  0.00  0.00     0.066 H 
ATOM     56  H   LIG d   1       3.004   0.174  -8.812  0.00  0.00     0.066 H 
ATOM     57  H   LIG d   1       1.828  -1.151  -8.647  0.00  0.00     0.066 H 
ENDBRANCH  53  54
ENDBRANCH   3  53
BRANCH   4  58
ATOM     58  O   LIG d   1       2.942  -4.208  -9.590  0.00  0.00    -0.491 OA
BRANCH  58  59
ATOM     59  C   LIG d   1       3.622  -4.973 -10.588  0.00  0.00     0.079 C 
ATOM     60  H   LIG d   1       3.147  -5.950 -10.682  0.00  0.00     0.066 H 
ATOM     61  H   LIG d   1       3.572  -4.451 -11.542  0.00  0.00     0.066 H 
ATOM     62  H   LIG d   1       4.665  -5.103 -10.298  0.00  0.00     0.066 H 
ENDBRANCH  58  59
ENDBRANCH   4  58
TORSDOF 16
ENDMDL
MODEL 4
REMARK VINA RESULT:      -5.6      1.766      2.289
REMARK  16 active torsions:
REMARK  status: ('A' for Active; 'I' for Inactive)
REMARK    1  A    between atoms: C_1  and  O_2 
REMARK    2  A    between atoms: O_2  and  C_3 
REMARK    3  A    between atoms: C_9  and  C_15 
REMARK    4  A    between atoms: C_12  and  O_13 
REMARK    5  A    between atoms: O_13  and  C_14 
REMARK    6  A    between atoms: C_15  and  C_16 
REMARK    7  A    between atoms: C_18  and  O_33 
REMARK    8  A    between atoms: C_19  and  O_31 
REMARK    9  A    between atoms: C_21  and  N_22 
REMARK       I    between atoms: N_22  and  C_23 
REMARK   10  A    between atoms: C_23  and  C_25 
REMARK   11  A    between atoms: C_25  and  C_26 
REMARK   12  A    between atoms: C_26  and  C_27 
REMARK   13  A    between atoms: C_27  and  O_29 
REMARK   14  A    between atoms: O_29  and  C_30 
REMARK   15  A    between atoms: O_31  and  C_32 
REMARK   16  A    between atoms: O_33  and  C_34 
ROOT
ATOM      1  C   LIG d   1       6.091  -1.034  -6.662  0.00  0.00    -0.017 A 
ATOM      2  C   LIG d   1       6.768  -1.749  -7.632  0.00  0.00    -0.011 A 
ATOM      3  C   LIG d   1       8.126  -1.550  -7.820  0.00  0.00     0.162 A 
ATOM      4  C   LIG d   1       8.809  -0.627  -7.031  0.00  0.00     0.163 A 
ATOM      5  C   LIG d   1       8.131   0.088  -6.060  0.00  0.00     0.005 A 
ATOM      6  C   LIG d   1       6.769  -0.111  -5.878  0.00  0.00     0.041 A 
ATOM      7  H   LIG d   1       6.239  -2.464  -8.244  0.00  0.00     0.066 H 
ATOM      8  H   LIG d   1       8.659   0.804  -5.447  0.00  0.00     0.067 H 
ENDROOT
BRANCH   1   9
ATOM      9  C   LIG d   1       4.614  -1.254  -6.460  0.00  0.00     0.017 C 
ATOM     10  H   LIG d   1       4.341  -0.973  -5.442  0.00  0.00     0.038 H 
ATOM     11  H   LIG d   1       4.377  -2.305  -6.622  0.00  0.00     0.038 H 
BRANCH   9  12
ATOM     12  C   LIG d   1       3.841  -0.407  -7.438  0.00  0.00     0.053 A 
ATOM     13  N   LIG d   1       3.800   0.897  -7.289  0.00  0.00    -0.259 NA
ATOM     14  C   LIG d   1       3.138   1.693  -8.117  0.00  0.00     0.029 A 
ATOM     15  C   LIG d   1       2.449   1.206  -9.186  0.00  0.00    -0.036 A 
ATOM     16  H   LIG d   1       3.144   2.758  -7.938  0.00  0.00     0.083 H 
ATOM     17  C   LIG d   1       2.446  -0.183  -9.412  0.00  0.00    -0.011 A 
ATOM     18  H   LIG d   1       1.916   1.873  -9.848  0.00  0.00     0.064 H 
ATOM     19  C   LIG d   1       1.762  -0.762 -10.489  0.00  0.00    -0.009 A 
ATOM     20  C   LIG d   1       3.164  -1.011  -8.509  0.00  0.00     0.007 A 
ATOM     21  C   LIG d   1       1.795  -2.117 -10.659  0.00  0.00     0.162 A 
ATOM     22  H   LIG d   1       1.213  -0.141 -11.181  0.00  0.00     0.066 H 
ATOM     23  C   LIG d   1       2.499  -2.936  -9.763  0.00  0.00     0.162 A 
ATOM     24  C   LIG d   1       3.180  -2.401  -8.709  0.00  0.00    -0.007 A 
ATOM     25  H   LIG d   1       3.723  -3.042  -8.030  0.00  0.00     0.066 H 
BRANCH  21  26
ATOM     26  O   LIG d   1       1.131  -2.679 -11.702  0.00  0.00    -0.491 OA
BRANCH  26  27
ATOM     27  C   LIG d   1       1.638  -2.413 -13.012  0.00  0.00     0.079 C 
ATOM     28  H   LIG d   1       2.656  -2.792 -13.091  0.00  0.00     0.066 H 
ATOM     29  H   LIG d   1       1.007  -2.909 -13.752  0.00  0.00     0.066 H 
ATOM     30  H   LIG d   1       1.633  -1.339 -13.192  0.00  0.00     0.066 H 
ENDBRANCH  26  27
ENDBRANCH  21  26
BRANCH  23  31
ATOM     31  O   LIG d   1       2.510  -4.282  -9.954  0.00  0.00    -0.491 OA
BRANCH  31  32
ATOM     32  C   LIG d   1       3.695  -4.849 -10.517  0.00  0.00     0.079 C 
ATOM     33  H   LIG d   1       3.437  -5.421 -11.407  0.00  0.00     0.066 H 
ATOM     34  H   LIG d   1       4.387  -4.051 -10.785  0.00  0.00     0.066 H 
ATOM     35  H   LIG d   1       4.166  -5.506  -9.785  0.00  0.00     0.066 H 
ENDBRANCH  31  32
ENDBRANCH  23  31
ENDBRANCH   9  12
ENDBRANCH   1   9
BRANCH   6  36
ATOM     36  N   LIG d   1       6.079   0.616  -4.899  0.00  0.00    -0.285 N 
ATOM     37  C   LIG d   1       6.207   0.285  -3.599  0.00  0.00     0.218 C 
ATOM     38  O   LIG d   1       6.984  -0.586  -3.268  0.00  0.00    -0.276 OA
ATOM     39  H   LIG d   1       5.509   1.358  -5.157  0.00  0.00     0.155 HD
BRANCH  37  40
ATOM     40  C   LIG d   1       5.387   0.999  -2.554  0.00  0.00     0.034 C 
ATOM     41  H   LIG d   1       6.052   1.459  -1.824  0.00  0.00     0.036 H 
ATOM     42  H   LIG d   1       4.782   1.769  -3.033  0.00  0.00     0.036 H 
BRANCH  40  43
ATOM     43  C   LIG d   1       4.472  -0.006  -1.851  0.00  0.00     0.053 C 
ATOM     44  H   LIG d   1       5.062  -0.856  -1.508  0.00  0.00     0.038 H 
ATOM     45  H   LIG d   1       3.995   0.474  -0.997  0.00  0.00     0.038 H 
BRANCH  43  46
ATOM     46  C   LIG d   1       3.417  -0.482  -2.815  0.00  0.00     0.307 C 
ATOM     47  O   LIG d   1       2.832   0.312  -3.512  0.00  0.00    -0.251 OA
BRANCH  46  48
ATOM     48  O   LIG d   1       3.127  -1.791  -2.898  0.00  0.00    -0.468 OA
BRANCH  48  49
ATOM     49  C   LIG d   1       4.216  -2.681  -3.154  0.00  0.00     0.082 C 
ATOM     50  H   LIG d   1       4.951  -2.594  -2.354  0.00  0.00     0.066 H 
ATOM     51  H   LIG d   1       3.845  -3.705  -3.197  0.00  0.00     0.066 H 
ATOM     52  H   LIG d   1       4.680  -2.423  -4.105  0.00  0.00     0.066 H 
ENDBRANCH  48  49
ENDBRANCH  46  48
ENDBRANCH  43  46
ENDBRANCH  40  43
ENDBRANCH  37  40
ENDBRANCH   6  36
BRANCH   3  53
ATOM     53  O   LIG d   1       8.792  -2.255  -8.775  0.00  0.00    -0.491 OA
BRANCH  53  54
ATOM     54  C   LIG d   1       9.077  -3.625  -8.488  0.00  0.00     0.079 C 
ATOM     55  H   LIG d   1       8.196  -4.231  -8.698  0.00  0.00     0.066 H 
ATOM     56  H   LIG d   1       9.906  -3.962  -9.110  0.00  0.00     0.066 H 
ATOM     57  H   LIG d   1       9.346  -3.728  -7.437  0.00  0.00     0.066 H 
ENDBRANCH  53  54
ENDBRANCH   3  53
BRANCH   4  58
ATOM     58  O   LIG d   1      10.143  -0.432  -7.215  0.00  0.00    -0.491 OA
BRANCH  58  59
ATOM     59  C   LIG d   1      10.542   0.819  -7.782  0.00  0.00     0.079 C 
ATOM     60  H   LIG d   1      11.087   0.640  -8.708  0.00  0.00     0.066 H 
ATOM     61  H   LIG d   1       9.658   1.421  -7.991  0.00  0.00     0.066 H 
ATOM     62  H   LIG d   1      11.184   1.348  -7.079  0.00  0.00     0.066 H 
ENDBRANCH  58  59
ENDBRANCH   4  58
TORSDOF 16
ENDMDL
MODEL 5
REMARK VINA RESULT:      -5.6      3.570      6.374
REMARK  16 active torsions:
REMARK  status: ('A' for Active; 'I' for Inactive)
REMARK    1  A    between atoms: C_1  and  O_2 
REMARK    2  A    between atoms: O_2  and  C_3 
REMARK    3  A    between atoms: C_9  and  C_15 
REMARK    4  A    between atoms: C_12  and  O_13 
REMARK    5  A    between atoms: O_13  and  C_14 
REMARK    6  A    between atoms: C_15  and  C_16 
REMARK    7  A    between atoms: C_18  and  O_33 
REMARK    8  A    between atoms: C_19  and  O_31 
REMARK    9  A    between atoms: C_21  and  N_22 
REMARK       I    between atoms: N_22  and  C_23 
REMARK   10  A    between atoms: C_23  and  C_25 
REMARK   11  A    between atoms: C_25  and  C_26 
REMARK   12  A    between atoms: C_26  and  C_27 
REMARK   13  A    between atoms: C_27  and  O_29 
REMARK   14  A    between atoms: O_29  and  C_30 
REMARK   15  A    between atoms: O_31  and  C_32 
REMARK   16  A    between atoms: O_33  and  C_34 
ROOT
ATOM      1  C   LIG d   1       7.750  -1.179  -5.044  0.00  0.00    -0.017 A 
ATOM      2  C   LIG d   1       8.695  -1.588  -5.968  0.00  0.00    -0.011 A 
ATOM      3  C   LIG d   1       9.379  -2.777  -5.781  0.00  0.00     0.162 A 
ATOM      4  C   LIG d   1       9.118  -3.561  -4.660  0.00  0.00     0.163 A 
ATOM      5  C   LIG d   1       8.173  -3.152  -3.736  0.00  0.00     0.005 A 
ATOM      6  C   LIG d   1       7.491  -1.958  -3.924  0.00  0.00     0.041 A 
ATOM      7  H   LIG d   1       8.898  -0.979  -6.836  0.00  0.00     0.066 H 
ATOM      8  H   LIG d   1       7.968  -3.760  -2.867  0.00  0.00     0.067 H 
ENDROOT
BRANCH   1   9
ATOM      9  C   LIG d   1       7.006   0.114  -5.251  0.00  0.00     0.017 C 
ATOM     10  H   LIG d   1       6.170   0.168  -4.553  0.00  0.00     0.038 H 
ATOM     11  H   LIG d   1       6.629   0.158  -6.273  0.00  0.00     0.038 H 
BRANCH   9  12
ATOM     12  C   LIG d   1       7.937   1.274  -5.009  0.00  0.00     0.053 A 
ATOM     13  N   LIG d   1       8.307   1.575  -3.786  0.00  0.00    -0.259 NA
ATOM     14  C   LIG d   1       9.124   2.583  -3.511  0.00  0.00     0.029 A 
ATOM     15  C   LIG d   1       9.637   3.380  -4.488  0.00  0.00    -0.036 A 
ATOM     16  H   LIG d   1       9.390   2.777  -2.482  0.00  0.00     0.083 H 
ATOM     17  C   LIG d   1       9.286   3.119  -5.826  0.00  0.00    -0.011 A 
ATOM     18  H   LIG d   1      10.301   4.196  -4.242  0.00  0.00     0.064 H 
ATOM     19  C   LIG d   1       9.772   3.894  -6.889  0.00  0.00    -0.009 A 
ATOM     20  C   LIG d   1       8.410   2.034  -6.090  0.00  0.00     0.007 A 
ATOM     21  C   LIG d   1       9.396   3.593  -8.167  0.00  0.00     0.162 A 
ATOM     22  H   LIG d   1      10.439   4.721  -6.698  0.00  0.00     0.066 H 
ATOM     23  C   LIG d   1       8.526   2.525  -8.429  0.00  0.00     0.162 A 
ATOM     24  C   LIG d   1       8.042   1.749  -7.415  0.00  0.00    -0.007 A 
ATOM     25  H   LIG d   1       7.377   0.926  -7.630  0.00  0.00     0.066 H 
BRANCH  21  26
ATOM     26  O   LIG d   1       9.866   4.344  -9.198  0.00  0.00    -0.491 OA
BRANCH  26  27
ATOM     27  C   LIG d   1       9.452   5.711  -9.246  0.00  0.00     0.079 C 
ATOM     28  H   LIG d   1      10.063   6.250  -9.969  0.00  0.00     0.066 H 
ATOM     29  H   LIG d   1       8.404   5.762  -9.546  0.00  0.00     0.066 H 
ATOM     30  H   LIG d   1       9.570   6.162  -8.262  0.00  0.00     0.066 H 
ENDBRANCH  26  27
ENDBRANCH  21  26
BRANCH  23  31
ATOM     31  O   LIG d   1       8.165   2.253  -9.710  0.00  0.00    -0.491 OA
BRANCH  31  32
ATOM     32  C   LIG d   1       8.617   1.014 -10.263  0.00  0.00     0.079 C 
ATOM     33  H   LIG d   1       9.699   1.045 -10.388  0.00  0.00     0.066 H 
ATOM     34  H   LIG d   1       8.351   0.199  -9.591  0.00  0.00     0.066 H 
ATOM     35  H   LIG d   1       8.143   0.855 -11.232  0.00  0.00     0.066 H 
ENDBRANCH  31  32
ENDBRANCH  23  31
ENDBRANCH   9  12
ENDBRANCH   1   9
BRANCH   6  36
ATOM     36  N   LIG d   1       6.538  -1.539  -2.987  0.00  0.00    -0.285 N 
ATOM     37  C   LIG d   1       5.269  -1.987  -3.071  0.00  0.00     0.218 C 
ATOM     38  O   LIG d   1       4.972  -2.816  -3.905  0.00  0.00    -0.276 OA
ATOM     39  H   LIG d   1       6.790  -0.928  -2.277  0.00  0.00     0.155 HD
BRANCH  37  40
ATOM     40  C   LIG d   1       4.219  -1.459  -2.127  0.00  0.00     0.034 C 
ATOM     41  H   LIG d   1       3.231  -1.608  -2.563  0.00  0.00     0.036 H 
ATOM     42  H   LIG d   1       4.283  -1.992  -1.179  0.00  0.00     0.036 H 
BRANCH  40  43
ATOM     43  C   LIG d   1       4.452   0.035  -1.890  0.00  0.00     0.053 C 
ATOM     44  H   LIG d   1       4.076   0.308  -0.904  0.00  0.00     0.038 H 
ATOM     45  H   LIG d   1       5.519   0.249  -1.945  0.00  0.00     0.038 H 
BRANCH  43  46
ATOM     46  C   LIG d   1       3.725   0.829  -2.944  0.00  0.00     0.307 C 
ATOM     47  O   LIG d   1       4.067   1.961  -3.190  0.00  0.00    -0.251 OA
BRANCH  46  48
ATOM     48  O   LIG d   1       2.697   0.278  -3.609  0.00  0.00    -0.468 OA
BRANCH  48  49
ATOM     49  C   LIG d   1       2.718   0.380  -5.035  0.00  0.00     0.082 C 
ATOM     50  H   LIG d   1       3.701   0.092  -5.405  0.00  0.00     0.066 H 
ATOM     51  H   LIG d   1       1.962  -0.282  -5.457  0.00  0.00     0.066 H 
ATOM     52  H   LIG d   1       2.505   1.408  -5.328  0.00  0.00     0.066 H 
ENDBRANCH  48  49
ENDBRANCH  46  48
ENDBRANCH  43  46
ENDBRANCH  40  43
ENDBRANCH  37  40
ENDBRANCH   6  36
BRANCH   3  53
ATOM     53  O   LIG d   1      10.308  -3.178  -6.691  0.00  0.00    -0.491 OA
BRANCH  53  54
ATOM     54  C   LIG d   1      10.301  -2.518  -7.958  0.00  0.00     0.079 C 
ATOM     55  H   LIG d   1       9.364  -1.975  -8.080  0.00  0.00     0.066 H 
ATOM     56  H   LIG d   1      11.135  -1.819  -8.009  0.00  0.00     0.066 H 
ATOM     57  H   LIG d   1      10.398  -3.257  -8.753  0.00  0.00     0.066 H 
ENDBRANCH  53  54
ENDBRANCH   3  53
BRANCH   4  58
ATOM     58  O   LIG d   1       9.791  -4.730  -4.477  0.00  0.00    -0.491 OA
BRANCH  58  59
ATOM     59  C   LIG d   1       9.011  -5.927  -4.435  0.00  0.00     0.079 C 
ATOM     60  H   LIG d   1       7.959  -5.670  -4.307  0.00  0.00     0.066 H 
ATOM     61  H   LIG d   1       9.139  -6.477  -5.367  0.00  0.00     0.066 H 
ATOM     62  H   LIG d   1       9.338  -6.545  -3.600  0.00  0.00     0.066 H 
ENDBRANCH  58  59
ENDBRANCH   4  58
TORSDOF 16
ENDMDL
MODEL 6
REMARK VINA RESULT:      -5.6      2.622      7.906
REMARK  16 active torsions:
REMARK  status: ('A' for Active; 'I' for Inactive)
REMARK    1  A    between atoms: C_1  and  O_2 
REMARK    2  A    between atoms: O_2  and  C_3 
REMARK    3  A    between atoms: C_9  and  C_15 
REMARK    4  A    between atoms: C_12  and  O_13 
REMARK    5  A    between atoms: O_13  and  C_14 
REMARK    6  A    between atoms: C_15  and  C_16 
REMARK    7  A    between atoms: C_18  and  O_33 
REMARK    8  A    between atoms: C_19  and  O_31 
REMARK    9  A    between atoms: C_21  and  N_22 
REMARK       I    between atoms: N_22  and  C_23 
REMARK   10  A    between atoms: C_23  and  C_25 
REMARK   11  A    between atoms: C_25  and  C_26 
REMARK   12  A    between atoms: C_26  and  C_27 
REMARK   13  A    between atoms: C_27  and  O_29 
REMARK   14  A    between atoms: O_29  and  C_30 
REMARK   15  A    between atoms: O_31  and  C_32 
REMARK   16  A    between atoms: O_33  and  C_34 
ROOT
ATOM      1  C   LIG d   1       4.649  -4.583  -5.726  0.00  0.00    -0.017 A 
ATOM      2  C   LIG d   1       4.786  -5.953  -5.593  0.00  0.00    -0.011 A 
ATOM      3  C   LIG d   1       4.500  -6.786  -6.663  0.00  0.00     0.162 A 
ATOM      4  C   LIG d   1       4.073  -6.243  -7.872  0.00  0.00     0.163 A 
ATOM      5  C   LIG d   1       3.936  -4.873  -8.004  0.00  0.00     0.005 A 
ATOM      6  C   LIG d   1       4.219  -4.042  -6.929  0.00  0.00     0.041 A 
ATOM      7  H   LIG d   1       5.116  -6.374  -4.656  0.00  0.00     0.066 H 
ATOM      8  H   LIG d   1       3.605  -4.451  -8.942  0.00  0.00     0.067 H 
ENDROOT
BRANCH   1   9
ATOM      9  C   LIG d   1       4.962  -3.680  -4.561  0.00  0.00     0.017 C 
ATOM     10  H   LIG d   1       4.880  -4.245  -3.632  0.00  0.00     0.038 H 
ATOM     11  H   LIG d   1       4.258  -2.849  -4.545  0.00  0.00     0.038 H 
BRANCH   9  12
ATOM     12  C   LIG d   1       6.366  -3.148  -4.702  0.00  0.00     0.053 A 
ATOM     13  N   LIG d   1       7.331  -3.940  -5.109  0.00  0.00    -0.259 NA
ATOM     14  C   LIG d   1       8.583  -3.528  -5.252  0.00  0.00     0.029 A 
ATOM     15  C   LIG d   1       8.955  -2.246  -4.983  0.00  0.00    -0.036 A 
ATOM     16  H   LIG d   1       9.330  -4.231  -5.591  0.00  0.00     0.083 H 
ATOM     17  C   LIG d   1       7.974  -1.338  -4.541  0.00  0.00    -0.011 A 
ATOM     18  H   LIG d   1       9.981  -1.933  -5.106  0.00  0.00     0.064 H 
ATOM     19  C   LIG d   1       8.277  -0.002  -4.244  0.00  0.00    -0.009 A 
ATOM     20  C   LIG d   1       6.642  -1.806  -4.398  0.00  0.00     0.007 A 
ATOM     21  C   LIG d   1       7.283   0.834  -3.819  0.00  0.00     0.162 A 
ATOM     22  H   LIG d   1       9.287   0.364  -4.350  0.00  0.00     0.066 H 
ATOM     23  C   LIG d   1       5.968   0.371  -3.671  0.00  0.00     0.162 A 
ATOM     24  C   LIG d   1       5.642  -0.923  -3.960  0.00  0.00    -0.007 A 
ATOM     25  H   LIG d   1       4.624  -1.266  -3.847  0.00  0.00     0.066 H 
BRANCH  21  26
ATOM     26  O   LIG d   1       7.575   2.129  -3.530  0.00  0.00    -0.491 OA
BRANCH  26  27
ATOM     27  C   LIG d   1       8.937   2.538  -3.683  0.00  0.00     0.079 C 
ATOM     28  H   LIG d   1       9.130   3.402  -3.048  0.00  0.00     0.066 H 
ATOM     29  H   LIG d   1       9.595   1.718  -3.392  0.00  0.00     0.066 H 
ATOM     30  H   LIG d   1       9.122   2.801  -4.723  0.00  0.00     0.066 H 
ENDBRANCH  26  27
ENDBRANCH  21  26
BRANCH  23  31
ATOM     31  O   LIG d   1       5.001   1.225  -3.242  0.00  0.00    -0.491 OA
BRANCH  31  32
ATOM     32  C   LIG d   1       4.374   0.920  -1.993  0.00  0.00     0.079 C 
ATOM     33  H   LIG d   1       3.649   1.697  -1.752  0.00  0.00     0.066 H 
ATOM     34  H   LIG d   1       3.866  -0.040  -2.068  0.00  0.00     0.066 H 
ATOM     35  H   LIG d   1       5.131   0.872  -1.210  0.00  0.00     0.066 H 
ENDBRANCH  31  32
ENDBRANCH  23  31
ENDBRANCH   9  12
ENDBRANCH   1   9
BRANCH   6  36
ATOM     36  N   LIG d   1       4.075  -2.653  -7.060  0.00  0.00    -0.285 N 
ATOM     37  C   LIG d   1       5.041  -1.930  -7.660  0.00  0.00     0.218 C 
ATOM     38  O   LIG d   1       5.994  -2.489  -8.162  0.00  0.00    -0.276 OA
ATOM     39  H   LIG d   1       3.281  -2.213  -6.718  0.00  0.00     0.155 HD
BRANCH  37  40
ATOM     40  C   LIG d   1       4.937  -0.427  -7.709  0.00  0.00     0.034 C 
ATOM     41  H   LIG d   1       5.683   0.010  -7.045  0.00  0.00     0.036 H 
ATOM     42  H   LIG d   1       5.113  -0.085  -8.729  0.00  0.00     0.036 H 
BRANCH  40  43
ATOM     43  C   LIG d   1       3.539   0.002  -7.261  0.00  0.00     0.053 C 
ATOM     44  H   LIG d   1       2.904  -0.879  -7.160  0.00  0.00     0.038 H 
ATOM     45  H   LIG d   1       3.607   0.513  -6.300  0.00  0.00     0.038 H 
BRANCH  43  46
ATOM     46  C   LIG d   1       2.948   0.934  -8.286  0.00  0.00     0.307 C 
ATOM     47  O   LIG d   1       2.228   0.500  -9.154  0.00  0.00    -0.251 OA
BRANCH  46  48
ATOM     48  O   LIG d   1       3.221   2.247  -8.235  0.00  0.00    -0.468 OA
BRANCH  48  49
ATOM     49  C   LIG d   1       3.996   2.791  -9.306  0.00  0.00     0.082 C 
ATOM     50  H   LIG d   1       3.354   3.393  -9.949  0.00  0.00     0.066 H 
ATOM     51  H   LIG d   1       4.791   3.416  -8.899  0.00  0.00     0.066 H 
ATOM     52  H   LIG d   1       4.433   1.979  -9.886  0.00  0.00     0.066 H 
ENDBRANCH  48  49
ENDBRANCH  46  48
ENDBRANCH  43  46
ENDBRANCH  40  43
ENDBRANCH  37  40
ENDBRANCH   6  36
BRANCH   3  53
ATOM     53  O   LIG d   1       4.636  -8.134  -6.531  0.00  0.00    -0.491 OA
BRANCH  53  54
ATOM     54  C   LIG d   1       4.855  -8.637  -5.213  0.00  0.00     0.079 C 
ATOM     55  H   LIG d   1       5.348  -7.875  -4.609  0.00  0.00     0.066 H 
ATOM     56  H   LIG d   1       3.899  -8.897  -4.758  0.00  0.00     0.066 H 
ATOM     57  H   LIG d   1       5.486  -9.525  -5.263  0.00  0.00     0.066 H 
ENDBRANCH  53  54
ENDBRANCH   3  53
BRANCH   4  58
ATOM     58  O   LIG d   1       3.792  -7.061  -8.922  0.00  0.00    -0.491 OA
BRANCH  58  59
ATOM     59  C   LIG d   1       2.717  -6.669  -9.779  0.00  0.00     0.079 C 
ATOM     60  H   LIG d   1       2.599  -5.586  -9.741  0.00  0.00     0.066 H 
ATOM     61  H   LIG d   1       2.938  -6.975 -10.801  0.00  0.00     0.066 H 
ATOM     62  H   LIG d   1       1.795  -7.146  -9.448  0.00  0.00     0.066 H 
ENDBRANCH  58  59
ENDBRANCH   4  58
TORSDOF 16
ENDMDL
MODEL 7
REMARK VINA RESULT:      -5.5      2.405      2.931
REMARK  16 active torsions:
REMARK  status: ('A' for Active; 'I' for Inactive)
REMARK    1  A    between atoms: C_1  and  O_2 
REMARK    2  A    between atoms: O_2  and  C_3 
REMARK    3  A    between atoms: C_9  and  C_15 
REMARK    4  A    between atoms: C_12  and  O_13 
REMARK    5  A    between atoms: O_13  and  C_14 
REMARK    6  A    between atoms: C_15  and  C_16 
REMARK    7  A    between atoms: C_18  and  O_33 
REMARK    8  A    between atoms: C_19  and  O_31 
REMARK    9  A    between atoms: C_21  and  N_22 
REMARK       I    between atoms: N_22  and  C_23 
REMARK   10  A    between atoms: C_23  and  C_25 
REMARK   11  A    between atoms: C_25  and  C_26 
REMARK   12  A    between atoms: C_26  and  C_27 
REMARK   13  A    between atoms: C_27  and  O_29 
REMARK   14  A    between atoms: O_29  and  C_30 
REMARK   15  A    between atoms: O_31  and  C_32 
REMARK   16  A    between atoms: O_33  and  C_34 
ROOT
ATOM      1  C   LIG d   1       5.618  -1.058  -6.679  0.00  0.00    -0.017 A 
ATOM      2  C   LIG d   1       6.359  -1.290  -7.824  0.00  0.00    -0.011 A 
ATOM      3  C   LIG d   1       7.631  -1.830  -7.730  0.00  0.00     0.162 A 
ATOM      4  C   LIG d   1       8.165  -2.137  -6.481  0.00  0.00     0.163 A 
ATOM      5  C   LIG d   1       7.424  -1.904  -5.336  0.00  0.00     0.005 A 
ATOM      6  C   LIG d   1       6.152  -1.359  -5.434  0.00  0.00     0.041 A 
ATOM      7  H   LIG d   1       5.945  -1.052  -8.792  0.00  0.00     0.066 H 
ATOM      8  H   LIG d   1       7.838  -2.143  -4.367  0.00  0.00     0.067 H 
ENDROOT
BRANCH   1   9
ATOM      9  C   LIG d   1       4.234  -0.472  -6.785  0.00  0.00     0.017 C 
ATOM     10  H   LIG d   1       4.085   0.253  -5.985  0.00  0.00     0.038 H 
ATOM     11  H   LIG d   1       3.495  -1.267  -6.698  0.00  0.00     0.038 H 
BRANCH   9  12
ATOM     12  C   LIG d   1       4.081   0.215  -8.119  0.00  0.00     0.053 A 
ATOM     13  N   LIG d   1       4.533   1.436  -8.285  0.00  0.00    -0.259 NA
ATOM     14  C   LIG d   1       4.427   2.090  -9.434  0.00  0.00     0.029 A 
ATOM     15  C   LIG d   1       3.835   1.533 -10.526  0.00  0.00    -0.036 A 
ATOM     16  H   LIG d   1       4.820   3.093  -9.504  0.00  0.00     0.083 H 
ATOM     17  C   LIG d   1       3.325   0.225 -10.425  0.00  0.00    -0.011 A 
ATOM     18  H   LIG d   1       3.760   2.084 -11.452  0.00  0.00     0.064 H 
ATOM     19  C   LIG d   1       2.702  -0.417 -11.504  0.00  0.00    -0.009 A 
ATOM     20  C   LIG d   1       3.453  -0.451  -9.183  0.00  0.00     0.007 A 
ATOM     21  C   LIG d   1       2.226  -1.688 -11.347  0.00  0.00     0.162 A 
ATOM     22  H   LIG d   1       2.600   0.088 -12.453  0.00  0.00     0.066 H 
ATOM     23  C   LIG d   1       2.347  -2.354 -10.118  0.00  0.00     0.162 A 
ATOM     24  C   LIG d   1       2.954  -1.757  -9.052  0.00  0.00    -0.007 A 
ATOM     25  H   LIG d   1       3.046  -2.282  -8.113  0.00  0.00     0.066 H 
BRANCH  21  26
ATOM     26  O   LIG d   1       1.622  -2.312 -12.392  0.00  0.00    -0.491 OA
BRANCH  26  27
ATOM     27  C   LIG d   1       0.280  -1.921 -12.692  0.00  0.00     0.079 C 
ATOM     28  H   LIG d   1       0.095  -2.048 -13.758  0.00  0.00     0.066 H 
ATOM     29  H   LIG d   1      -0.414  -2.543 -12.126  0.00  0.00     0.066 H 
ATOM     30  H   LIG d   1       0.136  -0.876 -12.420  0.00  0.00     0.066 H 
ENDBRANCH  26  27
ENDBRANCH  21  26
BRANCH  23  31
ATOM     31  O   LIG d   1       1.859  -3.616  -9.990  0.00  0.00    -0.491 OA
BRANCH  31  32
ATOM     32  C   LIG d   1       2.777  -4.628  -9.568  0.00  0.00     0.079 C 
ATOM     33  H   LIG d   1       3.480  -4.204  -8.852  0.00  0.00     0.066 H 
ATOM     34  H   LIG d   1       2.228  -5.443  -9.099  0.00  0.00     0.066 H 
ATOM     35  H   LIG d   1       3.322  -5.007 -10.433  0.00  0.00     0.066 H 
ENDBRANCH  31  32
ENDBRANCH  23  31
ENDBRANCH   9  12
ENDBRANCH   1   9
BRANCH   6  36
ATOM     36  N   LIG d   1       5.401  -1.118  -4.275  0.00  0.00    -0.285 N 
ATOM     37  C   LIG d   1       4.590  -2.076  -3.786  0.00  0.00     0.218 C 
ATOM     38  O   LIG d   1       4.572  -3.176  -4.299  0.00  0.00    -0.276 OA
ATOM     39  H   LIG d   1       5.466  -0.261  -3.825  0.00  0.00     0.155 HD
BRANCH  37  40
ATOM     40  C   LIG d   1       3.706  -1.783  -2.601  0.00  0.00     0.034 C 
ATOM     41  H   LIG d   1       2.837  -1.213  -2.929  0.00  0.00     0.036 H 
ATOM     42  H   LIG d   1       3.378  -2.722  -2.153  0.00  0.00     0.036 H 
BRANCH  40  43
ATOM     43  C   LIG d   1       4.490  -0.971  -1.568  0.00  0.00     0.053 C 
ATOM     44  H   LIG d   1       4.045  -1.111  -0.583  0.00  0.00     0.038 H 
ATOM     45  H   LIG d   1       5.526  -1.309  -1.551  0.00  0.00     0.038 H 
BRANCH  43  46
ATOM     46  C   LIG d   1       4.443   0.488  -1.938  0.00  0.00     0.307 C 
ATOM     47  O   LIG d   1       5.466   1.127  -2.012  0.00  0.00    -0.251 OA
BRANCH  46  48
ATOM     48  O   LIG d   1       3.263   1.080  -2.186  0.00  0.00    -0.468 OA
BRANCH  48  49
ATOM     49  C   LIG d   1       3.169   1.867  -3.376  0.00  0.00     0.082 C 
ATOM     50  H   LIG d   1       3.167   2.924  -3.112  0.00  0.00     0.066 H 
ATOM     51  H   LIG d   1       4.023   1.655  -4.020  0.00  0.00     0.066 H 
ATOM     52  H   LIG d   1       2.247   1.620  -3.901  0.00  0.00     0.066 H 
ENDBRANCH  48  49
ENDBRANCH  46  48
ENDBRANCH  43  46
ENDBRANCH  40  43
ENDBRANCH  37  40
ENDBRANCH   6  36
BRANCH   3  53
ATOM     53  O   LIG d   1       8.358  -2.059  -8.857  0.00  0.00    -0.491 OA
BRANCH  53  54
ATOM     54  C   LIG d   1       8.000  -1.314 -10.022  0.00  0.00     0.079 C 
ATOM     55  H   LIG d   1       7.316  -1.901 -10.634  0.00  0.00     0.066 H 
ATOM     56  H   LIG d   1       7.514  -0.385  -9.724  0.00  0.00     0.066 H 
ATOM     57  H   LIG d   1       8.897  -1.085 -10.597  0.00  0.00     0.066 H 
ENDBRANCH  53  54
ENDBRANCH   3  53
BRANCH   4  58
ATOM     58  O   LIG d   1       9.415  -2.667  -6.389  0.00  0.00    -0.491 OA
BRANCH  58  59
ATOM     59  C   LIG d   1      10.397  -1.893  -5.697  0.00  0.00     0.079 C 
ATOM     60  H   LIG d   1      11.393  -2.200  -6.017  0.00  0.00     0.066 H 
ATOM     61  H   LIG d   1      10.252  -0.837  -5.921  0.00  0.00     0.066 H 
ATOM     62  H   LIG d   1      10.296  -2.054  -4.623  0.00  0.00     0.066 H 
ENDBRANCH  58  59
ENDBRANCH   4  58
TORSDOF 16
ENDMDL
MODEL 8
REMARK VINA RESULT:      -5.5      2.249      2.647
REMARK  16 active torsions:
REMARK  status: ('A' for Active; 'I' for Inactive)
REMARK    1  A    between atoms: C_1  and  O_2 
REMARK    2  A    between atoms: O_2  and  C_3 
REMARK    3  A    between atoms: C_9  and  C_15 
REMARK    4  A    between atoms: C_12  and  O_13 
REMARK    5  A    between atoms: O_13  and  C_14 
REMARK    6  A    between atoms: C_15  and  C_16 
REMARK    7  A    between atoms: C_18  and  O_33 
REMARK    8  A    between atoms: C_19  and  O_31 
REMARK    9  A    between atoms: C_21  and  N_22 
REMARK       I    between atoms: N_22  and  C_23 
REMARK   10  A    between atoms: C_23  and  C_25 
REMARK   11  A    between atoms: C_25  and  C_26 
REMARK   12  A    between atoms: C_26  and  C_27 
REMARK   13  A    between atoms: C_27  and  O_29 
REMARK   14  A    between atoms: O_29  and  C_30 
REMARK   15  A    between atoms: O_31  and  C_32 
REMARK   16  A    between atoms: O_33  and  C_34 
ROOT
ATOM      1  C   LIG d   1       7.407   0.444  -5.968  0.00  0.00    -0.017 A 
ATOM      2  C   LIG d   1       8.187   1.133  -6.880  0.00  0.00    -0.011 A 
ATOM      3  C   LIG d   1       8.953   2.208  -6.464  0.00  0.00     0.162 A 
ATOM      4  C   LIG d   1       8.939   2.597  -5.127  0.00  0.00     0.163 A 
ATOM      5  C   LIG d   1       8.159   1.908  -4.215  0.00  0.00     0.005 A 
ATOM      6  C   LIG d   1       7.387   0.833  -4.636  0.00  0.00     0.041 A 
ATOM      7  H   LIG d   1       8.198   0.832  -7.916  0.00  0.00     0.066 H 
ATOM      8  H   LIG d   1       8.147   2.208  -3.177  0.00  0.00     0.067 H 
ENDROOT
BRANCH   1   9
ATOM      9  C   LIG d   1       6.574  -0.726  -6.424  0.00  0.00     0.017 C 
ATOM     10  H   LIG d   1       6.349  -1.366  -5.570  0.00  0.00     0.038 H 
ATOM     11  H   LIG d   1       7.126  -1.297  -7.170  0.00  0.00     0.038 H 
BRANCH   9  12
ATOM     12  C   LIG d   1       5.287  -0.223  -7.027  0.00  0.00     0.053 A 
ATOM     13  N   LIG d   1       4.314   0.188  -6.248  0.00  0.00    -0.259 NA
ATOM     14  C   LIG d   1       3.161   0.642  -6.719  0.00  0.00     0.029 A 
ATOM     15  C   LIG d   1       2.907   0.710  -8.055  0.00  0.00    -0.036 A 
ATOM     16  H   LIG d   1       2.400   0.965  -6.024  0.00  0.00     0.083 H 
ATOM     17  C   LIG d   1       3.904   0.286  -8.954  0.00  0.00    -0.011 A 
ATOM     18  H   LIG d   1       1.960   1.083  -8.418  0.00  0.00     0.064 H 
ATOM     19  C   LIG d   1       3.719   0.325 -10.344  0.00  0.00    -0.009 A 
ATOM     20  C   LIG d   1       5.128  -0.194  -8.421  0.00  0.00     0.007 A 
ATOM     21  C   LIG d   1       4.723  -0.099 -11.168  0.00  0.00     0.162 A 
ATOM     22  H   LIG d   1       2.791   0.689 -10.759  0.00  0.00     0.066 H 
ATOM     23  C   LIG d   1       5.931  -0.580 -10.641  0.00  0.00     0.162 A 
ATOM     24  C   LIG d   1       6.141  -0.623  -9.293  0.00  0.00    -0.007 A 
ATOM     25  H   LIG d   1       7.078  -0.990  -8.900  0.00  0.00     0.066 H 
BRANCH  21  26
ATOM     26  O   LIG d   1       4.545  -0.063 -12.514  0.00  0.00    -0.491 OA
BRANCH  26  27
ATOM     27  C   LIG d   1       3.668  -1.040 -13.079  0.00  0.00     0.079 C 
ATOM     28  H   LIG d   1       2.709  -0.577 -13.310  0.00  0.00     0.066 H 
ATOM     29  H   LIG d   1       4.110  -1.437 -13.994  0.00  0.00     0.066 H 
ATOM     30  H   LIG d   1       3.519  -1.850 -12.367  0.00  0.00     0.066 H 
ENDBRANCH  26  27
ENDBRANCH  21  26
BRANCH  23  31
ATOM     31  O   LIG d   1       6.909  -1.001 -11.485  0.00  0.00    -0.491 OA
BRANCH  31  32
ATOM     32  C   LIG d   1       8.202  -0.411 -11.326  0.00  0.00     0.079 C 
ATOM     33  H   LIG d   1       8.653  -0.770 -10.402  0.00  0.00     0.066 H 
ATOM     34  H   LIG d   1       8.833  -0.688 -12.170  0.00  0.00     0.066 H 
ATOM     35  H   LIG d   1       8.103   0.674 -11.286  0.00  0.00     0.066 H 
ENDBRANCH  31  32
ENDBRANCH  23  31
ENDBRANCH   9  12
ENDBRANCH   1   9
BRANCH   6  36
ATOM     36  N   LIG d   1       6.592   0.137  -3.716  0.00  0.00    -0.285 N 
ATOM     37  C   LIG d   1       5.692   0.803  -2.965  0.00  0.00     0.218 C 
ATOM     38  O   LIG d   1       5.510   1.988  -3.145  0.00  0.00    -0.276 OA
ATOM     39  H   LIG d   1       6.690  -0.823  -3.619  0.00  0.00     0.155 HD
BRANCH  37  40
ATOM     40  C   LIG d   1       4.910   0.073  -1.903  0.00  0.00     0.034 C 
ATOM     41  H   LIG d   1       5.189  -0.981  -1.906  0.00  0.00     0.036 H 
ATOM     42  H   LIG d   1       5.133   0.506  -0.927  0.00  0.00     0.036 H 
BRANCH  40  43
ATOM     43  C   LIG d   1       3.413   0.206  -2.190  0.00  0.00     0.053 C 
ATOM     44  H   LIG d   1       2.861   0.197  -1.250  0.00  0.00     0.038 H 
ATOM     45  H   LIG d   1       3.226   1.144  -2.713  0.00  0.00     0.038 H 
BRANCH  43  46
ATOM     46  C   LIG d   1       2.963  -0.947  -3.049  0.00  0.00     0.307 C 
ATOM     47  O   LIG d   1       2.080  -0.790  -3.858  0.00  0.00    -0.251 OA
BRANCH  46  48
ATOM     48  O   LIG d   1       3.545  -2.150  -2.915  0.00  0.00    -0.468 OA
BRANCH  48  49
ATOM     49  C   LIG d   1       4.317  -2.624  -4.021  0.00  0.00     0.082 C 
ATOM     50  H   LIG d   1       3.718  -2.574  -4.930  0.00  0.00     0.066 H 
ATOM     51  H   LIG d   1       5.205  -2.002  -4.137  0.00  0.00     0.066 H 
ATOM     52  H   LIG d   1       4.617  -3.656  -3.838  0.00  0.00     0.066 H 
ENDBRANCH  48  49
ENDBRANCH  46  48
ENDBRANCH  43  46
ENDBRANCH  40  43
ENDBRANCH  37  40
ENDBRANCH   6  36
BRANCH   3  53
ATOM     53  O   LIG d   1       9.721   2.885  -7.361  0.00  0.00    -0.491 OA
BRANCH  53  54
ATOM     54  C   LIG d   1       9.038   3.567  -8.414  0.00  0.00     0.079 C 
ATOM     55  H   LIG d   1       8.050   3.127  -8.552  0.00  0.00     0.066 H 
ATOM     56  H   LIG d   1       8.932   4.621  -8.156  0.00  0.00     0.066 H 
ATOM     57  H   LIG d   1       9.609   3.474  -9.338  0.00  0.00     0.066 H 
ENDBRANCH  53  54
ENDBRANCH   3  53
BRANCH   4  58
ATOM     58  O   LIG d   1       9.693   3.653  -4.718  0.00  0.00    -0.491 OA
BRANCH  58  59
ATOM     59  C   LIG d   1       9.762   3.893  -3.310  0.00  0.00     0.079 C 
ATOM     60  H   LIG d   1       8.878   4.445  -2.992  0.00  0.00     0.066 H 
ATOM     61  H   LIG d   1       9.807   2.942  -2.782  0.00  0.00     0.066 H 
ATOM     62  H   LIG d   1      10.655   4.477  -3.085  0.00  0.00     0.066 H 
ENDBRANCH  58  59
ENDBRANCH   4  58
TORSDOF 16
ENDMDL
MODEL 9
REMARK VINA RESULT:      -5.5      2.836      3.807
REMARK  16 active torsions:
REMARK  status: ('A' for Active; 'I' for Inactive)
REMARK    1  A    between atoms: C_1  and  O_2 
REMARK    2  A    between atoms: O_2  and  C_3 
REMARK    3  A    between atoms: C_9  and  C_15 
REMARK    4  A    between atoms: C_12  and  O_13 
REMARK    5  A    between atoms: O_13  and  C_14 
REMARK    6  A    between atoms: C_15  and  C_16 
REMARK    7  A    between atoms: C_18  and  O_33 
REMARK    8  A    between atoms: C_19  and  O_31 
REMARK    9  A    between atoms: C_21  and  N_22 
REMARK       I    between atoms: N_22  and  C_23 
REMARK   10  A    between atoms: C_23  and  C_25 
REMARK   11  A    between atoms: C_25  and  C_26 
REMARK   12  A    between atoms: C_26  and  C_27 
REMARK   13  A    between atoms: C_27  and  O_29 
REMARK   14  A    between atoms: O_29  and  C_30 
REMARK   15  A    between atoms: O_31  and  C_32 
REMARK   16  A    between atoms: O_33  and  C_34 
ROOT
ATOM      1  C   LIG d   1       6.803  -1.661  -5.941  0.00  0.00    -0.017 A 
ATOM      2  C   LIG d   1       7.934  -1.636  -6.736  0.00  0.00    -0.011 A 
ATOM      3  C   LIG d   1       9.119  -2.182  -6.272  0.00  0.00     0.162 A 
ATOM      4  C   LIG d   1       9.173  -2.756  -5.005  0.00  0.00     0.163 A 
ATOM      5  C   LIG d   1       8.040  -2.781  -4.210  0.00  0.00     0.005 A 
ATOM      6  C   LIG d   1       6.855  -2.228  -4.675  0.00  0.00     0.041 A 
ATOM      7  H   LIG d   1       7.893  -1.191  -7.718  0.00  0.00     0.066 H 
ATOM      8  H   LIG d   1       8.080  -3.226  -3.226  0.00  0.00     0.067 H 
ENDROOT
BRANCH   1   9
ATOM      9  C   LIG d   1       5.514  -1.067  -6.448  0.00  0.00     0.017 C 
ATOM     10  H   LIG d   1       5.736  -0.206  -7.079  0.00  0.00     0.038 H 
ATOM     11  H   LIG d   1       4.901  -0.752  -5.605  0.00  0.00     0.038 H 
BRANCH   9  12
ATOM     12  C   LIG d   1       4.768  -2.100  -7.254  0.00  0.00     0.053 A 
ATOM     13  N   LIG d   1       4.670  -3.332  -6.812  0.00  0.00    -0.259 NA
ATOM     14  C   LIG d   1       4.027  -4.283  -7.476  0.00  0.00     0.029 A 
ATOM     15  C   LIG d   1       3.422  -4.043  -8.672  0.00  0.00    -0.036 A 
ATOM     16  H   LIG d   1       3.983  -5.278  -7.057  0.00  0.00     0.083 H 
ATOM     17  C   LIG d   1       3.485  -2.744  -9.211  0.00  0.00    -0.011 A 
ATOM     18  H   LIG d   1       2.903  -4.832  -9.196  0.00  0.00     0.064 H 
ATOM     19  C   LIG d   1       2.888  -2.416 -10.436  0.00  0.00    -0.009 A 
ATOM     20  C   LIG d   1       4.180  -1.746  -8.477  0.00  0.00     0.007 A 
ATOM     21  C   LIG d   1       2.981  -1.138 -10.909  0.00  0.00     0.162 A 
ATOM     22  H   LIG d   1       2.357  -3.167 -11.001  0.00  0.00     0.066 H 
ATOM     23  C   LIG d   1       3.673  -0.153 -10.189  0.00  0.00     0.162 A 
ATOM     24  C   LIG d   1       4.258  -0.441  -8.990  0.00  0.00    -0.007 A 
ATOM     25  H   LIG d   1       4.784   0.328  -8.442  0.00  0.00     0.066 H 
BRANCH  21  26
ATOM     26  O   LIG d   1       2.404  -0.819 -12.097  0.00  0.00    -0.491 OA
BRANCH  26  27
ATOM     27  C   LIG d   1       2.810  -1.576 -13.240  0.00  0.00     0.079 C 
ATOM     28  H   LIG d   1       2.006  -2.252 -13.531  0.00  0.00     0.066 H 
ATOM     29  H   LIG d   1       3.030  -0.897 -14.065  0.00  0.00     0.066 H 
ATOM     30  H   LIG d   1       3.701  -2.152 -12.996  0.00  0.00     0.066 H 
ENDBRANCH  26  27
ENDBRANCH  21  26
BRANCH  23  31
ATOM     31  O   LIG d   1       3.754   1.109 -10.688  0.00  0.00    -0.491 OA
BRANCH  31  32
ATOM     32  C   LIG d   1       3.963   2.166  -9.748  0.00  0.00     0.079 C 
ATOM     33  H   LIG d   1       3.701   3.118 -10.208  0.00  0.00     0.066 H 
ATOM     34  H   LIG d   1       3.338   2.001  -8.872  0.00  0.00     0.066 H 
ATOM     35  H   LIG d   1       5.012   2.183  -9.448  0.00  0.00     0.066 H 
ENDBRANCH  31  32
ENDBRANCH  23  31
ENDBRANCH   9  12
ENDBRANCH   1   9
BRANCH   6  36
ATOM     36  N   LIG d   1       5.708  -2.248  -3.869  0.00  0.00    -0.285 N 
ATOM     37  C   LIG d   1       5.540  -1.310  -2.916  0.00  0.00     0.218 C 
ATOM     38  O   LIG d   1       6.337  -0.402  -2.810  0.00  0.00    -0.276 OA
ATOM     39  H   LIG d   1       5.037  -2.935  -3.998  0.00  0.00     0.155 HD
BRANCH  37  40
ATOM     40  C   LIG d   1       4.360  -1.390  -1.981  0.00  0.00     0.034 C 
ATOM     41  H   LIG d   1       4.192  -2.428  -1.697  0.00  0.00     0.036 H 
ATOM     42  H   LIG d   1       4.563  -0.796  -1.089  0.00  0.00     0.036 H 
BRANCH  40  43
ATOM     43  C   LIG d   1       3.116  -0.844  -2.684  0.00  0.00     0.053 C 
ATOM     44  H   LIG d   1       2.986  -1.353  -3.639  0.00  0.00     0.038 H 
ATOM     45  H   LIG d   1       2.240  -1.017  -2.058  0.00  0.00     0.038 H 
BRANCH  43  46
ATOM     46  C   LIG d   1       3.281   0.635  -2.920  0.00  0.00     0.307 C 
ATOM     47  O   LIG d   1       3.418   1.385  -1.983  0.00  0.00    -0.251 OA
BRANCH  46  48
ATOM     48  O   LIG d   1       3.276   1.119  -4.172  0.00  0.00    -0.468 OA
BRANCH  48  49
ATOM     49  C   LIG d   1       2.451   0.444  -5.125  0.00  0.00     0.082 C 
ATOM     50  H   LIG d   1       2.456  -0.625  -4.917  0.00  0.00     0.066 H 
ATOM     51  H   LIG d   1       1.431   0.823  -5.055  0.00  0.00     0.066 H 
ATOM     52  H   LIG d   1       2.836   0.622  -6.129  0.00  0.00     0.066 H 
ENDBRANCH  48  49
ENDBRANCH  46  48
ENDBRANCH  43  46
ENDBRANCH  40  43
ENDBRANCH  37  40
ENDBRANCH   6  36
BRANCH   3  53
ATOM     53  O   LIG d   1      10.232  -2.158  -7.056  0.00  0.00    -0.491 OA
BRANCH  53  54
ATOM     54  C   LIG d   1      10.042  -1.874  -8.443  0.00  0.00     0.079 C 
ATOM     55  H   LIG d   1       9.934  -0.798  -8.582  0.00  0.00     0.066 H 
ATOM     56  H   LIG d   1      10.904  -2.228  -9.008  0.00  0.00     0.066 H 
ATOM     57  H   LIG d   1       9.143  -2.378  -8.798  0.00  0.00     0.066 H 
ENDBRANCH  53  54
ENDBRANCH   3  53
BRANCH   4  58
ATOM     58  O   LIG d   1      10.337  -3.293  -4.550  0.00  0.00    -0.491 OA
BRANCH  58  59
ATOM     59  C   LIG d   1      10.351  -4.702  -4.309  0.00  0.00     0.079 C 
ATOM     60  H   LIG d   1       9.953  -4.904  -3.315  0.00  0.00     0.066 H 
ATOM     61  H   LIG d   1       9.736  -5.203  -5.056  0.00  0.00     0.066 H 
ATOM     62  H   LIG d   1      11.374  -5.071  -4.373  0.00  0.00     0.066 H 
ENDBRANCH  58  59
ENDBRANCH   4  58
TORSDOF 16
ENDMDL
MODEL 10
REMARK VINA RESULT:      -5.5      2.827      5.505
REMARK  16 active torsions:
REMARK  status: ('A' for Active; 'I' for Inactive)
REMARK    1  A    between atoms: C_1  and  O_2 
REMARK    2  A    between atoms: O_2  and  C_3 
REMARK    3  A    between atoms: C_9  and  C_15 
REMARK    4  A    between atoms: C_12  and  O_13 
REMARK    5  A    between atoms: O_13  and  C_14 
REMARK    6  A    between atoms: C_15  and  C_16 
REMARK    7  A    between atoms: C_18  and  O_33 
REMARK    8  A    between atoms: C_19  and  O_31 
REMARK    9  A    between atoms: C_21  and  N_22 
REMARK       I    between atoms: N_22  and  C_23 
REMARK   10  A    between atoms: C_23  and  C_25 
REMARK   11  A    between atoms: C_25  and  C_26 
REMARK   12  A    between atoms: C_26  and  C_27 
REMARK   13  A    between atoms: C_27  and  O_29 
REMARK   14  A    between atoms: O_29  and  C_30 
REMARK   15  A    between atoms: O_31  and  C_32 
REMARK   16  A    between atoms: O_33  and  C_34 
ROOT
ATOM      1  C   LIG d   1       4.570  -2.967  -6.538  0.00  0.00    -0.017 A 
ATOM      2  C   LIG d   1       4.056  -3.886  -7.436  0.00  0.00    -0.011 A 
ATOM      3  C   LIG d   1       3.992  -5.227  -7.095  0.00  0.00     0.162 A 
ATOM      4  C   LIG d   1       4.447  -5.650  -5.849  0.00  0.00     0.163 A 
ATOM      5  C   LIG d   1       4.961  -4.731  -4.952  0.00  0.00     0.005 A 
ATOM      6  C   LIG d   1       5.028  -3.388  -5.298  0.00  0.00     0.041 A 
ATOM      7  H   LIG d   1       3.704  -3.558  -8.401  0.00  0.00     0.066 H 
ATOM      8  H   LIG d   1       5.314  -5.058  -3.984  0.00  0.00     0.067 H 
ENDROOT
BRANCH   1   9
ATOM      9  C   LIG d   1       4.637  -1.509  -6.912  0.00  0.00     0.017 C 
ATOM     10  H   LIG d   1       4.895  -0.920  -6.031  0.00  0.00     0.038 H 
ATOM     11  H   LIG d   1       3.669  -1.186  -7.294  0.00  0.00     0.038 H 
BRANCH   9  12
ATOM     12  C   LIG d   1       5.689  -1.310  -7.973  0.00  0.00     0.053 A 
ATOM     13  N   LIG d   1       6.961  -1.401  -7.662  0.00  0.00    -0.259 NA
ATOM     14  C   LIG d   1       7.930  -1.236  -8.552  0.00  0.00     0.029 A 
ATOM     15  C   LIG d   1       7.667  -0.958  -9.859  0.00  0.00    -0.036 A 
ATOM     16  H   LIG d   1       8.958  -1.324  -8.231  0.00  0.00     0.083 H 
ATOM     17  C   LIG d   1       6.325  -0.845 -10.268  0.00  0.00    -0.011 A 
ATOM     18  H   LIG d   1       8.472  -0.828 -10.567  0.00  0.00     0.064 H 
ATOM     19  C   LIG d   1       5.973  -0.561 -11.595  0.00  0.00    -0.009 A 
ATOM     20  C   LIG d   1       5.309  -1.027  -9.294  0.00  0.00     0.007 A 
ATOM     21  C   LIG d   1       4.653  -0.463 -11.935  0.00  0.00     0.162 A 
ATOM     22  H   LIG d   1       6.738  -0.421 -12.344  0.00  0.00     0.066 H 
ATOM     23  C   LIG d   1       3.648  -0.636 -10.971  0.00  0.00     0.162 A 
ATOM     24  C   LIG d   1       3.961  -0.920  -9.673  0.00  0.00    -0.007 A 
ATOM     25  H   LIG d   1       3.178  -1.056  -8.942  0.00  0.00     0.066 H 
BRANCH  21  26
ATOM     26  O   LIG d   1       4.310  -0.187 -13.220  0.00  0.00    -0.491 OA
BRANCH  26  27
ATOM     27  C   LIG d   1       4.861  -1.030 -14.234  0.00  0.00     0.079 C 
ATOM     28  H   LIG d   1       4.523  -2.054 -14.077  0.00  0.00     0.066 H 
ATOM     29  H   LIG d   1       4.528  -0.684 -15.213  0.00  0.00     0.066 H 
ATOM     30  H   LIG d   1       5.948  -0.994 -14.186  0.00  0.00     0.066 H 
ENDBRANCH  26  27
ENDBRANCH  21  26
BRANCH  23  31
ATOM     31  O   LIG d   1       2.344  -0.527 -11.337  0.00  0.00    -0.491 OA
BRANCH  31  32
ATOM     32  C   LIG d   1       1.363  -0.856 -10.350  0.00  0.00     0.079 C 
ATOM     33  H   LIG d   1       1.246  -0.021  -9.661  0.00  0.00     0.066 H 
ATOM     34  H   LIG d   1       0.411  -1.061 -10.838  0.00  0.00     0.066 H 
ATOM     35  H   LIG d   1       1.686  -1.740  -9.799  0.00  0.00     0.066 H 
ENDBRANCH  31  32
ENDBRANCH  23  31
ENDBRANCH   9  12
ENDBRANCH   1   9
BRANCH   6  36
ATOM     36  N   LIG d   1       5.553  -2.456  -4.393  0.00  0.00    -0.285 N 
ATOM     37  C   LIG d   1       4.806  -2.031  -3.354  0.00  0.00     0.218 C 
ATOM     38  O   LIG d   1       3.713  -2.518  -3.154  0.00  0.00    -0.276 OA
ATOM     39  H   LIG d   1       6.454  -2.117  -4.514  0.00  0.00     0.155 HD
BRANCH  37  40
ATOM     40  C   LIG d   1       5.330  -0.953  -2.440  0.00  0.00     0.034 C 
ATOM     41  H   LIG d   1       4.694  -0.885  -1.558  0.00  0.00     0.036 H 
ATOM     42  H   LIG d   1       6.348  -1.199  -2.136  0.00  0.00     0.036 H 
BRANCH  40  43
ATOM     43  C   LIG d   1       5.327   0.387  -3.178  0.00  0.00     0.053 C 
ATOM     44  H   LIG d   1       6.050   1.058  -2.715  0.00  0.00     0.038 H 
ATOM     45  H   LIG d   1       5.595   0.227  -4.222  0.00  0.00     0.038 H 
BRANCH  43  46
ATOM     46  C   LIG d   1       3.952   0.998  -3.100  0.00  0.00     0.307 C 
ATOM     47  O   LIG d   1       3.432   1.182  -2.025  0.00  0.00    -0.251 OA
BRANCH  46  48
ATOM     48  O   LIG d   1       3.305   1.339  -4.226  0.00  0.00    -0.468 OA
BRANCH  48  49
ATOM     49  C   LIG d   1       2.329   0.416  -4.718  0.00  0.00     0.082 C 
ATOM     50  H   LIG d   1       1.442   0.455  -4.087  0.00  0.00     0.066 H 
ATOM     51  H   LIG d   1       2.060   0.683  -5.740  0.00  0.00     0.066 H 
ATOM     52  H   LIG d   1       2.743  -0.592  -4.702  0.00  0.00     0.066 H 
ENDBRANCH  48  49
ENDBRANCH  46  48
ENDBRANCH  43  46
ENDBRANCH  40  43
ENDBRANCH  37  40
ENDBRANCH   6  36
BRANCH   3  53
ATOM     53  O   LIG d   1       3.486  -6.130  -7.978  0.00  0.00    -0.491 OA
BRANCH  53  54
ATOM     54  C   LIG d   1       3.242  -5.670  -9.308  0.00  0.00     0.079 C 
ATOM     55  H   LIG d   1       4.082  -5.942  -9.947  0.00  0.00     0.066 H 
ATOM     56  H   LIG d   1       2.331  -6.129  -9.691  0.00  0.00     0.066 H 
ATOM     57  H   LIG d   1       3.127  -4.586  -9.302  0.00  0.00     0.066 H 
ENDBRANCH  53  54
ENDBRANCH   3  53
BRANCH   4  58
ATOM     58  O   LIG d   1       4.384  -6.968  -5.514  0.00  0.00    -0.491 OA
BRANCH  58  59
ATOM     59  C   LIG d   1       5.627  -7.661  -5.378  0.00  0.00     0.079 C 
ATOM     60  H   LIG d   1       6.423  -7.073  -5.834  0.00  0.00     0.066 H 
ATOM     61  H   LIG d   1       5.845  -7.811  -4.321  0.00  0.00     0.066 H 
ATOM     62  H   LIG d   1       5.559  -8.628  -5.875  0.00  0.00     0.066 H 
ENDBRANCH  58  59
ENDBRANCH   4  58
TORSDOF 16
ENDMDL
