MODEL 1
REMARK VINA RESULT:      -5.3      0.000      0.000
REMARK  12 active torsions:
REMARK  status: ('A' for Active; 'I' for Inactive)
REMARK    1  A    between atoms: C_1  and  C_2 
REMARK    2  A    between atoms: C_2  and  N_3 
REMARK    3  A    between atoms: C_8  and  O_26 
REMARK    4  A    between atoms: C_9  and  O_24 
REMARK    5  A    between atoms: C_12  and  C_13 
REMARK    6  A    between atoms: C_13  and  C_14 
REMARK    7  A    between atoms: C_17  and  O_22 
REMARK    8  A    between atoms: C_18  and  O_20 
REMARK    9  A    between atoms: O_20  and  C_21 
REMARK   10  A    between atoms: O_22  and  C_23 
REMARK   11  A    between atoms: O_24  and  C_25 
REMARK   12  A    between atoms: O_26  and  C_27 
ROOT
ATOM      1  N   LIG d   1       3.959  -0.355  -3.674  0.00  0.00    -0.201 N 
ATOM      2  C   LIG d   1       2.806   0.235  -3.963  0.00  0.00     0.172 A 
ATOM      3  C   LIG d   1       2.429   0.486  -5.247  0.00  0.00     0.010 A 
ATOM      4  C   LIG d   1       3.292   0.105  -6.290  0.00  0.00    -0.003 A 
ATOM      5  C   LIG d   1       2.976   0.330  -7.637  0.00  0.00    -0.008 A 
ATOM      6  C   LIG d   1       3.853  -0.061  -8.609  0.00  0.00     0.162 A 
ATOM      7  C   LIG d   1       5.065  -0.684  -8.276  0.00  0.00     0.162 A 
ATOM      8  C   LIG d   1       5.400  -0.915  -6.973  0.00  0.00    -0.003 A 
ATOM      9  C   LIG d   1       4.519  -0.524  -5.952  0.00  0.00     0.053 A 
ATOM     10  C   LIG d   1       4.814  -0.733  -4.595  0.00  0.00     0.196 A 
ATOM     11  H   LIG d   1       2.148   0.524  -3.156  0.00  0.00     0.138 H 
ATOM     12  H   LIG d   1       1.486   0.967  -5.459  0.00  0.00     0.068 H 
ATOM     13  H   LIG d   1       2.045   0.807  -7.906  0.00  0.00     0.066 H 
ATOM     14  H   LIG d   1       6.336  -1.395  -6.728  0.00  0.00     0.066 H 
ENDROOT
BRANCH  10  15
ATOM     15  C   LIG d   1       6.109  -1.393  -4.198  0.00  0.00     0.058 C 
ATOM     16  H   LIG d   1       6.041  -1.735  -3.167  0.00  0.00     0.042 H 
ATOM     17  H   LIG d   1       6.298  -2.244  -4.853  0.00  0.00     0.042 H 
BRANCH  15  18
ATOM     18  C   LIG d   1       7.237  -0.402  -4.326  0.00  0.00    -0.034 A 
ATOM     19  C   LIG d   1       8.398  -0.760  -4.985  0.00  0.00    -0.013 A 
ATOM     20  C   LIG d   1       9.435   0.151  -5.108  0.00  0.00     0.162 A 
ATOM     21  H   LIG d   1       8.497  -1.749  -5.407  0.00  0.00     0.066 H 
ATOM     22  C   LIG d   1       9.307   1.423  -4.559  0.00  0.00     0.162 A 
ATOM     23  C   LIG d   1       8.142   1.775  -3.896  0.00  0.00    -0.016 A 
ATOM     24  C   LIG d   1       7.111   0.863  -3.781  0.00  0.00    -0.054 A 
ATOM     25  H   LIG d   1       8.041   2.762  -3.469  0.00  0.00     0.066 H 
ATOM     26  H   LIG d   1       6.204   1.138  -3.263  0.00  0.00     0.062 H 
BRANCH  20  27
ATOM     27  O   LIG d   1      10.575  -0.199  -5.761  0.00  0.00    -0.491 OA
BRANCH  27  28
ATOM     28  C   LIG d   1      11.502  -1.025  -5.052  0.00  0.00     0.079 C 
ATOM     29  H   LIG d   1      12.490  -0.564  -5.076  0.00  0.00     0.066 H 
ATOM     30  H   LIG d   1      11.175  -1.132  -4.018  0.00  0.00     0.066 H 
ATOM     31  H   LIG d   1      11.546  -2.006  -5.523  0.00  0.00     0.066 H 
ENDBRANCH  27  28
ENDBRANCH  20  27
BRANCH  22  32
ATOM     32  O   LIG d   1      10.323   2.320  -4.674  0.00  0.00    -0.491 OA
BRANCH  32  33
ATOM     33  C   LIG d   1      11.140   2.527  -3.519  0.00  0.00     0.079 C 
ATOM     34  H   LIG d   1      12.156   2.770  -3.831  0.00  0.00     0.066 H 
ATOM     35  H   LIG d   1      10.735   3.352  -2.931  0.00  0.00     0.066 H 
ATOM     36  H   LIG d   1      11.152   1.621  -2.915  0.00  0.00     0.066 H 
ENDBRANCH  32  33
ENDBRANCH  22  32
ENDBRANCH  15  18
ENDBRANCH  10  15
BRANCH   1  37
ATOM     37  C   LIG d   1       4.293  -0.591  -2.267  0.00  0.00     0.148 C 
ATOM     38  H   LIG d   1       5.212  -1.173  -2.204  0.00  0.00     0.103 H 
ATOM     39  H   LIG d   1       3.482  -1.140  -1.788  0.00  0.00     0.103 H 
BRANCH  37  40
ATOM     40  C   LIG d   1       4.489   0.751  -1.558  0.00  0.00    -0.005 C 
ATOM     41  H   LIG d   1       3.777   0.835  -0.737  0.00  0.00     0.029 H 
ATOM     42  H   LIG d   1       5.504   0.810  -1.166  0.00  0.00     0.029 H 
ATOM     43  H   LIG d   1       4.325   1.563  -2.267  0.00  0.00     0.029 H 
ENDBRANCH  37  40
ENDBRANCH   1  37
BRANCH   7  44
ATOM     44  O   LIG d   1       5.919  -1.063  -9.263  0.00  0.00    -0.491 OA
BRANCH  44  45
ATOM     45  C   LIG d   1       7.246  -0.537  -9.212  0.00  0.00     0.079 C 
ATOM     46  H   LIG d   1       7.464  -0.009 -10.141  0.00  0.00     0.066 H 
ATOM     47  H   LIG d   1       7.331   0.154  -8.374  0.00  0.00     0.066 H 
ATOM     48  H   LIG d   1       7.957  -1.353  -9.083  0.00  0.00     0.066 H 
ENDBRANCH  44  45
ENDBRANCH   7  44
BRANCH   6  49
ATOM     49  O   LIG d   1       3.547   0.155  -9.915  0.00  0.00    -0.491 OA
BRANCH  49  50
ATOM     50  C   LIG d   1       3.897   1.428 -10.461  0.00  0.00     0.079 C 
ATOM     51  H   LIG d   1       4.832   1.769 -10.018  0.00  0.00     0.066 H 
ATOM     52  H   LIG d   1       4.017   1.340 -11.541  0.00  0.00     0.066 H 
ATOM     53  H   LIG d   1       3.108   2.147 -10.241  0.00  0.00     0.066 H 
ENDBRANCH  49  50
ENDBRANCH   6  49
TORSDOF 12
ENDMDL
MODEL 2
REMARK VINA RESULT:      -5.2      1.459      2.413
REMARK  12 active torsions:
REMARK  status: ('A' for Active; 'I' for Inactive)
REMARK    1  A    between atoms: C_1  and  C_2 
REMARK    2  A    between atoms: C_2  and  N_3 
REMARK    3  A    between atoms: C_8  and  O_26 
REMARK    4  A    between atoms: C_9  and  O_24 
REMARK    5  A    between atoms: C_12  and  C_13 
REMARK    6  A    between atoms: C_13  and  C_14 
REMARK    7  A    between atoms: C_17  and  O_22 
REMARK    8  A    between atoms: C_18  and  O_20 
REMARK    9  A    between atoms: O_20  and  C_21 
REMARK   10  A    between atoms: O_22  and  C_23 
REMARK   11  A    between atoms: O_24  and  C_25 
REMARK   12  A    between atoms: O_26  and  C_27 
ROOT
ATOM      1  N   LIG d   1       3.873  -0.386  -3.499  0.00  0.00    -0.201 N 
ATOM      2  C   LIG d   1       3.023   0.579  -3.827  0.00  0.00     0.172 A 
ATOM      3  C   LIG d   1       2.607   0.764  -5.110  0.00  0.00     0.010 A 
ATOM      4  C   LIG d   1       3.098  -0.096  -6.109  0.00  0.00    -0.003 A 
ATOM      5  C   LIG d   1       2.718   0.031  -7.453  0.00  0.00    -0.008 A 
ATOM      6  C   LIG d   1       3.227  -0.833  -8.380  0.00  0.00     0.162 A 
ATOM      7  C   LIG d   1       4.123  -1.845  -8.006  0.00  0.00     0.162 A 
ATOM      8  C   LIG d   1       4.511  -1.992  -6.706  0.00  0.00    -0.003 A 
ATOM      9  C   LIG d   1       4.005  -1.119  -5.729  0.00  0.00     0.053 A 
ATOM     10  C   LIG d   1       4.374  -1.221  -4.378  0.00  0.00     0.196 A 
ATOM     11  H   LIG d   1       2.650   1.235  -3.053  0.00  0.00     0.138 H 
ATOM     12  H   LIG d   1       1.914   1.556  -5.355  0.00  0.00     0.068 H 
ATOM     13  H   LIG d   1       2.027   0.805  -7.753  0.00  0.00     0.066 H 
ATOM     14  H   LIG d   1       5.202  -2.774  -6.429  0.00  0.00     0.066 H 
ENDROOT
BRANCH  10  15
ATOM     15  C   LIG d   1       5.340  -2.291  -3.939  0.00  0.00     0.058 C 
ATOM     16  H   LIG d   1       5.326  -2.370  -2.853  0.00  0.00     0.042 H 
ATOM     17  H   LIG d   1       5.047  -3.246  -4.377  0.00  0.00     0.042 H 
BRANCH  15  18
ATOM     18  C   LIG d   1       6.729  -1.932  -4.400  0.00  0.00    -0.034 A 
ATOM     19  C   LIG d   1       7.186  -0.634  -4.267  0.00  0.00    -0.013 A 
ATOM     20  C   LIG d   1       8.465  -0.303  -4.685  0.00  0.00     0.162 A 
ATOM     21  H   LIG d   1       6.547   0.122  -3.834  0.00  0.00     0.066 H 
ATOM     22  C   LIG d   1       9.283  -1.278  -5.247  0.00  0.00     0.162 A 
ATOM     23  C   LIG d   1       8.818  -2.576  -5.381  0.00  0.00    -0.016 A 
ATOM     24  C   LIG d   1       7.543  -2.901  -4.958  0.00  0.00    -0.054 A 
ATOM     25  H   LIG d   1       9.452  -3.335  -5.817  0.00  0.00     0.066 H 
ATOM     26  H   LIG d   1       7.181  -3.912  -5.064  0.00  0.00     0.062 H 
BRANCH  20  27
ATOM     27  O   LIG d   1       8.917   0.972  -4.551  0.00  0.00    -0.491 OA
BRANCH  27  28
ATOM     28  C   LIG d   1       8.009   1.928  -3.999  0.00  0.00     0.079 C 
ATOM     29  H   LIG d   1       8.378   2.935  -4.197  0.00  0.00     0.066 H 
ATOM     30  H   LIG d   1       7.028   1.804  -4.457  0.00  0.00     0.066 H 
ATOM     31  H   LIG d   1       7.930   1.774  -2.923  0.00  0.00     0.066 H 
ENDBRANCH  27  28
ENDBRANCH  20  27
BRANCH  22  32
ATOM     32  O   LIG d   1      10.538  -0.957  -5.662  0.00  0.00    -0.491 OA
BRANCH  32  33
ATOM     33  C   LIG d   1      11.627  -1.456  -4.882  0.00  0.00     0.079 C 
ATOM     34  H   LIG d   1      12.564  -1.048  -5.262  0.00  0.00     0.066 H 
ATOM     35  H   LIG d   1      11.497  -1.156  -3.842  0.00  0.00     0.066 H 
ATOM     36  H   LIG d   1      11.653  -2.544  -4.947  0.00  0.00     0.066 H 
ENDBRANCH  32  33
ENDBRANCH  22  32
ENDBRANCH  15  18
ENDBRANCH  10  15
BRANCH   1  37
ATOM     37  C   LIG d   1       4.273  -0.521  -2.095  0.00  0.00     0.148 C 
ATOM     38  H   LIG d   1       5.128  -1.193  -2.024  0.00  0.00     0.103 H 
ATOM     39  H   LIG d   1       3.442  -0.928  -1.519  0.00  0.00     0.103 H 
BRANCH  37  40
ATOM     40  C   LIG d   1       4.655   0.853  -1.540  0.00  0.00    -0.005 C 
ATOM     41  H   LIG d   1       4.515   0.859  -0.459  0.00  0.00     0.029 H 
ATOM     42  H   LIG d   1       5.699   1.061  -1.772  0.00  0.00     0.029 H 
ATOM     43  H   LIG d   1       4.022   1.616  -1.993  0.00  0.00     0.029 H 
ENDBRANCH  37  40
ENDBRANCH   1  37
BRANCH   7  44
ATOM     44  O   LIG d   1       4.613  -2.691  -8.950  0.00  0.00    -0.491 OA
BRANCH  44  45
ATOM     45  C   LIG d   1       4.037  -3.997  -9.014  0.00  0.00     0.079 C 
ATOM     46  H   LIG d   1       3.294  -4.028  -9.810  0.00  0.00     0.066 H 
ATOM     47  H   LIG d   1       4.818  -4.729  -9.217  0.00  0.00     0.066 H 
ATOM     48  H   LIG d   1       3.559  -4.230  -8.062  0.00  0.00     0.066 H 
ENDBRANCH  44  45
ENDBRANCH   7  44
BRANCH   6  49
ATOM     49  O   LIG d   1       2.858  -0.711  -9.683  0.00  0.00    -0.491 OA
BRANCH  49  50
ATOM     50  C   LIG d   1       1.518  -1.076 -10.015  0.00  0.00     0.079 C 
ATOM     51  H   LIG d   1       1.410  -1.122 -11.098  0.00  0.00     0.066 H 
ATOM     52  H   LIG d   1       1.290  -2.052  -9.585  0.00  0.00     0.066 H 
ATOM     53  H   LIG d   1       0.829  -0.333  -9.613  0.00  0.00     0.066 H 
ENDBRANCH  49  50
ENDBRANCH   6  49
TORSDOF 12
ENDMDL
MODEL 3
REMARK VINA RESULT:      -5.2      2.733      4.521
REMARK  12 active torsions:
REMARK  status: ('A' for Active; 'I' for Inactive)
REMARK    1  A    between atoms: C_1  and  C_2 
REMARK    2  A    between atoms: C_2  and  N_3 
REMARK    3  A    between atoms: C_8  and  O_26 
REMARK    4  A    between atoms: C_9  and  O_24 
REMARK    5  A    between atoms: C_12  and  C_13 
REMARK    6  A    between atoms: C_13  and  C_14 
REMARK    7  A    between atoms: C_17  and  O_22 
REMARK    8  A    between atoms: C_18  and  O_20 
REMARK    9  A    between atoms: O_20  and  C_21 
REMARK   10  A    between atoms: O_22  and  C_23 
REMARK   11  A    between atoms: O_24  and  C_25 
REMARK   12  A    between atoms: O_26  and  C_27 
ROOT
ATOM      1  N   LIG d   1       3.998  -0.448  -3.746  0.00  0.00    -0.201 N 
ATOM      2  C   LIG d   1       2.790   0.033  -4.012  0.00  0.00     0.172 A 
ATOM      3  C   LIG d   1       2.397   0.328  -5.281  0.00  0.00     0.010 A 
ATOM      4  C   LIG d   1       3.303   0.113  -6.336  0.00  0.00    -0.003 A 
ATOM      5  C   LIG d   1       2.974   0.392  -7.669  0.00  0.00    -0.008 A 
ATOM      6  C   LIG d   1       3.895   0.163  -8.652  0.00  0.00     0.162 A 
ATOM      7  C   LIG d   1       5.165  -0.346  -8.344  0.00  0.00     0.162 A 
ATOM      8  C   LIG d   1       5.513  -0.627  -7.054  0.00  0.00    -0.003 A 
ATOM      9  C   LIG d   1       4.588  -0.403  -6.022  0.00  0.00     0.053 A 
ATOM     10  C   LIG d   1       4.895  -0.668  -4.678  0.00  0.00     0.196 A 
ATOM     11  H   LIG d   1       2.099   0.195  -3.197  0.00  0.00     0.138 H 
ATOM     12  H   LIG d   1       1.408   0.718  -5.475  0.00  0.00     0.068 H 
ATOM     13  H   LIG d   1       1.999   0.783  -7.919  0.00  0.00     0.066 H 
ATOM     14  H   LIG d   1       6.494  -1.019  -6.829  0.00  0.00     0.066 H 
ENDROOT
BRANCH  10  15
ATOM     15  C   LIG d   1       6.251  -1.211  -4.308  0.00  0.00     0.058 C 
ATOM     16  H   LIG d   1       7.022  -0.662  -4.847  0.00  0.00     0.042 H 
ATOM     17  H   LIG d   1       6.407  -1.097  -3.234  0.00  0.00     0.042 H 
BRANCH  15  18
ATOM     18  C   LIG d   1       6.325  -2.671  -4.673  0.00  0.00    -0.034 A 
ATOM     19  C   LIG d   1       5.166  -3.371  -4.952  0.00  0.00    -0.013 A 
ATOM     20  C   LIG d   1       5.231  -4.712  -5.293  0.00  0.00     0.162 A 
ATOM     21  H   LIG d   1       4.209  -2.871  -4.909  0.00  0.00     0.066 H 
ATOM     22  C   LIG d   1       6.464  -5.354  -5.343  0.00  0.00     0.162 A 
ATOM     23  C   LIG d   1       7.622  -4.648  -5.058  0.00  0.00    -0.016 A 
ATOM     24  C   LIG d   1       7.550  -3.310  -4.723  0.00  0.00    -0.054 A 
ATOM     25  H   LIG d   1       8.581  -5.145  -5.096  0.00  0.00     0.066 H 
ATOM     26  H   LIG d   1       8.453  -2.761  -4.500  0.00  0.00     0.062 H 
BRANCH  20  27
ATOM     27  O   LIG d   1       4.092  -5.400  -5.574  0.00  0.00    -0.491 OA
BRANCH  27  28
ATOM     28  C   LIG d   1       3.604  -5.330  -6.915  0.00  0.00     0.079 C 
ATOM     29  H   LIG d   1       3.277  -4.312  -7.129  0.00  0.00     0.066 H 
ATOM     30  H   LIG d   1       4.400  -5.609  -7.605  0.00  0.00     0.066 H 
ATOM     31  H   LIG d   1       2.765  -6.014  -7.032  0.00  0.00     0.066 H 
ENDBRANCH  27  28
ENDBRANCH  20  27
BRANCH  22  32
ATOM     32  O   LIG d   1       6.533  -6.672  -5.674  0.00  0.00    -0.491 OA
BRANCH  32  33
ATOM     33  C   LIG d   1       7.022  -6.989  -6.979  0.00  0.00     0.079 C 
ATOM     34  H   LIG d   1       7.679  -6.192  -7.325  0.00  0.00     0.066 H 
ATOM     35  H   LIG d   1       7.578  -7.926  -6.941  0.00  0.00     0.066 H 
ATOM     36  H   LIG d   1       6.182  -7.091  -7.666  0.00  0.00     0.066 H 
ENDBRANCH  32  33
ENDBRANCH  22  32
ENDBRANCH  15  18
ENDBRANCH  10  15
BRANCH   1  37
ATOM     37  C   LIG d   1       4.346  -0.740  -2.353  0.00  0.00     0.148 C 
ATOM     38  H   LIG d   1       5.272  -1.315  -2.323  0.00  0.00     0.103 H 
ATOM     39  H   LIG d   1       3.545  -1.317  -1.892  0.00  0.00     0.103 H 
BRANCH  37  40
ATOM     40  C   LIG d   1       4.534   0.573  -1.589  0.00  0.00    -0.005 C 
ATOM     41  H   LIG d   1       5.161   0.397  -0.715  0.00  0.00     0.029 H 
ATOM     42  H   LIG d   1       5.014   1.305  -2.238  0.00  0.00     0.029 H 
ATOM     43  H   LIG d   1       3.563   0.950  -1.271  0.00  0.00     0.029 H 
ENDBRANCH  37  40
ENDBRANCH   1  37
BRANCH   7  44
ATOM     44  O   LIG d   1       6.061  -0.565  -9.342  0.00  0.00    -0.491 OA
BRANCH  44  45
ATOM     45  C   LIG d   1       7.151   0.353  -9.449  0.00  0.00     0.079 C 
ATOM     46  H   LIG d   1       7.085   1.091  -8.650  0.00  0.00     0.066 H 
ATOM     47  H   LIG d   1       8.092  -0.190  -9.365  0.00  0.00     0.066 H 
ATOM     48  H   LIG d   1       7.108   0.857 -10.414  0.00  0.00     0.066 H 
ENDBRANCH  44  45
ENDBRANCH   7  44
BRANCH   6  49
ATOM     49  O   LIG d   1       3.576   0.433  -9.946  0.00  0.00    -0.491 OA
BRANCH  49  50
ATOM     50  C   LIG d   1       3.770   1.775 -10.395  0.00  0.00     0.079 C 
ATOM     51  H   LIG d   1       4.300   2.342  -9.631  0.00  0.00     0.066 H 
ATOM     52  H   LIG d   1       4.355   1.769 -11.315  0.00  0.00     0.066 H 
ATOM     53  H   LIG d   1       2.801   2.238 -10.584  0.00  0.00     0.066 H 
ENDBRANCH  49  50
ENDBRANCH   6  49
TORSDOF 12
ENDMDL
MODEL 4
REMARK VINA RESULT:      -5.0      2.442      6.102
REMARK  12 active torsions:
REMARK  status: ('A' for Active; 'I' for Inactive)
REMARK    1  A    between atoms: C_1  and  C_2 
REMARK    2  A    between atoms: C_2  and  N_3 
REMARK    3  A    between atoms: C_8  and  O_26 
REMARK    4  A    between atoms: C_9  and  O_24 
REMARK    5  A    between atoms: C_12  and  C_13 
REMARK    6  A    between atoms: C_13  and  C_14 
REMARK    7  A    between atoms: C_17  and  O_22 
REMARK    8  A    between atoms: C_18  and  O_20 
REMARK    9  A    between atoms: O_20  and  C_21 
REMARK   10  A    between atoms: O_22  and  C_23 
REMARK   11  A    between atoms: O_24  and  C_25 
REMARK   12  A    between atoms: O_26  and  C_27 
ROOT
ATOM      1  N   LIG d   1       5.262  -0.839  -2.944  0.00  0.00    -0.201 N 
ATOM      2  C   LIG d   1       5.065   0.431  -2.618  0.00  0.00     0.172 A 
ATOM      3  C   LIG d   1       5.943   1.409  -2.973  0.00  0.00     0.010 A 
ATOM      4  C   LIG d   1       7.089   1.053  -3.707  0.00  0.00    -0.003 A 
ATOM      5  C   LIG d   1       8.040   2.001  -4.109  0.00  0.00    -0.008 A 
ATOM      6  C   LIG d   1       9.134   1.597  -4.820  0.00  0.00     0.162 A 
ATOM      7  C   LIG d   1       9.318   0.246  -5.152  0.00  0.00     0.162 A 
ATOM      8  C   LIG d   1       8.409  -0.699  -4.774  0.00  0.00    -0.003 A 
ATOM      9  C   LIG d   1       7.274  -0.314  -4.042  0.00  0.00     0.053 A 
ATOM     10  C   LIG d   1       6.310  -1.244  -3.623  0.00  0.00     0.196 A 
ATOM     11  H   LIG d   1       4.181   0.697  -2.054  0.00  0.00     0.138 H 
ATOM     12  H   LIG d   1       5.762   2.438  -2.697  0.00  0.00     0.068 H 
ATOM     13  H   LIG d   1       7.909   3.043  -3.860  0.00  0.00     0.066 H 
ATOM     14  H   LIG d   1       8.561  -1.736  -5.035  0.00  0.00     0.066 H 
ENDROOT
BRANCH  10  15
ATOM     15  C   LIG d   1       6.476  -2.704  -3.955  0.00  0.00     0.058 C 
ATOM     16  H   LIG d   1       7.524  -2.913  -4.161  0.00  0.00     0.042 H 
ATOM     17  H   LIG d   1       6.143  -3.309  -3.111  0.00  0.00     0.042 H 
BRANCH  15  18
ATOM     18  C   LIG d   1       5.648  -3.040  -5.169  0.00  0.00    -0.034 A 
ATOM     19  C   LIG d   1       5.051  -4.283  -5.274  0.00  0.00    -0.013 A 
ATOM     20  C   LIG d   1       4.285  -4.592  -6.387  0.00  0.00     0.162 A 
ATOM     21  H   LIG d   1       5.179  -5.012  -4.488  0.00  0.00     0.066 H 
ATOM     22  C   LIG d   1       4.127  -3.652  -7.401  0.00  0.00     0.162 A 
ATOM     23  C   LIG d   1       4.731  -2.410  -7.291  0.00  0.00    -0.016 A 
ATOM     24  C   LIG d   1       5.490  -2.107  -6.177  0.00  0.00    -0.054 A 
ATOM     25  H   LIG d   1       4.609  -1.679  -8.077  0.00  0.00     0.066 H 
ATOM     26  H   LIG d   1       5.961  -1.139  -6.093  0.00  0.00     0.062 H 
BRANCH  20  27
ATOM     27  O   LIG d   1       3.693  -5.811  -6.489  0.00  0.00    -0.491 OA
BRANCH  27  28
ATOM     28  C   LIG d   1       4.540  -6.921  -6.797  0.00  0.00     0.079 C 
ATOM     29  H   LIG d   1       4.053  -7.554  -7.538  0.00  0.00     0.066 H 
ATOM     30  H   LIG d   1       5.486  -6.555  -7.196  0.00  0.00     0.066 H 
ATOM     31  H   LIG d   1       4.726  -7.497  -5.891  0.00  0.00     0.066 H 
ENDBRANCH  27  28
ENDBRANCH  20  27
BRANCH  22  32
ATOM     32  O   LIG d   1       3.379  -3.952  -8.497  0.00  0.00    -0.491 OA
BRANCH  32  33
ATOM     33  C   LIG d   1       2.983  -2.861  -9.331  0.00  0.00     0.079 C 
ATOM     34  H   LIG d   1       1.977  -2.541  -9.058  0.00  0.00     0.066 H 
ATOM     35  H   LIG d   1       3.676  -2.030  -9.196  0.00  0.00     0.066 H 
ATOM     36  H   LIG d   1       2.992  -3.178 -10.373  0.00  0.00     0.066 H 
ENDBRANCH  32  33
ENDBRANCH  22  32
ENDBRANCH  15  18
ENDBRANCH  10  15
BRANCH   1  37
ATOM     37  C   LIG d   1       4.270  -1.833  -2.525  0.00  0.00     0.148 C 
ATOM     38  H   LIG d   1       4.372  -2.020  -1.456  0.00  0.00     0.103 H 
ATOM     39  H   LIG d   1       4.431  -2.761  -3.073  0.00  0.00     0.103 H 
BRANCH  37  40
ATOM     40  C   LIG d   1       2.864  -1.305  -2.820  0.00  0.00    -0.005 C 
ATOM     41  H   LIG d   1       2.928  -0.478  -3.526  0.00  0.00     0.029 H 
ATOM     42  H   LIG d   1       2.259  -2.103  -3.249  0.00  0.00     0.029 H 
ATOM     43  H   LIG d   1       2.405  -0.959  -1.894  0.00  0.00     0.029 H 
ENDBRANCH  37  40
ENDBRANCH   1  37
BRANCH   7  44
ATOM     44  O   LIG d   1      10.416  -0.128  -5.861  0.00  0.00    -0.491 OA
BRANCH  44  45
ATOM     45  C   LIG d   1      11.443  -0.822  -5.151  0.00  0.00     0.079 C 
ATOM     46  H   LIG d   1      10.999  -1.392  -4.335  0.00  0.00     0.066 H 
ATOM     47  H   LIG d   1      11.959  -1.500  -5.829  0.00  0.00     0.066 H 
ATOM     48  H   LIG d   1      12.155  -0.102  -4.746  0.00  0.00     0.066 H 
ENDBRANCH  44  45
ENDBRANCH   7  44
BRANCH   6  49
ATOM     49  O   LIG d   1      10.057   2.515  -5.211  0.00  0.00    -0.491 OA
BRANCH  49  50
ATOM     50  C   LIG d   1       9.587   3.842  -5.456  0.00  0.00     0.079 C 
ATOM     51  H   LIG d   1      10.332   4.560  -5.115  0.00  0.00     0.066 H 
ATOM     52  H   LIG d   1       9.417   3.975  -6.525  0.00  0.00     0.066 H 
ATOM     53  H   LIG d   1       8.654   4.002  -4.917  0.00  0.00     0.066 H 
ENDBRANCH  49  50
ENDBRANCH   6  49
TORSDOF 12
ENDMDL
MODEL 5
REMARK VINA RESULT:      -4.9      6.801      8.891
REMARK  12 active torsions:
REMARK  status: ('A' for Active; 'I' for Inactive)
REMARK    1  A    between atoms: C_1  and  C_2 
REMARK    2  A    between atoms: C_2  and  N_3 
REMARK    3  A    between atoms: C_8  and  O_26 
REMARK    4  A    between atoms: C_9  and  O_24 
REMARK    5  A    between atoms: C_12  and  C_13 
REMARK    6  A    between atoms: C_13  and  C_14 
REMARK    7  A    between atoms: C_17  and  O_22 
REMARK    8  A    between atoms: C_18  and  O_20 
REMARK    9  A    between atoms: O_20  and  C_21 
REMARK   10  A    between atoms: O_22  and  C_23 
REMARK   11  A    between atoms: O_24  and  C_25 
REMARK   12  A    between atoms: O_26  and  C_27 
ROOT
ATOM      1  N   LIG d   1       9.607   4.504  -4.415  0.00  0.00    -0.201 N 
ATOM      2  C   LIG d   1       9.800   3.913  -5.587  0.00  0.00     0.172 A 
ATOM      3  C   LIG d   1       9.900   4.625  -6.743  0.00  0.00     0.010 A 
ATOM      4  C   LIG d   1       9.794   6.027  -6.684  0.00  0.00    -0.003 A 
ATOM      5  C   LIG d   1       9.886   6.829  -7.830  0.00  0.00    -0.008 A 
ATOM      6  C   LIG d   1       9.775   8.185  -7.712  0.00  0.00     0.162 A 
ATOM      7  C   LIG d   1       9.571   8.785  -6.460  0.00  0.00     0.162 A 
ATOM      8  C   LIG d   1       9.478   8.029  -5.327  0.00  0.00    -0.003 A 
ATOM      9  C   LIG d   1       9.588   6.631  -5.416  0.00  0.00     0.053 A 
ATOM     10  C   LIG d   1       9.495   5.805  -4.286  0.00  0.00     0.196 A 
ATOM     11  H   LIG d   1       9.882   2.836  -5.624  0.00  0.00     0.138 H 
ATOM     12  H   LIG d   1      10.058   4.123  -7.687  0.00  0.00     0.068 H 
ATOM     13  H   LIG d   1      10.044   6.379  -8.798  0.00  0.00     0.066 H 
ATOM     14  H   LIG d   1       9.321   8.501  -4.369  0.00  0.00     0.066 H 
ENDROOT
BRANCH  10  15
ATOM     15  C   LIG d   1       9.270   6.412  -2.925  0.00  0.00     0.058 C 
ATOM     16  H   LIG d   1       8.880   7.423  -3.037  0.00  0.00     0.042 H 
ATOM     17  H   LIG d   1       8.553   5.805  -2.371  0.00  0.00     0.042 H 
BRANCH  15  18
ATOM     18  C   LIG d   1      10.576   6.457  -2.174  0.00  0.00    -0.034 A 
ATOM     19  C   LIG d   1      10.576   6.444  -0.791  0.00  0.00    -0.013 A 
ATOM     20  C   LIG d   1      11.776   6.481  -0.098  0.00  0.00     0.162 A 
ATOM     21  H   LIG d   1       9.642   6.403  -0.251  0.00  0.00     0.066 H 
ATOM     22  C   LIG d   1      12.977   6.539  -0.797  0.00  0.00     0.162 A 
ATOM     23  C   LIG d   1      12.970   6.556  -2.183  0.00  0.00    -0.016 A 
ATOM     24  C   LIG d   1      11.770   6.515  -2.868  0.00  0.00    -0.054 A 
ATOM     25  H   LIG d   1      13.902   6.601  -2.728  0.00  0.00     0.066 H 
ATOM     26  H   LIG d   1      11.765   6.529  -3.947  0.00  0.00     0.062 H 
BRANCH  20  27
ATOM     27  O   LIG d   1      11.778   6.463   1.261  0.00  0.00    -0.491 OA
BRANCH  27  28
ATOM     28  C   LIG d   1      10.905   5.529   1.900  0.00  0.00     0.079 C 
ATOM     29  H   LIG d   1      11.242   5.358   2.922  0.00  0.00     0.066 H 
ATOM     30  H   LIG d   1       9.892   5.930   1.913  0.00  0.00     0.066 H 
ATOM     31  H   LIG d   1      10.916   4.588   1.351  0.00  0.00     0.066 H 
ENDBRANCH  27  28
ENDBRANCH  20  27
BRANCH  22  32
ATOM     32  O   LIG d   1      14.157   6.579  -0.122  0.00  0.00    -0.491 OA
BRANCH  32  33
ATOM     33  C   LIG d   1      15.214   5.751  -0.613  0.00  0.00     0.079 C 
ATOM     34  H   LIG d   1      16.152   6.305  -0.586  0.00  0.00     0.066 H 
ATOM     35  H   LIG d   1      15.301   4.862   0.014  0.00  0.00     0.066 H 
ATOM     36  H   LIG d   1      14.997   5.453  -1.638  0.00  0.00     0.066 H 
ENDBRANCH  32  33
ENDBRANCH  22  32
ENDBRANCH  15  18
ENDBRANCH  10  15
BRANCH   1  37
ATOM     37  C   LIG d   1       9.511   3.668  -3.215  0.00  0.00     0.148 C 
ATOM     38  H   LIG d   1       8.642   3.015  -3.296  0.00  0.00     0.103 H 
ATOM     39  H   LIG d   1       9.407   4.304  -2.337  0.00  0.00     0.103 H 
BRANCH  37  40
ATOM     40  C   LIG d   1      10.778   2.819  -3.083  0.00  0.00    -0.005 C 
ATOM     41  H   LIG d   1      10.503   1.767  -3.008  0.00  0.00     0.029 H 
ATOM     42  H   LIG d   1      11.408   2.968  -3.959  0.00  0.00     0.029 H 
ATOM     43  H   LIG d   1      11.322   3.118  -2.188  0.00  0.00     0.029 H 
ENDBRANCH  37  40
ENDBRANCH   1  37
BRANCH   7  44
ATOM     44  O   LIG d   1       9.466  10.137  -6.372  0.00  0.00    -0.491 OA
BRANCH  44  45
ATOM     45  C   LIG d   1       9.437  10.703  -5.060  0.00  0.00     0.079 C 
ATOM     46  H   LIG d   1       8.405  10.782  -4.721  0.00  0.00     0.066 H 
ATOM     47  H   LIG d   1       9.996  10.063  -4.377  0.00  0.00     0.066 H 
ATOM     48  H   LIG d   1       9.890  11.694  -5.082  0.00  0.00     0.066 H 
ENDBRANCH  44  45
ENDBRANCH   7  44
BRANCH   6  49
ATOM     49  O   LIG d   1       9.864   8.965  -8.822  0.00  0.00    -0.491 OA
BRANCH  49  50
ATOM     50  C   LIG d   1      10.523   8.402  -9.958  0.00  0.00     0.079 C 
ATOM     51  H   LIG d   1      11.598   8.384  -9.782  0.00  0.00     0.066 H 
ATOM     52  H   LIG d   1      10.164   7.386 -10.120  0.00  0.00     0.066 H 
ATOM     53  H   LIG d   1      10.309   9.008 -10.838  0.00  0.00     0.066 H 
ENDBRANCH  49  50
ENDBRANCH   6  49
TORSDOF 12
ENDMDL
MODEL 6
REMARK VINA RESULT:      -4.8      1.773      6.177
REMARK  12 active torsions:
REMARK  status: ('A' for Active; 'I' for Inactive)
REMARK    1  A    between atoms: C_1  and  C_2 
REMARK    2  A    between atoms: C_2  and  N_3 
REMARK    3  A    between atoms: C_8  and  O_26 
REMARK    4  A    between atoms: C_9  and  O_24 
REMARK    5  A    between atoms: C_12  and  C_13 
REMARK    6  A    between atoms: C_13  and  C_14 
REMARK    7  A    between atoms: C_17  and  O_22 
REMARK    8  A    between atoms: C_18  and  O_20 
REMARK    9  A    between atoms: O_20  and  C_21 
REMARK   10  A    between atoms: O_22  and  C_23 
REMARK   11  A    between atoms: O_24  and  C_25 
REMARK   12  A    between atoms: O_26  and  C_27 
ROOT
ATOM      1  N   LIG d   1       4.969  -0.740  -3.809  0.00  0.00    -0.201 N 
ATOM      2  C   LIG d   1       5.011   0.141  -2.818  0.00  0.00     0.172 A 
ATOM      3  C   LIG d   1       5.959   1.117  -2.765  0.00  0.00     0.010 A 
ATOM      4  C   LIG d   1       6.916   1.186  -3.793  0.00  0.00    -0.003 A 
ATOM      5  C   LIG d   1       7.923   2.161  -3.809  0.00  0.00    -0.008 A 
ATOM      6  C   LIG d   1       8.826   2.179  -4.834  0.00  0.00     0.162 A 
ATOM      7  C   LIG d   1       8.758   1.235  -5.870  0.00  0.00     0.162 A 
ATOM      8  C   LIG d   1       7.789   0.275  -5.880  0.00  0.00    -0.003 A 
ATOM      9  C   LIG d   1       6.846   0.230  -4.840  0.00  0.00     0.053 A 
ATOM     10  C   LIG d   1       5.832  -0.739  -4.798  0.00  0.00     0.196 A 
ATOM     11  H   LIG d   1       4.272   0.082  -2.032  0.00  0.00     0.138 H 
ATOM     12  H   LIG d   1       5.974   1.825  -1.949  0.00  0.00     0.068 H 
ATOM     13  H   LIG d   1       7.984   2.893  -3.018  0.00  0.00     0.066 H 
ATOM     14  H   LIG d   1       7.747  -0.447  -6.683  0.00  0.00     0.066 H 
ENDROOT
BRANCH  10  15
ATOM     15  C   LIG d   1       5.731  -1.773  -5.889  0.00  0.00     0.058 C 
ATOM     16  H   LIG d   1       6.703  -1.899  -6.362  0.00  0.00     0.042 H 
ATOM     17  H   LIG d   1       5.409  -2.723  -5.461  0.00  0.00     0.042 H 
BRANCH  15  18
ATOM     18  C   LIG d   1       4.726  -1.321  -6.918  0.00  0.00    -0.034 A 
ATOM     19  C   LIG d   1       4.409   0.020  -7.029  0.00  0.00    -0.013 A 
ATOM     20  C   LIG d   1       3.490   0.439  -7.977  0.00  0.00     0.162 A 
ATOM     21  H   LIG d   1       4.881   0.743  -6.379  0.00  0.00     0.066 H 
ATOM     22  C   LIG d   1       2.880  -0.494  -8.810  0.00  0.00     0.162 A 
ATOM     23  C   LIG d   1       3.199  -1.837  -8.691  0.00  0.00    -0.016 A 
ATOM     24  C   LIG d   1       4.120  -2.248  -7.746  0.00  0.00    -0.054 A 
ATOM     25  H   LIG d   1       2.727  -2.564  -9.336  0.00  0.00     0.066 H 
ATOM     26  H   LIG d   1       4.367  -3.295  -7.653  0.00  0.00     0.062 H 
BRANCH  20  27
ATOM     27  O   LIG d   1       3.181   1.759  -8.090  0.00  0.00    -0.491 OA
BRANCH  27  28
ATOM     28  C   LIG d   1       3.907   2.514  -9.062  0.00  0.00     0.079 C 
ATOM     29  H   LIG d   1       4.018   1.924  -9.972  0.00  0.00     0.066 H 
ATOM     30  H   LIG d   1       3.365   3.432  -9.287  0.00  0.00     0.066 H 
ATOM     31  H   LIG d   1       4.892   2.762  -8.667  0.00  0.00     0.066 H 
ENDBRANCH  27  28
ENDBRANCH  20  27
BRANCH  22  32
ATOM     32  O   LIG d   1       1.974  -0.088  -9.739  0.00  0.00    -0.491 OA
BRANCH  32  33
ATOM     33  C   LIG d   1       1.296  -1.110 -10.474  0.00  0.00     0.079 C 
ATOM     34  H   LIG d   1       1.393  -0.915 -11.542  0.00  0.00     0.066 H 
ATOM     35  H   LIG d   1       1.738  -2.079 -10.241  0.00  0.00     0.066 H 
ATOM     36  H   LIG d   1       0.242  -1.115 -10.200  0.00  0.00     0.066 H 
ENDBRANCH  32  33
ENDBRANCH  22  32
ENDBRANCH  15  18
ENDBRANCH  10  15
BRANCH   1  37
ATOM     37  C   LIG d   1       3.918  -1.761  -3.795  0.00  0.00     0.148 C 
ATOM     38  H   LIG d   1       4.179  -2.561  -4.488  0.00  0.00     0.103 H 
ATOM     39  H   LIG d   1       2.972  -1.313  -4.098  0.00  0.00     0.103 H 
BRANCH  37  40
ATOM     40  C   LIG d   1       3.782  -2.334  -2.382  0.00  0.00    -0.005 C 
ATOM     41  H   LIG d   1       4.762  -2.359  -1.906  0.00  0.00     0.029 H 
ATOM     42  H   LIG d   1       3.111  -1.704  -1.799  0.00  0.00     0.029 H 
ATOM     43  H   LIG d   1       3.378  -3.344  -2.438  0.00  0.00     0.029 H 
ENDBRANCH  37  40
ENDBRANCH   1  37
BRANCH   7  44
ATOM     44  O   LIG d   1       9.670   1.278  -6.878  0.00  0.00    -0.491 OA
BRANCH  44  45
ATOM     45  C   LIG d   1       9.261   0.760  -8.145  0.00  0.00     0.079 C 
ATOM     46  H   LIG d   1       8.199   0.516  -8.113  0.00  0.00     0.066 H 
ATOM     47  H   LIG d   1       9.439   1.508  -8.917  0.00  0.00     0.066 H 
ATOM     48  H   LIG d   1       9.833  -0.139  -8.372  0.00  0.00     0.066 H 
ENDBRANCH  44  45
ENDBRANCH   7  44
BRANCH   6  49
ATOM     49  O   LIG d   1       9.803   3.125  -4.851  0.00  0.00    -0.491 OA
BRANCH  49  50
ATOM     50  C   LIG d   1       9.869   4.008  -3.730  0.00  0.00     0.079 C 
ATOM     51  H   LIG d   1      10.030   5.027  -4.079  0.00  0.00     0.066 H 
ATOM     52  H   LIG d   1       8.934   3.958  -3.172  0.00  0.00     0.066 H 
ATOM     53  H   LIG d   1      10.695   3.711  -3.083  0.00  0.00     0.066 H 
ENDBRANCH  49  50
ENDBRANCH   6  49
TORSDOF 12
ENDMDL
MODEL 7
REMARK VINA RESULT:      -4.7      2.974      5.795
REMARK  12 active torsions:
REMARK  status: ('A' for Active; 'I' for Inactive)
REMARK    1  A    between atoms: C_1  and  C_2 
REMARK    2  A    between atoms: C_2  and  N_3 
REMARK    3  A    between atoms: C_8  and  O_26 
REMARK    4  A    between atoms: C_9  and  O_24 
REMARK    5  A    between atoms: C_12  and  C_13 
REMARK    6  A    between atoms: C_13  and  C_14 
REMARK    7  A    between atoms: C_17  and  O_22 
REMARK    8  A    between atoms: C_18  and  O_20 
REMARK    9  A    between atoms: O_20  and  C_21 
REMARK   10  A    between atoms: O_22  and  C_23 
REMARK   11  A    between atoms: O_24  and  C_25 
REMARK   12  A    between atoms: O_26  and  C_27 
ROOT
ATOM      1  N   LIG d   1       6.178  -1.068  -3.970  0.00  0.00    -0.201 N 
ATOM      2  C   LIG d   1       7.311  -1.693  -3.679  0.00  0.00     0.172 A 
ATOM      3  C   LIG d   1       7.556  -2.967  -4.092  0.00  0.00     0.010 A 
ATOM      4  C   LIG d   1       6.573  -3.632  -4.848  0.00  0.00    -0.003 A 
ATOM      5  C   LIG d   1       6.750  -4.944  -5.309  0.00  0.00    -0.008 A 
ATOM      6  C   LIG d   1       5.761  -5.540  -6.039  0.00  0.00     0.162 A 
ATOM      7  C   LIG d   1       4.572  -4.855  -6.333  0.00  0.00     0.162 A 
ATOM      8  C   LIG d   1       4.372  -3.577  -5.898  0.00  0.00    -0.003 A 
ATOM      9  C   LIG d   1       5.371  -2.939  -5.144  0.00  0.00     0.053 A 
ATOM     10  C   LIG d   1       5.216  -1.628  -4.666  0.00  0.00     0.196 A 
ATOM     11  H   LIG d   1       8.061  -1.176  -3.098  0.00  0.00     0.138 H 
ATOM     12  H   LIG d   1       8.486  -3.457  -3.843  0.00  0.00     0.068 H 
ATOM     13  H   LIG d   1       7.661  -5.480  -5.090  0.00  0.00     0.066 H 
ATOM     14  H   LIG d   1       3.453  -3.061  -6.130  0.00  0.00     0.066 H 
ENDROOT
BRANCH  10  15
ATOM     15  C   LIG d   1       3.951  -0.863  -4.957  0.00  0.00     0.058 C 
ATOM     16  H   LIG d   1       3.101  -1.543  -4.928  0.00  0.00     0.042 H 
ATOM     17  H   LIG d   1       3.818  -0.083  -4.207  0.00  0.00     0.042 H 
BRANCH  15  18
ATOM     18  C   LIG d   1       4.046  -0.235  -6.323  0.00  0.00    -0.034 A 
ATOM     19  C   LIG d   1       5.278  -0.107  -6.939  0.00  0.00    -0.013 A 
ATOM     20  C   LIG d   1       5.368   0.466  -8.197  0.00  0.00     0.162 A 
ATOM     21  H   LIG d   1       6.170  -0.457  -6.440  0.00  0.00     0.066 H 
ATOM     22  C   LIG d   1       4.217   0.919  -8.835  0.00  0.00     0.162 A 
ATOM     23  C   LIG d   1       2.986   0.792  -8.211  0.00  0.00    -0.016 A 
ATOM     24  C   LIG d   1       2.903   0.216  -6.958  0.00  0.00    -0.054 A 
ATOM     25  H   LIG d   1       2.092   1.144  -8.704  0.00  0.00     0.066 H 
ATOM     26  H   LIG d   1       1.944   0.118  -6.472  0.00  0.00     0.062 H 
BRANCH  20  27
ATOM     27  O   LIG d   1       6.578   0.587  -8.805  0.00  0.00    -0.491 OA
BRANCH  27  28
ATOM     28  C   LIG d   1       7.394   1.692  -8.412  0.00  0.00     0.079 C 
ATOM     29  H   LIG d   1       8.376   1.601  -8.877  0.00  0.00     0.066 H 
ATOM     30  H   LIG d   1       6.925   2.622  -8.732  0.00  0.00     0.066 H 
ATOM     31  H   LIG d   1       7.504   1.694  -7.328  0.00  0.00     0.066 H 
ENDBRANCH  27  28
ENDBRANCH  20  27
BRANCH  22  32
ATOM     32  O   LIG d   1       4.301   1.485 -10.069  0.00  0.00    -0.491 OA
BRANCH  32  33
ATOM     33  C   LIG d   1       3.936   0.669 -11.184  0.00  0.00     0.079 C 
ATOM     34  H   LIG d   1       4.596   0.884 -12.024  0.00  0.00     0.066 H 
ATOM     35  H   LIG d   1       4.029  -0.383 -10.910  0.00  0.00     0.066 H 
ATOM     36  H   LIG d   1       2.906   0.881 -11.468  0.00  0.00     0.066 H 
ENDBRANCH  32  33
ENDBRANCH  22  32
ENDBRANCH  15  18
ENDBRANCH  10  15
BRANCH   1  37
ATOM     37  C   LIG d   1       5.989   0.303  -3.489  0.00  0.00     0.148 C 
ATOM     38  H   LIG d   1       5.790   0.289  -2.418  0.00  0.00     0.103 H 
ATOM     39  H   LIG d   1       5.147   0.758  -4.009  0.00  0.00     0.103 H 
BRANCH  37  40
ATOM     40  C   LIG d   1       7.257   1.117  -3.762  0.00  0.00    -0.005 C 
ATOM     41  H   LIG d   1       7.477   1.099  -4.829  0.00  0.00     0.029 H 
ATOM     42  H   LIG d   1       7.104   2.146  -3.440  0.00  0.00     0.029 H 
ATOM     43  H   LIG d   1       8.091   0.684  -3.211  0.00  0.00     0.029 H 
ENDBRANCH  37  40
ENDBRANCH   1  37
BRANCH   7  44
ATOM     44  O   LIG d   1       3.605  -5.472  -7.063  0.00  0.00    -0.491 OA
BRANCH  44  45
ATOM     45  C   LIG d   1       3.499  -5.109  -8.441  0.00  0.00     0.079 C 
ATOM     46  H   LIG d   1       2.804  -4.277  -8.545  0.00  0.00     0.066 H 
ATOM     47  H   LIG d   1       4.479  -4.812  -8.814  0.00  0.00     0.066 H 
ATOM     48  H   LIG d   1       3.135  -5.961  -9.015  0.00  0.00     0.066 H 
ENDBRANCH  44  45
ENDBRANCH   7  44
BRANCH   6  49
ATOM     49  O   LIG d   1       5.931  -6.812  -6.487  0.00  0.00    -0.491 OA
BRANCH  49  50
ATOM     50  C   LIG d   1       5.990  -7.844  -5.502  0.00  0.00     0.079 C 
ATOM     51  H   LIG d   1       5.317  -7.601  -4.680  0.00  0.00     0.066 H 
ATOM     52  H   LIG d   1       5.689  -8.791  -5.950  0.00  0.00     0.066 H 
ATOM     53  H   LIG d   1       7.009  -7.928  -5.124  0.00  0.00     0.066 H 
ENDBRANCH  49  50
ENDBRANCH   6  49
TORSDOF 12
ENDMDL
MODEL 8
REMARK VINA RESULT:      -4.7      4.914      7.062
REMARK  12 active torsions:
REMARK  status: ('A' for Active; 'I' for Inactive)
REMARK    1  A    between atoms: C_1  and  C_2 
REMARK    2  A    between atoms: C_2  and  N_3 
REMARK    3  A    between atoms: C_8  and  O_26 
REMARK    4  A    between atoms: C_9  and  O_24 
REMARK    5  A    between atoms: C_12  and  C_13 
REMARK    6  A    between atoms: C_13  and  C_14 
REMARK    7  A    between atoms: C_17  and  O_22 
REMARK    8  A    between atoms: C_18  and  O_20 
REMARK    9  A    between atoms: O_20  and  C_21 
REMARK   10  A    between atoms: O_22  and  C_23 
REMARK   11  A    between atoms: O_24  and  C_25 
REMARK   12  A    between atoms: O_26  and  C_27 
ROOT
ATOM      1  N   LIG d   1       9.596  -5.216  -5.027  0.00  0.00    -0.201 N 
ATOM      2  C   LIG d   1       9.824  -6.377  -4.428  0.00  0.00     0.172 A 
ATOM      3  C   LIG d   1       8.863  -7.336  -4.327  0.00  0.00     0.010 A 
ATOM      4  C   LIG d   1       7.594  -7.079  -4.878  0.00  0.00    -0.003 A 
ATOM      5  C   LIG d   1       6.552  -8.014  -4.815  0.00  0.00    -0.008 A 
ATOM      6  C   LIG d   1       5.340  -7.710  -5.367  0.00  0.00     0.162 A 
ATOM      7  C   LIG d   1       5.125  -6.475  -5.996  0.00  0.00     0.162 A 
ATOM      8  C   LIG d   1       6.121  -5.545  -6.072  0.00  0.00    -0.003 A 
ATOM      9  C   LIG d   1       7.378  -5.828  -5.513  0.00  0.00     0.053 A 
ATOM     10  C   LIG d   1       8.436  -4.907  -5.558  0.00  0.00     0.196 A 
ATOM     11  H   LIG d   1      10.802  -6.567  -4.008  0.00  0.00     0.138 H 
ATOM     12  H   LIG d   1       9.071  -8.274  -3.835  0.00  0.00     0.068 H 
ATOM     13  H   LIG d   1       6.706  -8.969  -4.335  0.00  0.00     0.066 H 
ATOM     14  H   LIG d   1       5.944  -4.597  -6.558  0.00  0.00     0.066 H 
ENDROOT
BRANCH  10  15
ATOM     15  C   LIG d   1       8.241  -3.567  -6.220  0.00  0.00     0.058 C 
ATOM     16  H   LIG d   1       9.212  -3.123  -6.435  0.00  0.00     0.042 H 
ATOM     17  H   LIG d   1       7.687  -3.698  -7.150  0.00  0.00     0.042 H 
BRANCH  15  18
ATOM     18  C   LIG d   1       7.467  -2.660  -5.298  0.00  0.00    -0.034 A 
ATOM     19  C   LIG d   1       6.601  -1.719  -5.824  0.00  0.00    -0.013 A 
ATOM     20  C   LIG d   1       5.884  -0.887  -4.979  0.00  0.00     0.162 A 
ATOM     21  H   LIG d   1       6.482  -1.633  -6.894  0.00  0.00     0.066 H 
ATOM     22  C   LIG d   1       6.045  -0.997  -3.601  0.00  0.00     0.162 A 
ATOM     23  C   LIG d   1       6.916  -1.940  -3.080  0.00  0.00    -0.016 A 
ATOM     24  C   LIG d   1       7.625  -2.768  -3.929  0.00  0.00    -0.054 A 
ATOM     25  H   LIG d   1       7.042  -2.026  -2.011  0.00  0.00     0.066 H 
ATOM     26  H   LIG d   1       8.305  -3.502  -3.522  0.00  0.00     0.062 H 
BRANCH  20  27
ATOM     27  O   LIG d   1       5.029   0.035  -5.495  0.00  0.00    -0.491 OA
BRANCH  27  28
ATOM     28  C   LIG d   1       3.931  -0.457  -6.265  0.00  0.00     0.079 C 
ATOM     29  H   LIG d   1       3.973  -0.034  -7.269  0.00  0.00     0.066 H 
ATOM     30  H   LIG d   1       3.988  -1.543  -6.326  0.00  0.00     0.066 H 
ATOM     31  H   LIG d   1       2.995  -0.167  -5.788  0.00  0.00     0.066 H 
ENDBRANCH  27  28
ENDBRANCH  20  27
BRANCH  22  32
ATOM     32  O   LIG d   1       5.346  -0.181  -2.767  0.00  0.00    -0.491 OA
BRANCH  32  33
ATOM     33  C   LIG d   1       4.359  -0.795  -1.934  0.00  0.00     0.079 C 
ATOM     34  H   LIG d   1       4.241  -1.840  -2.220  0.00  0.00     0.066 H 
ATOM     35  H   LIG d   1       4.677  -0.738  -0.893  0.00  0.00     0.066 H 
ATOM     36  H   LIG d   1       3.409  -0.276  -2.054  0.00  0.00     0.066 H 
ENDBRANCH  32  33
ENDBRANCH  22  32
ENDBRANCH  15  18
ENDBRANCH  10  15
BRANCH   1  37
ATOM     37  C   LIG d   1      10.682  -4.235  -5.095  0.00  0.00     0.148 C 
ATOM     38  H   LIG d   1      10.312  -3.312  -5.540  0.00  0.00     0.103 H 
ATOM     39  H   LIG d   1      11.493  -4.633  -5.704  0.00  0.00     0.103 H 
BRANCH  37  40
ATOM     40  C   LIG d   1      11.198  -3.949  -3.683  0.00  0.00    -0.005 C 
ATOM     41  H   LIG d   1      12.281  -4.077  -3.659  0.00  0.00     0.029 H 
ATOM     42  H   LIG d   1      10.948  -2.926  -3.405  0.00  0.00     0.029 H 
ATOM     43  H   LIG d   1      10.735  -4.641  -2.980  0.00  0.00     0.029 H 
ENDBRANCH  37  40
ENDBRANCH   1  37
BRANCH   7  44
ATOM     44  O   LIG d   1       3.909  -6.199  -6.537  0.00  0.00    -0.491 OA
BRANCH  44  45
ATOM     45  C   LIG d   1       3.743  -4.915  -7.141  0.00  0.00     0.079 C 
ATOM     46  H   LIG d   1       4.683  -4.603  -7.596  0.00  0.00     0.066 H 
ATOM     47  H   LIG d   1       2.970  -4.971  -7.907  0.00  0.00     0.066 H 
ATOM     48  H   LIG d   1       3.449  -4.191  -6.381  0.00  0.00     0.066 H 
ENDBRANCH  44  45
ENDBRANCH   7  44
BRANCH   6  49
ATOM     49  O   LIG d   1       4.329  -8.617  -5.307  0.00  0.00    -0.491 OA
BRANCH  49  50
ATOM     50  C   LIG d   1       4.659  -9.976  -5.597  0.00  0.00     0.079 C 
ATOM     51  H   LIG d   1       5.165 -10.030  -6.560  0.00  0.00     0.066 H 
ATOM     52  H   LIG d   1       5.317 -10.364  -4.819  0.00  0.00     0.066 H 
ATOM     53  H   LIG d   1       3.747 -10.572  -5.631  0.00  0.00     0.066 H 
ENDBRANCH  49  50
ENDBRANCH   6  49
TORSDOF 12
ENDMDL
MODEL 9
REMARK VINA RESULT:      -4.7      3.944      7.225
REMARK  12 active torsions:
REMARK  status: ('A' for Active; 'I' for Inactive)
REMARK    1  A    between atoms: C_1  and  C_2 
REMARK    2  A    between atoms: C_2  and  N_3 
REMARK    3  A    between atoms: C_8  and  O_26 
REMARK    4  A    between atoms: C_9  and  O_24 
REMARK    5  A    between atoms: C_12  and  C_13 
REMARK    6  A    between atoms: C_13  and  C_14 
REMARK    7  A    between atoms: C_17  and  O_22 
REMARK    8  A    between atoms: C_18  and  O_20 
REMARK    9  A    between atoms: O_20  and  C_21 
REMARK   10  A    between atoms: O_22  and  C_23 
REMARK   11  A    between atoms: O_24  and  C_25 
REMARK   12  A    between atoms: O_26  and  C_27 
ROOT
ATOM      1  N   LIG d   1       3.957  -0.597  -9.085  0.00  0.00    -0.201 N 
ATOM      2  C   LIG d   1       2.975   0.265  -8.859  0.00  0.00     0.172 A 
ATOM      3  C   LIG d   1       2.576   0.587  -7.598  0.00  0.00     0.010 A 
ATOM      4  C   LIG d   1       3.231  -0.016  -6.508  0.00  0.00    -0.003 A 
ATOM      5  C   LIG d   1       2.879   0.263  -5.181  0.00  0.00    -0.008 A 
ATOM      6  C   LIG d   1       3.549  -0.353  -4.163  0.00  0.00     0.162 A 
ATOM      7  C   LIG d   1       4.585  -1.261  -4.429  0.00  0.00     0.162 A 
ATOM      8  C   LIG d   1       4.950  -1.552  -5.712  0.00  0.00    -0.003 A 
ATOM      9  C   LIG d   1       4.278  -0.935  -6.780  0.00  0.00     0.053 A 
ATOM     10  C   LIG d   1       4.608  -1.201  -8.118  0.00  0.00     0.196 A 
ATOM     11  H   LIG d   1       2.477   0.725  -9.701  0.00  0.00     0.138 H 
ATOM     12  H   LIG d   1       1.774   1.293  -7.437  0.00  0.00     0.068 H 
ATOM     13  H   LIG d   1       2.084   0.961  -4.964  0.00  0.00     0.066 H 
ATOM     14  H   LIG d   1       5.748  -2.253  -5.905  0.00  0.00     0.066 H 
ENDROOT
BRANCH  10  15
ATOM     15  C   LIG d   1       5.710  -2.175  -8.443  0.00  0.00     0.058 C 
ATOM     16  H   LIG d   1       6.002  -2.059  -9.486  0.00  0.00     0.042 H 
ATOM     17  H   LIG d   1       6.570  -1.979  -7.801  0.00  0.00     0.042 H 
BRANCH  15  18
ATOM     18  C   LIG d   1       5.222  -3.582  -8.212  0.00  0.00    -0.034 A 
ATOM     19  C   LIG d   1       4.011  -3.988  -8.743  0.00  0.00    -0.013 A 
ATOM     20  C   LIG d   1       3.562  -5.282  -8.535  0.00  0.00     0.162 A 
ATOM     21  H   LIG d   1       3.417  -3.297  -9.323  0.00  0.00     0.066 H 
ATOM     22  C   LIG d   1       4.328  -6.168  -7.783  0.00  0.00     0.162 A 
ATOM     23  C   LIG d   1       5.538  -5.754  -7.250  0.00  0.00    -0.016 A 
ATOM     24  C   LIG d   1       5.982  -4.463  -7.465  0.00  0.00    -0.054 A 
ATOM     25  H   LIG d   1       6.134  -6.440  -6.667  0.00  0.00     0.066 H 
ATOM     26  H   LIG d   1       6.925  -4.141  -7.048  0.00  0.00     0.062 H 
BRANCH  20  27
ATOM     27  O   LIG d   1       2.375  -5.684  -9.061  0.00  0.00    -0.491 OA
BRANCH  27  28
ATOM     28  C   LIG d   1       2.330  -5.899 -10.473  0.00  0.00     0.079 C 
ATOM     29  H   LIG d   1       1.469  -5.377 -10.893  0.00  0.00     0.066 H 
ATOM     30  H   LIG d   1       3.243  -5.518 -10.928  0.00  0.00     0.066 H 
ATOM     31  H   LIG d   1       2.241  -6.966 -10.675  0.00  0.00     0.066 H 
ENDBRANCH  27  28
ENDBRANCH  20  27
BRANCH  22  32
ATOM     32  O   LIG d   1       3.890  -7.438  -7.574  0.00  0.00    -0.491 OA
BRANCH  32  33
ATOM     33  C   LIG d   1       4.683  -8.266  -6.720  0.00  0.00     0.079 C 
ATOM     34  H   LIG d   1       4.554  -7.950  -5.685  0.00  0.00     0.066 H 
ATOM     35  H   LIG d   1       4.365  -9.304  -6.823  0.00  0.00     0.066 H 
ATOM     36  H   LIG d   1       5.732  -8.176  -6.999  0.00  0.00     0.066 H 
ENDBRANCH  32  33
ENDBRANCH  22  32
ENDBRANCH  15  18
ENDBRANCH  10  15
BRANCH   1  37
ATOM     37  C   LIG d   1       4.328  -0.892 -10.471  0.00  0.00     0.148 C 
ATOM     38  H   LIG d   1       4.510  -1.961 -10.579  0.00  0.00     0.103 H 
ATOM     39  H   LIG d   1       5.231  -0.341 -10.731  0.00  0.00     0.103 H 
BRANCH  37  40
ATOM     40  C   LIG d   1       3.188  -0.472 -11.403  0.00  0.00    -0.005 C 
ATOM     41  H   LIG d   1       2.589   0.299 -10.918  0.00  0.00     0.029 H 
ATOM     42  H   LIG d   1       3.604  -0.079 -12.330  0.00  0.00     0.029 H 
ATOM     43  H   LIG d   1       2.562  -1.336 -11.623  0.00  0.00     0.029 H 
ENDBRANCH  37  40
ENDBRANCH   1  37
BRANCH   7  44
ATOM     44  O   LIG d   1       5.236  -1.859  -3.396  0.00  0.00    -0.491 OA
BRANCH  44  45
ATOM     45  C   LIG d   1       6.628  -1.569  -3.251  0.00  0.00     0.079 C 
ATOM     46  H   LIG d   1       6.764  -0.828  -2.464  0.00  0.00     0.066 H 
ATOM     47  H   LIG d   1       7.163  -2.481  -2.987  0.00  0.00     0.066 H 
ATOM     48  H   LIG d   1       7.018  -1.178  -4.190  0.00  0.00     0.066 H 
ENDBRANCH  44  45
ENDBRANCH   7  44
BRANCH   6  49
ATOM     49  O   LIG d   1       3.209  -0.082  -2.875  0.00  0.00    -0.491 OA
BRANCH  49  50
ATOM     50  C   LIG d   1       3.695   1.141  -2.320  0.00  0.00     0.079 C 
ATOM     51  H   LIG d   1       2.997   1.500  -1.563  0.00  0.00     0.066 H 
ATOM     52  H   LIG d   1       4.670   0.971  -1.863  0.00  0.00     0.066 H 
ATOM     53  H   LIG d   1       3.789   1.886  -3.110  0.00  0.00     0.066 H 
ENDBRANCH  49  50
ENDBRANCH   6  49
TORSDOF 12
ENDMDL
MODEL 10
REMARK VINA RESULT:      -4.5      7.817     10.699
REMARK  12 active torsions:
REMARK  status: ('A' for Active; 'I' for Inactive)
REMARK    1  A    between atoms: C_1  and  C_2 
REMARK    2  A    between atoms: C_2  and  N_3 
REMARK    3  A    between atoms: C_8  and  O_26 
REMARK    4  A    between atoms: C_9  and  O_24 
REMARK    5  A    between atoms: C_12  and  C_13 
REMARK    6  A    between atoms: C_13  and  C_14 
REMARK    7  A    between atoms: C_17  and  O_22 
REMARK    8  A    between atoms: C_18  and  O_20 
REMARK    9  A    between atoms: O_20  and  C_21 
REMARK   10  A    between atoms: O_22  and  C_23 
REMARK   11  A    between atoms: O_24  and  C_25 
REMARK   12  A    between atoms: O_26  and  C_27 
ROOT
ATOM      1  N   LIG d   1      11.447   4.696  -4.451  0.00  0.00    -0.201 N 
ATOM      2  C   LIG d   1      12.535   4.439  -3.737  0.00  0.00     0.172 A 
ATOM      3  C   LIG d   1      12.721   4.969  -2.496  0.00  0.00     0.010 A 
ATOM      4  C   LIG d   1      11.727   5.811  -1.965  0.00  0.00    -0.003 A 
ATOM      5  C   LIG d   1      11.846   6.394  -0.696  0.00  0.00    -0.008 A 
ATOM      6  C   LIG d   1      10.849   7.205  -0.232  0.00  0.00     0.162 A 
ATOM      7  C   LIG d   1       9.709   7.460  -1.009  0.00  0.00     0.162 A 
ATOM      8  C   LIG d   1       9.566   6.905  -2.248  0.00  0.00    -0.003 A 
ATOM      9  C   LIG d   1      10.574   6.068  -2.753  0.00  0.00     0.053 A 
ATOM     10  C   LIG d   1      10.483   5.476  -4.022  0.00  0.00     0.196 A 
ATOM     11  H   LIG d   1      13.294   3.791  -4.151  0.00  0.00     0.138 H 
ATOM     12  H   LIG d   1      13.614   4.746  -1.931  0.00  0.00     0.068 H 
ATOM     13  H   LIG d   1      12.718   6.204  -0.089  0.00  0.00     0.066 H 
ATOM     14  H   LIG d   1       8.684   7.109  -2.837  0.00  0.00     0.066 H 
ENDROOT
BRANCH  10  15
ATOM     15  C   LIG d   1       9.276   5.731  -4.888  0.00  0.00     0.058 C 
ATOM     16  H   LIG d   1       9.052   4.840  -5.472  0.00  0.00     0.042 H 
ATOM     17  H   LIG d   1       8.422   5.977  -4.256  0.00  0.00     0.042 H 
BRANCH  15  18
ATOM     18  C   LIG d   1       9.560   6.883  -5.817  0.00  0.00    -0.034 A 
ATOM     19  C   LIG d   1       9.650   8.168  -5.315  0.00  0.00    -0.013 A 
ATOM     20  C   LIG d   1       9.916   9.229  -6.167  0.00  0.00     0.162 A 
ATOM     21  H   LIG d   1       9.516   8.346  -4.258  0.00  0.00     0.066 H 
ATOM     22  C   LIG d   1      10.083   8.997  -7.528  0.00  0.00     0.162 A 
ATOM     23  C   LIG d   1       9.988   7.707  -8.026  0.00  0.00    -0.016 A 
ATOM     24  C   LIG d   1       9.727   6.654  -7.171  0.00  0.00    -0.054 A 
ATOM     25  H   LIG d   1      10.118   7.525  -9.083  0.00  0.00     0.066 H 
ATOM     26  H   LIG d   1       9.652   5.649  -7.559  0.00  0.00     0.062 H 
BRANCH  20  27
ATOM     27  O   LIG d   1      10.010  10.492  -5.673  0.00  0.00    -0.491 OA
BRANCH  27  28
ATOM     28  C   LIG d   1       9.155  10.826  -4.577  0.00  0.00     0.079 C 
ATOM     29  H   LIG d   1       9.509  11.744  -4.108  0.00  0.00     0.066 H 
ATOM     30  H   LIG d   1       8.139  10.972  -4.941  0.00  0.00     0.066 H 
ATOM     31  H   LIG d   1       9.168  10.016  -3.848  0.00  0.00     0.066 H 
ENDBRANCH  27  28
ENDBRANCH  20  27
BRANCH  22  32
ATOM     32  O   LIG d   1      10.341  10.034  -8.369  0.00  0.00    -0.491 OA
BRANCH  32  33
ATOM     33  C   LIG d   1      11.603  10.028  -9.041  0.00  0.00     0.079 C 
ATOM     34  H   LIG d   1      11.453  10.237 -10.100  0.00  0.00     0.066 H 
ATOM     35  H   LIG d   1      12.249  10.792  -8.608  0.00  0.00     0.066 H 
ATOM     36  H   LIG d   1      12.070   9.050  -8.927  0.00  0.00     0.066 H 
ENDBRANCH  32  33
ENDBRANCH  22  32
ENDBRANCH  15  18
ENDBRANCH  10  15
BRANCH   1  37
ATOM     37  C   LIG d   1      11.320   4.088  -5.779  0.00  0.00     0.148 C 
ATOM     38  H   LIG d   1      10.456   4.511  -6.291  0.00  0.00     0.103 H 
ATOM     39  H   LIG d   1      11.190   3.012  -5.674  0.00  0.00     0.103 H 
BRANCH  37  40
ATOM     40  C   LIG d   1      12.585   4.373  -6.592  0.00  0.00    -0.005 C 
ATOM     41  H   LIG d   1      12.334   5.006  -7.443  0.00  0.00     0.029 H 
ATOM     42  H   LIG d   1      13.315   4.882  -5.963  0.00  0.00     0.029 H 
ATOM     43  H   LIG d   1      13.005   3.433  -6.949  0.00  0.00     0.029 H 
ENDBRANCH  37  40
ENDBRANCH   1  37
BRANCH   7  44
ATOM     44  O   LIG d   1       8.731   8.269  -0.522  0.00  0.00    -0.491 OA
BRANCH  44  45
ATOM     45  C   LIG d   1       8.774   9.644  -0.908  0.00  0.00     0.079 C 
ATOM     46  H   LIG d   1       8.760  10.272  -0.017  0.00  0.00     0.066 H 
ATOM     47  H   LIG d   1       9.687   9.835  -1.472  0.00  0.00     0.066 H 
ATOM     48  H   LIG d   1       7.908   9.875  -1.529  0.00  0.00     0.066 H 
ENDBRANCH  44  45
ENDBRANCH   7  44
BRANCH   6  49
ATOM     49  O   LIG d   1      10.962   7.771   0.998  0.00  0.00    -0.491 OA
BRANCH  49  50
ATOM     50  C   LIG d   1      11.865   8.870   1.126  0.00  0.00     0.079 C 
ATOM     51  H   LIG d   1      11.629   9.624   0.376  0.00  0.00     0.066 H 
ATOM     52  H   LIG d   1      11.771   9.305   2.121  0.00  0.00     0.066 H 
ATOM     53  H   LIG d   1      12.887   8.519   0.979  0.00  0.00     0.066 H 
ENDBRANCH  49  50
ENDBRANCH   6  49
TORSDOF 12
ENDMDL
