MODEL 1
REMARK VINA RESULT:      -6.7      0.000      0.000
REMARK  5 active torsions:
REMARK  status: ('A' for Active; 'I' for Inactive)
REMARK    1  A    between atoms: C_1  and  C_2 
REMARK    2  A    between atoms: C_5  and  C_8 
REMARK    3  A    between atoms: N_26  and  C_29 
REMARK    4  A    between atoms: C_32  and  O_35 
REMARK    5  A    between atoms: O_35  and  C_36 
ROOT
ATOM      1  C   LIG d   1       4.828  -3.996  -5.523  0.00  0.00     0.094 C 
ATOM      2  H   LIG d   1       4.236  -4.806  -5.098  0.00  0.00     0.062 H 
ATOM      3  C   LIG d   1       4.687  -2.747  -4.674  0.00  0.00     0.046 A 
ATOM      4  C   LIG d   1       5.736  -2.054  -4.185  0.00  0.00    -0.015 A 
ATOM      5  C   LIG d   1       5.188  -0.935  -3.441  0.00  0.00     0.003 A 
ATOM      6  C   LIG d   1       5.785   0.111  -2.730  0.00  0.00    -0.052 A 
ATOM      7  C   LIG d   1       4.941   1.014  -2.132  0.00  0.00    -0.061 A 
ATOM      8  C   LIG d   1       3.563   0.906  -2.222  0.00  0.00    -0.060 A 
ATOM      9  C   LIG d   1       2.946  -0.118  -2.920  0.00  0.00    -0.038 A 
ATOM     10  C   LIG d   1       3.778  -1.049  -3.538  0.00  0.00     0.047 A 
ATOM     11  N   LIG d   1       3.512  -2.158  -4.291  0.00  0.00    -0.356 N 
ATOM     12  H   LIG d   1       2.626  -2.478  -4.520  0.00  0.00     0.166 HD
ATOM     13  C   LIG d   1       7.191  -2.401  -4.376  0.00  0.00     0.002 C 
ATOM     14  C   LIG d   1       7.336  -3.342  -5.572  0.00  0.00     0.110 A 
ATOM     15  H   LIG d   1       7.326  -2.803  -6.519  0.00  0.00     0.060 H 
ATOM     16  N   LIG d   1       6.252  -4.348  -5.505  0.00  0.00    -0.261 N 
ATOM     17  C   LIG d   1       6.829  -5.547  -5.413  0.00  0.00     0.317 A 
ATOM     18  O   LIG d   1       6.216  -6.596  -5.395  0.00  0.00    -0.252 OA
ATOM     19  N   LIG d   1       8.166  -5.461  -5.342  0.00  0.00    -0.193 N 
ATOM     20  C   LIG d   1       8.588  -4.182  -5.418  0.00  0.00     0.248 A 
ATOM     21  O   LIG d   1       9.733  -3.786  -5.368  0.00  0.00    -0.273 OA
ATOM     22  H   LIG d   1       6.858   0.204  -2.655  0.00  0.00     0.062 H 
ATOM     23  H   LIG d   1       5.365   1.835  -1.573  0.00  0.00     0.062 H 
ATOM     24  H   LIG d   1       2.949   1.645  -1.729  0.00  0.00     0.062 H 
ATOM     25  H   LIG d   1       1.871  -0.191  -2.984  0.00  0.00     0.064 H 
ATOM     26  H   LIG d   1       7.762  -1.491  -4.557  0.00  0.00     0.034 H 
ATOM     27  H   LIG d   1       7.569  -2.895  -3.480  0.00  0.00     0.034 H 
ENDROOT
BRANCH   1  28
ATOM     28  C   LIG d   1       4.382  -3.717  -6.935  0.00  0.00    -0.021 A 
ATOM     29  C   LIG d   1       3.772  -4.712  -7.676  0.00  0.00    -0.056 A 
ATOM     30  C   LIG d   1       3.361  -4.456  -8.972  0.00  0.00    -0.059 A 
ATOM     31  H   LIG d   1       3.616  -5.689  -7.243  0.00  0.00     0.062 H 
ATOM     32  C   LIG d   1       3.561  -3.206  -9.526  0.00  0.00    -0.050 A 
ATOM     33  H   LIG d   1       2.886  -5.235  -9.550  0.00  0.00     0.062 H 
ATOM     34  C   LIG d   1       4.170  -2.211  -8.785  0.00  0.00    -0.059 A 
ATOM     35  C   LIG d   1       4.576  -2.465  -7.487  0.00  0.00    -0.056 A 
ATOM     36  H   LIG d   1       4.326  -1.234  -9.218  0.00  0.00     0.062 H 
ATOM     37  H   LIG d   1       5.048  -1.686  -6.907  0.00  0.00     0.062 H 
BRANCH  32  38
ATOM     38  C   LIG d   1       3.114  -2.928 -10.938  0.00  0.00    -0.040 C 
ATOM     39  H   LIG d   1       3.376  -3.772 -11.575  0.00  0.00     0.028 H 
ATOM     40  H   LIG d   1       2.034  -2.781 -10.955  0.00  0.00     0.028 H 
ATOM     41  H   LIG d   1       3.608  -2.028 -11.304  0.00  0.00     0.028 H 
ENDBRANCH  32  38
ENDBRANCH   1  28
BRANCH  19  42
ATOM     42  C   LIG d   1       9.021  -6.566  -5.206  0.00  0.00     0.046 A 
ATOM     43  C   LIG d   1       9.348  -7.040  -3.943  0.00  0.00    -0.036 A 
ATOM     44  C   LIG d   1      10.187  -8.129  -3.811  0.00  0.00    -0.018 A 
ATOM     45  H   LIG d   1       8.945  -6.559  -3.065  0.00  0.00     0.064 H 
ATOM     46  C   LIG d   1      10.704  -8.748  -4.939  0.00  0.00     0.120 A 
ATOM     47  H   LIG d   1      10.441  -8.497  -2.828  0.00  0.00     0.066 H 
ATOM     48  C   LIG d   1      10.377  -8.276  -6.201  0.00  0.00    -0.018 A 
ATOM     49  C   LIG d   1       9.534  -7.190  -6.336  0.00  0.00    -0.036 A 
ATOM     50  H   LIG d   1      10.779  -8.757  -7.080  0.00  0.00     0.066 H 
ATOM     51  H   LIG d   1       9.277  -6.824  -7.318  0.00  0.00     0.064 H 
BRANCH  46  52
ATOM     52  O   LIG d   1      11.531  -9.819  -4.808  0.00  0.00    -0.495 OA
BRANCH  52  53
ATOM     53  C   LIG d   1      11.639 -10.400  -3.506  0.00  0.00     0.079 C 
ATOM     54  H   LIG d   1      11.220  -9.716  -2.767  0.00  0.00     0.066 H 
ATOM     55  H   LIG d   1      11.091 -11.342  -3.482  0.00  0.00     0.066 H 
ATOM     56  H   LIG d   1      12.689 -10.583  -3.276  0.00  0.00     0.066 H 
ENDBRANCH  52  53
ENDBRANCH  46  52
ENDBRANCH  19  42
TORSDOF 5
ENDMDL
MODEL 2
REMARK VINA RESULT:      -6.7      3.112      7.392
REMARK  5 active torsions:
REMARK  status: ('A' for Active; 'I' for Inactive)
REMARK    1  A    between atoms: C_1  and  C_2 
REMARK    2  A    between atoms: C_5  and  C_8 
REMARK    3  A    between atoms: N_26  and  C_29 
REMARK    4  A    between atoms: C_32  and  O_35 
REMARK    5  A    between atoms: O_35  and  C_36 
ROOT
ATOM      1  C   LIG d   1       6.165  -3.464  -4.627  0.00  0.00     0.094 C 
ATOM      2  H   LIG d   1       5.735  -4.375  -4.210  0.00  0.00     0.062 H 
ATOM      3  C   LIG d   1       7.678  -3.555  -4.624  0.00  0.00     0.046 A 
ATOM      4  C   LIG d   1       8.441  -3.346  -5.718  0.00  0.00    -0.015 A 
ATOM      5  C   LIG d   1       9.822  -3.515  -5.302  0.00  0.00     0.003 A 
ATOM      6  C   LIG d   1      11.035  -3.417  -5.991  0.00  0.00    -0.052 A 
ATOM      7  C   LIG d   1      12.179  -3.650  -5.268  0.00  0.00    -0.061 A 
ATOM      8  C   LIG d   1      12.145  -3.966  -3.920  0.00  0.00    -0.060 A 
ATOM      9  C   LIG d   1      10.959  -4.068  -3.213  0.00  0.00    -0.038 A 
ATOM     10  C   LIG d   1       9.782  -3.836  -3.922  0.00  0.00     0.047 A 
ATOM     11  N   LIG d   1       8.469  -3.852  -3.547  0.00  0.00    -0.356 N 
ATOM     12  H   LIG d   1       8.145  -4.045  -2.653  0.00  0.00     0.166 HD
ATOM     13  C   LIG d   1       7.935  -3.013  -7.099  0.00  0.00     0.002 C 
ATOM     14  C   LIG d   1       6.506  -2.478  -7.000  0.00  0.00     0.110 A 
ATOM     15  H   LIG d   1       6.483  -1.425  -6.723  0.00  0.00     0.060 H 
ATOM     16  N   LIG d   1       5.764  -3.314  -6.031  0.00  0.00    -0.261 N 
ATOM     17  C   LIG d   1       4.741  -3.866  -6.685  0.00  0.00     0.317 A 
ATOM     18  O   LIG d   1       3.900  -4.569  -6.161  0.00  0.00    -0.252 OA
ATOM     19  N   LIG d   1       4.748  -3.556  -7.990  0.00  0.00    -0.193 N 
ATOM     20  C   LIG d   1       5.771  -2.732  -8.301  0.00  0.00     0.248 A 
ATOM     21  O   LIG d   1       6.047  -2.292  -9.396  0.00  0.00    -0.273 OA
ATOM     22  H   LIG d   1      11.071  -3.170  -7.041  0.00  0.00     0.062 H 
ATOM     23  H   LIG d   1      13.134  -3.585  -5.766  0.00  0.00     0.062 H 
ATOM     24  H   LIG d   1      13.077  -4.140  -3.402  0.00  0.00     0.062 H 
ATOM     25  H   LIG d   1      10.947  -4.315  -2.162  0.00  0.00     0.064 H 
ATOM     26  H   LIG d   1       8.578  -2.258  -7.550  0.00  0.00     0.034 H 
ATOM     27  H   LIG d   1       7.943  -3.913  -7.715  0.00  0.00     0.034 H 
ENDROOT
BRANCH   1  28
ATOM     28  C   LIG d   1       5.714  -2.268  -3.830  0.00  0.00    -0.021 A 
ATOM     29  C   LIG d   1       4.526  -2.316  -3.124  0.00  0.00    -0.056 A 
ATOM     30  C   LIG d   1       4.113  -1.218  -2.390  0.00  0.00    -0.059 A 
ATOM     31  H   LIG d   1       3.922  -3.211  -3.144  0.00  0.00     0.062 H 
ATOM     32  C   LIG d   1       4.887  -0.074  -2.363  0.00  0.00    -0.050 A 
ATOM     33  H   LIG d   1       3.185  -1.257  -1.839  0.00  0.00     0.062 H 
ATOM     34  C   LIG d   1       6.075  -0.026  -3.069  0.00  0.00    -0.059 A 
ATOM     35  C   LIG d   1       6.491  -1.125  -3.798  0.00  0.00    -0.056 A 
ATOM     36  H   LIG d   1       6.680   0.869  -3.049  0.00  0.00     0.062 H 
ATOM     37  H   LIG d   1       7.421  -1.089  -4.346  0.00  0.00     0.062 H 
BRANCH  32  38
ATOM     38  C   LIG d   1       4.436   1.122  -1.565  0.00  0.00    -0.040 C 
ATOM     39  H   LIG d   1       4.722   2.036  -2.086  0.00  0.00     0.028 H 
ATOM     40  H   LIG d   1       3.353   1.093  -1.448  0.00  0.00     0.028 H 
ATOM     41  H   LIG d   1       4.908   1.102  -0.582  0.00  0.00     0.028 H 
ENDBRANCH  32  38
ENDBRANCH   1  28
BRANCH  19  42
ATOM     42  C   LIG d   1       3.807  -4.028  -8.918  0.00  0.00     0.046 A 
ATOM     43  C   LIG d   1       3.878  -5.336  -9.375  0.00  0.00    -0.036 A 
ATOM     44  C   LIG d   1       2.951  -5.800 -10.286  0.00  0.00    -0.018 A 
ATOM     45  H   LIG d   1       4.658  -5.991  -9.017  0.00  0.00     0.064 H 
ATOM     46  C   LIG d   1       1.948  -4.960 -10.746  0.00  0.00     0.120 A 
ATOM     47  H   LIG d   1       3.006  -6.819 -10.642  0.00  0.00     0.066 H 
ATOM     48  C   LIG d   1       1.875  -3.652 -10.289  0.00  0.00    -0.018 A 
ATOM     49  C   LIG d   1       2.799  -3.188  -9.374  0.00  0.00    -0.036 A 
ATOM     50  H   LIG d   1       1.094  -2.997 -10.646  0.00  0.00     0.066 H 
ATOM     51  H   LIG d   1       2.741  -2.171  -9.015  0.00  0.00     0.064 H 
BRANCH  46  52
ATOM     52  O   LIG d   1       1.035  -5.417 -11.644  0.00  0.00    -0.495 OA
BRANCH  52  53
ATOM     53  C   LIG d   1      -0.191  -4.691 -11.750  0.00  0.00     0.079 C 
ATOM     54  H   LIG d   1       0.010  -3.690 -12.133  0.00  0.00     0.066 H 
ATOM     55  H   LIG d   1      -0.864  -5.212 -12.431  0.00  0.00     0.066 H 
ATOM     56  H   LIG d   1      -0.656  -4.617 -10.766  0.00  0.00     0.066 H 
ENDBRANCH  52  53
ENDBRANCH  46  52
ENDBRANCH  19  42
TORSDOF 5
ENDMDL
MODEL 3
REMARK VINA RESULT:      -6.6      3.655      6.011
REMARK  5 active torsions:
REMARK  status: ('A' for Active; 'I' for Inactive)
REMARK    1  A    between atoms: C_1  and  C_2 
REMARK    2  A    between atoms: C_5  and  C_8 
REMARK    3  A    between atoms: N_26  and  C_29 
REMARK    4  A    between atoms: C_32  and  O_35 
REMARK    5  A    between atoms: O_35  and  C_36 
ROOT
ATOM      1  C   LIG d   1       8.044   0.304  -6.673  0.00  0.00     0.094 C 
ATOM      2  H   LIG d   1       8.804  -0.010  -7.389  0.00  0.00     0.062 H 
ATOM      3  C   LIG d   1       6.727   0.543  -7.386  0.00  0.00     0.046 A 
ATOM      4  C   LIG d   1       5.562  -0.026  -7.013  0.00  0.00    -0.015 A 
ATOM      5  C   LIG d   1       4.548   0.458  -7.931  0.00  0.00     0.003 A 
ATOM      6  C   LIG d   1       3.173   0.220  -8.032  0.00  0.00    -0.052 A 
ATOM      7  C   LIG d   1       2.507   0.857  -9.050  0.00  0.00    -0.061 A 
ATOM      8  C   LIG d   1       3.154   1.698  -9.940  0.00  0.00    -0.060 A 
ATOM      9  C   LIG d   1       4.513   1.952  -9.863  0.00  0.00    -0.038 A 
ATOM     10  C   LIG d   1       5.214   1.319  -8.838  0.00  0.00     0.047 A 
ATOM     11  N   LIG d   1       6.532   1.345  -8.478  0.00  0.00    -0.356 N 
ATOM     12  H   LIG d   1       7.224   1.856  -8.928  0.00  0.00     0.166 HD
ATOM     13  C   LIG d   1       5.374  -0.986  -5.865  0.00  0.00     0.002 C 
ATOM     14  C   LIG d   1       6.555  -0.861  -4.901  0.00  0.00     0.110 A 
ATOM     15  H   LIG d   1       6.443  -0.012  -4.227  0.00  0.00     0.060 H 
ATOM     16  N   LIG d   1       7.797  -0.764  -5.699  0.00  0.00    -0.261 N 
ATOM     17  C   LIG d   1       8.566  -1.800  -5.362  0.00  0.00     0.317 A 
ATOM     18  O   LIG d   1       9.685  -1.985  -5.798  0.00  0.00    -0.252 OA
ATOM     19  N   LIG d   1       7.960  -2.616  -4.486  0.00  0.00    -0.193 N 
ATOM     20  C   LIG d   1       6.739  -2.159  -4.141  0.00  0.00     0.248 A 
ATOM     21  O   LIG d   1       5.950  -2.682  -3.384  0.00  0.00    -0.273 OA
ATOM     22  H   LIG d   1       2.660  -0.433  -7.342  0.00  0.00     0.062 H 
ATOM     23  H   LIG d   1       1.445   0.696  -9.160  0.00  0.00     0.062 H 
ATOM     24  H   LIG d   1       2.579   2.170 -10.723  0.00  0.00     0.062 H 
ATOM     25  H   LIG d   1       5.006   2.610 -10.563  0.00  0.00     0.064 H 
ATOM     26  H   LIG d   1       4.449  -0.751  -5.341  0.00  0.00     0.034 H 
ATOM     27  H   LIG d   1       5.327  -2.006  -6.248  0.00  0.00     0.034 H 
ENDROOT
BRANCH   1  28
ATOM     28  C   LIG d   1       8.487   1.559  -5.967  0.00  0.00    -0.021 A 
ATOM     29  C   LIG d   1       9.226   2.510  -6.646  0.00  0.00    -0.056 A 
ATOM     30  C   LIG d   1       9.632   3.662  -5.998  0.00  0.00    -0.059 A 
ATOM     31  H   LIG d   1       9.485   2.354  -7.683  0.00  0.00     0.062 H 
ATOM     32  C   LIG d   1       9.300   3.863  -4.671  0.00  0.00    -0.050 A 
ATOM     33  H   LIG d   1      10.210   4.405  -6.529  0.00  0.00     0.062 H 
ATOM     34  C   LIG d   1       8.562   2.912  -3.993  0.00  0.00    -0.059 A 
ATOM     35  C   LIG d   1       8.151   1.762  -4.642  0.00  0.00    -0.056 A 
ATOM     36  H   LIG d   1       8.302   3.068  -2.956  0.00  0.00     0.062 H 
ATOM     37  H   LIG d   1       7.570   1.021  -4.112  0.00  0.00     0.062 H 
BRANCH  32  38
ATOM     38  C   LIG d   1       9.744   5.118  -3.965  0.00  0.00    -0.040 C 
ATOM     39  H   LIG d   1      10.260   5.769  -4.671  0.00  0.00     0.028 H 
ATOM     40  H   LIG d   1       8.873   5.636  -3.563  0.00  0.00     0.028 H 
ATOM     41  H   LIG d   1      10.419   4.857  -3.150  0.00  0.00     0.028 H 
ENDBRANCH  32  38
ENDBRANCH   1  28
BRANCH  19  42
ATOM     42  C   LIG d   1       8.528  -3.800  -3.989  0.00  0.00     0.046 A 
ATOM     43  C   LIG d   1       9.260  -3.776  -2.809  0.00  0.00    -0.036 A 
ATOM     44  C   LIG d   1       9.816  -4.941  -2.320  0.00  0.00    -0.018 A 
ATOM     45  H   LIG d   1       9.392  -2.848  -2.275  0.00  0.00     0.064 H 
ATOM     46  C   LIG d   1       9.646  -6.135  -3.006  0.00  0.00     0.120 A 
ATOM     47  H   LIG d   1      10.386  -4.923  -1.402  0.00  0.00     0.066 H 
ATOM     48  C   LIG d   1       8.914  -6.159  -4.184  0.00  0.00    -0.018 A 
ATOM     49  C   LIG d   1       8.353  -4.996  -4.673  0.00  0.00    -0.036 A 
ATOM     50  H   LIG d   1       8.781  -7.088  -4.719  0.00  0.00     0.066 H 
ATOM     51  H   LIG d   1       7.780  -5.015  -5.588  0.00  0.00     0.064 H 
BRANCH  46  52
ATOM     52  O   LIG d   1      10.195  -7.281  -2.523  0.00  0.00    -0.495 OA
BRANCH  52  53
ATOM     53  C   LIG d   1      10.686  -7.250  -1.182  0.00  0.00     0.079 C 
ATOM     54  H   LIG d   1      10.263  -8.084  -0.620  0.00  0.00     0.066 H 
ATOM     55  H   LIG d   1      11.773  -7.333  -1.191  0.00  0.00     0.066 H 
ATOM     56  H   LIG d   1      10.396  -6.312  -0.709  0.00  0.00     0.066 H 
ENDBRANCH  52  53
ENDBRANCH  46  52
ENDBRANCH  19  42
TORSDOF 5
ENDMDL
MODEL 4
REMARK VINA RESULT:      -6.5      4.699      8.526
REMARK  5 active torsions:
REMARK  status: ('A' for Active; 'I' for Inactive)
REMARK    1  A    between atoms: C_1  and  C_2 
REMARK    2  A    between atoms: C_5  and  C_8 
REMARK    3  A    between atoms: N_26  and  C_29 
REMARK    4  A    between atoms: C_32  and  O_35 
REMARK    5  A    between atoms: O_35  and  C_36 
ROOT
ATOM      1  C   LIG d   1       6.204  -0.212  -5.466  0.00  0.00     0.094 C 
ATOM      2  H   LIG d   1       5.514   0.029  -4.657  0.00  0.00     0.062 H 
ATOM      3  C   LIG d   1       5.501  -0.085  -6.804  0.00  0.00     0.046 A 
ATOM      4  C   LIG d   1       5.972   0.657  -7.828  0.00  0.00    -0.015 A 
ATOM      5  C   LIG d   1       5.026   0.511  -8.919  0.00  0.00     0.003 A 
ATOM      6  C   LIG d   1       4.991   1.034 -10.215  0.00  0.00    -0.052 A 
ATOM      7  C   LIG d   1       3.918   0.681 -10.997  0.00  0.00    -0.061 A 
ATOM      8  C   LIG d   1       2.914  -0.154 -10.535  0.00  0.00    -0.060 A 
ATOM      9  C   LIG d   1       2.925  -0.687  -9.258  0.00  0.00    -0.038 A 
ATOM     10  C   LIG d   1       4.002  -0.346  -8.442  0.00  0.00     0.047 A 
ATOM     11  N   LIG d   1       4.323  -0.685  -7.159  0.00  0.00    -0.356 N 
ATOM     12  H   LIG d   1       3.796  -1.265  -6.586  0.00  0.00     0.166 HD
ATOM     13  C   LIG d   1       7.234   1.482  -7.815  0.00  0.00     0.002 C 
ATOM     14  C   LIG d   1       8.145   0.997  -6.686  0.00  0.00     0.110 A 
ATOM     15  H   LIG d   1       8.711   0.110  -6.971  0.00  0.00     0.060 H 
ATOM     16  N   LIG d   1       7.310   0.751  -5.490  0.00  0.00    -0.261 N 
ATOM     17  C   LIG d   1       7.754   1.558  -4.524  0.00  0.00     0.317 A 
ATOM     18  O   LIG d   1       7.316   1.565  -3.391  0.00  0.00    -0.252 OA
ATOM     19  N   LIG d   1       8.739   2.363  -4.950  0.00  0.00    -0.193 N 
ATOM     20  C   LIG d   1       9.055   2.123  -6.240  0.00  0.00     0.248 A 
ATOM     21  O   LIG d   1       9.891   2.696  -6.906  0.00  0.00    -0.273 OA
ATOM     22  H   LIG d   1       5.769   1.685 -10.584  0.00  0.00     0.062 H 
ATOM     23  H   LIG d   1       3.856   1.067 -12.004  0.00  0.00     0.062 H 
ATOM     24  H   LIG d   1       2.094  -0.396 -11.195  0.00  0.00     0.062 H 
ATOM     25  H   LIG d   1       2.137  -1.337  -8.910  0.00  0.00     0.064 H 
ATOM     26  H   LIG d   1       7.748   1.375  -8.770  0.00  0.00     0.034 H 
ATOM     27  H   LIG d   1       6.983   2.530  -7.651  0.00  0.00     0.034 H 
ENDROOT
BRANCH   1  28
ATOM     28  C   LIG d   1       6.738  -1.610  -5.290  0.00  0.00    -0.021 A 
ATOM     29  C   LIG d   1       7.208  -2.019  -4.056  0.00  0.00    -0.056 A 
ATOM     30  C   LIG d   1       7.697  -3.303  -3.895  0.00  0.00    -0.059 A 
ATOM     31  H   LIG d   1       7.193  -1.337  -3.219  0.00  0.00     0.062 H 
ATOM     32  C   LIG d   1       7.717  -4.176  -4.966  0.00  0.00    -0.050 A 
ATOM     33  H   LIG d   1       8.065  -3.622  -2.930  0.00  0.00     0.062 H 
ATOM     34  C   LIG d   1       7.246  -3.766  -6.199  0.00  0.00    -0.059 A 
ATOM     35  C   LIG d   1       6.752  -2.485  -6.360  0.00  0.00    -0.056 A 
ATOM     36  H   LIG d   1       7.261  -4.448  -7.036  0.00  0.00     0.062 H 
ATOM     37  H   LIG d   1       6.380  -2.167  -7.323  0.00  0.00     0.062 H 
BRANCH  32  38
ATOM     38  C   LIG d   1       8.250  -5.574  -4.789  0.00  0.00    -0.040 C 
ATOM     39  H   LIG d   1       8.391  -5.777  -3.727  0.00  0.00     0.028 H 
ATOM     40  H   LIG d   1       7.541  -6.289  -5.205  0.00  0.00     0.028 H 
ATOM     41  H   LIG d   1       9.205  -5.666  -5.307  0.00  0.00     0.028 H 
ENDBRANCH  32  38
ENDBRANCH   1  28
BRANCH  19  42
ATOM     42  C   LIG d   1       9.366   3.333  -4.152  0.00  0.00     0.046 A 
ATOM     43  C   LIG d   1       9.168   4.681  -4.415  0.00  0.00    -0.036 A 
ATOM     44  C   LIG d   1       9.783   5.634  -3.628  0.00  0.00    -0.018 A 
ATOM     45  H   LIG d   1       8.533   4.984  -5.233  0.00  0.00     0.064 H 
ATOM     46  C   LIG d   1      10.599   5.246  -2.576  0.00  0.00     0.120 A 
ATOM     47  H   LIG d   1       9.629   6.684  -3.833  0.00  0.00     0.066 H 
ATOM     48  C   LIG d   1      10.796   3.898  -2.312  0.00  0.00    -0.018 A 
ATOM     49  C   LIG d   1      10.178   2.943  -3.095  0.00  0.00    -0.036 A 
ATOM     50  H   LIG d   1      11.431   3.595  -1.493  0.00  0.00     0.066 H 
ATOM     51  H   LIG d   1      10.328   1.895  -2.888  0.00  0.00     0.064 H 
BRANCH  46  52
ATOM     52  O   LIG d   1      11.205   6.185  -1.802  0.00  0.00    -0.495 OA
BRANCH  52  53
ATOM     53  C   LIG d   1      10.668   6.392  -0.494  0.00  0.00     0.079 C 
ATOM     54  H   LIG d   1       9.928   5.621  -0.278  0.00  0.00     0.066 H 
ATOM     55  H   LIG d   1      11.472   6.340   0.241  0.00  0.00     0.066 H 
ATOM     56  H   LIG d   1      10.195   7.373  -0.446  0.00  0.00     0.066 H 
ENDBRANCH  52  53
ENDBRANCH  46  52
ENDBRANCH  19  42
TORSDOF 5
ENDMDL
MODEL 5
REMARK VINA RESULT:      -6.5      3.258      8.578
REMARK  5 active torsions:
REMARK  status: ('A' for Active; 'I' for Inactive)
REMARK    1  A    between atoms: C_1  and  C_2 
REMARK    2  A    between atoms: C_5  and  C_8 
REMARK    3  A    between atoms: N_26  and  C_29 
REMARK    4  A    between atoms: C_32  and  O_35 
REMARK    5  A    between atoms: O_35  and  C_36 
ROOT
ATOM      1  C   LIG d   1       5.602  -7.544  -6.122  0.00  0.00     0.094 C 
ATOM      2  H   LIG d   1       4.613  -7.600  -6.578  0.00  0.00     0.062 H 
ATOM      3  C   LIG d   1       6.669  -7.846  -7.156  0.00  0.00     0.046 A 
ATOM      4  C   LIG d   1       7.722  -7.037  -7.400  0.00  0.00    -0.015 A 
ATOM      5  C   LIG d   1       8.507  -7.677  -8.439  0.00  0.00     0.003 A 
ATOM      6  C   LIG d   1       9.694  -7.315  -9.085  0.00  0.00    -0.052 A 
ATOM      7  C   LIG d   1      10.164  -8.176 -10.046  0.00  0.00    -0.061 A 
ATOM      8  C   LIG d   1       9.505  -9.351 -10.367  0.00  0.00    -0.060 A 
ATOM      9  C   LIG d   1       8.330  -9.735  -9.743  0.00  0.00    -0.038 A 
ATOM     10  C   LIG d   1       7.830  -8.879  -8.763  0.00  0.00     0.047 A 
ATOM     11  N   LIG d   1       6.722  -8.947  -7.967  0.00  0.00    -0.356 N 
ATOM     12  H   LIG d   1       6.071  -9.667  -7.975  0.00  0.00     0.166 HD
ATOM     13  C   LIG d   1       8.002  -5.721  -6.720  0.00  0.00     0.002 C 
ATOM     14  C   LIG d   1       7.222  -5.651  -5.407  0.00  0.00     0.110 A 
ATOM     15  H   LIG d   1       7.725  -6.189  -4.604  0.00  0.00     0.060 H 
ATOM     16  N   LIG d   1       5.861  -6.180  -5.648  0.00  0.00    -0.261 N 
ATOM     17  C   LIG d   1       5.000  -5.199  -5.372  0.00  0.00     0.317 A 
ATOM     18  O   LIG d   1       3.792  -5.324  -5.415  0.00  0.00    -0.252 OA
ATOM     19  N   LIG d   1       5.623  -4.058  -5.041  0.00  0.00    -0.193 N 
ATOM     20  C   LIG d   1       6.964  -4.205  -5.037  0.00  0.00     0.248 A 
ATOM     21  O   LIG d   1       7.791  -3.353  -4.794  0.00  0.00    -0.273 OA
ATOM     22  H   LIG d   1      10.215  -6.402  -8.841  0.00  0.00     0.062 H 
ATOM     23  H   LIG d   1      11.077  -7.930 -10.567  0.00  0.00     0.062 H 
ATOM     24  H   LIG d   1       9.921  -9.990 -11.132  0.00  0.00     0.062 H 
ATOM     25  H   LIG d   1       7.826 -10.653 -10.002  0.00  0.00     0.064 H 
ATOM     26  H   LIG d   1       9.069  -5.636  -6.515  0.00  0.00     0.034 H 
ATOM     27  H   LIG d   1       7.690  -4.902  -7.369  0.00  0.00     0.034 H 
ENDROOT
BRANCH   1  28
ATOM     28  C   LIG d   1       5.698  -8.518  -4.976  0.00  0.00    -0.021 A 
ATOM     29  C   LIG d   1       4.568  -9.188  -4.543  0.00  0.00    -0.056 A 
ATOM     30  C   LIG d   1       4.656 -10.083  -3.492  0.00  0.00    -0.059 A 
ATOM     31  H   LIG d   1       3.618  -9.014  -5.026  0.00  0.00     0.062 H 
ATOM     32  C   LIG d   1       5.872 -10.306  -2.874  0.00  0.00    -0.050 A 
ATOM     33  H   LIG d   1       3.774 -10.605  -3.154  0.00  0.00     0.062 H 
ATOM     34  C   LIG d   1       7.001  -9.637  -3.308  0.00  0.00    -0.059 A 
ATOM     35  C   LIG d   1       6.915  -8.746  -4.362  0.00  0.00    -0.056 A 
ATOM     36  H   LIG d   1       7.951  -9.811  -2.825  0.00  0.00     0.062 H 
ATOM     37  H   LIG d   1       7.797  -8.225  -4.703  0.00  0.00     0.062 H 
BRANCH  32  38
ATOM     38  C   LIG d   1       5.968 -11.281  -1.729  0.00  0.00    -0.040 C 
ATOM     39  H   LIG d   1       5.103 -11.159  -1.076  0.00  0.00     0.028 H 
ATOM     40  H   LIG d   1       5.989 -12.299  -2.118  0.00  0.00     0.028 H 
ATOM     41  H   LIG d   1       6.880 -11.089  -1.164  0.00  0.00     0.028 H 
ENDBRANCH  32  38
ENDBRANCH   1  28
BRANCH  19  42
ATOM     42  C   LIG d   1       4.960  -2.858  -4.736  0.00  0.00     0.046 A 
ATOM     43  C   LIG d   1       4.745  -1.912  -5.728  0.00  0.00    -0.036 A 
ATOM     44  C   LIG d   1       4.092  -0.733  -5.426  0.00  0.00    -0.018 A 
ATOM     45  H   LIG d   1       5.087  -2.098  -6.734  0.00  0.00     0.064 H 
ATOM     46  C   LIG d   1       3.651  -0.494  -4.133  0.00  0.00     0.120 A 
ATOM     47  H   LIG d   1       3.925   0.004  -6.198  0.00  0.00     0.066 H 
ATOM     48  C   LIG d   1       3.864  -1.440  -3.141  0.00  0.00    -0.018 A 
ATOM     49  C   LIG d   1       4.514  -2.622  -3.442  0.00  0.00    -0.036 A 
ATOM     50  H   LIG d   1       3.521  -1.255  -2.134  0.00  0.00     0.066 H 
ATOM     51  H   LIG d   1       4.677  -3.360  -2.671  0.00  0.00     0.064 H 
BRANCH  46  52
ATOM     52  O   LIG d   1       3.008   0.666  -3.837  0.00  0.00    -0.495 OA
BRANCH  52  53
ATOM     53  C   LIG d   1       3.589   1.490  -2.824  0.00  0.00     0.079 C 
ATOM     54  H   LIG d   1       3.873   2.451  -3.254  0.00  0.00     0.066 H 
ATOM     55  H   LIG d   1       2.865   1.649  -2.025  0.00  0.00     0.066 H 
ATOM     56  H   LIG d   1       4.474   0.999  -2.419  0.00  0.00     0.066 H 
ENDBRANCH  52  53
ENDBRANCH  46  52
ENDBRANCH  19  42
TORSDOF 5
ENDMDL
MODEL 6
REMARK VINA RESULT:      -6.3      5.436      8.220
REMARK  5 active torsions:
REMARK  status: ('A' for Active; 'I' for Inactive)
REMARK    1  A    between atoms: C_1  and  C_2 
REMARK    2  A    between atoms: C_5  and  C_8 
REMARK    3  A    between atoms: N_26  and  C_29 
REMARK    4  A    between atoms: C_32  and  O_35 
REMARK    5  A    between atoms: O_35  and  C_36 
ROOT
ATOM      1  C   LIG d   1       8.357   2.233  -5.245  0.00  0.00     0.094 C 
ATOM      2  H   LIG d   1       7.803   2.911  -5.895  0.00  0.00     0.062 H 
ATOM      3  C   LIG d   1       7.394   1.391  -4.431  0.00  0.00     0.046 A 
ATOM      4  C   LIG d   1       7.443   0.043  -4.377  0.00  0.00    -0.015 A 
ATOM      5  C   LIG d   1       6.371  -0.378  -3.493  0.00  0.00     0.003 A 
ATOM      6  C   LIG d   1       5.944  -1.637  -3.059  0.00  0.00    -0.052 A 
ATOM      7  C   LIG d   1       4.867  -1.666  -2.207  0.00  0.00    -0.061 A 
ATOM      8  C   LIG d   1       4.229  -0.511  -1.788  0.00  0.00    -0.060 A 
ATOM      9  C   LIG d   1       4.631   0.748  -2.201  0.00  0.00    -0.038 A 
ATOM     10  C   LIG d   1       5.722   0.808  -3.067  0.00  0.00     0.047 A 
ATOM     11  N   LIG d   1       6.368   1.858  -3.655  0.00  0.00    -0.356 N 
ATOM     12  H   LIG d   1       6.135   2.793  -3.540  0.00  0.00     0.166 HD
ATOM     13  C   LIG d   1       8.423  -0.836  -5.111  0.00  0.00     0.002 C 
ATOM     14  C   LIG d   1       9.634  -0.004  -5.534  0.00  0.00     0.110 A 
ATOM     15  H   LIG d   1      10.343   0.129  -4.718  0.00  0.00     0.060 H 
ATOM     16  N   LIG d   1       9.146   1.295  -6.050  0.00  0.00    -0.261 N 
ATOM     17  C   LIG d   1       9.546   1.392  -7.319  0.00  0.00     0.317 A 
ATOM     18  O   LIG d   1       9.356   2.368  -8.018  0.00  0.00    -0.252 OA
ATOM     19  N   LIG d   1      10.183   0.287  -7.735  0.00  0.00    -0.193 N 
ATOM     20  C   LIG d   1      10.288  -0.628  -6.750  0.00  0.00     0.248 A 
ATOM     21  O   LIG d   1      10.797  -1.726  -6.824  0.00  0.00    -0.273 OA
ATOM     22  H   LIG d   1       6.436  -2.543  -3.379  0.00  0.00     0.062 H 
ATOM     23  H   LIG d   1       4.508  -2.620  -1.851  0.00  0.00     0.062 H 
ATOM     24  H   LIG d   1       3.386  -0.595  -1.118  0.00  0.00     0.062 H 
ATOM     25  H   LIG d   1       4.125   1.641  -1.867  0.00  0.00     0.064 H 
ATOM     26  H   LIG d   1       8.747  -1.645  -4.457  0.00  0.00     0.034 H 
ATOM     27  H   LIG d   1       7.944  -1.254  -5.997  0.00  0.00     0.034 H 
ENDROOT
BRANCH   1  28
ATOM     28  C   LIG d   1       9.261   3.019  -4.331  0.00  0.00    -0.021 A 
ATOM     29  C   LIG d   1       9.991   2.367  -3.354  0.00  0.00    -0.056 A 
ATOM     30  C   LIG d   1      10.822   3.088  -2.516  0.00  0.00    -0.059 A 
ATOM     31  H   LIG d   1       9.913   1.295  -3.246  0.00  0.00     0.062 H 
ATOM     32  C   LIG d   1      10.922   4.460  -2.653  0.00  0.00    -0.050 A 
ATOM     33  H   LIG d   1      11.391   2.579  -1.752  0.00  0.00     0.062 H 
ATOM     34  C   LIG d   1      10.192   5.111  -3.630  0.00  0.00    -0.059 A 
ATOM     35  C   LIG d   1       9.365   4.390  -4.473  0.00  0.00    -0.056 A 
ATOM     36  H   LIG d   1      10.270   6.183  -3.738  0.00  0.00     0.062 H 
ATOM     37  H   LIG d   1       8.799   4.899  -5.238  0.00  0.00     0.062 H 
BRANCH  32  38
ATOM     38  C   LIG d   1      11.826   5.245  -1.739  0.00  0.00    -0.040 C 
ATOM     39  H   LIG d   1      12.865   4.993  -1.952  0.00  0.00     0.028 H 
ATOM     40  H   LIG d   1      11.670   6.311  -1.901  0.00  0.00     0.028 H 
ATOM     41  H   LIG d   1      11.597   4.998  -0.702  0.00  0.00     0.028 H 
ENDBRANCH  32  38
ENDBRANCH   1  28
BRANCH  19  42
ATOM     42  C   LIG d   1      10.680   0.107  -9.036  0.00  0.00     0.046 A 
ATOM     43  C   LIG d   1       9.869  -0.445 -10.019  0.00  0.00    -0.036 A 
ATOM     44  C   LIG d   1      10.358  -0.620 -11.298  0.00  0.00    -0.018 A 
ATOM     45  H   LIG d   1       8.857  -0.734  -9.783  0.00  0.00     0.064 H 
ATOM     46  C   LIG d   1      11.659  -0.247 -11.601  0.00  0.00     0.120 A 
ATOM     47  H   LIG d   1       9.728  -1.049 -12.062  0.00  0.00     0.066 H 
ATOM     48  C   LIG d   1      12.470   0.305 -10.620  0.00  0.00    -0.018 A 
ATOM     49  C   LIG d   1      11.981   0.486  -9.341  0.00  0.00    -0.036 A 
ATOM     50  H   LIG d   1      13.483   0.596 -10.856  0.00  0.00     0.066 H 
ATOM     51  H   LIG d   1      12.610   0.918  -8.578  0.00  0.00     0.064 H 
BRANCH  46  52
ATOM     52  O   LIG d   1      12.140  -0.421 -12.861  0.00  0.00    -0.495 OA
BRANCH  52  53
ATOM     53  C   LIG d   1      11.302  -1.117 -13.785  0.00  0.00     0.079 C 
ATOM     54  H   LIG d   1      11.918  -1.581 -14.557  0.00  0.00     0.066 H 
ATOM     55  H   LIG d   1      10.740  -1.888 -13.257  0.00  0.00     0.066 H 
ATOM     56  H   LIG d   1      10.608  -0.415 -14.248  0.00  0.00     0.066 H 
ENDBRANCH  52  53
ENDBRANCH  46  52
ENDBRANCH  19  42
TORSDOF 5
ENDMDL
MODEL 7
REMARK VINA RESULT:      -6.3      2.090      5.291
REMARK  5 active torsions:
REMARK  status: ('A' for Active; 'I' for Inactive)
REMARK    1  A    between atoms: C_1  and  C_2 
REMARK    2  A    between atoms: C_5  and  C_8 
REMARK    3  A    between atoms: N_26  and  C_29 
REMARK    4  A    between atoms: C_32  and  O_35 
REMARK    5  A    between atoms: O_35  and  C_36 
ROOT
ATOM      1  C   LIG d   1       6.200  -4.041  -6.036  0.00  0.00     0.094 C 
ATOM      2  H   LIG d   1       7.238  -3.843  -6.302  0.00  0.00     0.062 H 
ATOM      3  C   LIG d   1       5.299  -3.775  -7.227  0.00  0.00     0.046 A 
ATOM      4  C   LIG d   1       4.409  -4.670  -7.705  0.00  0.00    -0.015 A 
ATOM      5  C   LIG d   1       3.745  -4.037  -8.830  0.00  0.00     0.003 A 
ATOM      6  C   LIG d   1       2.741  -4.472  -9.700  0.00  0.00    -0.052 A 
ATOM      7  C   LIG d   1       2.344  -3.592 -10.678  0.00  0.00    -0.061 A 
ATOM      8  C   LIG d   1       2.903  -2.331 -10.804  0.00  0.00    -0.060 A 
ATOM      9  C   LIG d   1       3.897  -1.875  -9.955  0.00  0.00    -0.038 A 
ATOM     10  C   LIG d   1       4.319  -2.747  -8.953  0.00  0.00     0.047 A 
ATOM     11  N   LIG d   1       5.257  -2.624  -7.967  0.00  0.00    -0.356 N 
ATOM     12  H   LIG d   1       5.807  -1.840  -7.814  0.00  0.00     0.166 HD
ATOM     13  C   LIG d   1       4.176  -6.059  -7.167  0.00  0.00     0.002 C 
ATOM     14  C   LIG d   1       4.719  -6.148  -5.740  0.00  0.00     0.110 A 
ATOM     15  H   LIG d   1       4.024  -5.734  -5.012  0.00  0.00     0.060 H 
ATOM     16  N   LIG d   1       6.028  -5.459  -5.699  0.00  0.00    -0.261 N 
ATOM     17  C   LIG d   1       6.940  -6.360  -5.330  0.00  0.00     0.317 A 
ATOM     18  O   LIG d   1       8.113  -6.103  -5.146  0.00  0.00    -0.252 OA
ATOM     19  N   LIG d   1       6.411  -7.585  -5.186  0.00  0.00    -0.193 N 
ATOM     20  C   LIG d   1       5.081  -7.583  -5.416  0.00  0.00     0.248 A 
ATOM     21  O   LIG d   1       4.332  -8.536  -5.378  0.00  0.00    -0.273 OA
ATOM     22  H   LIG d   1       2.298  -5.453  -9.609  0.00  0.00     0.062 H 
ATOM     23  H   LIG d   1       1.571  -3.893 -11.369  0.00  0.00     0.062 H 
ATOM     24  H   LIG d   1       2.553  -1.682 -11.593  0.00  0.00     0.062 H 
ATOM     25  H   LIG d   1       4.325  -0.890 -10.064  0.00  0.00     0.064 H 
ATOM     26  H   LIG d   1       3.107  -6.273  -7.164  0.00  0.00     0.034 H 
ATOM     27  H   LIG d   1       4.691  -6.785  -7.796  0.00  0.00     0.034 H 
ENDROOT
BRANCH   1  28
ATOM     28  C   LIG d   1       5.791  -3.178  -4.871  0.00  0.00    -0.021 A 
ATOM     29  C   LIG d   1       6.733  -2.400  -4.224  0.00  0.00    -0.056 A 
ATOM     30  C   LIG d   1       6.357  -1.606  -3.155  0.00  0.00    -0.059 A 
ATOM     31  H   LIG d   1       7.762  -2.411  -4.553  0.00  0.00     0.062 H 
ATOM     32  C   LIG d   1       5.041  -1.592  -2.734  0.00  0.00    -0.050 A 
ATOM     33  H   LIG d   1       7.094  -0.999  -2.649  0.00  0.00     0.062 H 
ATOM     34  C   LIG d   1       4.100  -2.369  -3.381  0.00  0.00    -0.059 A 
ATOM     35  C   LIG d   1       4.474  -3.159  -4.453  0.00  0.00    -0.056 A 
ATOM     36  H   LIG d   1       3.071  -2.358  -3.052  0.00  0.00     0.062 H 
ATOM     37  H   LIG d   1       3.737  -3.763  -4.961  0.00  0.00     0.062 H 
BRANCH  32  38
ATOM     38  C   LIG d   1       4.633  -0.728  -1.569  0.00  0.00    -0.040 C 
ATOM     39  H   LIG d   1       4.861  -1.244  -0.636  0.00  0.00     0.028 H 
ATOM     40  H   LIG d   1       5.179   0.215  -1.606  0.00  0.00     0.028 H 
ATOM     41  H   LIG d   1       3.562  -0.529  -1.622  0.00  0.00     0.028 H 
ENDBRANCH  32  38
ENDBRANCH   1  28
BRANCH  19  42
ATOM     42  C   LIG d   1       7.149  -8.726  -4.837  0.00  0.00     0.046 A 
ATOM     43  C   LIG d   1       7.290  -9.080  -3.502  0.00  0.00    -0.036 A 
ATOM     44  C   LIG d   1       8.015 -10.205  -3.160  0.00  0.00    -0.018 A 
ATOM     45  H   LIG d   1       6.832  -8.478  -2.733  0.00  0.00     0.064 H 
ATOM     46  C   LIG d   1       8.603 -10.980  -4.149  0.00  0.00     0.120 A 
ATOM     47  H   LIG d   1       8.125 -10.480  -2.122  0.00  0.00     0.066 H 
ATOM     48  C   LIG d   1       8.462 -10.627  -5.483  0.00  0.00    -0.018 A 
ATOM     49  C   LIG d   1       7.733  -9.505  -5.827  0.00  0.00    -0.036 A 
ATOM     50  H   LIG d   1       8.919 -11.230  -6.253  0.00  0.00     0.066 H 
ATOM     51  H   LIG d   1       7.620  -9.233  -6.865  0.00  0.00     0.064 H 
BRANCH  46  52
ATOM     52  O   LIG d   1       9.317 -12.086  -3.811  0.00  0.00    -0.495 OA
BRANCH  52  53
ATOM     53  C   LIG d   1       8.637 -13.092  -3.057  0.00  0.00     0.079 C 
ATOM     54  H   LIG d   1       9.309 -13.933  -2.883  0.00  0.00     0.066 H 
ATOM     55  H   LIG d   1       8.320 -12.677  -2.100  0.00  0.00     0.066 H 
ATOM     56  H   LIG d   1       7.764 -13.434  -3.612  0.00  0.00     0.066 H 
ENDBRANCH  52  53
ENDBRANCH  46  52
ENDBRANCH  19  42
TORSDOF 5
ENDMDL
MODEL 8
REMARK VINA RESULT:      -6.3      3.744      6.617
REMARK  5 active torsions:
REMARK  status: ('A' for Active; 'I' for Inactive)
REMARK    1  A    between atoms: C_1  and  C_2 
REMARK    2  A    between atoms: C_5  and  C_8 
REMARK    3  A    between atoms: N_26  and  C_29 
REMARK    4  A    between atoms: C_32  and  O_35 
REMARK    5  A    between atoms: O_35  and  C_36 
ROOT
ATOM      1  C   LIG d   1       7.626  -2.334  -5.406  0.00  0.00     0.094 C 
ATOM      2  H   LIG d   1       7.671  -1.817  -6.365  0.00  0.00     0.062 H 
ATOM      3  C   LIG d   1       7.012  -3.709  -5.585  0.00  0.00     0.046 A 
ATOM      4  C   LIG d   1       7.594  -4.848  -5.155  0.00  0.00    -0.015 A 
ATOM      5  C   LIG d   1       6.696  -5.933  -5.504  0.00  0.00     0.003 A 
ATOM      6  C   LIG d   1       6.764  -7.316  -5.309  0.00  0.00    -0.052 A 
ATOM      7  C   LIG d   1       5.712  -8.062  -5.783  0.00  0.00    -0.061 A 
ATOM      8  C   LIG d   1       4.629  -7.482  -6.423  0.00  0.00    -0.060 A 
ATOM      9  C   LIG d   1       4.535  -6.116  -6.628  0.00  0.00    -0.038 A 
ATOM     10  C   LIG d   1       5.589  -5.335  -6.157  0.00  0.00     0.047 A 
ATOM     11  N   LIG d   1       5.816  -3.988  -6.189  0.00  0.00    -0.356 N 
ATOM     12  H   LIG d   1       5.219  -3.330  -6.579  0.00  0.00     0.166 HD
ATOM     13  C   LIG d   1       8.928  -4.952  -4.459  0.00  0.00     0.002 C 
ATOM     14  C   LIG d   1       9.306  -3.587  -3.881  0.00  0.00     0.110 A 
ATOM     15  H   LIG d   1       8.809  -3.394  -2.931  0.00  0.00     0.060 H 
ATOM     16  N   LIG d   1       8.981  -2.552  -4.887  0.00  0.00    -0.261 N 
ATOM     17  C   LIG d   1      10.119  -1.929  -5.197  0.00  0.00     0.317 A 
ATOM     18  O   LIG d   1      10.191  -0.984  -5.957  0.00  0.00    -0.252 OA
ATOM     19  N   LIG d   1      11.177  -2.467  -4.571  0.00  0.00    -0.193 N 
ATOM     20  C   LIG d   1      10.813  -3.480  -3.758  0.00  0.00     0.248 A 
ATOM     21  O   LIG d   1      11.541  -4.167  -3.075  0.00  0.00    -0.273 OA
ATOM     22  H   LIG d   1       7.603  -7.777  -4.811  0.00  0.00     0.062 H 
ATOM     23  H   LIG d   1       5.730  -9.133  -5.652  0.00  0.00     0.062 H 
ATOM     24  H   LIG d   1       3.831  -8.118  -6.776  0.00  0.00     0.062 H 
ATOM     25  H   LIG d   1       3.685  -5.677  -7.128  0.00  0.00     0.064 H 
ATOM     26  H   LIG d   1       8.862  -5.683  -3.653  0.00  0.00     0.034 H 
ATOM     27  H   LIG d   1       9.688  -5.265  -5.174  0.00  0.00     0.034 H 
ENDROOT
BRANCH   1  28
ATOM     28  C   LIG d   1       6.818  -1.527  -4.423  0.00  0.00    -0.021 A 
ATOM     29  C   LIG d   1       7.011  -0.162  -4.326  0.00  0.00    -0.056 A 
ATOM     30  C   LIG d   1       6.269   0.579  -3.424  0.00  0.00    -0.059 A 
ATOM     31  H   LIG d   1       7.741   0.327  -4.955  0.00  0.00     0.062 H 
ATOM     32  C   LIG d   1       5.335  -0.046  -2.620  0.00  0.00    -0.050 A 
ATOM     33  H   LIG d   1       6.421   1.646  -3.349  0.00  0.00     0.062 H 
ATOM     34  C   LIG d   1       5.142  -1.411  -2.717  0.00  0.00    -0.059 A 
ATOM     35  C   LIG d   1       5.880  -2.151  -3.622  0.00  0.00    -0.056 A 
ATOM     36  H   LIG d   1       4.412  -1.900  -2.088  0.00  0.00     0.062 H 
ATOM     37  H   LIG d   1       5.726  -3.217  -3.701  0.00  0.00     0.062 H 
BRANCH  32  38
ATOM     38  C   LIG d   1       4.527   0.761  -1.637  0.00  0.00    -0.040 C 
ATOM     39  H   LIG d   1       4.665   1.824  -1.839  0.00  0.00     0.028 H 
ATOM     40  H   LIG d   1       3.472   0.506  -1.737  0.00  0.00     0.028 H 
ATOM     41  H   LIG d   1       4.860   0.538  -0.623  0.00  0.00     0.028 H 
ENDBRANCH  32  38
ENDBRANCH   1  28
BRANCH  19  42
ATOM     42  C   LIG d   1      12.500  -2.028  -4.740  0.00  0.00     0.046 A 
ATOM     43  C   LIG d   1      13.012  -1.034  -3.917  0.00  0.00    -0.036 A 
ATOM     44  C   LIG d   1      14.314  -0.605  -4.083  0.00  0.00    -0.018 A 
ATOM     45  H   LIG d   1      12.393  -0.599  -3.148  0.00  0.00     0.064 H 
ATOM     46  C   LIG d   1      15.110  -1.166  -5.071  0.00  0.00     0.120 A 
ATOM     47  H   LIG d   1      14.712   0.168  -3.443  0.00  0.00     0.066 H 
ATOM     48  C   LIG d   1      14.599  -2.160  -5.892  0.00  0.00    -0.018 A 
ATOM     49  C   LIG d   1      13.298  -2.594  -5.725  0.00  0.00    -0.036 A 
ATOM     50  H   LIG d   1      15.218  -2.597  -6.662  0.00  0.00     0.066 H 
ATOM     51  H   LIG d   1      12.902  -3.370  -6.362  0.00  0.00     0.064 H 
BRANCH  46  52
ATOM     52  O   LIG d   1      16.391  -0.742  -5.233  0.00  0.00    -0.495 OA
BRANCH  52  53
ATOM     53  C   LIG d   1      17.004  -0.087  -4.121  0.00  0.00     0.079 C 
ATOM     54  H   LIG d   1      16.254   0.103  -3.352  0.00  0.00     0.066 H 
ATOM     55  H   LIG d   1      17.789  -0.723  -3.712  0.00  0.00     0.066 H 
ATOM     56  H   LIG d   1      17.436   0.859  -4.448  0.00  0.00     0.066 H 
ENDBRANCH  52  53
ENDBRANCH  46  52
ENDBRANCH  19  42
TORSDOF 5
ENDMDL
MODEL 9
REMARK VINA RESULT:      -6.2      3.094      5.929
REMARK  5 active torsions:
REMARK  status: ('A' for Active; 'I' for Inactive)
REMARK    1  A    between atoms: C_1  and  C_2 
REMARK    2  A    between atoms: C_5  and  C_8 
REMARK    3  A    between atoms: N_26  and  C_29 
REMARK    4  A    between atoms: C_32  and  O_35 
REMARK    5  A    between atoms: O_35  and  C_36 
ROOT
ATOM      1  C   LIG d   1       7.414  -2.690  -5.855  0.00  0.00     0.094 C 
ATOM      2  H   LIG d   1       7.598  -2.128  -6.771  0.00  0.00     0.062 H 
ATOM      3  C   LIG d   1       6.601  -1.853  -4.886  0.00  0.00     0.046 A 
ATOM      4  C   LIG d   1       5.456  -2.276  -4.312  0.00  0.00    -0.015 A 
ATOM      5  C   LIG d   1       4.996  -1.200  -3.454  0.00  0.00     0.003 A 
ATOM      6  C   LIG d   1       3.884  -1.068  -2.616  0.00  0.00    -0.052 A 
ATOM      7  C   LIG d   1       3.756   0.119  -1.937  0.00  0.00    -0.061 A 
ATOM      8  C   LIG d   1       4.679   1.144  -2.067  0.00  0.00    -0.060 A 
ATOM      9  C   LIG d   1       5.789   1.040  -2.887  0.00  0.00    -0.038 A 
ATOM     10  C   LIG d   1       5.944  -0.155  -3.589  0.00  0.00     0.047 A 
ATOM     11  N   LIG d   1       6.901  -0.585  -4.464  0.00  0.00    -0.356 N 
ATOM     12  H   LIG d   1       7.675  -0.071  -4.743  0.00  0.00     0.166 HD
ATOM     13  C   LIG d   1       4.792  -3.610  -4.542  0.00  0.00     0.002 C 
ATOM     14  C   LIG d   1       5.812  -4.591  -5.122  0.00  0.00     0.110 A 
ATOM     15  H   LIG d   1       6.446  -5.024  -4.350  0.00  0.00     0.060 H 
ATOM     16  N   LIG d   1       6.608  -3.880  -6.147  0.00  0.00    -0.261 N 
ATOM     17  C   LIG d   1       6.419  -4.514  -7.306  0.00  0.00     0.317 A 
ATOM     18  O   LIG d   1       6.978  -4.215  -8.342  0.00  0.00    -0.252 OA
ATOM     19  N   LIG d   1       5.541  -5.522  -7.194  0.00  0.00    -0.193 N 
ATOM     20  C   LIG d   1       5.099  -5.659  -5.927  0.00  0.00     0.248 A 
ATOM     21  O   LIG d   1       4.293  -6.467  -5.517  0.00  0.00    -0.273 OA
ATOM     22  H   LIG d   1       3.160  -1.862  -2.508  0.00  0.00     0.062 H 
ATOM     23  H   LIG d   1       2.910   0.257  -1.282  0.00  0.00     0.062 H 
ATOM     24  H   LIG d   1       4.526   2.056  -1.510  0.00  0.00     0.062 H 
ATOM     25  H   LIG d   1       6.501   1.846  -2.980  0.00  0.00     0.064 H 
ATOM     26  H   LIG d   1       4.412  -3.996  -3.596  0.00  0.00     0.034 H 
ATOM     27  H   LIG d   1       3.966  -3.490  -5.244  0.00  0.00     0.034 H 
ENDROOT
BRANCH   1  28
ATOM     28  C   LIG d   1       8.722  -3.092  -5.224  0.00  0.00    -0.021 A 
ATOM     29  C   LIG d   1       9.882  -3.085  -5.976  0.00  0.00    -0.056 A 
ATOM     30  C   LIG d   1      11.083  -3.453  -5.397  0.00  0.00    -0.059 A 
ATOM     31  H   LIG d   1       9.851  -2.791  -7.015  0.00  0.00     0.062 H 
ATOM     32  C   LIG d   1      11.123  -3.828  -4.067  0.00  0.00    -0.050 A 
ATOM     33  H   LIG d   1      11.989  -3.447  -5.985  0.00  0.00     0.062 H 
ATOM     34  C   LIG d   1       9.963  -3.835  -3.316  0.00  0.00    -0.059 A 
ATOM     35  C   LIG d   1       8.763  -3.462  -3.893  0.00  0.00    -0.056 A 
ATOM     36  H   LIG d   1       9.994  -4.129  -2.277  0.00  0.00     0.062 H 
ATOM     37  H   LIG d   1       7.857  -3.464  -3.305  0.00  0.00     0.062 H 
BRANCH  32  38
ATOM     38  C   LIG d   1      12.431  -4.230  -3.437  0.00  0.00    -0.040 C 
ATOM     39  H   LIG d   1      13.179  -4.380  -4.216  0.00  0.00     0.028 H 
ATOM     40  H   LIG d   1      12.765  -3.444  -2.760  0.00  0.00     0.028 H 
ATOM     41  H   LIG d   1      12.297  -5.157  -2.879  0.00  0.00     0.028 H 
ENDBRANCH  32  38
ENDBRANCH   1  28
BRANCH  19  42
ATOM     42  C   LIG d   1       5.133  -6.335  -8.263  0.00  0.00     0.046 A 
ATOM     43  C   LIG d   1       5.848  -7.483  -8.575  0.00  0.00    -0.036 A 
ATOM     44  C   LIG d   1       5.445  -8.282  -9.625  0.00  0.00    -0.018 A 
ATOM     45  H   LIG d   1       6.718  -7.751  -7.994  0.00  0.00     0.064 H 
ATOM     46  C   LIG d   1       4.327  -7.939 -10.371  0.00  0.00     0.120 A 
ATOM     47  H   LIG d   1       6.002  -9.176  -9.868  0.00  0.00     0.066 H 
ATOM     48  C   LIG d   1       3.611  -6.792 -10.060  0.00  0.00    -0.018 A 
ATOM     49  C   LIG d   1       4.010  -5.993  -9.006  0.00  0.00    -0.036 A 
ATOM     50  H   LIG d   1       2.740  -6.524 -10.639  0.00  0.00     0.066 H 
ATOM     51  H   LIG d   1       3.452  -5.103  -8.761  0.00  0.00     0.064 H 
BRANCH  46  52
ATOM     52  O   LIG d   1       3.931  -8.726 -11.406  0.00  0.00    -0.495 OA
BRANCH  52  53
ATOM     53  C   LIG d   1       2.890  -8.221 -12.245  0.00  0.00     0.079 C 
ATOM     54  H   LIG d   1       2.446  -7.339 -11.782  0.00  0.00     0.066 H 
ATOM     55  H   LIG d   1       3.305  -7.952 -13.216  0.00  0.00     0.066 H 
ATOM     56  H   LIG d   1       2.125  -8.986 -12.375  0.00  0.00     0.066 H 
ENDBRANCH  52  53
ENDBRANCH  46  52
ENDBRANCH  19  42
TORSDOF 5
ENDMDL
