MODEL 1
REMARK VINA RESULT:      -7.6      0.000      0.000
REMARK  0 active torsions:
REMARK  status: ('A' for Active; 'I' for Inactive)
ROOT
ATOM      1  C   LIG d   1       5.554  -3.816  -8.890  0.00  0.00    -0.061 A 
ATOM      2  C   LIG d   1       4.558  -3.099  -9.521  0.00  0.00    -0.060 A 
ATOM      3  C   LIG d   1       3.972  -1.989  -8.936  0.00  0.00    -0.040 A 
ATOM      4  C   LIG d   1       4.431  -1.607  -7.671  0.00  0.00     0.041 A 
ATOM      5  C   LIG d   1       5.469  -2.321  -7.059  0.00  0.00    -0.013 A 
ATOM      6  C   LIG d   1       6.033  -3.440  -7.640  0.00  0.00    -0.056 A 
ATOM      7  C   LIG d   1       5.844  -1.609  -5.791  0.00  0.00     0.064 C 
ATOM      8  C   LIG d   1       7.223  -0.913  -6.065  0.00  0.00     0.004 C 
ATOM      9  C   LIG d   1       8.194  -1.579  -5.065  0.00  0.00    -0.031 C 
ATOM     10  N   LIG d   1       7.305  -1.969  -3.923  0.00  0.00     0.223 N 
ATOM     11  C   LIG d   1       6.118  -2.514  -4.623  0.00  0.00    -0.009 C 
ATOM     12  H   LIG d   1       6.387  -3.491  -5.025  0.00  0.00     0.086 H 
ATOM     13  C   LIG d   1       4.997  -2.710  -3.625  0.00  0.00    -0.002 C 
ATOM     14  C   LIG d   1       4.434  -1.318  -3.278  0.00  0.00    -0.003 C 
ATOM     15  H   LIG d   1       3.725  -1.377  -2.452  0.00  0.00     0.035 H 
ATOM     16  C   LIG d   1       3.754  -0.844  -4.544  0.00  0.00     0.013 C 
ATOM     17  H   LIG d   1       3.165  -1.682  -4.913  0.00  0.00     0.035 H 
ATOM     18  C   LIG d   1       4.789  -0.536  -5.625  0.00  0.00     0.052 C 
ATOM     19  H   LIG d   1       5.219   0.458  -5.497  0.00  0.00     0.052 H 
ATOM     20  N   LIG d   1       3.938  -0.618  -6.849  0.00  0.00    -0.267 N 
ATOM     21  C   LIG d   1       2.843   0.158  -6.936  0.00  0.00     0.223 C 
ATOM     22  O   LIG d   1       2.418   0.452  -8.033  0.00  0.00    -0.275 OA
ATOM     23  C   LIG d   1       2.133   0.673  -5.721  0.00  0.00     0.051 C 
ATOM     24  C   LIG d   1       2.793   0.309  -4.397  0.00  0.00     0.072 C 
ATOM     25  H   LIG d   1       1.995  -0.014  -3.727  0.00  0.00     0.060 H 
ATOM     26  O   LIG d   1       3.409   1.452  -3.812  0.00  0.00    -0.372 OA
ATOM     27  C   LIG d   1       3.862   1.262  -2.468  0.00  0.00     0.067 C 
ATOM     28  C   LIG d   1       5.292   0.800  -2.510  0.00  0.00    -0.054 C 
ATOM     29  C   LIG d   1       5.588  -0.405  -2.951  0.00  0.00    -0.023 C 
ATOM     30  C   LIG d   1       7.014  -0.733  -3.214  0.00  0.00    -0.010 C 
ATOM     31  O   LIG d   1       7.933  -2.972  -3.062  0.00  0.00    -0.775 OA
ATOM     32  H   LIG d   1       5.970  -4.686  -9.376  0.00  0.00     0.062 H 
ATOM     33  H   LIG d   1       4.227  -3.413 -10.499  0.00  0.00     0.062 H 
ATOM     34  H   LIG d   1       3.192  -1.437  -9.440  0.00  0.00     0.064 H 
ATOM     35  H   LIG d   1       6.812  -3.999  -7.145  0.00  0.00     0.062 H 
ATOM     36  H   LIG d   1       7.154   0.158  -5.873  0.00  0.00     0.033 H 
ATOM     37  H   LIG d   1       7.548  -1.093  -7.089  0.00  0.00     0.033 H 
ATOM     38  H   LIG d   1       8.953  -0.870  -4.735  0.00  0.00     0.081 H 
ATOM     39  H   LIG d   1       8.660  -2.460  -5.507  0.00  0.00     0.081 H 
ATOM     40  H   LIG d   1       5.382  -3.188  -2.725  0.00  0.00     0.033 H 
ATOM     41  H   LIG d   1       4.213  -3.326  -4.065  0.00  0.00     0.033 H 
ATOM     42  H   LIG d   1       1.118   0.276  -5.720  0.00  0.00     0.038 H 
ATOM     43  H   LIG d   1       2.076   1.759  -5.791  0.00  0.00     0.038 H 
ATOM     44  H   LIG d   1       3.247   0.508  -1.976  0.00  0.00     0.060 H 
ATOM     45  H   LIG d   1       3.797   2.202  -1.922  0.00  0.00     0.060 H 
ATOM     46  H   LIG d   1       6.080   1.460  -2.178  0.00  0.00     0.060 H 
ATOM     47  H   LIG d   1       7.530  -0.770  -2.255  0.00  0.00     0.086 H 
ATOM     48  H   LIG d   1       7.444   0.089  -3.787  0.00  0.00     0.086 H 
ENDROOT
TORSDOF 0
ENDMDL
MODEL 2
REMARK VINA RESULT:      -7.2      2.664      5.506
REMARK  0 active torsions:
REMARK  status: ('A' for Active; 'I' for Inactive)
ROOT
ATOM      1  C   LIG d   1       4.183  -0.760  -1.794  0.00  0.00    -0.061 A 
ATOM      2  C   LIG d   1       4.636   0.544  -1.804  0.00  0.00    -0.060 A 
ATOM      3  C   LIG d   1       5.565   0.989  -2.730  0.00  0.00    -0.040 A 
ATOM      4  C   LIG d   1       6.032   0.065  -3.671  0.00  0.00     0.041 A 
ATOM      5  C   LIG d   1       5.535  -1.245  -3.672  0.00  0.00    -0.013 A 
ATOM      6  C   LIG d   1       4.625  -1.685  -2.732  0.00  0.00    -0.056 A 
ATOM      7  C   LIG d   1       6.103  -1.961  -4.864  0.00  0.00     0.064 C 
ATOM      8  C   LIG d   1       4.930  -2.101  -5.896  0.00  0.00     0.004 C 
ATOM      9  C   LIG d   1       4.731  -3.626  -6.046  0.00  0.00    -0.031 C 
ATOM     10  N   LIG d   1       6.094  -4.184  -5.764  0.00  0.00     0.223 N 
ATOM     11  C   LIG d   1       6.527  -3.378  -4.598  0.00  0.00    -0.009 C 
ATOM     12  H   LIG d   1       5.971  -3.726  -3.727  0.00  0.00     0.086 H 
ATOM     13  C   LIG d   1       7.999  -3.622  -4.343  0.00  0.00    -0.002 C 
ATOM     14  C   LIG d   1       8.790  -2.878  -5.437  0.00  0.00    -0.003 C 
ATOM     15  H   LIG d   1       9.849  -3.136  -5.398  0.00  0.00     0.035 H 
ATOM     16  C   LIG d   1       8.578  -1.409  -5.143  0.00  0.00     0.013 C 
ATOM     17  H   LIG d   1       8.723  -1.282  -4.071  0.00  0.00     0.035 H 
ATOM     18  C   LIG d   1       7.133  -1.007  -5.432  0.00  0.00     0.052 C 
ATOM     19  H   LIG d   1       6.977  -0.806  -6.492  0.00  0.00     0.052 H 
ATOM     20  N   LIG d   1       7.025   0.234  -4.611  0.00  0.00    -0.267 N 
ATOM     21  C   LIG d   1       7.898   1.235  -4.822  0.00  0.00     0.223 C 
ATOM     22  O   LIG d   1       7.576   2.367  -4.531  0.00  0.00    -0.275 OA
ATOM     23  C   LIG d   1       9.257   0.996  -5.409  0.00  0.00     0.051 C 
ATOM     24  C   LIG d   1       9.530  -0.448  -5.809  0.00  0.00     0.072 C 
ATOM     25  H   LIG d   1      10.535  -0.686  -5.457  0.00  0.00     0.060 H 
ATOM     26  O   LIG d   1       9.529  -0.585  -7.227  0.00  0.00    -0.372 OA
ATOM     27  C   LIG d   1       9.994  -1.852  -7.703  0.00  0.00     0.067 C 
ATOM     28  C   LIG d   1       8.811  -2.769  -7.846  0.00  0.00    -0.054 C 
ATOM     29  C   LIG d   1       8.187  -3.218  -6.776  0.00  0.00    -0.023 C 
ATOM     30  C   LIG d   1       6.884  -3.910  -6.954  0.00  0.00    -0.010 C 
ATOM     31  O   LIG d   1       6.042  -5.611  -5.446  0.00  0.00    -0.775 OA
ATOM     32  H   LIG d   1       3.472  -1.067  -1.042  0.00  0.00     0.062 H 
ATOM     33  H   LIG d   1       4.254   1.237  -1.070  0.00  0.00     0.062 H 
ATOM     34  H   LIG d   1       5.912   2.011  -2.727  0.00  0.00     0.064 H 
ATOM     35  H   LIG d   1       4.272  -2.706  -2.725  0.00  0.00     0.062 H 
ATOM     36  H   LIG d   1       5.210  -1.658  -6.853  0.00  0.00     0.033 H 
ATOM     37  H   LIG d   1       4.023  -1.635  -5.514  0.00  0.00     0.033 H 
ATOM     38  H   LIG d   1       4.418  -3.875  -7.060  0.00  0.00     0.081 H 
ATOM     39  H   LIG d   1       4.008  -3.995  -5.320  0.00  0.00     0.081 H 
ATOM     40  H   LIG d   1       8.212  -4.689  -4.393  0.00  0.00     0.033 H 
ATOM     41  H   LIG d   1       8.274  -3.235  -3.361  0.00  0.00     0.033 H 
ATOM     42  H   LIG d   1      10.006   1.299  -4.678  0.00  0.00     0.038 H 
ATOM     43  H   LIG d   1       9.365   1.625  -6.292  0.00  0.00     0.038 H 
ATOM     44  H   LIG d   1      10.703  -2.275  -6.991  0.00  0.00     0.060 H 
ATOM     45  H   LIG d   1      10.478  -1.725  -8.671  0.00  0.00     0.060 H 
ATOM     46  H   LIG d   1       8.471  -3.059  -8.828  0.00  0.00     0.060 H 
ATOM     47  H   LIG d   1       7.076  -4.860  -7.453  0.00  0.00     0.086 H 
ATOM     48  H   LIG d   1       6.275  -3.303  -7.626  0.00  0.00     0.086 H 
ENDROOT
TORSDOF 0
ENDMDL
MODEL 3
REMARK VINA RESULT:      -6.9      1.561      4.666
REMARK  0 active torsions:
REMARK  status: ('A' for Active; 'I' for Inactive)
ROOT
ATOM      1  C   LIG d   1       4.762   0.657  -1.901  0.00  0.00    -0.061 A 
ATOM      2  C   LIG d   1       3.540   0.986  -2.453  0.00  0.00    -0.060 A 
ATOM      3  C   LIG d   1       3.217   0.663  -3.760  0.00  0.00    -0.040 A 
ATOM      4  C   LIG d   1       4.178  -0.021  -4.513  0.00  0.00     0.041 A 
ATOM      5  C   LIG d   1       5.399  -0.380  -3.928  0.00  0.00    -0.013 A 
ATOM      6  C   LIG d   1       5.721  -0.036  -2.630  0.00  0.00    -0.056 A 
ATOM      7  C   LIG d   1       6.164  -1.216  -4.914  0.00  0.00     0.064 C 
ATOM      8  C   LIG d   1       6.103  -2.691  -4.386  0.00  0.00     0.004 C 
ATOM      9  C   LIG d   1       7.578  -3.059  -4.105  0.00  0.00    -0.031 C 
ATOM     10  N   LIG d   1       8.340  -2.212  -5.080  0.00  0.00     0.223 N 
ATOM     11  C   LIG d   1       7.634  -0.912  -4.983  0.00  0.00    -0.009 C 
ATOM     12  H   LIG d   1       7.916  -0.450  -4.036  0.00  0.00     0.086 H 
ATOM     13  C   LIG d   1       8.100  -0.008  -6.104  0.00  0.00    -0.002 C 
ATOM     14  C   LIG d   1       7.457  -0.515  -7.410  0.00  0.00    -0.003 C 
ATOM     15  H   LIG d   1       7.870   0.002  -8.276  0.00  0.00     0.035 H 
ATOM     16  C   LIG d   1       5.980  -0.224  -7.258  0.00  0.00     0.013 C 
ATOM     17  H   LIG d   1       5.901   0.794  -6.876  0.00  0.00     0.035 H 
ATOM     18  C   LIG d   1       5.361  -1.131  -6.195  0.00  0.00     0.052 C 
ATOM     19  H   LIG d   1       5.115  -2.112  -6.601  0.00  0.00     0.052 H 
ATOM     20  N   LIG d   1       4.137  -0.350  -5.849  0.00  0.00    -0.267 N 
ATOM     21  C   LIG d   1       3.272  -0.024  -6.828  0.00  0.00     0.223 C 
ATOM     22  O   LIG d   1       2.112   0.181  -6.541  0.00  0.00    -0.275 OA
ATOM     23  C   LIG d   1       3.697   0.092  -8.260  0.00  0.00     0.051 C 
ATOM     24  C   LIG d   1       5.156  -0.261  -8.520  0.00  0.00     0.072 C 
ATOM     25  H   LIG d   1       5.549   0.505  -9.190  0.00  0.00     0.060 H 
ATOM     26  O   LIG d   1       5.259  -1.512  -9.193  0.00  0.00    -0.372 OA
ATOM     27  C   LIG d   1       6.569  -1.823  -9.676  0.00  0.00     0.067 C 
ATOM     28  C   LIG d   1       7.296  -2.598  -8.613  0.00  0.00    -0.054 C 
ATOM     29  C   LIG d   1       7.672  -2.004  -7.500  0.00  0.00    -0.023 C 
ATOM     30  C   LIG d   1       8.158  -2.847  -6.376  0.00  0.00    -0.010 C 
ATOM     31  O   LIG d   1       9.750  -2.091  -4.711  0.00  0.00    -0.775 OA
ATOM     32  H   LIG d   1       4.977   0.945  -0.883  0.00  0.00     0.062 H 
ATOM     33  H   LIG d   1       2.815   1.508  -1.847  0.00  0.00     0.062 H 
ATOM     34  H   LIG d   1       2.258   0.926  -4.181  0.00  0.00     0.064 H 
ATOM     35  H   LIG d   1       6.677  -0.293  -2.200  0.00  0.00     0.062 H 
ATOM     36  H   LIG d   1       5.685  -3.351  -5.146  0.00  0.00     0.033 H 
ATOM     37  H   LIG d   1       5.516  -2.748  -3.470  0.00  0.00     0.033 H 
ATOM     38  H   LIG d   1       7.754  -4.117  -4.298  0.00  0.00     0.081 H 
ATOM     39  H   LIG d   1       7.852  -2.805  -3.082  0.00  0.00     0.081 H 
ATOM     40  H   LIG d   1       9.186  -0.048  -6.186  0.00  0.00     0.033 H 
ATOM     41  H   LIG d   1       7.782   1.017  -5.910  0.00  0.00     0.033 H 
ATOM     42  H   LIG d   1       3.527   1.117  -8.589  0.00  0.00     0.038 H 
ATOM     43  H   LIG d   1       3.071  -0.570  -8.859  0.00  0.00     0.038 H 
ATOM     44  H   LIG d   1       7.110  -0.900  -9.893  0.00  0.00     0.060 H 
ATOM     45  H   LIG d   1       6.494  -2.425 -10.582  0.00  0.00     0.060 H 
ATOM     46  H   LIG d   1       7.510  -3.646  -8.763  0.00  0.00     0.060 H 
ATOM     47  H   LIG d   1       9.114  -3.279  -6.672  0.00  0.00     0.086 H 
ATOM     48  H   LIG d   1       7.452  -3.669  -6.248  0.00  0.00     0.086 H 
ENDROOT
TORSDOF 0
ENDMDL
MODEL 4
REMARK VINA RESULT:      -6.8      2.747      6.065
REMARK  0 active torsions:
REMARK  status: ('A' for Active; 'I' for Inactive)
ROOT
ATOM      1  C   LIG d   1       5.190  -1.389  -4.296  0.00  0.00    -0.061 A 
ATOM      2  C   LIG d   1       5.055  -2.761  -4.360  0.00  0.00    -0.060 A 
ATOM      3  C   LIG d   1       4.750  -3.412  -5.543  0.00  0.00    -0.040 A 
ATOM      4  C   LIG d   1       4.587  -2.627  -6.690  0.00  0.00     0.041 A 
ATOM      5  C   LIG d   1       4.765  -1.240  -6.618  0.00  0.00    -0.013 A 
ATOM      6  C   LIG d   1       5.048  -0.596  -5.429  0.00  0.00    -0.056 A 
ATOM      7  C   LIG d   1       4.669  -0.681  -8.009  0.00  0.00     0.064 C 
ATOM      8  C   LIG d   1       6.129  -0.294  -8.433  0.00  0.00     0.004 C 
ATOM      9  C   LIG d   1       6.073   1.234  -8.648  0.00  0.00    -0.031 C 
ATOM     10  N   LIG d   1       4.650   1.477  -9.054  0.00  0.00     0.223 N 
ATOM     11  C   LIG d   1       3.904   0.608  -8.114  0.00  0.00    -0.009 C 
ATOM     12  H   LIG d   1       3.927   1.081  -7.132  0.00  0.00     0.086 H 
ATOM     13  C   LIG d   1       2.459   0.519  -8.557  0.00  0.00    -0.002 C 
ATOM     14  C   LIG d   1       2.408  -0.395  -9.798  0.00  0.00    -0.003 C 
ATOM     15  H   LIG d   1       1.419  -0.381 -10.254  0.00  0.00     0.035 H 
ATOM     16  C   LIG d   1       2.747  -1.777  -9.280  0.00  0.00     0.013 C 
ATOM     17  H   LIG d   1       2.161  -1.921  -8.373  0.00  0.00     0.035 H 
ATOM     18  C   LIG d   1       4.214  -1.848  -8.861  0.00  0.00     0.052 C 
ATOM     19  H   LIG d   1       4.867  -2.020  -9.717  0.00  0.00     0.052 H 
ATOM     20  N   LIG d   1       4.180  -3.025  -7.944  0.00  0.00    -0.267 N 
ATOM     21  C   LIG d   1       3.709  -4.198  -8.404  0.00  0.00     0.223 C 
ATOM     22  O   LIG d   1       4.079  -5.226  -7.878  0.00  0.00    -0.275 OA
ATOM     23  C   LIG d   1       2.744  -4.275  -9.548  0.00  0.00     0.051 C 
ATOM     24  C   LIG d   1       2.405  -2.934 -10.185  0.00  0.00     0.072 C 
ATOM     25  H   LIG d   1       1.325  -2.923 -10.336  0.00  0.00     0.060 H 
ATOM     26  O   LIG d   1       3.019  -2.815 -11.465  0.00  0.00    -0.372 OA
ATOM     27  C   LIG d   1       2.582  -1.690 -12.233  0.00  0.00     0.067 C 
ATOM     28  C   LIG d   1       3.498  -0.533 -11.944  0.00  0.00    -0.054 C 
ATOM     29  C   LIG d   1       3.471   0.056 -10.766  0.00  0.00    -0.023 C 
ATOM     30  C   LIG d   1       4.552   1.020 -10.431  0.00  0.00    -0.010 C 
ATOM     31  O   LIG d   1       4.273   2.883  -8.905  0.00  0.00    -0.775 OA
ATOM     32  H   LIG d   1       5.411  -0.922  -3.348  0.00  0.00     0.062 H 
ATOM     33  H   LIG d   1       5.191  -3.343  -3.461  0.00  0.00     0.062 H 
ATOM     34  H   LIG d   1       4.646  -4.487  -5.580  0.00  0.00     0.064 H 
ATOM     35  H   LIG d   1       5.153   0.477  -5.381  0.00  0.00     0.062 H 
ATOM     36  H   LIG d   1       6.403  -0.799  -9.359  0.00  0.00     0.033 H 
ATOM     37  H   LIG d   1       6.837  -0.542  -7.643  0.00  0.00     0.033 H 
ATOM     38  H   LIG d   1       6.754   1.536  -9.443  0.00  0.00     0.081 H 
ATOM     39  H   LIG d   1       6.303   1.764  -7.724  0.00  0.00     0.081 H 
ATOM     40  H   LIG d   1       2.089   1.511  -8.813  0.00  0.00     0.033 H 
ATOM     41  H   LIG d   1       1.852   0.091  -7.759  0.00  0.00     0.033 H 
ATOM     42  H   LIG d   1       1.820  -4.730  -9.190  0.00  0.00     0.038 H 
ATOM     43  H   LIG d   1       3.171  -4.922 -10.315  0.00  0.00     0.038 H 
ATOM     44  H   LIG d   1       1.561  -1.428 -11.954  0.00  0.00     0.060 H 
ATOM     45  H   LIG d   1       2.622  -1.932 -13.295  0.00  0.00     0.060 H 
ATOM     46  H   LIG d   1       4.181  -0.185 -12.704  0.00  0.00     0.060 H 
ATOM     47  H   LIG d   1       4.425   1.897 -11.065  0.00  0.00     0.086 H 
ATOM     48  H   LIG d   1       5.504   0.558 -10.697  0.00  0.00     0.086 H 
ENDROOT
TORSDOF 0
ENDMDL
MODEL 5
REMARK VINA RESULT:      -6.7     10.396     12.078
REMARK  0 active torsions:
REMARK  status: ('A' for Active; 'I' for Inactive)
ROOT
ATOM      1  C   LIG d   1       9.543   6.331  -5.733  0.00  0.00    -0.061 A 
ATOM      2  C   LIG d   1       9.545   7.413  -6.589  0.00  0.00    -0.060 A 
ATOM      3  C   LIG d   1       9.801   8.699  -6.143  0.00  0.00    -0.040 A 
ATOM      4  C   LIG d   1      10.068   8.869  -4.780  0.00  0.00     0.041 A 
ATOM      5  C   LIG d   1      10.099   7.757  -3.930  0.00  0.00    -0.013 A 
ATOM      6  C   LIG d   1       9.821   6.481  -4.379  0.00  0.00    -0.056 A 
ATOM      7  C   LIG d   1      10.543   8.217  -2.570  0.00  0.00     0.064 C 
ATOM      8  C   LIG d   1      12.016   7.709  -2.390  0.00  0.00     0.004 C 
ATOM      9  C   LIG d   1      11.942   6.743  -1.186  0.00  0.00    -0.031 C 
ATOM     10  N   LIG d   1      10.798   7.279  -0.378  0.00  0.00     0.223 N 
ATOM     11  C   LIG d   1       9.797   7.594  -1.425  0.00  0.00    -0.009 C 
ATOM     12  H   LIG d   1       9.381   6.651  -1.782  0.00  0.00     0.086 H 
ATOM     13  C   LIG d   1       8.673   8.401  -0.812  0.00  0.00    -0.002 C 
ATOM     14  C   LIG d   1       9.203   9.829  -0.571  0.00  0.00    -0.003 C 
ATOM     15  H   LIG d   1       8.490  10.418   0.005  0.00  0.00     0.035 H 
ATOM     16  C   LIG d   1       9.398  10.412  -1.954  0.00  0.00     0.013 C 
ATOM     17  H   LIG d   1       8.503  10.165  -2.525  0.00  0.00     0.035 H 
ATOM     18  C   LIG d   1      10.565   9.729  -2.665  0.00  0.00     0.052 C 
ATOM     19  H   LIG d   1      11.522  10.153  -2.362  0.00  0.00     0.052 H 
ATOM     20  N   LIG d   1      10.242  10.046  -4.087  0.00  0.00    -0.267 N 
ATOM     21  C   LIG d   1      10.089  11.332  -4.450  0.00  0.00     0.223 C 
ATOM     22  O   LIG d   1      10.283  11.643  -5.606  0.00  0.00    -0.275 OA
ATOM     23  C   LIG d   1       9.687  12.394  -3.472  0.00  0.00     0.051 C 
ATOM     24  C   LIG d   1       9.543  11.911  -2.034  0.00  0.00     0.072 C 
ATOM     25  H   LIG d   1       8.623  12.350  -1.647  0.00  0.00     0.060 H 
ATOM     26  O   LIG d   1      10.618  12.391  -1.233  0.00  0.00    -0.372 OA
ATOM     27  C   LIG d   1      10.455  12.177   0.173  0.00  0.00     0.067 C 
ATOM     28  C   LIG d   1      11.085  10.859   0.528  0.00  0.00    -0.054 C 
ATOM     29  C   LIG d   1      10.534   9.731   0.129  0.00  0.00    -0.023 C 
ATOM     30  C   LIG d   1      11.309   8.472   0.280  0.00  0.00    -0.010 C 
ATOM     31  O   LIG d   1      10.293   6.290   0.574  0.00  0.00    -0.775 OA
ATOM     32  H   LIG d   1       9.319   5.348  -6.121  0.00  0.00     0.062 H 
ATOM     33  H   LIG d   1       9.342   7.252  -7.637  0.00  0.00     0.062 H 
ATOM     34  H   LIG d   1       9.800   9.538  -6.824  0.00  0.00     0.064 H 
ATOM     35  H   LIG d   1       9.819   5.635  -3.707  0.00  0.00     0.062 H 
ATOM     36  H   LIG d   1      12.682   8.542  -2.168  0.00  0.00     0.033 H 
ATOM     37  H   LIG d   1      12.353   7.181  -3.281  0.00  0.00     0.033 H 
ATOM     38  H   LIG d   1      12.866   6.776  -0.609  0.00  0.00     0.081 H 
ATOM     39  H   LIG d   1      11.734   5.726  -1.518  0.00  0.00     0.081 H 
ATOM     40  H   LIG d   1       8.369   7.954   0.134  0.00  0.00     0.033 H 
ATOM     41  H   LIG d   1       7.824   8.433  -1.496  0.00  0.00     0.033 H 
ATOM     42  H   LIG d   1       8.734  12.815  -3.790  0.00  0.00     0.038 H 
ATOM     43  H   LIG d   1      10.437  13.185  -3.496  0.00  0.00     0.038 H 
ATOM     44  H   LIG d   1       9.394  12.156   0.421  0.00  0.00     0.060 H 
ATOM     45  H   LIG d   1      10.946  12.978   0.726  0.00  0.00     0.060 H 
ATOM     46  H   LIG d   1      11.993  10.836   1.113  0.00  0.00     0.060 H 
ATOM     47  H   LIG d   1      11.390   8.255   1.345  0.00  0.00     0.086 H 
ATOM     48  H   LIG d   1      12.316   8.654  -0.096  0.00  0.00     0.086 H 
ENDROOT
TORSDOF 0
ENDMDL
MODEL 6
REMARK VINA RESULT:      -6.7      8.907     10.558
REMARK  0 active torsions:
REMARK  status: ('A' for Active; 'I' for Inactive)
ROOT
ATOM      1  C   LIG d   1       9.690   7.459  -7.388  0.00  0.00    -0.061 A 
ATOM      2  C   LIG d   1       9.269   8.731  -7.057  0.00  0.00    -0.060 A 
ATOM      3  C   LIG d   1       9.430   9.248  -5.782  0.00  0.00    -0.040 A 
ATOM      4  C   LIG d   1      10.048   8.432  -4.828  0.00  0.00     0.041 A 
ATOM      5  C   LIG d   1      10.505   7.158  -5.188  0.00  0.00    -0.013 A 
ATOM      6  C   LIG d   1      10.320   6.643  -6.456  0.00  0.00    -0.056 A 
ATOM      7  C   LIG d   1      11.241   6.575  -4.015  0.00  0.00     0.064 C 
ATOM      8  C   LIG d   1      12.766   6.624  -4.382  0.00  0.00     0.004 C 
ATOM      9  C   LIG d   1      13.201   5.141  -4.405  0.00  0.00    -0.031 C 
ATOM     10  N   LIG d   1      12.269   4.489  -3.429  0.00  0.00     0.223 N 
ATOM     11  C   LIG d   1      10.971   5.118  -3.769  0.00  0.00    -0.009 C 
ATOM     12  H   LIG d   1      10.628   4.687  -4.710  0.00  0.00     0.086 H 
ATOM     13  C   LIG d   1       9.956   4.776  -2.699  0.00  0.00    -0.002 C 
ATOM     14  C   LIG d   1      10.293   5.617  -1.452  0.00  0.00    -0.003 C 
ATOM     15  H   LIG d   1       9.691   5.308  -0.597  0.00  0.00     0.035 H 
ATOM     16  C   LIG d   1       9.982   7.044  -1.847  0.00  0.00     0.013 C 
ATOM     17  H   LIG d   1       9.013   7.025  -2.345  0.00  0.00     0.035 H 
ATOM     18  C   LIG d   1      10.989   7.546  -2.881  0.00  0.00     0.052 C 
ATOM     19  H   LIG d   1      11.910   7.888  -2.410  0.00  0.00     0.052 H 
ATOM     20  N   LIG d   1      10.221   8.675  -3.484  0.00  0.00    -0.267 N 
ATOM     21  C   LIG d   1       9.762   9.654  -2.683  0.00  0.00     0.223 C 
ATOM     22  O   LIG d   1       9.561  10.752  -3.154  0.00  0.00    -0.275 OA
ATOM     23  C   LIG d   1       9.494   9.430  -1.225  0.00  0.00     0.051 C 
ATOM     24  C   LIG d   1       9.852   8.038  -0.720  0.00  0.00     0.072 C 
ATOM     25  H   LIG d   1       9.025   7.711  -0.089  0.00  0.00     0.060 H 
ATOM     26  O   LIG d   1      11.020   8.084   0.094  0.00  0.00    -0.372 OA
ATOM     27  C   LIG d   1      11.308   6.869   0.793  0.00  0.00     0.067 C 
ATOM     28  C   LIG d   1      12.219   6.034  -0.063  0.00  0.00    -0.054 C 
ATOM     29  C   LIG d   1      11.767   5.480  -1.169  0.00  0.00    -0.023 C 
ATOM     30  C   LIG d   1      12.746   4.878  -2.111  0.00  0.00    -0.010 C 
ATOM     31  O   LIG d   1      12.228   3.037  -3.601  0.00  0.00    -0.775 OA
ATOM     32  H   LIG d   1       9.527   7.091  -8.389  0.00  0.00     0.062 H 
ATOM     33  H   LIG d   1       8.800   9.341  -7.815  0.00  0.00     0.062 H 
ATOM     34  H   LIG d   1       9.095  10.245  -5.536  0.00  0.00     0.064 H 
ATOM     35  H   LIG d   1      10.650   5.647  -6.712  0.00  0.00     0.062 H 
ATOM     36  H   LIG d   1      13.323   7.172  -3.622  0.00  0.00     0.033 H 
ATOM     37  H   LIG d   1      12.912   7.078  -5.361  0.00  0.00     0.033 H 
ATOM     38  H   LIG d   1      14.235   5.039  -4.074  0.00  0.00     0.081 H 
ATOM     39  H   LIG d   1      13.074   4.716  -5.399  0.00  0.00     0.081 H 
ATOM     40  H   LIG d   1      10.016   3.715  -2.457  0.00  0.00     0.033 H 
ATOM     41  H   LIG d   1       8.952   5.020  -3.048  0.00  0.00     0.033 H 
ATOM     42  H   LIG d   1       8.434   9.601  -1.039  0.00  0.00     0.038 H 
ATOM     43  H   LIG d   1      10.065  10.162  -0.654  0.00  0.00     0.038 H 
ATOM     44  H   LIG d   1      10.381   6.326   0.982  0.00  0.00     0.060 H 
ATOM     45  H   LIG d   1      11.800   7.097   1.738  0.00  0.00     0.060 H 
ATOM     46  H   LIG d   1      13.248   5.888   0.231  0.00  0.00     0.060 H 
ATOM     47  H   LIG d   1      13.166   3.992  -1.634  0.00  0.00     0.086 H 
ATOM     48  H   LIG d   1      13.559   5.593  -2.248  0.00  0.00     0.086 H 
ENDROOT
TORSDOF 0
ENDMDL
MODEL 7
REMARK VINA RESULT:      -6.6      1.873      2.815
REMARK  0 active torsions:
REMARK  status: ('A' for Active; 'I' for Inactive)
ROOT
ATOM      1  C   LIG d   1       2.503  -2.059 -10.150  0.00  0.00    -0.061 A 
ATOM      2  C   LIG d   1       1.851  -0.920  -9.725  0.00  0.00    -0.060 A 
ATOM      3  C   LIG d   1       2.183  -0.284  -8.540  0.00  0.00    -0.040 A 
ATOM      4  C   LIG d   1       3.221  -0.835  -7.780  0.00  0.00     0.041 A 
ATOM      5  C   LIG d   1       3.899  -1.970  -8.243  0.00  0.00    -0.013 A 
ATOM      6  C   LIG d   1       3.546  -2.610  -9.414  0.00  0.00    -0.056 A 
ATOM      7  C   LIG d   1       5.039  -2.250  -7.305  0.00  0.00     0.064 C 
ATOM      8  C   LIG d   1       6.348  -1.834  -8.062  0.00  0.00     0.004 C 
ATOM      9  C   LIG d   1       7.149  -3.148  -8.193  0.00  0.00    -0.031 C 
ATOM     10  N   LIG d   1       6.708  -3.945  -7.002  0.00  0.00     0.223 N 
ATOM     11  C   LIG d   1       5.246  -3.705  -6.989  0.00  0.00    -0.009 C 
ATOM     12  H   LIG d   1       4.806  -4.280  -7.804  0.00  0.00     0.086 H 
ATOM     13  C   LIG d   1       4.668  -4.217  -5.687  0.00  0.00    -0.002 C 
ATOM     14  C   LIG d   1       5.069  -3.225  -4.577  0.00  0.00    -0.003 C 
ATOM     15  H   LIG d   1       4.811  -3.615  -3.593  0.00  0.00     0.035 H 
ATOM     16  C   LIG d   1       4.293  -1.962  -4.882  0.00  0.00     0.013 C 
ATOM     17  H   LIG d   1       3.272  -2.271  -5.106  0.00  0.00     0.035 H 
ATOM     18  C   LIG d   1       4.828  -1.296  -6.148  0.00  0.00     0.052 C 
ATOM     19  H   LIG d   1       5.711  -0.690  -5.939  0.00  0.00     0.052 H 
ATOM     20  N   LIG d   1       3.656  -0.454  -6.531  0.00  0.00    -0.267 N 
ATOM     21  C   LIG d   1       3.168   0.428  -5.641  0.00  0.00     0.223 C 
ATOM     22  O   LIG d   1       2.563   1.398  -6.047  0.00  0.00    -0.275 OA
ATOM     23  C   LIG d   1       3.349   0.253  -4.163  0.00  0.00     0.051 C 
ATOM     24  C   LIG d   1       4.188  -0.955  -3.765  0.00  0.00     0.072 C 
ATOM     25  H   LIG d   1       3.669  -1.437  -2.936  0.00  0.00     0.060 H 
ATOM     26  O   LIG d   1       5.466  -0.544  -3.289  0.00  0.00    -0.372 OA
ATOM     27  C   LIG d   1       6.240  -1.585  -2.687  0.00  0.00     0.067 C 
ATOM     28  C   LIG d   1       7.096  -2.217  -3.749  0.00  0.00    -0.054 C 
ATOM     29  C   LIG d   1       6.546  -2.951  -4.694  0.00  0.00    -0.023 C 
ATOM     30  C   LIG d   1       7.380  -3.347  -5.859  0.00  0.00    -0.010 C 
ATOM     31  O   LIG d   1       7.021  -5.366  -7.152  0.00  0.00    -0.775 OA
ATOM     32  H   LIG d   1       2.198  -2.532 -11.071  0.00  0.00     0.062 H 
ATOM     33  H   LIG d   1       1.058  -0.512 -10.334  0.00  0.00     0.062 H 
ATOM     34  H   LIG d   1       1.664   0.607  -8.218  0.00  0.00     0.064 H 
ATOM     35  H   LIG d   1       4.058  -3.502  -9.745  0.00  0.00     0.062 H 
ATOM     36  H   LIG d   1       6.909  -1.103  -7.479  0.00  0.00     0.033 H 
ATOM     37  H   LIG d   1       6.112  -1.432  -9.047  0.00  0.00     0.033 H 
ATOM     38  H   LIG d   1       8.220  -2.952  -8.147  0.00  0.00     0.081 H 
ATOM     39  H   LIG d   1       6.894  -3.666  -9.117  0.00  0.00     0.081 H 
ATOM     40  H   LIG d   1       5.073  -5.204  -5.466  0.00  0.00     0.033 H 
ATOM     41  H   LIG d   1       3.581  -4.270  -5.760  0.00  0.00     0.033 H 
ATOM     42  H   LIG d   1       2.366   0.155  -3.704  0.00  0.00     0.038 H 
ATOM     43  H   LIG d   1       3.826   1.150  -3.767  0.00  0.00     0.038 H 
ATOM     44  H   LIG d   1       5.576  -2.335  -2.256  0.00  0.00     0.060 H 
ATOM     45  H   LIG d   1       6.875  -1.167  -1.906  0.00  0.00     0.060 H 
ATOM     46  H   LIG d   1       8.165  -2.067  -3.738  0.00  0.00     0.060 H 
ATOM     47  H   LIG d   1       8.131  -4.054  -5.507  0.00  0.00     0.086 H 
ATOM     48  H   LIG d   1       7.905  -2.457  -6.210  0.00  0.00     0.086 H 
ENDROOT
TORSDOF 0
ENDMDL
MODEL 8
REMARK VINA RESULT:      -6.4      2.394      4.423
REMARK  0 active torsions:
REMARK  status: ('A' for Active; 'I' for Inactive)
ROOT
ATOM      1  C   LIG d   1       4.692   1.942  -9.406  0.00  0.00    -0.061 A 
ATOM      2  C   LIG d   1       3.739   1.480 -10.290  0.00  0.00    -0.060 A 
ATOM      3  C   LIG d   1       3.175   0.222 -10.169  0.00  0.00    -0.040 A 
ATOM      4  C   LIG d   1       3.602  -0.577  -9.102  0.00  0.00     0.041 A 
ATOM      5  C   LIG d   1       4.542  -0.081  -8.190  0.00  0.00    -0.013 A 
ATOM      6  C   LIG d   1       5.115   1.167  -8.332  0.00  0.00    -0.056 A 
ATOM      7  C   LIG d   1       4.704  -1.089  -7.088  0.00  0.00     0.064 C 
ATOM      8  C   LIG d   1       3.982  -0.488  -5.831  0.00  0.00     0.004 C 
ATOM      9  C   LIG d   1       5.109  -0.317  -4.788  0.00  0.00    -0.031 C 
ATOM     10  N   LIG d   1       6.089  -1.391  -5.153  0.00  0.00     0.223 N 
ATOM     11  C   LIG d   1       6.121  -1.296  -6.632  0.00  0.00    -0.009 C 
ATOM     12  H   LIG d   1       6.681  -0.399  -6.896  0.00  0.00     0.086 H 
ATOM     13  C   LIG d   1       6.858  -2.493  -7.193  0.00  0.00    -0.002 C 
ATOM     14  C   LIG d   1       5.926  -3.715  -7.066  0.00  0.00    -0.003 C 
ATOM     15  H   LIG d   1       6.453  -4.636  -7.315  0.00  0.00     0.035 H 
ATOM     16  C   LIG d   1       4.801  -3.452  -8.044  0.00  0.00     0.013 C 
ATOM     17  H   LIG d   1       5.266  -3.113  -8.970  0.00  0.00     0.035 H 
ATOM     18  C   LIG d   1       3.924  -2.300  -7.556  0.00  0.00     0.052 C 
ATOM     19  H   LIG d   1       3.193  -2.636  -6.821  0.00  0.00     0.052 H 
ATOM     20  N   LIG d   1       3.276  -1.888  -8.836  0.00  0.00    -0.267 N 
ATOM     21  C   LIG d   1       2.591  -2.804  -9.544  0.00  0.00     0.223 C 
ATOM     22  O   LIG d   1       1.712  -2.430 -10.291  0.00  0.00    -0.275 OA
ATOM     23  C   LIG d   1       2.878  -4.271  -9.439  0.00  0.00     0.051 C 
ATOM     24  C   LIG d   1       3.947  -4.637  -8.417  0.00  0.00     0.072 C 
ATOM     25  H   LIG d   1       4.596  -5.372  -8.893  0.00  0.00     0.060 H 
ATOM     26  O   LIG d   1       3.360  -5.257  -7.276  0.00  0.00    -0.372 OA
ATOM     27  C   LIG d   1       4.299  -5.834  -6.363  0.00  0.00     0.067 C 
ATOM     28  C   LIG d   1       4.654  -4.801  -5.331  0.00  0.00    -0.054 C 
ATOM     29  C   LIG d   1       5.377  -3.752  -5.663  0.00  0.00    -0.023 C 
ATOM     30  C   LIG d   1       5.496  -2.636  -4.689  0.00  0.00    -0.010 C 
ATOM     31  O   LIG d   1       7.407  -1.149  -4.567  0.00  0.00    -0.775 OA
ATOM     32  H   LIG d   1       5.117   2.924  -9.550  0.00  0.00     0.062 H 
ATOM     33  H   LIG d   1       3.423   2.120 -11.101  0.00  0.00     0.062 H 
ATOM     34  H   LIG d   1       2.430  -0.128 -10.868  0.00  0.00     0.064 H 
ATOM     35  H   LIG d   1       5.861   1.526  -7.639  0.00  0.00     0.062 H 
ATOM     36  H   LIG d   1       3.224  -1.179  -5.461  0.00  0.00     0.033 H 
ATOM     37  H   LIG d   1       3.534   0.476  -6.068  0.00  0.00     0.033 H 
ATOM     38  H   LIG d   1       4.727  -0.474  -3.779  0.00  0.00     0.081 H 
ATOM     39  H   LIG d   1       5.570   0.667  -4.874  0.00  0.00     0.081 H 
ATOM     40  H   LIG d   1       7.772  -2.664  -6.625  0.00  0.00     0.033 H 
ATOM     41  H   LIG d   1       7.100  -2.321  -8.242  0.00  0.00     0.033 H 
ATOM     42  H   LIG d   1       3.198  -4.632 -10.416  0.00  0.00     0.038 H 
ATOM     43  H   LIG d   1       1.954  -4.783  -9.169  0.00  0.00     0.038 H 
ATOM     44  H   LIG d   1       5.196  -6.139  -6.903  0.00  0.00     0.060 H 
ATOM     45  H   LIG d   1       3.852  -6.701  -5.876  0.00  0.00     0.060 H 
ATOM     46  H   LIG d   1       4.314  -4.919  -4.313  0.00  0.00     0.060 H 
ATOM     47  H   LIG d   1       6.087  -2.991  -3.845  0.00  0.00     0.086 H 
ATOM     48  H   LIG d   1       4.495  -2.411  -4.318  0.00  0.00     0.086 H 
ENDROOT
TORSDOF 0
ENDMDL
MODEL 9
REMARK VINA RESULT:      -6.3      8.830     10.407
REMARK  0 active torsions:
REMARK  status: ('A' for Active; 'I' for Inactive)
ROOT
ATOM      1  C   LIG d   1       9.516   2.692  -3.559  0.00  0.00    -0.061 A 
ATOM      2  C   LIG d   1       9.206   3.041  -4.858  0.00  0.00    -0.060 A 
ATOM      3  C   LIG d   1       9.442   4.313  -5.350  0.00  0.00    -0.040 A 
ATOM      4  C   LIG d   1      10.018   5.246  -4.481  0.00  0.00     0.041 A 
ATOM      5  C   LIG d   1      10.362   4.867  -3.177  0.00  0.00    -0.013 A 
ATOM      6  C   LIG d   1      10.103   3.602  -2.687  0.00  0.00    -0.056 A 
ATOM      7  C   LIG d   1      11.080   6.016  -2.528  0.00  0.00     0.064 C 
ATOM      8  C   LIG d   1      12.594   5.609  -2.458  0.00  0.00     0.004 C 
ATOM      9  C   LIG d   1      12.909   5.566  -0.946  0.00  0.00    -0.031 C 
ATOM     10  N   LIG d   1      11.953   6.563  -0.363  0.00  0.00     0.223 N 
ATOM     11  C   LIG d   1      10.701   6.262  -1.095  0.00  0.00    -0.009 C 
ATOM     12  H   LIG d   1      10.300   5.328  -0.700  0.00  0.00     0.086 H 
ATOM     13  C   LIG d   1       9.691   7.357  -0.827  0.00  0.00    -0.002 C 
ATOM     14  C   LIG d   1      10.128   8.599  -1.630  0.00  0.00    -0.003 C 
ATOM     15  H   LIG d   1       9.526   9.468  -1.363  0.00  0.00     0.035 H 
ATOM     16  C   LIG d   1       9.921   8.221  -3.080  0.00  0.00     0.013 C 
ATOM     17  H   LIG d   1       8.941   7.749  -3.142  0.00  0.00     0.035 H 
ATOM     18  C   LIG d   1      10.936   7.162  -3.508  0.00  0.00     0.052 C 
ATOM     19  H   LIG d   1      11.895   7.610  -3.772  0.00  0.00     0.052 H 
ATOM     20  N   LIG d   1      10.246   6.586  -4.699  0.00  0.00    -0.267 N 
ATOM     21  C   LIG d   1       9.888   7.405  -5.705  0.00  0.00     0.223 C 
ATOM     22  O   LIG d   1       9.763   6.945  -6.820  0.00  0.00    -0.275 OA
ATOM     23  C   LIG d   1       9.641   8.868  -5.492  0.00  0.00     0.051 C 
ATOM     24  C   LIG d   1       9.901   9.356  -4.073  0.00  0.00     0.072 C 
ATOM     25  H   LIG d   1       9.067  10.007  -3.808  0.00  0.00     0.060 H 
ATOM     26  O   LIG d   1      11.090  10.138  -4.020  0.00  0.00    -0.372 OA
ATOM     27  C   LIG d   1      11.298  10.822  -2.780  0.00  0.00     0.067 C 
ATOM     28  C   LIG d   1      12.117   9.938  -1.881  0.00  0.00    -0.054 C 
ATOM     29  C   LIG d   1      11.593   8.842  -1.374  0.00  0.00    -0.023 C 
ATOM     30  C   LIG d   1      12.495   7.870  -0.702  0.00  0.00    -0.010 C 
ATOM     31  O   LIG d   1      11.793   6.384   1.080  0.00  0.00    -0.775 OA
ATOM     32  H   LIG d   1       9.297   1.693  -3.212  0.00  0.00     0.062 H 
ATOM     33  H   LIG d   1       8.768   2.299  -5.508  0.00  0.00     0.062 H 
ATOM     34  H   LIG d   1       9.195   4.574  -6.369  0.00  0.00     0.064 H 
ATOM     35  H   LIG d   1      10.345   3.332  -1.670  0.00  0.00     0.062 H 
ATOM     36  H   LIG d   1      13.213   6.356  -2.955  0.00  0.00     0.033 H 
ATOM     37  H   LIG d   1      12.749   4.628  -2.907  0.00  0.00     0.033 H 
ATOM     38  H   LIG d   1      13.939   5.869  -0.760  0.00  0.00     0.081 H 
ATOM     39  H   LIG d   1      12.722   4.573  -0.540  0.00  0.00     0.081 H 
ATOM     40  H   LIG d   1       9.672   7.592   0.237  0.00  0.00     0.033 H 
ATOM     41  H   LIG d   1       8.701   7.037  -1.153  0.00  0.00     0.033 H 
ATOM     42  H   LIG d   1       8.604   9.084  -5.746  0.00  0.00     0.038 H 
ATOM     43  H   LIG d   1      10.284   9.427  -6.172  0.00  0.00     0.038 H 
ATOM     44  H   LIG d   1      10.337  11.034  -2.311  0.00  0.00     0.060 H 
ATOM     45  H   LIG d   1      11.832  11.755  -2.961  0.00  0.00     0.060 H 
ATOM     46  H   LIG d   1      13.138  10.202  -1.652  0.00  0.00     0.060 H 
ATOM     47  H   LIG d   1      12.856   8.330   0.218  0.00  0.00     0.086 H 
ATOM     48  H   LIG d   1      13.358   7.715  -1.351  0.00  0.00     0.086 H 
ENDROOT
TORSDOF 0
ENDMDL
