MODEL 1
REMARK VINA RESULT:      -7.0      0.000      0.000
REMARK  14 active torsions:
REMARK  status: ('A' for Active; 'I' for Inactive)
REMARK    1  A    between atoms: C_3  and  O_37 
REMARK    2  A    between atoms: C_4  and  O_36 
REMARK    3  A    between atoms: C_6  and  C_7 
REMARK    4  A    between atoms: C_7  and  O_9 
REMARK    5  A    between atoms: O_9  and  C_10 
REMARK    6  A    between atoms: C_10  and  C_11 
REMARK    7  A    between atoms: C_13  and  O_35 
REMARK    8  A    between atoms: C_15  and  O_34 
REMARK    9  A    between atoms: C_17  and  O_33 
REMARK   10  A    between atoms: C_19  and  O_22 
REMARK   11  A    between atoms: O_22  and  C_23 
REMARK   12  A    between atoms: C_23  and  C_25 
REMARK   13  A    between atoms: C_28  and  O_32 
REMARK   14  A    between atoms: C_29  and  O_31 
ROOT
ATOM      1  C   LIG d   1       8.052  -4.446  -4.565  0.00  0.00     0.125 C 
ATOM      2  H   LIG d   1       7.459  -4.224  -3.678  0.00  0.00     0.066 H 
ATOM      3  C   LIG d   1       9.312  -3.577  -4.568  0.00  0.00     0.113 C 
ATOM      4  H   LIG d   1       9.883  -3.768  -5.477  0.00  0.00     0.065 H 
ATOM      5  C   LIG d   1      10.164  -3.922  -3.343  0.00  0.00     0.115 C 
ATOM      6  H   LIG d   1       9.610  -3.684  -2.435  0.00  0.00     0.065 H 
ATOM      7  C   LIG d   1      10.490  -5.419  -3.366  0.00  0.00     0.145 C 
ATOM      8  H   LIG d   1      11.086  -5.648  -4.250  0.00  0.00     0.068 H 
ATOM      9  C   LIG d   1       9.184  -6.216  -3.410  0.00  0.00     0.234 C 
ATOM     10  H   LIG d   1       8.607  -6.018  -2.507  0.00  0.00     0.108 H 
ATOM     11  O   LIG d   1       8.425  -5.825  -4.556  0.00  0.00    -0.330 OA
ENDROOT
BRANCH   1  12
ATOM     12  C   LIG d   1       7.224  -4.150  -5.817  0.00  0.00     0.121 C 
ATOM     13  H   LIG d   1       7.884  -4.077  -6.682  0.00  0.00     0.072 H 
ATOM     14  H   LIG d   1       6.506  -4.956  -5.977  0.00  0.00     0.072 H 
BRANCH  12  15
ATOM     15  O   LIG d   1       6.513  -2.897  -5.643  0.00  0.00    -0.459 OA
BRANCH  15  16
ATOM     16  C   LIG d   1       5.459  -2.903  -4.803  0.00  0.00     0.339 C 
ATOM     17  O   LIG d   1       4.666  -3.824  -4.830  0.00  0.00    -0.245 OA
BRANCH  16  18
ATOM     18  C   LIG d   1       5.267  -1.792  -3.853  0.00  0.00     0.063 A 
ATOM     19  C   LIG d   1       4.419  -1.951  -2.753  0.00  0.00    -0.044 A 
ATOM     20  C   LIG d   1       4.245  -0.913  -1.862  0.00  0.00    -0.016 A 
ATOM     21  H   LIG d   1       3.904  -2.887  -2.598  0.00  0.00     0.063 H 
ATOM     22  C   LIG d   1       4.901   0.294  -2.060  0.00  0.00     0.158 A 
ATOM     23  H   LIG d   1       3.592  -1.038  -1.011  0.00  0.00     0.066 H 
ATOM     24  C   LIG d   1       5.745   0.460  -3.159  0.00  0.00     0.159 A 
ATOM     25  C   LIG d   1       5.929  -0.576  -4.051  0.00  0.00    -0.003 A 
ATOM     26  H   LIG d   1       6.582  -0.450  -4.902  0.00  0.00     0.066 H 
BRANCH  22  27
ATOM     27  O   LIG d   1       4.722   1.314  -1.183  0.00  0.00    -0.503 OA
ATOM     28  H   LIG d   1       5.139   1.170  -0.323  0.00  0.00     0.292 HD
ENDBRANCH  22  27
BRANCH  24  29
ATOM     29  O   LIG d   1       6.388   1.644  -3.349  0.00  0.00    -0.503 OA
ATOM     30  H   LIG d   1       7.145   1.588  -3.946  0.00  0.00     0.292 HD
ENDBRANCH  24  29
ENDBRANCH  16  18
ENDBRANCH  15  16
ENDBRANCH  12  15
ENDBRANCH   1  12
BRANCH   3  31
ATOM     31  O   LIG d   1       8.941  -2.198  -4.519  0.00  0.00    -0.386 OA
ATOM     32  H   LIG d   1       8.235  -1.959  -5.135  0.00  0.00     0.210 HD
ENDBRANCH   3  31
BRANCH   9  33
ATOM     33  O   LIG d   1       9.485  -7.635  -3.489  0.00  0.00    -0.429 OA
BRANCH  33  34
ATOM     34  C   LIG d   1       9.102  -8.402  -2.449  0.00  0.00     0.342 C 
ATOM     35  O   LIG d   1       9.805  -8.477  -1.461  0.00  0.00    -0.245 OA
BRANCH  34  36
ATOM     36  C   LIG d   1       7.832  -9.147  -2.510  0.00  0.00     0.063 A 
ATOM     37  C   LIG d   1       7.394  -9.875  -1.400  0.00  0.00    -0.003 A 
ATOM     38  C   LIG d   1       6.203 -10.572  -1.462  0.00  0.00     0.159 A 
ATOM     39  H   LIG d   1       7.985  -9.893  -0.496  0.00  0.00     0.066 H 
ATOM     40  C   LIG d   1       5.441 -10.548  -2.629  0.00  0.00     0.158 A 
ATOM     41  C   LIG d   1       5.876  -9.824  -3.731  0.00  0.00    -0.016 A 
ATOM     42  C   LIG d   1       7.066  -9.132  -3.678  0.00  0.00    -0.044 A 
ATOM     43  H   LIG d   1       5.283  -9.808  -4.634  0.00  0.00     0.066 H 
ATOM     44  H   LIG d   1       7.405  -8.574  -4.539  0.00  0.00     0.063 H 
BRANCH  38  45
ATOM     45  O   LIG d   1       5.773 -11.282  -0.384  0.00  0.00    -0.503 OA
ATOM     46  H   LIG d   1       5.292 -12.088  -0.612  0.00  0.00     0.292 HD
ENDBRANCH  38  45
BRANCH  40  47
ATOM     47  O   LIG d   1       4.270 -11.234  -2.688  0.00  0.00    -0.503 OA
ATOM     48  H   LIG d   1       3.618 -10.848  -3.287  0.00  0.00     0.292 HD
ENDBRANCH  40  47
ENDBRANCH  34  36
ENDBRANCH  33  34
ENDBRANCH   9  33
BRANCH   5  49
ATOM     49  O   LIG d   1      11.376  -3.167  -3.376  0.00  0.00    -0.386 OA
ATOM     50  H   LIG d   1      12.177  -3.709  -3.409  0.00  0.00     0.210 HD
ENDBRANCH   5  49
BRANCH   7  51
ATOM     51  O   LIG d   1      11.223  -5.767  -2.190  0.00  0.00    -0.383 OA
ATOM     52  H   LIG d   1      10.977  -5.256  -1.408  0.00  0.00     0.210 HD
ENDBRANCH   7  51
TORSDOF 14
ENDMDL
MODEL 2
REMARK VINA RESULT:      -7.0      4.448      8.064
REMARK  14 active torsions:
REMARK  status: ('A' for Active; 'I' for Inactive)
REMARK    1  A    between atoms: C_3  and  O_37 
REMARK    2  A    between atoms: C_4  and  O_36 
REMARK    3  A    between atoms: C_6  and  C_7 
REMARK    4  A    between atoms: C_7  and  O_9 
REMARK    5  A    between atoms: O_9  and  C_10 
REMARK    6  A    between atoms: C_10  and  C_11 
REMARK    7  A    between atoms: C_13  and  O_35 
REMARK    8  A    between atoms: C_15  and  O_34 
REMARK    9  A    between atoms: C_17  and  O_33 
REMARK   10  A    between atoms: C_19  and  O_22 
REMARK   11  A    between atoms: O_22  and  C_23 
REMARK   12  A    between atoms: C_23  and  C_25 
REMARK   13  A    between atoms: C_28  and  O_32 
REMARK   14  A    between atoms: C_29  and  O_31 
ROOT
ATOM      1  C   LIG d   1       4.164  -4.422  -8.944  0.00  0.00     0.125 C 
ATOM      2  H   LIG d   1       5.234  -4.434  -9.152  0.00  0.00     0.066 H 
ATOM      3  C   LIG d   1       3.649  -5.860  -8.839  0.00  0.00     0.113 C 
ATOM      4  H   LIG d   1       2.572  -5.850  -8.673  0.00  0.00     0.065 H 
ATOM      5  C   LIG d   1       4.343  -6.559  -7.666  0.00  0.00     0.115 C 
ATOM      6  H   LIG d   1       5.415  -6.614  -7.857  0.00  0.00     0.065 H 
ATOM      7  C   LIG d   1       4.091  -5.757  -6.386  0.00  0.00     0.145 C 
ATOM      8  H   LIG d   1       3.022  -5.745  -6.168  0.00  0.00     0.068 H 
ATOM      9  C   LIG d   1       4.589  -4.323  -6.586  0.00  0.00     0.234 C 
ATOM     10  H   LIG d   1       5.664  -4.334  -6.763  0.00  0.00     0.108 H 
ATOM     11  O   LIG d   1       3.926  -3.742  -7.711  0.00  0.00    -0.330 OA
ENDROOT
BRANCH   1  12
ATOM     12  C   LIG d   1       3.433  -3.699 -10.076  0.00  0.00     0.121 C 
ATOM     13  H   LIG d   1       4.122  -3.019 -10.579  0.00  0.00     0.072 H 
ATOM     14  H   LIG d   1       3.057  -4.430 -10.792  0.00  0.00     0.072 H 
BRANCH  12  15
ATOM     15  O   LIG d   1       2.320  -2.943  -9.529  0.00  0.00    -0.459 OA
BRANCH  15  16
ATOM     16  C   LIG d   1       1.934  -1.844 -10.207  0.00  0.00     0.339 C 
ATOM     17  O   LIG d   1       1.085  -1.931 -11.072  0.00  0.00    -0.245 OA
BRANCH  16  18
ATOM     18  C   LIG d   1       2.542  -0.537  -9.900  0.00  0.00     0.063 A 
ATOM     19  C   LIG d   1       3.236   0.162 -10.892  0.00  0.00    -0.044 A 
ATOM     20  C   LIG d   1       3.800   1.387 -10.604  0.00  0.00    -0.016 A 
ATOM     21  H   LIG d   1       3.327  -0.254 -11.883  0.00  0.00     0.063 H 
ATOM     22  C   LIG d   1       3.689   1.924  -9.329  0.00  0.00     0.158 A 
ATOM     23  H   LIG d   1       4.333   1.928 -11.372  0.00  0.00     0.066 H 
ATOM     24  C   LIG d   1       3.002   1.229  -8.334  0.00  0.00     0.159 A 
ATOM     25  C   LIG d   1       2.430   0.005  -8.616  0.00  0.00    -0.003 A 
ATOM     26  H   LIG d   1       1.898  -0.534  -7.846  0.00  0.00     0.066 H 
BRANCH  22  27
ATOM     27  O   LIG d   1       4.250   3.129  -9.051  0.00  0.00    -0.503 OA
ATOM     28  H   LIG d   1       4.626   3.191  -8.162  0.00  0.00     0.292 HD
ENDBRANCH  22  27
BRANCH  24  29
ATOM     29  O   LIG d   1       2.895   1.759  -7.085  0.00  0.00    -0.503 OA
ATOM     30  H   LIG d   1       2.597   2.678  -7.073  0.00  0.00     0.292 HD
ENDBRANCH  24  29
ENDBRANCH  16  18
ENDBRANCH  15  16
ENDBRANCH  12  15
ENDBRANCH   1  12
BRANCH   3  31
ATOM     31  O   LIG d   1       3.938  -6.561 -10.052  0.00  0.00    -0.386 OA
ATOM     32  H   LIG d   1       3.187  -7.052 -10.410  0.00  0.00     0.210 HD
ENDBRANCH   3  31
BRANCH   9  33
ATOM     33  O   LIG d   1       4.302  -3.541  -5.397  0.00  0.00    -0.429 OA
BRANCH  33  34
ATOM     34  C   LIG d   1       5.357  -3.090  -4.690  0.00  0.00     0.342 C 
ATOM     35  O   LIG d   1       6.435  -3.642  -4.792  0.00  0.00    -0.245 OA
BRANCH  34  36
ATOM     36  C   LIG d   1       5.204  -1.928  -3.796  0.00  0.00     0.063 A 
ATOM     37  C   LIG d   1       5.937  -0.762  -4.032  0.00  0.00    -0.003 A 
ATOM     38  C   LIG d   1       5.791   0.324  -3.191  0.00  0.00     0.159 A 
ATOM     39  H   LIG d   1       6.618  -0.709  -4.870  0.00  0.00     0.066 H 
ATOM     40  C   LIG d   1       4.913   0.255  -2.111  0.00  0.00     0.158 A 
ATOM     41  C   LIG d   1       4.184  -0.903  -1.877  0.00  0.00    -0.016 A 
ATOM     42  C   LIG d   1       4.330  -1.992  -2.708  0.00  0.00    -0.044 A 
ATOM     43  H   LIG d   1       3.505  -0.952  -1.039  0.00  0.00     0.066 H 
ATOM     44  H   LIG d   1       3.765  -2.893  -2.521  0.00  0.00     0.063 H 
BRANCH  38  45
ATOM     45  O   LIG d   1       6.503   1.460  -3.417  0.00  0.00    -0.503 OA
ATOM     46  H   LIG d   1       7.461   1.329  -3.426  0.00  0.00     0.292 HD
ENDBRANCH  38  45
BRANCH  40  47
ATOM     47  O   LIG d   1       4.770   1.325  -1.285  0.00  0.00    -0.503 OA
ATOM     48  H   LIG d   1       3.962   1.307  -0.755  0.00  0.00     0.292 HD
ENDBRANCH  40  47
ENDBRANCH  34  36
ENDBRANCH  33  34
ENDBRANCH   9  33
BRANCH   5  49
ATOM     49  O   LIG d   1       3.816  -7.879  -7.517  0.00  0.00    -0.386 OA
ATOM     50  H   LIG d   1       3.712  -8.358  -8.351  0.00  0.00     0.210 HD
ENDBRANCH   5  49
BRANCH   7  51
ATOM     51  O   LIG d   1       4.794  -6.360  -5.298  0.00  0.00    -0.383 OA
ATOM     52  H   LIG d   1       4.301  -6.365  -4.466  0.00  0.00     0.210 HD
ENDBRANCH   7  51
TORSDOF 14
ENDMDL
MODEL 3
REMARK VINA RESULT:      -6.8      6.600     10.314
REMARK  14 active torsions:
REMARK  status: ('A' for Active; 'I' for Inactive)
REMARK    1  A    between atoms: C_3  and  O_37 
REMARK    2  A    between atoms: C_4  and  O_36 
REMARK    3  A    between atoms: C_6  and  C_7 
REMARK    4  A    between atoms: C_7  and  O_9 
REMARK    5  A    between atoms: O_9  and  C_10 
REMARK    6  A    between atoms: C_10  and  C_11 
REMARK    7  A    between atoms: C_13  and  O_35 
REMARK    8  A    between atoms: C_15  and  O_34 
REMARK    9  A    between atoms: C_17  and  O_33 
REMARK   10  A    between atoms: C_19  and  O_22 
REMARK   11  A    between atoms: O_22  and  C_23 
REMARK   12  A    between atoms: C_23  and  C_25 
REMARK   13  A    between atoms: C_28  and  O_32 
REMARK   14  A    between atoms: C_29  and  O_31 
ROOT
ATOM      1  C   LIG d   1      10.911   3.806  -2.754  0.00  0.00     0.125 C 
ATOM      2  H   LIG d   1      11.544   2.928  -2.884  0.00  0.00     0.066 H 
ATOM      3  C   LIG d   1      11.108   4.758  -3.936  0.00  0.00     0.113 C 
ATOM      4  H   LIG d   1      10.507   5.654  -3.785  0.00  0.00     0.065 H 
ATOM      5  C   LIG d   1      10.670   4.056  -5.225  0.00  0.00     0.115 C 
ATOM      6  H   LIG d   1      11.305   3.187  -5.401  0.00  0.00     0.065 H 
ATOM      7  C   LIG d   1       9.213   3.605  -5.078  0.00  0.00     0.145 C 
ATOM      8  H   LIG d   1       8.572   4.478  -4.952  0.00  0.00     0.068 H 
ATOM      9  C   LIG d   1       9.090   2.697  -3.852  0.00  0.00     0.234 C 
ATOM     10  H   LIG d   1       9.699   1.805  -3.997  0.00  0.00     0.108 H 
ATOM     11  O   LIG d   1       9.543   3.400  -2.693  0.00  0.00    -0.330 OA
ENDROOT
BRANCH   1  12
ATOM     12  C   LIG d   1      11.290   4.519  -1.454  0.00  0.00     0.121 C 
ATOM     13  H   LIG d   1      10.845   3.995  -0.608  0.00  0.00     0.072 H 
ATOM     14  H   LIG d   1      12.376   4.525  -1.347  0.00  0.00     0.072 H 
BRANCH  12  15
ATOM     15  O   LIG d   1      10.801   5.885  -1.490  0.00  0.00    -0.459 OA
BRANCH  15  16
ATOM     16  C   LIG d   1      10.577   6.487  -0.305  0.00  0.00     0.339 C 
ATOM     17  O   LIG d   1      10.573   5.831   0.718  0.00  0.00    -0.245 OA
BRANCH  16  18
ATOM     18  C   LIG d   1      10.338   7.940  -0.250  0.00  0.00     0.063 A 
ATOM     19  C   LIG d   1      11.168   8.757   0.523  0.00  0.00    -0.044 A 
ATOM     20  C   LIG d   1      10.945  10.117   0.569  0.00  0.00    -0.016 A 
ATOM     21  H   LIG d   1      11.985   8.325   1.079  0.00  0.00     0.063 H 
ATOM     22  C   LIG d   1       9.892  10.677  -0.141  0.00  0.00     0.158 A 
ATOM     23  H   LIG d   1      11.589  10.748   1.164  0.00  0.00     0.066 H 
ATOM     24  C   LIG d   1       9.057   9.866  -0.910  0.00  0.00     0.159 A 
ATOM     25  C   LIG d   1       9.277   8.504  -0.966  0.00  0.00    -0.003 A 
ATOM     26  H   LIG d   1       8.632   7.875  -1.561  0.00  0.00     0.066 H 
BRANCH  22  27
ATOM     27  O   LIG d   1       9.675  12.016  -0.087  0.00  0.00    -0.503 OA
ATOM     28  H   LIG d   1       9.836  12.405   0.782  0.00  0.00     0.292 HD
ENDBRANCH  22  27
BRANCH  24  29
ATOM     29  O   LIG d   1       8.026  10.418  -1.605  0.00  0.00    -0.503 OA
ATOM     30  H   LIG d   1       7.996  11.383  -1.563  0.00  0.00     0.292 HD
ENDBRANCH  24  29
ENDBRANCH  16  18
ENDBRANCH  15  16
ENDBRANCH  12  15
ENDBRANCH   1  12
BRANCH   3  31
ATOM     31  O   LIG d   1      12.488   5.119  -4.034  0.00  0.00    -0.386 OA
ATOM     32  H   LIG d   1      12.720   5.561  -4.861  0.00  0.00     0.210 HD
ENDBRANCH   3  31
BRANCH   9  33
ATOM     33  O   LIG d   1       7.702   2.311  -3.673  0.00  0.00    -0.429 OA
BRANCH  33  34
ATOM     34  C   LIG d   1       7.398   1.012  -3.864  0.00  0.00     0.342 C 
ATOM     35  O   LIG d   1       8.244   0.246  -4.281  0.00  0.00    -0.245 OA
BRANCH  34  36
ATOM     36  C   LIG d   1       6.040   0.521  -3.566  0.00  0.00     0.063 A 
ATOM     37  C   LIG d   1       5.539  -0.600  -4.234  0.00  0.00    -0.003 A 
ATOM     38  C   LIG d   1       4.266  -1.056  -3.952  0.00  0.00     0.159 A 
ATOM     39  H   LIG d   1       6.145  -1.109  -4.969  0.00  0.00     0.066 H 
ATOM     40  C   LIG d   1       3.484  -0.399  -3.003  0.00  0.00     0.158 A 
ATOM     41  C   LIG d   1       3.983   0.715  -2.339  0.00  0.00    -0.016 A 
ATOM     42  C   LIG d   1       5.249   1.179  -2.621  0.00  0.00    -0.044 A 
ATOM     43  H   LIG d   1       3.374   1.221  -1.605  0.00  0.00     0.066 H 
ATOM     44  H   LIG d   1       5.632   2.048  -2.107  0.00  0.00     0.063 H 
BRANCH  38  45
ATOM     45  O   LIG d   1       3.775  -2.147  -4.599  0.00  0.00    -0.503 OA
ATOM     46  H   LIG d   1       3.880  -2.114  -5.560  0.00  0.00     0.292 HD
ENDBRANCH  38  45
BRANCH  40  47
ATOM     47  O   LIG d   1       2.233  -0.849  -2.727  0.00  0.00    -0.503 OA
ATOM     48  H   LIG d   1       1.722  -0.264  -2.153  0.00  0.00     0.292 HD
ENDBRANCH  40  47
ENDBRANCH  34  36
ENDBRANCH  33  34
ENDBRANCH   9  33
BRANCH   5  49
ATOM     49  O   LIG d   1      10.783   4.962  -6.324  0.00  0.00    -0.386 OA
ATOM     50  H   LIG d   1       9.937   5.186  -6.738  0.00  0.00     0.210 HD
ENDBRANCH   5  49
BRANCH   7  51
ATOM     51  O   LIG d   1       8.816   2.885  -6.248  0.00  0.00    -0.383 OA
ATOM     52  H   LIG d   1       7.943   3.130  -6.582  0.00  0.00     0.210 HD
ENDBRANCH   7  51
TORSDOF 14
ENDMDL
MODEL 4
REMARK VINA RESULT:      -6.7     11.910     15.516
REMARK  14 active torsions:
REMARK  status: ('A' for Active; 'I' for Inactive)
REMARK    1  A    between atoms: C_3  and  O_37 
REMARK    2  A    between atoms: C_4  and  O_36 
REMARK    3  A    between atoms: C_6  and  C_7 
REMARK    4  A    between atoms: C_7  and  O_9 
REMARK    5  A    between atoms: O_9  and  C_10 
REMARK    6  A    between atoms: C_10  and  C_11 
REMARK    7  A    between atoms: C_13  and  O_35 
REMARK    8  A    between atoms: C_15  and  O_34 
REMARK    9  A    between atoms: C_17  and  O_33 
REMARK   10  A    between atoms: C_19  and  O_22 
REMARK   11  A    between atoms: O_22  and  C_23 
REMARK   12  A    between atoms: C_23  and  C_25 
REMARK   13  A    between atoms: C_28  and  O_32 
REMARK   14  A    between atoms: C_29  and  O_31 
ROOT
ATOM      1  C   LIG d   1      11.782   6.377  -1.825  0.00  0.00     0.125 C 
ATOM      2  H   LIG d   1      12.855   6.242  -1.691  0.00  0.00     0.066 H 
ATOM      3  C   LIG d   1      11.029   5.511  -0.811  0.00  0.00     0.113 C 
ATOM      4  H   LIG d   1       9.956   5.612  -0.972  0.00  0.00     0.065 H 
ATOM      5  C   LIG d   1      11.382   5.973   0.606  0.00  0.00     0.115 C 
ATOM      6  H   LIG d   1      12.448   5.824   0.783  0.00  0.00     0.065 H 
ATOM      7  C   LIG d   1      11.043   7.460   0.746  0.00  0.00     0.145 C 
ATOM      8  H   LIG d   1       9.970   7.602   0.618  0.00  0.00     0.068 H 
ATOM      9  C   LIG d   1      11.796   8.250  -0.328  0.00  0.00     0.234 C 
ATOM     10  H   LIG d   1      12.869   8.141  -0.175  0.00  0.00     0.108 H 
ATOM     11  O   LIG d   1      11.445   7.750  -1.620  0.00  0.00    -0.330 OA
ENDROOT
BRANCH   1  12
ATOM     12  C   LIG d   1      11.389   5.961  -3.244  0.00  0.00     0.121 C 
ATOM     13  H   LIG d   1      12.286   5.705  -3.810  0.00  0.00     0.072 H 
ATOM     14  H   LIG d   1      10.729   5.093  -3.198  0.00  0.00     0.072 H 
BRANCH  12  15
ATOM     15  O   LIG d   1      10.700   7.059  -3.897  0.00  0.00    -0.459 OA
BRANCH  15  16
ATOM     16  C   LIG d   1       9.666   6.741  -4.700  0.00  0.00     0.339 C 
ATOM     17  O   LIG d   1       8.763   6.043  -4.281  0.00  0.00    -0.245 OA
BRANCH  16  18
ATOM     18  C   LIG d   1       9.628   7.239  -6.087  0.00  0.00     0.063 A 
ATOM     19  C   LIG d   1       9.768   6.347  -7.155  0.00  0.00    -0.044 A 
ATOM     20  C   LIG d   1       9.728   6.814  -8.451  0.00  0.00    -0.016 A 
ATOM     21  H   LIG d   1       9.902   5.293  -6.965  0.00  0.00     0.063 H 
ATOM     22  C   LIG d   1       9.560   8.170  -8.700  0.00  0.00     0.158 A 
ATOM     23  H   LIG d   1       9.832   6.124  -9.275  0.00  0.00     0.066 H 
ATOM     24  C   LIG d   1       9.426   9.064  -7.639  0.00  0.00     0.159 A 
ATOM     25  C   LIG d   1       9.459   8.604  -6.338  0.00  0.00    -0.003 A 
ATOM     26  H   LIG d   1       9.354   9.296  -5.516  0.00  0.00     0.066 H 
BRANCH  22  27
ATOM     27  O   LIG d   1       9.527   8.624  -9.979  0.00  0.00    -0.503 OA
ATOM     28  H   LIG d   1       8.692   8.453 -10.435  0.00  0.00     0.292 HD
ENDBRANCH  22  27
BRANCH  24  29
ATOM     29  O   LIG d   1       9.261  10.392  -7.887  0.00  0.00    -0.503 OA
ATOM     30  H   LIG d   1       8.348  10.698  -7.799  0.00  0.00     0.292 HD
ENDBRANCH  24  29
ENDBRANCH  16  18
ENDBRANCH  15  16
ENDBRANCH  12  15
ENDBRANCH   1  12
BRANCH   3  31
ATOM     31  O   LIG d   1      11.409   4.143  -0.976  0.00  0.00    -0.386 OA
ATOM     32  H   LIG d   1      11.521   3.664  -0.144  0.00  0.00     0.210 HD
ENDBRANCH   3  31
BRANCH   9  33
ATOM     33  O   LIG d   1      11.435   9.654  -0.238  0.00  0.00    -0.429 OA
BRANCH  33  34
ATOM     34  C   LIG d   1      11.953  10.480  -1.169  0.00  0.00     0.342 C 
ATOM     35  O   LIG d   1      13.097  10.876  -1.059  0.00  0.00    -0.245 OA
BRANCH  34  36
ATOM     36  C   LIG d   1      11.133  10.902  -2.318  0.00  0.00     0.063 A 
ATOM     37  C   LIG d   1       9.751  11.058  -2.173  0.00  0.00    -0.003 A 
ATOM     38  C   LIG d   1       8.986  11.453  -3.253  0.00  0.00     0.159 A 
ATOM     39  H   LIG d   1       9.282  10.869  -1.218  0.00  0.00     0.066 H 
ATOM     40  C   LIG d   1       9.593  11.696  -4.484  0.00  0.00     0.158 A 
ATOM     41  C   LIG d   1      10.965  11.543  -4.628  0.00  0.00    -0.016 A 
ATOM     42  C   LIG d   1      11.733  11.143  -3.557  0.00  0.00    -0.044 A 
ATOM     43  H   LIG d   1      11.431  11.733  -5.584  0.00  0.00     0.066 H 
ATOM     44  H   LIG d   1      12.799  11.019  -3.673  0.00  0.00     0.063 H 
BRANCH  38  45
ATOM     45  O   LIG d   1       7.642  11.604  -3.116  0.00  0.00    -0.503 OA
ATOM     46  H   LIG d   1       7.170  11.706  -3.953  0.00  0.00     0.292 HD
ENDBRANCH  38  45
BRANCH  40  47
ATOM     47  O   LIG d   1       8.839  12.085  -5.546  0.00  0.00    -0.503 OA
ATOM     48  H   LIG d   1       8.204  12.784  -5.342  0.00  0.00     0.292 HD
ENDBRANCH  40  47
ENDBRANCH  34  36
ENDBRANCH  33  34
ENDBRANCH   9  33
BRANCH   5  49
ATOM     49  O   LIG d   1      10.629   5.218   1.556  0.00  0.00    -0.386 OA
ATOM     50  H   LIG d   1      10.057   4.545   1.160  0.00  0.00     0.210 HD
ENDBRANCH   5  49
BRANCH   7  51
ATOM     51  O   LIG d   1      11.436   7.920   2.041  0.00  0.00    -0.383 OA
ATOM     52  H   LIG d   1      12.381   7.830   2.220  0.00  0.00     0.210 HD
ENDBRANCH   7  51
TORSDOF 14
ENDMDL
MODEL 5
REMARK VINA RESULT:      -6.7      6.659     12.577
REMARK  14 active torsions:
REMARK  status: ('A' for Active; 'I' for Inactive)
REMARK    1  A    between atoms: C_3  and  O_37 
REMARK    2  A    between atoms: C_4  and  O_36 
REMARK    3  A    between atoms: C_6  and  C_7 
REMARK    4  A    between atoms: C_7  and  O_9 
REMARK    5  A    between atoms: O_9  and  C_10 
REMARK    6  A    between atoms: C_10  and  C_11 
REMARK    7  A    between atoms: C_13  and  O_35 
REMARK    8  A    between atoms: C_15  and  O_34 
REMARK    9  A    between atoms: C_17  and  O_33 
REMARK   10  A    between atoms: C_19  and  O_22 
REMARK   11  A    between atoms: O_22  and  C_23 
REMARK   12  A    between atoms: C_23  and  C_25 
REMARK   13  A    between atoms: C_28  and  O_32 
REMARK   14  A    between atoms: C_29  and  O_31 
ROOT
ATOM      1  C   LIG d   1      10.370   4.172  -3.737  0.00  0.00     0.125 C 
ATOM      2  H   LIG d   1      11.408   4.383  -3.995  0.00  0.00     0.066 H 
ATOM      3  C   LIG d   1      10.135   4.501  -2.260  0.00  0.00     0.113 C 
ATOM      4  H   LIG d   1       9.109   4.250  -1.990  0.00  0.00     0.065 H 
ATOM      5  C   LIG d   1      10.376   5.996  -2.033  0.00  0.00     0.115 C 
ATOM      6  H   LIG d   1      11.416   6.236  -2.255  0.00  0.00     0.065 H 
ATOM      7  C   LIG d   1       9.456   6.797  -2.961  0.00  0.00     0.145 C 
ATOM      8  H   LIG d   1       8.416   6.595  -2.705  0.00  0.00     0.068 H 
ATOM      9  C   LIG d   1       9.718   6.379  -4.410  0.00  0.00     0.234 C 
ATOM     10  H   LIG d   1      10.747   6.620  -4.677  0.00  0.00     0.108 H 
ATOM     11  O   LIG d   1       9.506   4.973  -4.545  0.00  0.00    -0.330 OA
ENDROOT
BRANCH   1  12
ATOM     12  C   LIG d   1      10.074   2.692  -3.984  0.00  0.00     0.121 C 
ATOM     13  H   LIG d   1       9.998   2.510  -5.057  0.00  0.00     0.072 H 
ATOM     14  H   LIG d   1      10.881   2.086  -3.570  0.00  0.00     0.072 H 
BRANCH  12  15
ATOM     15  O   LIG d   1       8.823   2.333  -3.342  0.00  0.00    -0.459 OA
BRANCH  15  16
ATOM     16  C   LIG d   1       7.855   1.821  -4.129  0.00  0.00     0.339 C 
ATOM     17  O   LIG d   1       7.800   2.130  -5.303  0.00  0.00    -0.245 OA
BRANCH  16  18
ATOM     18  C   LIG d   1       6.865   0.887  -3.565  0.00  0.00     0.063 A 
ATOM     19  C   LIG d   1       7.069  -0.493  -3.662  0.00  0.00    -0.044 A 
ATOM     20  C   LIG d   1       6.144  -1.365  -3.130  0.00  0.00    -0.016 A 
ATOM     21  H   LIG d   1       7.953  -0.875  -4.149  0.00  0.00     0.063 H 
ATOM     22  C   LIG d   1       5.003  -0.878  -2.507  0.00  0.00     0.158 A 
ATOM     23  H   LIG d   1       6.305  -2.430  -3.202  0.00  0.00     0.066 H 
ATOM     24  C   LIG d   1       4.791   0.497  -2.412  0.00  0.00     0.159 A 
ATOM     25  C   LIG d   1       5.715   1.377  -2.937  0.00  0.00    -0.003 A 
ATOM     26  H   LIG d   1       5.553   2.442  -2.863  0.00  0.00     0.066 H 
BRANCH  22  27
ATOM     27  O   LIG d   1       4.093  -1.742  -1.989  0.00  0.00    -0.503 OA
ATOM     28  H   LIG d   1       3.184  -1.570  -2.269  0.00  0.00     0.292 HD
ENDBRANCH  22  27
BRANCH  24  29
ATOM     29  O   LIG d   1       3.672   0.971  -1.800  0.00  0.00    -0.503 OA
ATOM     30  H   LIG d   1       3.644   1.934  -1.723  0.00  0.00     0.292 HD
ENDBRANCH  24  29
ENDBRANCH  16  18
ENDBRANCH  15  16
ENDBRANCH  12  15
ENDBRANCH   1  12
BRANCH   3  31
ATOM     31  O   LIG d   1      11.039   3.743  -1.453  0.00  0.00    -0.386 OA
ATOM     32  H   LIG d   1      11.937   4.101  -1.427  0.00  0.00     0.210 HD
ENDBRANCH   3  31
BRANCH   9  33
ATOM     33  O   LIG d   1       8.810   7.093  -5.291  0.00  0.00    -0.429 OA
BRANCH  33  34
ATOM     34  C   LIG d   1       9.362   7.921  -6.199  0.00  0.00     0.342 C 
ATOM     35  O   LIG d   1       9.689   9.046  -5.875  0.00  0.00    -0.245 OA
BRANCH  34  36
ATOM     36  C   LIG d   1       9.571   7.461  -7.584  0.00  0.00     0.063 A 
ATOM     37  C   LIG d   1       9.568   8.383  -8.635  0.00  0.00    -0.003 A 
ATOM     38  C   LIG d   1       9.764   7.948  -9.932  0.00  0.00     0.159 A 
ATOM     39  H   LIG d   1       9.413   9.433  -8.435  0.00  0.00     0.066 H 
ATOM     40  C   LIG d   1       9.964   6.593 -10.189  0.00  0.00     0.158 A 
ATOM     41  C   LIG d   1       9.968   5.677  -9.144  0.00  0.00    -0.016 A 
ATOM     42  C   LIG d   1       9.767   6.104  -7.850  0.00  0.00    -0.044 A 
ATOM     43  H   LIG d   1      10.125   4.628  -9.348  0.00  0.00     0.066 H 
ATOM     44  H   LIG d   1       9.766   5.389  -7.040  0.00  0.00     0.063 H 
BRANCH  38  45
ATOM     45  O   LIG d   1       9.761   8.841 -10.957  0.00  0.00    -0.503 OA
ATOM     46  H   LIG d   1       9.341   8.513 -11.763  0.00  0.00     0.292 HD
ENDBRANCH  38  45
BRANCH  40  47
ATOM     47  O   LIG d   1      10.157   6.167 -11.464  0.00  0.00    -0.503 OA
ATOM     48  H   LIG d   1      10.189   6.879 -12.117  0.00  0.00     0.292 HD
ENDBRANCH  40  47
ENDBRANCH  34  36
ENDBRANCH  33  34
ENDBRANCH   9  33
BRANCH   5  49
ATOM     49  O   LIG d   1      10.089   6.325  -0.673  0.00  0.00    -0.386 OA
ATOM     50  H   LIG d   1      10.762   6.877  -0.251  0.00  0.00     0.210 HD
ENDBRANCH   5  49
BRANCH   7  51
ATOM     51  O   LIG d   1       9.723   8.193  -2.809  0.00  0.00    -0.383 OA
ATOM     52  H   LIG d   1      10.647   8.397  -2.611  0.00  0.00     0.210 HD
ENDBRANCH   7  51
TORSDOF 14
ENDMDL
MODEL 6
REMARK VINA RESULT:      -6.7      6.280      9.468
REMARK  14 active torsions:
REMARK  status: ('A' for Active; 'I' for Inactive)
REMARK    1  A    between atoms: C_3  and  O_37 
REMARK    2  A    between atoms: C_4  and  O_36 
REMARK    3  A    between atoms: C_6  and  C_7 
REMARK    4  A    between atoms: C_7  and  O_9 
REMARK    5  A    between atoms: O_9  and  C_10 
REMARK    6  A    between atoms: C_10  and  C_11 
REMARK    7  A    between atoms: C_13  and  O_35 
REMARK    8  A    between atoms: C_15  and  O_34 
REMARK    9  A    between atoms: C_17  and  O_33 
REMARK   10  A    between atoms: C_19  and  O_22 
REMARK   11  A    between atoms: O_22  and  C_23 
REMARK   12  A    between atoms: C_23  and  C_25 
REMARK   13  A    between atoms: C_28  and  O_32 
REMARK   14  A    between atoms: C_29  and  O_31 
ROOT
ATOM      1  C   LIG d   1       9.960   3.640  -2.834  0.00  0.00     0.125 C 
ATOM      2  H   LIG d   1       9.974   3.167  -1.852  0.00  0.00     0.066 H 
ATOM      3  C   LIG d   1      11.215   3.237  -3.612  0.00  0.00     0.113 C 
ATOM      4  H   LIG d   1      11.222   3.742  -4.578  0.00  0.00     0.065 H 
ATOM      5  C   LIG d   1      11.209   1.720  -3.827  0.00  0.00     0.115 C 
ATOM      6  H   LIG d   1      11.252   1.215  -2.861  0.00  0.00     0.065 H 
ATOM      7  C   LIG d   1       9.920   1.323  -4.555  0.00  0.00     0.145 C 
ATOM      8  H   LIG d   1       9.901   1.789  -5.540  0.00  0.00     0.068 H 
ATOM      9  C   LIG d   1       8.716   1.801  -3.739  0.00  0.00     0.234 C 
ATOM     10  H   LIG d   1       8.713   1.303  -2.769  0.00  0.00     0.108 H 
ATOM     11  O   LIG d   1       8.799   3.214  -3.550  0.00  0.00    -0.330 OA
ENDROOT
BRANCH   1  12
ATOM     12  C   LIG d   1       9.928   5.160  -2.667  0.00  0.00     0.121 C 
ATOM     13  H   LIG d   1      10.641   5.617  -3.354  0.00  0.00     0.072 H 
ATOM     14  H   LIG d   1       8.925   5.528  -2.886  0.00  0.00     0.072 H 
BRANCH  12  15
ATOM     15  O   LIG d   1      10.282   5.505  -1.302  0.00  0.00    -0.459 OA
BRANCH  15  16
ATOM     16  C   LIG d   1      11.170   6.505  -1.134  0.00  0.00     0.339 C 
ATOM     17  O   LIG d   1      12.350   6.313  -1.358  0.00  0.00    -0.245 OA
BRANCH  16  18
ATOM     18  C   LIG d   1      10.712   7.830  -0.679  0.00  0.00     0.063 A 
ATOM     19  C   LIG d   1      11.417   8.509   0.318  0.00  0.00    -0.044 A 
ATOM     20  C   LIG d   1      10.990   9.751   0.739  0.00  0.00    -0.016 A 
ATOM     21  H   LIG d   1      12.298   8.065   0.756  0.00  0.00     0.063 H 
ATOM     22  C   LIG d   1       9.854  10.324   0.183  0.00  0.00     0.158 A 
ATOM     23  H   LIG d   1      11.538  10.276   1.507  0.00  0.00     0.066 H 
ATOM     24  C   LIG d   1       9.144   9.648  -0.809  0.00  0.00     0.159 A 
ATOM     25  C   LIG d   1       9.568   8.407  -1.239  0.00  0.00    -0.003 A 
ATOM     26  H   LIG d   1       9.020   7.884  -2.008  0.00  0.00     0.066 H 
BRANCH  22  27
ATOM     27  O   LIG d   1       9.436  11.544   0.605  0.00  0.00    -0.503 OA
ATOM     28  H   LIG d   1       9.077  12.102  -0.098  0.00  0.00     0.292 HD
ENDBRANCH  22  27
BRANCH  24  29
ATOM     29  O   LIG d   1       8.032  10.213  -1.352  0.00  0.00    -0.503 OA
ATOM     30  H   LIG d   1       7.782  11.055  -0.949  0.00  0.00     0.292 HD
ENDBRANCH  24  29
ENDBRANCH  16  18
ENDBRANCH  15  16
ENDBRANCH  12  15
ENDBRANCH   1  12
BRANCH   3  31
ATOM     31  O   LIG d   1      12.378   3.609  -2.869  0.00  0.00    -0.386 OA
ATOM     32  H   LIG d   1      12.184   4.031  -2.021  0.00  0.00     0.210 HD
ENDBRANCH   3  31
BRANCH   9  33
ATOM     33  O   LIG d   1       7.491   1.478  -4.451  0.00  0.00    -0.429 OA
BRANCH  33  34
ATOM     34  C   LIG d   1       6.456   1.028  -3.715  0.00  0.00     0.342 C 
ATOM     35  O   LIG d   1       5.957   1.742  -2.868  0.00  0.00    -0.245 OA
BRANCH  34  36
ATOM     36  C   LIG d   1       5.929  -0.330  -3.939  0.00  0.00     0.063 A 
ATOM     37  C   LIG d   1       5.000  -0.876  -3.048  0.00  0.00    -0.003 A 
ATOM     38  C   LIG d   1       4.509  -2.150  -3.262  0.00  0.00     0.159 A 
ATOM     39  H   LIG d   1       4.667  -0.305  -2.195  0.00  0.00     0.066 H 
ATOM     40  C   LIG d   1       4.940  -2.887  -4.364  0.00  0.00     0.158 A 
ATOM     41  C   LIG d   1       5.861  -2.344  -5.249  0.00  0.00    -0.016 A 
ATOM     42  C   LIG d   1       6.360  -1.077  -5.038  0.00  0.00    -0.044 A 
ATOM     43  H   LIG d   1       6.192  -2.919  -6.102  0.00  0.00     0.066 H 
ATOM     44  H   LIG d   1       7.081  -0.660  -5.726  0.00  0.00     0.063 H 
BRANCH  38  45
ATOM     45  O   LIG d   1       3.605  -2.684  -2.397  0.00  0.00    -0.503 OA
ATOM     46  H   LIG d   1       3.087  -2.027  -1.914  0.00  0.00     0.292 HD
ENDBRANCH  38  45
BRANCH  40  47
ATOM     47  O   LIG d   1       4.455  -4.139  -4.572  0.00  0.00    -0.503 OA
ATOM     48  H   LIG d   1       3.941  -4.232  -5.385  0.00  0.00     0.292 HD
ENDBRANCH  40  47
ENDBRANCH  34  36
ENDBRANCH  33  34
ENDBRANCH   9  33
BRANCH   5  49
ATOM     49  O   LIG d   1      12.340   1.345  -4.614  0.00  0.00    -0.386 OA
ATOM     50  H   LIG d   1      12.591   2.000  -5.280  0.00  0.00     0.210 HD
ENDBRANCH   5  49
BRANCH   7  51
ATOM     51  O   LIG d   1       9.870  -0.098  -4.696  0.00  0.00    -0.383 OA
ATOM     52  H   LIG d   1       9.675  -0.397  -5.594  0.00  0.00     0.210 HD
ENDBRANCH   7  51
TORSDOF 14
ENDMDL
MODEL 7
REMARK VINA RESULT:      -6.6      6.752     12.723
REMARK  14 active torsions:
REMARK  status: ('A' for Active; 'I' for Inactive)
REMARK    1  A    between atoms: C_3  and  O_37 
REMARK    2  A    between atoms: C_4  and  O_36 
REMARK    3  A    between atoms: C_6  and  C_7 
REMARK    4  A    between atoms: C_7  and  O_9 
REMARK    5  A    between atoms: O_9  and  C_10 
REMARK    6  A    between atoms: C_10  and  C_11 
REMARK    7  A    between atoms: C_13  and  O_35 
REMARK    8  A    between atoms: C_15  and  O_34 
REMARK    9  A    between atoms: C_17  and  O_33 
REMARK   10  A    between atoms: C_19  and  O_22 
REMARK   11  A    between atoms: O_22  and  C_23 
REMARK   12  A    between atoms: C_23  and  C_25 
REMARK   13  A    between atoms: C_28  and  O_32 
REMARK   14  A    between atoms: C_29  and  O_31 
ROOT
ATOM      1  C   LIG d   1       9.690   3.744  -4.355  0.00  0.00     0.125 C 
ATOM      2  H   LIG d   1      10.602   3.662  -4.946  0.00  0.00     0.066 H 
ATOM      3  C   LIG d   1       9.981   3.329  -2.910  0.00  0.00     0.113 C 
ATOM      4  H   LIG d   1       9.060   3.370  -2.328  0.00  0.00     0.065 H 
ATOM      5  C   LIG d   1      11.012   4.289  -2.309  0.00  0.00     0.115 C 
ATOM      6  H   LIG d   1      11.949   4.210  -2.861  0.00  0.00     0.065 H 
ATOM      7  C   LIG d   1      10.479   5.721  -2.407  0.00  0.00     0.145 C 
ATOM      8  H   LIG d   1       9.569   5.812  -1.813  0.00  0.00     0.068 H 
ATOM      9  C   LIG d   1      10.170   6.043  -3.871  0.00  0.00     0.234 C 
ATOM     10  H   LIG d   1      11.088   5.992  -4.456  0.00  0.00     0.108 H 
ATOM     11  O   LIG d   1       9.228   5.095  -4.378  0.00  0.00    -0.330 OA
ENDROOT
BRANCH   1  12
ATOM     12  C   LIG d   1       8.617   2.827  -4.944  0.00  0.00     0.121 C 
ATOM     13  H   LIG d   1       7.980   3.399  -5.620  0.00  0.00     0.072 H 
ATOM     14  H   LIG d   1       9.095   2.016  -5.495  0.00  0.00     0.072 H 
BRANCH  12  15
ATOM     15  O   LIG d   1       7.811   2.273  -3.872  0.00  0.00    -0.459 OA
BRANCH  15  16
ATOM     16  C   LIG d   1       7.493   0.966  -3.957  0.00  0.00     0.339 C 
ATOM     17  O   LIG d   1       8.331   0.159  -4.308  0.00  0.00    -0.245 OA
BRANCH  16  18
ATOM     18  C   LIG d   1       6.130   0.515  -3.624  0.00  0.00     0.063 A 
ATOM     19  C   LIG d   1       5.362   1.230  -2.700  0.00  0.00    -0.044 A 
ATOM     20  C   LIG d   1       4.086   0.810  -2.394  0.00  0.00    -0.016 A 
ATOM     21  H   LIG d   1       5.767   2.113  -2.230  0.00  0.00     0.063 H 
ATOM     22  C   LIG d   1       3.563  -0.329  -2.992  0.00  0.00     0.158 A 
ATOM     23  H   LIG d   1       3.492   1.365  -1.682  0.00  0.00     0.066 H 
ATOM     24  C   LIG d   1       4.326  -1.049  -3.911  0.00  0.00     0.159 A 
ATOM     25  C   LIG d   1       5.603  -0.632  -4.227  0.00  0.00    -0.003 A 
ATOM     26  H   LIG d   1       6.194  -1.188  -4.939  0.00  0.00     0.066 H 
BRANCH  22  27
ATOM     27  O   LIG d   1       2.307  -0.741  -2.683  0.00  0.00    -0.503 OA
ATOM     28  H   LIG d   1       1.626  -0.073  -2.835  0.00  0.00     0.292 HD
ENDBRANCH  22  27
BRANCH  24  29
ATOM     29  O   LIG d   1       3.810  -2.164  -4.497  0.00  0.00    -0.503 OA
ATOM     30  H   LIG d   1       3.698  -2.089  -5.454  0.00  0.00     0.292 HD
ENDBRANCH  24  29
ENDBRANCH  16  18
ENDBRANCH  15  16
ENDBRANCH  12  15
ENDBRANCH   1  12
BRANCH   3  31
ATOM     31  O   LIG d   1      10.499   1.997  -2.890  0.00  0.00    -0.386 OA
ATOM     32  H   LIG d   1      11.442   1.939  -3.096  0.00  0.00     0.210 HD
ENDBRANCH   3  31
BRANCH   9  33
ATOM     33  O   LIG d   1       9.610   7.380  -3.965  0.00  0.00    -0.429 OA
BRANCH  33  34
ATOM     34  C   LIG d   1      10.412   8.346  -4.454  0.00  0.00     0.342 C 
ATOM     35  O   LIG d   1      11.077   9.024  -3.695  0.00  0.00    -0.245 OA
BRANCH  34  36
ATOM     36  C   LIG d   1      10.483   8.580  -5.907  0.00  0.00     0.063 A 
ATOM     37  C   LIG d   1       9.308   8.699  -6.656  0.00  0.00    -0.003 A 
ATOM     38  C   LIG d   1       9.380   8.917  -8.018  0.00  0.00     0.159 A 
ATOM     39  H   LIG d   1       8.346   8.619  -6.171  0.00  0.00     0.066 H 
ATOM     40  C   LIG d   1      10.622   9.020  -8.643  0.00  0.00     0.158 A 
ATOM     41  C   LIG d   1      11.789   8.903  -7.899  0.00  0.00    -0.016 A 
ATOM     42  C   LIG d   1      11.724   8.679  -6.541  0.00  0.00    -0.044 A 
ATOM     43  H   LIG d   1      12.749   8.984  -8.387  0.00  0.00     0.066 H 
ATOM     44  H   LIG d   1      12.633   8.583  -5.967  0.00  0.00     0.063 H 
BRANCH  38  45
ATOM     45  O   LIG d   1       8.239   9.033  -8.749  0.00  0.00    -0.503 OA
ATOM     46  H   LIG d   1       7.460   9.268  -8.227  0.00  0.00     0.292 HD
ENDBRANCH  38  45
BRANCH  40  47
ATOM     47  O   LIG d   1      10.690   9.235  -9.982  0.00  0.00    -0.503 OA
ATOM     48  H   LIG d   1       9.876   9.021 -10.457  0.00  0.00     0.292 HD
ENDBRANCH  40  47
ENDBRANCH  34  36
ENDBRANCH  33  34
ENDBRANCH   9  33
BRANCH   5  49
ATOM     49  O   LIG d   1      11.235   3.952  -0.938  0.00  0.00    -0.386 OA
ATOM     50  H   LIG d   1      11.464   3.023  -0.793  0.00  0.00     0.210 HD
ENDBRANCH   5  49
BRANCH   7  51
ATOM     51  O   LIG d   1      11.464   6.633  -1.914  0.00  0.00    -0.383 OA
ATOM     52  H   LIG d   1      11.281   7.559  -2.122  0.00  0.00     0.210 HD
ENDBRANCH   7  51
TORSDOF 14
ENDMDL
MODEL 8
REMARK VINA RESULT:      -6.5      7.261     13.598
REMARK  14 active torsions:
REMARK  status: ('A' for Active; 'I' for Inactive)
REMARK    1  A    between atoms: C_3  and  O_37 
REMARK    2  A    between atoms: C_4  and  O_36 
REMARK    3  A    between atoms: C_6  and  C_7 
REMARK    4  A    between atoms: C_7  and  O_9 
REMARK    5  A    between atoms: O_9  and  C_10 
REMARK    6  A    between atoms: C_10  and  C_11 
REMARK    7  A    between atoms: C_13  and  O_35 
REMARK    8  A    between atoms: C_15  and  O_34 
REMARK    9  A    between atoms: C_17  and  O_33 
REMARK   10  A    between atoms: C_19  and  O_22 
REMARK   11  A    between atoms: O_22  and  C_23 
REMARK   12  A    between atoms: C_23  and  C_25 
REMARK   13  A    between atoms: C_28  and  O_32 
REMARK   14  A    between atoms: C_29  and  O_31 
ROOT
ATOM      1  C   LIG d   1      10.356   4.061  -4.055  0.00  0.00     0.125 C 
ATOM      2  H   LIG d   1      11.409   4.242  -4.273  0.00  0.00     0.066 H 
ATOM      3  C   LIG d   1      10.128   4.136  -2.543  0.00  0.00     0.113 C 
ATOM      4  H   LIG d   1       9.084   3.913  -2.321  0.00  0.00     0.065 H 
ATOM      5  C   LIG d   1      10.468   5.547  -2.053  0.00  0.00     0.115 C 
ATOM      6  H   LIG d   1      11.524   5.750  -2.230  0.00  0.00     0.065 H 
ATOM      7  C   LIG d   1       9.616   6.562  -2.821  0.00  0.00     0.145 C 
ATOM      8  H   LIG d   1       8.561   6.390  -2.604  0.00  0.00     0.068 H 
ATOM      9  C   LIG d   1       9.864   6.392  -4.322  0.00  0.00     0.234 C 
ATOM     10  H   LIG d   1      10.910   6.604  -4.543  0.00  0.00     0.108 H 
ATOM     11  O   LIG d   1       9.558   5.050  -4.706  0.00  0.00    -0.330 OA
ENDROOT
BRANCH   1  12
ATOM     12  C   LIG d   1       9.962   2.672  -4.562  0.00  0.00     0.121 C 
ATOM     13  H   LIG d   1       9.668   2.738  -5.611  0.00  0.00     0.072 H 
ATOM     14  H   LIG d   1      10.812   1.996  -4.465  0.00  0.00     0.072 H 
BRANCH  12  15
ATOM     15  O   LIG d   1       8.850   2.167  -3.778  0.00  0.00    -0.459 OA
BRANCH  15  16
ATOM     16  C   LIG d   1       7.828   1.608  -4.455  0.00  0.00     0.339 C 
ATOM     17  O   LIG d   1       7.699   1.821  -5.645  0.00  0.00    -0.245 OA
BRANCH  16  18
ATOM     18  C   LIG d   1       6.865   0.740  -3.753  0.00  0.00     0.063 A 
ATOM     19  C   LIG d   1       6.998  -0.650  -3.820  0.00  0.00    -0.044 A 
ATOM     20  C   LIG d   1       6.100  -1.460  -3.159  0.00  0.00    -0.016 A 
ATOM     21  H   LIG d   1       7.805  -1.089  -4.386  0.00  0.00     0.063 H 
ATOM     22  C   LIG d   1       5.056  -0.899  -2.434  0.00  0.00     0.158 A 
ATOM     23  H   LIG d   1       6.205  -2.533  -3.209  0.00  0.00     0.066 H 
ATOM     24  C   LIG d   1       4.916   0.487  -2.367  0.00  0.00     0.159 A 
ATOM     25  C   LIG d   1       5.814   1.304  -3.022  0.00  0.00    -0.003 A 
ATOM     26  H   LIG d   1       5.707   2.378  -2.971  0.00  0.00     0.066 H 
BRANCH  22  27
ATOM     27  O   LIG d   1       4.172  -1.702  -1.789  0.00  0.00    -0.503 OA
ATOM     28  H   LIG d   1       3.399  -1.237  -1.442  0.00  0.00     0.292 HD
ENDBRANCH  22  27
BRANCH  24  29
ATOM     29  O   LIG d   1       3.893   1.032  -1.655  0.00  0.00    -0.503 OA
ATOM     30  H   LIG d   1       4.167   1.440  -0.823  0.00  0.00     0.292 HD
ENDBRANCH  24  29
ENDBRANCH  16  18
ENDBRANCH  15  16
ENDBRANCH  12  15
ENDBRANCH   1  12
BRANCH   3  31
ATOM     31  O   LIG d   1      10.969   3.186  -1.885  0.00  0.00    -0.386 OA
ATOM     32  H   LIG d   1      11.887   3.198  -2.187  0.00  0.00     0.210 HD
ENDBRANCH   3  31
BRANCH   9  33
ATOM     33  O   LIG d   1       9.017   7.313  -5.060  0.00  0.00    -0.429 OA
BRANCH  33  34
ATOM     34  C   LIG d   1       9.580   7.967  -6.095  0.00  0.00     0.342 C 
ATOM     35  O   LIG d   1      10.055   7.341  -7.022  0.00  0.00    -0.245 OA
BRANCH  34  36
ATOM     36  C   LIG d   1       9.618   9.440  -6.103  0.00  0.00     0.063 A 
ATOM     37  C   LIG d   1       9.293  10.155  -4.946  0.00  0.00    -0.003 A 
ATOM     38  C   LIG d   1       9.329  11.536  -4.958  0.00  0.00     0.159 A 
ATOM     39  H   LIG d   1       9.013   9.629  -4.045  0.00  0.00     0.066 H 
ATOM     40  C   LIG d   1       9.690  12.213  -6.122  0.00  0.00     0.158 A 
ATOM     41  C   LIG d   1      10.014  11.503  -7.270  0.00  0.00    -0.016 A 
ATOM     42  C   LIG d   1       9.973  10.126  -7.267  0.00  0.00    -0.044 A 
ATOM     43  H   LIG d   1      10.293  12.032  -8.170  0.00  0.00     0.066 H 
ATOM     44  H   LIG d   1      10.221   9.577  -8.163  0.00  0.00     0.063 H 
BRANCH  38  45
ATOM     45  O   LIG d   1       9.013  12.234  -3.835  0.00  0.00    -0.503 OA
ATOM     46  H   LIG d   1       8.448  11.751  -3.217  0.00  0.00     0.292 HD
ENDBRANCH  38  45
BRANCH  40  47
ATOM     47  O   LIG d   1       9.726  13.571  -6.132  0.00  0.00    -0.503 OA
ATOM     48  H   LIG d   1      10.501  13.948  -5.694  0.00  0.00     0.292 HD
ENDBRANCH  40  47
ENDBRANCH  34  36
ENDBRANCH  33  34
ENDBRANCH   9  33
BRANCH   5  49
ATOM     49  O   LIG d   1      10.189   5.647  -0.655  0.00  0.00    -0.386 OA
ATOM     50  H   LIG d   1       9.592   6.372  -0.423  0.00  0.00     0.210 HD
ENDBRANCH   5  49
BRANCH   7  51
ATOM     51  O   LIG d   1       9.976   7.887  -2.423  0.00  0.00    -0.383 OA
ATOM     52  H   LIG d   1      10.921   8.004  -2.258  0.00  0.00     0.210 HD
ENDBRANCH   7  51
TORSDOF 14
ENDMDL
MODEL 9
REMARK VINA RESULT:      -6.5      4.960      9.877
REMARK  14 active torsions:
REMARK  status: ('A' for Active; 'I' for Inactive)
REMARK    1  A    between atoms: C_3  and  O_37 
REMARK    2  A    between atoms: C_4  and  O_36 
REMARK    3  A    between atoms: C_6  and  C_7 
REMARK    4  A    between atoms: C_7  and  O_9 
REMARK    5  A    between atoms: O_9  and  C_10 
REMARK    6  A    between atoms: C_10  and  C_11 
REMARK    7  A    between atoms: C_13  and  O_35 
REMARK    8  A    between atoms: C_15  and  O_34 
REMARK    9  A    between atoms: C_17  and  O_33 
REMARK   10  A    between atoms: C_19  and  O_22 
REMARK   11  A    between atoms: O_22  and  C_23 
REMARK   12  A    between atoms: C_23  and  C_25 
REMARK   13  A    between atoms: C_28  and  O_32 
REMARK   14  A    between atoms: C_29  and  O_31 
ROOT
ATOM      1  C   LIG d   1       4.912  -1.350  -4.480  0.00  0.00     0.125 C 
ATOM      2  H   LIG d   1       5.785  -0.756  -4.751  0.00  0.00     0.066 H 
ATOM      3  C   LIG d   1       4.306  -0.804  -3.185  0.00  0.00     0.113 C 
ATOM      4  H   LIG d   1       3.459  -1.423  -2.889  0.00  0.00     0.065 H 
ATOM      5  C   LIG d   1       3.834   0.635  -3.417  0.00  0.00     0.115 C 
ATOM      6  H   LIG d   1       4.690   1.264  -3.663  0.00  0.00     0.065 H 
ATOM      7  C   LIG d   1       2.836   0.652  -4.579  0.00  0.00     0.145 C 
ATOM      8  H   LIG d   1       1.957   0.063  -4.313  0.00  0.00     0.068 H 
ATOM      9  C   LIG d   1       3.499   0.049  -5.820  0.00  0.00     0.234 C 
ATOM     10  H   LIG d   1       4.353   0.662  -6.110  0.00  0.00     0.108 H 
ATOM     11  O   LIG d   1       3.942  -1.277  -5.526  0.00  0.00    -0.330 OA
ENDROOT
BRANCH   1  12
ATOM     12  C   LIG d   1       5.332  -2.806  -4.273  0.00  0.00     0.121 C 
ATOM     13  H   LIG d   1       6.347  -2.949  -4.646  0.00  0.00     0.072 H 
ATOM     14  H   LIG d   1       5.300  -3.046  -3.209  0.00  0.00     0.072 H 
BRANCH  12  15
ATOM     15  O   LIG d   1       4.423  -3.680  -4.993  0.00  0.00    -0.459 OA
BRANCH  15  16
ATOM     16  C   LIG d   1       4.958  -4.467  -5.947  0.00  0.00     0.339 C 
ATOM     17  O   LIG d   1       5.894  -5.195  -5.681  0.00  0.00    -0.245 OA
BRANCH  16  18
ATOM     18  C   LIG d   1       4.408  -4.444  -7.315  0.00  0.00     0.063 A 
ATOM     19  C   LIG d   1       4.711  -3.385  -8.174  0.00  0.00    -0.044 A 
ATOM     20  C   LIG d   1       4.200  -3.368  -9.454  0.00  0.00    -0.016 A 
ATOM     21  H   LIG d   1       5.348  -2.581  -7.837  0.00  0.00     0.063 H 
ATOM     22  C   LIG d   1       3.375  -4.396  -9.890  0.00  0.00     0.158 A 
ATOM     23  H   LIG d   1       4.437  -2.550 -10.118  0.00  0.00     0.066 H 
ATOM     24  C   LIG d   1       3.065  -5.454  -9.035  0.00  0.00     0.159 A 
ATOM     25  C   LIG d   1       3.577  -5.480  -7.754  0.00  0.00    -0.003 A 
ATOM     26  H   LIG d   1       3.338  -6.299  -7.092  0.00  0.00     0.066 H 
BRANCH  22  27
ATOM     27  O   LIG d   1       2.870  -4.372 -11.150  0.00  0.00    -0.503 OA
ATOM     28  H   LIG d   1       1.949  -4.082 -11.199  0.00  0.00     0.292 HD
ENDBRANCH  22  27
BRANCH  24  29
ATOM     29  O   LIG d   1       2.257  -6.460  -9.466  0.00  0.00    -0.503 OA
ATOM     30  H   LIG d   1       2.369  -6.682 -10.400  0.00  0.00     0.292 HD
ENDBRANCH  24  29
ENDBRANCH  16  18
ENDBRANCH  15  16
ENDBRANCH  12  15
ENDBRANCH   1  12
BRANCH   3  31
ATOM     31  O   LIG d   1       5.293  -0.821  -2.150  0.00  0.00    -0.386 OA
ATOM     32  H   LIG d   1       4.960  -1.124  -1.295  0.00  0.00     0.210 HD
ENDBRANCH   3  31
BRANCH   9  33
ATOM     33  O   LIG d   1       2.541   0.009  -6.911  0.00  0.00    -0.429 OA
BRANCH  33  34
ATOM     34  C   LIG d   1       2.812   0.765  -7.992  0.00  0.00     0.342 C 
ATOM     35  O   LIG d   1       3.129   1.930  -7.854  0.00  0.00    -0.245 OA
BRANCH  34  36
ATOM     36  C   LIG d   1       2.725   0.179  -9.342  0.00  0.00     0.063 A 
ATOM     37  C   LIG d   1       1.683  -0.698  -9.659  0.00  0.00    -0.003 A 
ATOM     38  C   LIG d   1       1.607  -1.246 -10.925  0.00  0.00     0.159 A 
ATOM     39  H   LIG d   1       0.940  -0.947  -8.916  0.00  0.00     0.066 H 
ATOM     40  C   LIG d   1       2.567  -0.923 -11.883  0.00  0.00     0.158 A 
ATOM     41  C   LIG d   1       3.601  -0.052 -11.568  0.00  0.00    -0.016 A 
ATOM     42  C   LIG d   1       3.687   0.493 -10.306  0.00  0.00    -0.044 A 
ATOM     43  H   LIG d   1       4.342   0.196 -12.314  0.00  0.00     0.066 H 
ATOM     44  H   LIG d   1       4.496   1.166 -10.062  0.00  0.00     0.063 H 
BRANCH  38  45
ATOM     45  O   LIG d   1       0.595  -2.098 -11.237  0.00  0.00    -0.503 OA
ATOM     46  H   LIG d   1       0.880  -3.010 -11.383  0.00  0.00     0.292 HD
ENDBRANCH  38  45
BRANCH  40  47
ATOM     47  O   LIG d   1       2.489  -1.462 -13.127  0.00  0.00    -0.503 OA
ATOM     48  H   LIG d   1       2.686  -0.839 -13.839  0.00  0.00     0.292 HD
ENDBRANCH  40  47
ENDBRANCH  34  36
ENDBRANCH  33  34
ENDBRANCH   9  33
BRANCH   5  49
ATOM     49  O   LIG d   1       3.202   1.128  -2.235  0.00  0.00    -0.386 OA
ATOM     50  H   LIG d   1       3.074   2.087  -2.227  0.00  0.00     0.210 HD
ENDBRANCH   5  49
BRANCH   7  51
ATOM     51  O   LIG d   1       2.444   1.998  -4.853  0.00  0.00    -0.383 OA
ATOM     52  H   LIG d   1       1.863   2.090  -5.620  0.00  0.00     0.210 HD
ENDBRANCH   7  51
TORSDOF 14
ENDMDL
MODEL 10
REMARK VINA RESULT:      -6.3     11.364     15.410
REMARK  14 active torsions:
REMARK  status: ('A' for Active; 'I' for Inactive)
REMARK    1  A    between atoms: C_3  and  O_37 
REMARK    2  A    between atoms: C_4  and  O_36 
REMARK    3  A    between atoms: C_6  and  C_7 
REMARK    4  A    between atoms: C_7  and  O_9 
REMARK    5  A    between atoms: O_9  and  C_10 
REMARK    6  A    between atoms: C_10  and  C_11 
REMARK    7  A    between atoms: C_13  and  O_35 
REMARK    8  A    between atoms: C_15  and  O_34 
REMARK    9  A    between atoms: C_17  and  O_33 
REMARK   10  A    between atoms: C_19  and  O_22 
REMARK   11  A    between atoms: O_22  and  C_23 
REMARK   12  A    between atoms: C_23  and  C_25 
REMARK   13  A    between atoms: C_28  and  O_32 
REMARK   14  A    between atoms: C_29  and  O_31 
ROOT
ATOM      1  C   LIG d   1       9.792   6.494  -6.138  0.00  0.00     0.125 C 
ATOM      2  H   LIG d   1       8.721   6.348  -5.995  0.00  0.00     0.066 H 
ATOM      3  C   LIG d   1      10.233   5.805  -7.431  0.00  0.00     0.113 C 
ATOM      4  H   LIG d   1      11.311   5.914  -7.553  0.00  0.00     0.065 H 
ATOM      5  C   LIG d   1       9.514   6.453  -8.618  0.00  0.00     0.115 C 
ATOM      6  H   LIG d   1       8.439   6.299  -8.521  0.00  0.00     0.065 H 
ATOM      7  C   LIG d   1       9.817   7.955  -8.627  0.00  0.00     0.145 C 
ATOM      8  H   LIG d   1      10.887   8.109  -8.774  0.00  0.00     0.068 H 
ATOM      9  C   LIG d   1       9.392   8.560  -7.287  0.00  0.00     0.234 C 
ATOM     10  H   LIG d   1       8.316   8.442  -7.159  0.00  0.00     0.108 H 
ATOM     11  O   LIG d   1      10.074   7.892  -6.224  0.00  0.00    -0.330 OA
ENDROOT
BRANCH   1  12
ATOM     12  C   LIG d   1      10.550   5.892  -4.954  0.00  0.00     0.121 C 
ATOM     13  H   LIG d   1      11.180   5.073  -5.303  0.00  0.00     0.072 H 
ATOM     14  H   LIG d   1      11.175   6.660  -4.494  0.00  0.00     0.072 H 
BRANCH  12  15
ATOM     15  O   LIG d   1       9.602   5.391  -3.975  0.00  0.00    -0.459 OA
BRANCH  15  16
ATOM     16  C   LIG d   1      10.032   5.290  -2.702  0.00  0.00     0.339 C 
ATOM     17  O   LIG d   1      10.331   4.204  -2.246  0.00  0.00    -0.245 OA
BRANCH  16  18
ATOM     18  C   LIG d   1      10.140   6.497  -1.862  0.00  0.00     0.063 A 
ATOM     19  C   LIG d   1      11.325   6.765  -1.171  0.00  0.00    -0.044 A 
ATOM     20  C   LIG d   1      11.426   7.897  -0.390  0.00  0.00    -0.016 A 
ATOM     21  H   LIG d   1      12.162   6.088  -1.251  0.00  0.00     0.063 H 
ATOM     22  C   LIG d   1      10.349   8.767  -0.279  0.00  0.00     0.158 A 
ATOM     23  H   LIG d   1      12.343   8.104   0.141  0.00  0.00     0.066 H 
ATOM     24  C   LIG d   1       9.163   8.502  -0.963  0.00  0.00     0.159 A 
ATOM     25  C   LIG d   1       9.056   7.374  -1.751  0.00  0.00    -0.003 A 
ATOM     26  H   LIG d   1       8.138   7.169  -2.282  0.00  0.00     0.066 H 
BRANCH  22  27
ATOM     27  O   LIG d   1      10.453   9.877   0.495  0.00  0.00    -0.503 OA
ATOM     28  H   LIG d   1       9.631  10.124   0.940  0.00  0.00     0.292 HD
ENDBRANCH  22  27
BRANCH  24  29
ATOM     29  O   LIG d   1       8.110   9.357  -0.853  0.00  0.00    -0.503 OA
ATOM     30  H   LIG d   1       7.276   8.999  -1.184  0.00  0.00     0.292 HD
ENDBRANCH  24  29
ENDBRANCH  16  18
ENDBRANCH  15  16
ENDBRANCH  12  15
ENDBRANCH   1  12
BRANCH   3  31
ATOM     31  O   LIG d   1       9.898   4.416  -7.371  0.00  0.00    -0.386 OA
ATOM     32  H   LIG d   1       9.013   4.241  -7.024  0.00  0.00     0.210 HD
ENDBRANCH   3  31
BRANCH   9  33
ATOM     33  O   LIG d   1       9.729   9.973  -7.265  0.00  0.00    -0.429 OA
BRANCH  33  34
ATOM     34  C   LIG d   1      10.731  10.352  -6.448  0.00  0.00     0.342 C 
ATOM     35  O   LIG d   1      11.881  10.309  -6.838  0.00  0.00    -0.245 OA
BRANCH  34  36
ATOM     36  C   LIG d   1      10.432  10.820  -5.083  0.00  0.00     0.063 A 
ATOM     37  C   LIG d   1       9.106  11.005  -4.681  0.00  0.00    -0.003 A 
ATOM     38  C   LIG d   1       8.830  11.444  -3.401  0.00  0.00     0.159 A 
ATOM     39  H   LIG d   1       8.298  10.806  -5.370  0.00  0.00     0.066 H 
ATOM     40  C   LIG d   1       9.874  11.701  -2.513  0.00  0.00     0.158 A 
ATOM     41  C   LIG d   1      11.191  11.517  -2.912  0.00  0.00    -0.016 A 
ATOM     42  C   LIG d   1      11.473  11.085  -4.189  0.00  0.00    -0.044 A 
ATOM     43  H   LIG d   1      11.996  11.717  -2.220  0.00  0.00     0.066 H 
ATOM     44  H   LIG d   1      12.498  10.947  -4.498  0.00  0.00     0.063 H 
BRANCH  38  45
ATOM     45  O   LIG d   1       7.542  11.626  -3.006  0.00  0.00    -0.503 OA
ATOM     46  H   LIG d   1       7.444  11.838  -2.068  0.00  0.00     0.292 HD
ENDBRANCH  38  45
BRANCH  40  47
ATOM     47  O   LIG d   1       9.601  12.133  -1.254  0.00  0.00    -0.503 OA
ATOM     48  H   LIG d   1       9.740  13.081  -1.124  0.00  0.00     0.292 HD
ENDBRANCH  40  47
ENDBRANCH  34  36
ENDBRANCH  33  34
ENDBRANCH   9  33
BRANCH   5  49
ATOM     49  O   LIG d   1       9.973   5.864  -9.835  0.00  0.00    -0.386 OA
ATOM     50  H   LIG d   1      10.327   4.969  -9.731  0.00  0.00     0.210 HD
ENDBRANCH   5  49
BRANCH   7  51
ATOM     51  O   LIG d   1       9.093   8.583  -9.687  0.00  0.00    -0.383 OA
ATOM     52  H   LIG d   1       9.151   9.548  -9.684  0.00  0.00     0.210 HD
ENDBRANCH   7  51
TORSDOF 14
ENDMDL
