MODEL 1
REMARK VINA RESULT:      -7.7      0.000      0.000
REMARK  3 active torsions:
REMARK  status: ('A' for Active; 'I' for Inactive)
REMARK    1  A    between atoms: C_3  and  C_11 
REMARK    2  A    between atoms: C_5  and  C_7 
REMARK       I    between atoms: N_25  and  C_27 
REMARK    3  A    between atoms: C_27  and  C_29 
ROOT
ATOM      1  C   LIG d   1       5.012  -1.578  -6.317  0.00  0.00     0.047 C 
ATOM      2  C   LIG d   1       3.993  -1.663  -7.253  0.00  0.00    -0.047 C 
ATOM      3  C   LIG d   1       4.330  -1.724  -8.606  0.00  0.00    -0.041 C 
ATOM      4  C   LIG d   1       5.633  -1.714  -8.999  0.00  0.00     0.027 C 
ATOM      5  N   LIG d   1       6.634  -1.723  -8.087  0.00  0.00    -0.311 N 
ATOM      6  C   LIG d   1       6.350  -1.585  -6.768  0.00  0.00     0.259 C 
ATOM      7  O   LIG d   1       7.259  -1.465  -5.964  0.00  0.00    -0.267 OA
ATOM      8  C   LIG d   1       8.042  -1.892  -8.446  0.00  0.00     0.031 C 
ATOM      9  C   LIG d   1       8.314  -1.552  -9.900  0.00  0.00    -0.006 C 
ATOM     10  H   LIG d   1       9.291  -1.958 -10.165  0.00  0.00     0.033 H 
ATOM     11  C   LIG d   1       7.265  -2.229 -10.782  0.00  0.00    -0.037 C 
ATOM     12  C   LIG d   1       5.904  -1.630 -10.484  0.00  0.00     0.016 C 
ATOM     13  H   LIG d   1       5.121  -2.149 -11.038  0.00  0.00     0.038 H 
ATOM     14  C   LIG d   1       5.919  -0.137 -10.842  0.00  0.00     0.023 C 
ATOM     15  N   LIG d   1       6.988   0.505 -10.058  0.00  0.00    -0.297 N 
ATOM     16  C   LIG d   1       8.344  -0.050 -10.138  0.00  0.00     0.019 C 
ATOM     17  C   LIG d   1       6.725   1.573  -9.281  0.00  0.00     0.247 C 
ATOM     18  O   LIG d   1       5.613   2.063  -9.276  0.00  0.00    -0.270 OA
ATOM     19  H   LIG d   1       2.958  -1.681  -6.942  0.00  0.00     0.063 H 
ATOM     20  H   LIG d   1       3.548  -1.781  -9.349  0.00  0.00     0.064 H 
ATOM     21  H   LIG d   1       8.329  -2.928  -8.266  0.00  0.00     0.050 H 
ATOM     22  H   LIG d   1       8.648  -1.245  -7.812  0.00  0.00     0.050 H 
ATOM     23  H   LIG d   1       7.500  -2.056 -11.831  0.00  0.00     0.028 H 
ATOM     24  H   LIG d   1       7.251  -3.300 -10.581  0.00  0.00     0.028 H 
ATOM     25  H   LIG d   1       4.959   0.322 -10.605  0.00  0.00     0.047 H 
ATOM     26  H   LIG d   1       6.127  -0.034 -11.907  0.00  0.00     0.047 H 
ATOM     27  H   LIG d   1       8.758   0.150 -11.127  0.00  0.00     0.047 H 
ATOM     28  H   LIG d   1       8.972   0.422  -9.382  0.00  0.00     0.047 H 
ENDROOT
BRANCH   1  29
ATOM     29  C   LIG d   1       4.703  -1.481  -4.871  0.00  0.00    -0.012 A 
ATOM     30  C   LIG d   1       4.410  -2.632  -4.140  0.00  0.00    -0.054 A 
ATOM     31  C   LIG d   1       4.126  -2.536  -2.792  0.00  0.00    -0.061 A 
ATOM     32  H   LIG d   1       4.409  -3.596  -4.626  0.00  0.00     0.062 H 
ATOM     33  C   LIG d   1       4.123  -1.301  -2.170  0.00  0.00    -0.050 A 
ATOM     34  H   LIG d   1       3.904  -3.427  -2.224  0.00  0.00     0.062 H 
ATOM     35  C   LIG d   1       4.408  -0.155  -2.891  0.00  0.00     0.055 A 
ATOM     36  H   LIG d   1       3.897  -1.231  -1.116  0.00  0.00     0.062 H 
ATOM     37  C   LIG d   1       4.698  -0.238  -4.238  0.00  0.00    -0.042 A 
ATOM     38  H   LIG d   1       4.919   0.656  -4.800  0.00  0.00     0.063 H 
BRANCH  35  39
ATOM     39  C   LIG d   1       4.401   1.187  -2.205  0.00  0.00     0.417 C 
ATOM     40  F   LIG d   1       5.285   2.050  -2.861  0.00  0.00    -0.166 F 
ATOM     41  F   LIG d   1       3.109   1.723  -2.244  0.00  0.00    -0.166 F 
ATOM     42  F   LIG d   1       4.802   1.032  -0.874  0.00  0.00    -0.166 F 
ENDBRANCH  35  39
ENDBRANCH   1  29
BRANCH  17  43
ATOM     43  C   LIG d   1       7.791   2.151  -8.430  0.00  0.00     0.040 A 
ATOM     44  C   LIG d   1       8.613   3.177  -8.905  0.00  0.00    -0.032 A 
ATOM     45  C   LIG d   1       9.595   3.688  -8.077  0.00  0.00     0.028 A 
ATOM     46  H   LIG d   1       8.483   3.565  -9.905  0.00  0.00     0.064 H 
ATOM     47  N   LIG d   1       9.758   3.221  -6.855  0.00  0.00    -0.263 NA
ATOM     48  H   LIG d   1      10.234   4.480  -8.435  0.00  0.00     0.083 H 
ATOM     49  C   LIG d   1       9.006   2.254  -6.368  0.00  0.00     0.028 A 
ATOM     50  C   LIG d   1       7.999   1.690  -7.126  0.00  0.00    -0.032 A 
ATOM     51  H   LIG d   1       9.177   1.902  -5.362  0.00  0.00     0.083 H 
ATOM     52  H   LIG d   1       7.382   0.902  -6.719  0.00  0.00     0.064 H 
ENDBRANCH  17  43
TORSDOF 3
ENDMDL
MODEL 2
REMARK VINA RESULT:      -7.6      1.703      2.440
REMARK  3 active torsions:
REMARK  status: ('A' for Active; 'I' for Inactive)
REMARK    1  A    between atoms: C_3  and  C_11 
REMARK    2  A    between atoms: C_5  and  C_7 
REMARK       I    between atoms: N_25  and  C_27 
REMARK    3  A    between atoms: C_27  and  C_29 
ROOT
ATOM      1  C   LIG d   1       3.730  -0.934  -6.487  0.00  0.00     0.047 C 
ATOM      2  C   LIG d   1       2.729  -0.085  -6.935  0.00  0.00    -0.047 C 
ATOM      3  C   LIG d   1       2.548   0.070  -8.310  0.00  0.00    -0.041 C 
ATOM      4  C   LIG d   1       3.329  -0.607  -9.195  0.00  0.00     0.027 C 
ATOM      5  N   LIG d   1       4.247  -1.506  -8.766  0.00  0.00    -0.311 N 
ATOM      6  C   LIG d   1       4.507  -1.628  -7.441  0.00  0.00     0.259 C 
ATOM      7  O   LIG d   1       5.422  -2.344  -7.068  0.00  0.00    -0.267 OA
ATOM      8  C   LIG d   1       4.985  -2.388  -9.669  0.00  0.00     0.031 C 
ATOM      9  C   LIG d   1       5.008  -1.871 -11.095  0.00  0.00    -0.006 C 
ATOM     10  H   LIG d   1       5.319  -2.688 -11.747  0.00  0.00     0.033 H 
ATOM     11  C   LIG d   1       3.596  -1.450 -11.503  0.00  0.00    -0.037 C 
ATOM     12  C   LIG d   1       3.168  -0.265 -10.659  0.00  0.00     0.016 C 
ATOM     13  H   LIG d   1       2.133   0.007 -10.868  0.00  0.00     0.038 H 
ATOM     14  C   LIG d   1       4.104   0.920 -10.937  0.00  0.00     0.023 C 
ATOM     15  N   LIG d   1       5.478   0.491 -10.629  0.00  0.00    -0.297 N 
ATOM     16  C   LIG d   1       5.993  -0.724 -11.270  0.00  0.00     0.019 C 
ATOM     17  C   LIG d   1       6.243   1.195  -9.773  0.00  0.00     0.247 C 
ATOM     18  O   LIG d   1       5.828   2.236  -9.302  0.00  0.00    -0.270 OA
ATOM     19  H   LIG d   1       2.101   0.445  -6.233  0.00  0.00     0.063 H 
ATOM     20  H   LIG d   1       1.779   0.734  -8.676  0.00  0.00     0.064 H 
ATOM     21  H   LIG d   1       4.518  -3.373  -9.658  0.00  0.00     0.050 H 
ATOM     22  H   LIG d   1       6.011  -2.482  -9.310  0.00  0.00     0.050 H 
ATOM     23  H   LIG d   1       3.590  -1.153 -12.551  0.00  0.00     0.028 H 
ATOM     24  H   LIG d   1       2.907  -2.281 -11.352  0.00  0.00     0.028 H 
ATOM     25  H   LIG d   1       3.834   1.774 -10.316  0.00  0.00     0.047 H 
ATOM     26  H   LIG d   1       4.026   1.187 -11.991  0.00  0.00     0.047 H 
ATOM     27  H   LIG d   1       6.142  -0.536 -12.334  0.00  0.00     0.047 H 
ATOM     28  H   LIG d   1       6.946  -0.996 -10.815  0.00  0.00     0.047 H 
ENDROOT
BRANCH   1  29
ATOM     29  C   LIG d   1       3.979  -1.109  -5.038  0.00  0.00    -0.012 A 
ATOM     30  C   LIG d   1       4.057  -2.389  -4.491  0.00  0.00    -0.054 A 
ATOM     31  C   LIG d   1       4.293  -2.547  -3.140  0.00  0.00    -0.061 A 
ATOM     32  H   LIG d   1       3.937  -3.256  -5.123  0.00  0.00     0.062 H 
ATOM     33  C   LIG d   1       4.443  -1.437  -2.328  0.00  0.00    -0.050 A 
ATOM     34  H   LIG d   1       4.358  -3.537  -2.715  0.00  0.00     0.062 H 
ATOM     35  C   LIG d   1       4.361  -0.164  -2.864  0.00  0.00     0.055 A 
ATOM     36  H   LIG d   1       4.624  -1.565  -1.271  0.00  0.00     0.062 H 
ATOM     37  C   LIG d   1       4.131   0.006  -4.214  0.00  0.00    -0.042 A 
ATOM     38  H   LIG d   1       4.067   1.000  -4.630  0.00  0.00     0.063 H 
BRANCH  35  39
ATOM     39  C   LIG d   1       4.525   1.040  -1.972  0.00  0.00     0.417 C 
ATOM     40  F   LIG d   1       4.800   0.619  -0.667  0.00  0.00    -0.166 F 
ATOM     41  F   LIG d   1       5.581   1.828  -2.442  0.00  0.00    -0.166 F 
ATOM     42  F   LIG d   1       3.344   1.790  -1.981  0.00  0.00    -0.166 F 
ENDBRANCH  35  39
ENDBRANCH   1  29
BRANCH  17  43
ATOM     43  C   LIG d   1       7.591   0.702  -9.405  0.00  0.00     0.040 A 
ATOM     44  C   LIG d   1       7.776  -0.119  -8.289  0.00  0.00    -0.032 A 
ATOM     45  C   LIG d   1       9.051  -0.557  -7.983  0.00  0.00     0.028 A 
ATOM     46  H   LIG d   1       6.935  -0.407  -7.675  0.00  0.00     0.064 H 
ATOM     47  N   LIG d   1      10.081  -0.211  -8.728  0.00  0.00    -0.263 NA
ATOM     48  H   LIG d   1       9.203  -1.191  -7.122  0.00  0.00     0.083 H 
ATOM     49  C   LIG d   1       9.951   0.562  -9.788  0.00  0.00     0.028 A 
ATOM     50  C   LIG d   1       8.713   1.040 -10.168  0.00  0.00    -0.032 A 
ATOM     51  H   LIG d   1      10.824   0.820 -10.368  0.00  0.00     0.083 H 
ATOM     52  H   LIG d   1       8.612   1.668 -11.042  0.00  0.00     0.064 H 
ENDBRANCH  17  43
TORSDOF 3
ENDMDL
MODEL 3
REMARK VINA RESULT:      -7.4      2.948      4.199
REMARK  3 active torsions:
REMARK  status: ('A' for Active; 'I' for Inactive)
REMARK    1  A    between atoms: C_3  and  C_11 
REMARK    2  A    between atoms: C_5  and  C_7 
REMARK       I    between atoms: N_25  and  C_27 
REMARK    3  A    between atoms: C_27  and  C_29 
ROOT
ATOM      1  C   LIG d   1       3.911  -0.600  -6.890  0.00  0.00     0.047 C 
ATOM      2  C   LIG d   1       3.137   0.450  -7.359  0.00  0.00    -0.047 C 
ATOM      3  C   LIG d   1       2.418   0.276  -8.541  0.00  0.00    -0.041 C 
ATOM      4  C   LIG d   1       2.464  -0.905  -9.216  0.00  0.00     0.027 C 
ATOM      5  N   LIG d   1       3.144  -1.965  -8.716  0.00  0.00    -0.311 N 
ATOM      6  C   LIG d   1       3.918  -1.813  -7.613  0.00  0.00     0.259 C 
ATOM      7  O   LIG d   1       4.628  -2.734  -7.242  0.00  0.00    -0.267 OA
ATOM      8  C   LIG d   1       3.082  -3.304  -9.302  0.00  0.00     0.031 C 
ATOM      9  C   LIG d   1       2.623  -3.283 -10.748  0.00  0.00    -0.006 C 
ATOM     10  H   LIG d   1       2.336  -4.298 -11.026  0.00  0.00     0.033 H 
ATOM     11  C   LIG d   1       1.389  -2.389 -10.874  0.00  0.00    -0.037 C 
ATOM     12  C   LIG d   1       1.779  -0.957 -10.563  0.00  0.00     0.016 C 
ATOM     13  H   LIG d   1       0.903  -0.308 -10.563  0.00  0.00     0.038 H 
ATOM     14  C   LIG d   1       2.808  -0.477 -11.595  0.00  0.00     0.023 C 
ATOM     15  N   LIG d   1       3.963  -1.388 -11.540  0.00  0.00    -0.297 N 
ATOM     16  C   LIG d   1       3.728  -2.828 -11.690  0.00  0.00     0.019 C 
ATOM     17  C   LIG d   1       5.208  -0.910 -11.348  0.00  0.00     0.247 C 
ATOM     18  O   LIG d   1       5.397   0.290 -11.292  0.00  0.00    -0.270 OA
ATOM     19  H   LIG d   1       3.092   1.385  -6.819  0.00  0.00     0.063 H 
ATOM     20  H   LIG d   1       1.817   1.087  -8.926  0.00  0.00     0.064 H 
ATOM     21  H   LIG d   1       2.388  -3.910  -8.720  0.00  0.00     0.050 H 
ATOM     22  H   LIG d   1       4.072  -3.757  -9.251  0.00  0.00     0.050 H 
ATOM     23  H   LIG d   1       1.006  -2.433 -11.893  0.00  0.00     0.028 H 
ATOM     24  H   LIG d   1       0.620  -2.725 -10.178  0.00  0.00     0.028 H 
ATOM     25  H   LIG d   1       3.127   0.541 -11.371  0.00  0.00     0.047 H 
ATOM     26  H   LIG d   1       2.354  -0.514 -12.586  0.00  0.00     0.047 H 
ATOM     27  H   LIG d   1       3.434  -3.040 -12.719  0.00  0.00     0.047 H 
ATOM     28  H   LIG d   1       4.644  -3.370 -11.458  0.00  0.00     0.047 H 
ENDROOT
BRANCH   1  29
ATOM     29  C   LIG d   1       4.715  -0.453  -5.655  0.00  0.00    -0.012 A 
ATOM     30  C   LIG d   1       6.108  -0.460  -5.721  0.00  0.00    -0.054 A 
ATOM     31  C   LIG d   1       6.852  -0.319  -4.567  0.00  0.00    -0.061 A 
ATOM     32  H   LIG d   1       6.604  -0.572  -6.674  0.00  0.00     0.062 H 
ATOM     33  C   LIG d   1       6.219  -0.180  -3.346  0.00  0.00    -0.050 A 
ATOM     34  H   LIG d   1       7.931  -0.320  -4.618  0.00  0.00     0.062 H 
ATOM     35  C   LIG d   1       4.837  -0.177  -3.272  0.00  0.00     0.055 A 
ATOM     36  H   LIG d   1       6.805  -0.073  -2.445  0.00  0.00     0.062 H 
ATOM     37  C   LIG d   1       4.082  -0.313  -4.419  0.00  0.00    -0.042 A 
ATOM     38  H   LIG d   1       3.004  -0.311  -4.361  0.00  0.00     0.063 H 
BRANCH  35  39
ATOM     39  C   LIG d   1       4.155  -0.026  -1.937  0.00  0.00     0.417 C 
ATOM     40  F   LIG d   1       4.729   1.040  -1.238  0.00  0.00    -0.166 F 
ATOM     41  F   LIG d   1       2.793   0.225  -2.136  0.00  0.00    -0.166 F 
ATOM     42  F   LIG d   1       4.308  -1.205  -1.199  0.00  0.00    -0.166 F 
ENDBRANCH  35  39
ENDBRANCH   1  29
BRANCH  17  43
ATOM     43  C   LIG d   1       6.347  -1.845 -11.204  0.00  0.00     0.040 A 
ATOM     44  C   LIG d   1       7.072  -2.273 -12.320  0.00  0.00    -0.032 A 
ATOM     45  C   LIG d   1       8.129  -3.145 -12.140  0.00  0.00     0.028 A 
ATOM     46  H   LIG d   1       6.810  -1.927 -13.310  0.00  0.00     0.064 H 
ATOM     47  N   LIG d   1       8.456  -3.571 -10.936  0.00  0.00    -0.263 NA
ATOM     48  H   LIG d   1       8.694  -3.481 -12.996  0.00  0.00     0.083 H 
ATOM     49  C   LIG d   1       7.799  -3.193  -9.857  0.00  0.00     0.028 A 
ATOM     50  C   LIG d   1       6.733  -2.319  -9.946  0.00  0.00    -0.032 A 
ATOM     51  H   LIG d   1       8.102  -3.568  -8.891  0.00  0.00     0.083 H 
ATOM     52  H   LIG d   1       6.203  -2.010  -9.057  0.00  0.00     0.064 H 
ENDBRANCH  17  43
TORSDOF 3
ENDMDL
MODEL 4
REMARK VINA RESULT:      -7.2      2.094      4.273
REMARK  3 active torsions:
REMARK  status: ('A' for Active; 'I' for Inactive)
REMARK    1  A    between atoms: C_3  and  C_11 
REMARK    2  A    between atoms: C_5  and  C_7 
REMARK       I    between atoms: N_25  and  C_27 
REMARK    3  A    between atoms: C_27  and  C_29 
ROOT
ATOM      1  C   LIG d   1       6.126  -1.796  -5.832  0.00  0.00     0.047 C 
ATOM      2  C   LIG d   1       6.991  -2.866  -6.003  0.00  0.00    -0.047 C 
ATOM      3  C   LIG d   1       7.662  -2.996  -7.219  0.00  0.00    -0.041 C 
ATOM      4  C   LIG d   1       7.483  -2.086  -8.214  0.00  0.00     0.027 C 
ATOM      5  N   LIG d   1       6.710  -0.990  -8.022  0.00  0.00    -0.311 N 
ATOM      6  C   LIG d   1       5.980  -0.867  -6.885  0.00  0.00     0.259 C 
ATOM      7  O   LIG d   1       5.190   0.056  -6.772  0.00  0.00    -0.267 OA
ATOM      8  C   LIG d   1       6.624   0.107  -8.986  0.00  0.00     0.031 C 
ATOM      9  C   LIG d   1       7.049  -0.312 -10.381  0.00  0.00    -0.006 C 
ATOM     10  H   LIG d   1       7.226   0.591 -10.966  0.00  0.00     0.033 H 
ATOM     11  C   LIG d   1       8.364  -1.088 -10.296  0.00  0.00    -0.037 C 
ATOM     12  C   LIG d   1       8.128  -2.386  -9.548  0.00  0.00     0.016 C 
ATOM     13  H   LIG d   1       9.065  -2.923  -9.398  0.00  0.00     0.038 H 
ATOM     14  C   LIG d   1       7.129  -3.248 -10.333  0.00  0.00     0.023 C 
ATOM     15  N   LIG d   1       5.890  -2.470 -10.494  0.00  0.00    -0.297 N 
ATOM     16  C   LIG d   1       5.975  -1.129 -11.083  0.00  0.00     0.019 C 
ATOM     17  C   LIG d   1       4.704  -2.976 -10.102  0.00  0.00     0.247 C 
ATOM     18  O   LIG d   1       4.639  -4.114  -9.678  0.00  0.00    -0.270 OA
ATOM     19  H   LIG d   1       7.143  -3.584  -5.210  0.00  0.00     0.063 H 
ATOM     20  H   LIG d   1       8.333  -3.829  -7.372  0.00  0.00     0.064 H 
ATOM     21  H   LIG d   1       7.266   0.922  -8.650  0.00  0.00     0.050 H 
ATOM     22  H   LIG d   1       5.594   0.464  -9.022  0.00  0.00     0.050 H 
ATOM     23  H   LIG d   1       8.717  -1.322 -11.300  0.00  0.00     0.028 H 
ATOM     24  H   LIG d   1       9.111  -0.489  -9.774  0.00  0.00     0.028 H 
ATOM     25  H   LIG d   1       6.920  -4.173  -9.796  0.00  0.00     0.047 H 
ATOM     26  H   LIG d   1       7.555  -3.474 -11.311  0.00  0.00     0.047 H 
ATOM     27  H   LIG d   1       6.222  -1.216 -12.142  0.00  0.00     0.047 H 
ATOM     28  H   LIG d   1       5.014  -0.626 -10.977  0.00  0.00     0.047 H 
ENDROOT
BRANCH   1  29
ATOM     29  C   LIG d   1       5.369  -1.631  -4.569  0.00  0.00    -0.012 A 
ATOM     30  C   LIG d   1       4.739  -2.728  -3.983  0.00  0.00    -0.054 A 
ATOM     31  C   LIG d   1       4.038  -2.569  -2.805  0.00  0.00    -0.061 A 
ATOM     32  H   LIG d   1       4.802  -3.701  -4.448  0.00  0.00     0.062 H 
ATOM     33  C   LIG d   1       3.952  -1.323  -2.211  0.00  0.00    -0.050 A 
ATOM     34  H   LIG d   1       3.553  -3.419  -2.347  0.00  0.00     0.062 H 
ATOM     35  C   LIG d   1       4.571  -0.230  -2.790  0.00  0.00     0.055 A 
ATOM     36  H   LIG d   1       3.400  -1.203  -1.291  0.00  0.00     0.062 H 
ATOM     37  C   LIG d   1       5.278  -0.377  -3.966  0.00  0.00    -0.042 A 
ATOM     38  H   LIG d   1       5.760   0.477  -4.417  0.00  0.00     0.063 H 
BRANCH  35  39
ATOM     39  C   LIG d   1       4.471   1.125  -2.137  0.00  0.00     0.417 C 
ATOM     40  F   LIG d   1       3.155   1.588  -2.223  0.00  0.00    -0.166 F 
ATOM     41  F   LIG d   1       4.844   1.022  -0.792  0.00  0.00    -0.166 F 
ATOM     42  F   LIG d   1       5.325   2.020  -2.790  0.00  0.00    -0.166 F 
ENDBRANCH  35  39
ENDBRANCH   1  29
BRANCH  17  43
ATOM     43  C   LIG d   1       3.480  -2.147 -10.187  0.00  0.00     0.040 A 
ATOM     44  C   LIG d   1       2.711  -2.118 -11.355  0.00  0.00    -0.032 A 
ATOM     45  C   LIG d   1       1.575  -1.331 -11.390  0.00  0.00     0.028 A 
ATOM     46  H   LIG d   1       3.000  -2.701 -12.216  0.00  0.00     0.064 H 
ATOM     47  N   LIG d   1       1.215  -0.617 -10.342  0.00  0.00    -0.263 NA
ATOM     48  H   LIG d   1       0.975  -1.302 -12.287  0.00  0.00     0.083 H 
ATOM     49  C   LIG d   1       1.911  -0.616  -9.222  0.00  0.00     0.028 A 
ATOM     50  C   LIG d   1       3.056  -1.377  -9.099  0.00  0.00    -0.032 A 
ATOM     51  H   LIG d   1       1.578  -0.015  -8.390  0.00  0.00     0.083 H 
ATOM     52  H   LIG d   1       3.619  -1.376  -8.177  0.00  0.00     0.064 H 
ENDBRANCH  17  43
TORSDOF 3
ENDMDL
MODEL 5
REMARK VINA RESULT:      -7.2      3.960      6.294
REMARK  3 active torsions:
REMARK  status: ('A' for Active; 'I' for Inactive)
REMARK    1  A    between atoms: C_3  and  C_11 
REMARK    2  A    between atoms: C_5  and  C_7 
REMARK       I    between atoms: N_25  and  C_27 
REMARK    3  A    between atoms: C_27  and  C_29 
ROOT
ATOM      1  C   LIG d   1       8.640   1.737  -5.122  0.00  0.00     0.047 C 
ATOM      2  C   LIG d   1       8.278   2.188  -6.383  0.00  0.00    -0.047 C 
ATOM      3  C   LIG d   1       9.139   3.055  -7.056  0.00  0.00    -0.041 C 
ATOM      4  C   LIG d   1      10.316   3.443  -6.494  0.00  0.00     0.027 C 
ATOM      5  N   LIG d   1      10.718   2.935  -5.305  0.00  0.00    -0.311 N 
ATOM      6  C   LIG d   1       9.878   2.152  -4.584  0.00  0.00     0.259 C 
ATOM      7  O   LIG d   1      10.193   1.803  -3.458  0.00  0.00    -0.267 OA
ATOM      8  C   LIG d   1      12.046   3.175  -4.740  0.00  0.00     0.031 C 
ATOM      9  C   LIG d   1      12.713   4.404  -5.328  0.00  0.00    -0.006 C 
ATOM     10  H   LIG d   1      13.774   4.364  -5.082  0.00  0.00     0.033 H 
ATOM     11  C   LIG d   1      12.578   4.372  -6.851  0.00  0.00    -0.037 C 
ATOM     12  C   LIG d   1      11.113   4.500  -7.223  0.00  0.00     0.016 C 
ATOM     13  H   LIG d   1      10.976   4.397  -8.300  0.00  0.00     0.038 H 
ATOM     14  C   LIG d   1      10.585   5.858  -6.738  0.00  0.00     0.023 C 
ATOM     15  N   LIG d   1      10.793   5.930  -5.283  0.00  0.00    -0.297 N 
ATOM     16  C   LIG d   1      12.141   5.693  -4.755  0.00  0.00     0.019 C 
ATOM     17  C   LIG d   1       9.767   6.201  -4.454  0.00  0.00     0.247 C 
ATOM     18  O   LIG d   1       8.670   6.462  -4.908  0.00  0.00    -0.270 OA
ATOM     19  H   LIG d   1       7.348   1.873  -6.835  0.00  0.00     0.063 H 
ATOM     20  H   LIG d   1       8.868   3.424  -8.035  0.00  0.00     0.064 H 
ATOM     21  H   LIG d   1      12.673   2.305  -4.935  0.00  0.00     0.050 H 
ATOM     22  H   LIG d   1      11.953   3.305  -3.662  0.00  0.00     0.050 H 
ATOM     23  H   LIG d   1      13.123   5.209  -7.286  0.00  0.00     0.028 H 
ATOM     24  H   LIG d   1      12.978   3.433  -7.236  0.00  0.00     0.028 H 
ATOM     25  H   LIG d   1       9.524   5.958  -6.967  0.00  0.00     0.047 H 
ATOM     26  H   LIG d   1      11.148   6.650  -7.233  0.00  0.00     0.047 H 
ATOM     27  H   LIG d   1      12.788   6.527  -5.029  0.00  0.00     0.047 H 
ATOM     28  H   LIG d   1      12.095   5.613  -3.669  0.00  0.00     0.047 H 
ENDROOT
BRANCH   1  29
ATOM     29  C   LIG d   1       7.746   0.837  -4.357  0.00  0.00    -0.012 A 
ATOM     30  C   LIG d   1       8.014  -0.530  -4.296  0.00  0.00    -0.054 A 
ATOM     31  C   LIG d   1       7.180  -1.362  -3.578  0.00  0.00    -0.061 A 
ATOM     32  H   LIG d   1       8.875  -0.936  -4.807  0.00  0.00     0.062 H 
ATOM     33  C   LIG d   1       6.075  -0.844  -2.927  0.00  0.00    -0.050 A 
ATOM     34  H   LIG d   1       7.388  -2.421  -3.527  0.00  0.00     0.062 H 
ATOM     35  C   LIG d   1       5.800   0.511  -2.988  0.00  0.00     0.055 A 
ATOM     36  H   LIG d   1       5.422  -1.500  -2.370  0.00  0.00     0.062 H 
ATOM     37  C   LIG d   1       6.630   1.354  -3.699  0.00  0.00    -0.042 A 
ATOM     38  H   LIG d   1       6.415   2.411  -3.746  0.00  0.00     0.063 H 
BRANCH  35  39
ATOM     39  C   LIG d   1       4.594   1.067  -2.277  0.00  0.00     0.417 C 
ATOM     40  F   LIG d   1       4.927   1.357  -0.950  0.00  0.00    -0.166 F 
ATOM     41  F   LIG d   1       4.173   2.236  -2.919  0.00  0.00    -0.166 F 
ATOM     42  F   LIG d   1       3.561   0.123  -2.303  0.00  0.00    -0.166 F 
ENDBRANCH  35  39
ENDBRANCH   1  29
BRANCH  17  43
ATOM     43  C   LIG d   1       9.973   6.182  -2.987  0.00  0.00     0.040 A 
ATOM     44  C   LIG d   1      10.422   5.027  -2.339  0.00  0.00    -0.032 A 
ATOM     45  C   LIG d   1      10.602   5.054  -0.969  0.00  0.00     0.028 A 
ATOM     46  H   LIG d   1      10.624   4.127  -2.901  0.00  0.00     0.064 H 
ATOM     47  N   LIG d   1      10.358   6.149  -0.277  0.00  0.00    -0.263 NA
ATOM     48  H   LIG d   1      10.948   4.166  -0.460  0.00  0.00     0.083 H 
ATOM     49  C   LIG d   1       9.934   7.258  -0.848  0.00  0.00     0.028 A 
ATOM     50  C   LIG d   1       9.732   7.321  -2.212  0.00  0.00    -0.032 A 
ATOM     51  H   LIG d   1       9.746   8.131  -0.240  0.00  0.00     0.083 H 
ATOM     52  H   LIG d   1       9.389   8.235  -2.675  0.00  0.00     0.064 H 
ENDBRANCH  17  43
TORSDOF 3
ENDMDL
MODEL 6
REMARK VINA RESULT:      -7.1      3.177      6.563
REMARK  3 active torsions:
REMARK  status: ('A' for Active; 'I' for Inactive)
REMARK    1  A    between atoms: C_3  and  C_11 
REMARK    2  A    between atoms: C_5  and  C_7 
REMARK       I    between atoms: N_25  and  C_27 
REMARK    3  A    between atoms: C_27  and  C_29 
ROOT
ATOM      1  C   LIG d   1       7.368   1.398  -3.772  0.00  0.00     0.047 C 
ATOM      2  C   LIG d   1       6.331   2.020  -3.094  0.00  0.00    -0.047 C 
ATOM      3  C   LIG d   1       5.221   1.259  -2.725  0.00  0.00    -0.041 C 
ATOM      4  C   LIG d   1       5.161  -0.070  -3.013  0.00  0.00     0.027 C 
ATOM      5  N   LIG d   1       6.209  -0.702  -3.593  0.00  0.00    -0.311 N 
ATOM      6  C   LIG d   1       7.272   0.015  -4.037  0.00  0.00     0.259 C 
ATOM      7  O   LIG d   1       8.152  -0.541  -4.672  0.00  0.00    -0.267 OA
ATOM      8  C   LIG d   1       6.273  -2.154  -3.763  0.00  0.00     0.031 C 
ATOM      9  C   LIG d   1       4.904  -2.805  -3.704  0.00  0.00    -0.006 C 
ATOM     10  H   LIG d   1       5.045  -3.876  -3.557  0.00  0.00     0.033 H 
ATOM     11  C   LIG d   1       4.135  -2.259  -2.501  0.00  0.00    -0.037 C 
ATOM     12  C   LIG d   1       3.862  -0.783  -2.714  0.00  0.00     0.016 C 
ATOM     13  H   LIG d   1       3.388  -0.344  -1.836  0.00  0.00     0.038 H 
ATOM     14  C   LIG d   1       2.972  -0.606  -3.953  0.00  0.00     0.023 C 
ATOM     15  N   LIG d   1       3.670  -1.210  -5.100  0.00  0.00    -0.297 N 
ATOM     16  C   LIG d   1       4.120  -2.602  -4.993  0.00  0.00     0.019 C 
ATOM     17  C   LIG d   1       3.896  -0.498  -6.221  0.00  0.00     0.247 C 
ATOM     18  O   LIG d   1       3.458   0.632  -6.322  0.00  0.00    -0.270 OA
ATOM     19  H   LIG d   1       6.381   3.073  -2.855  0.00  0.00     0.063 H 
ATOM     20  H   LIG d   1       4.399   1.730  -2.204  0.00  0.00     0.064 H 
ATOM     21  H   LIG d   1       6.898  -2.572  -2.974  0.00  0.00     0.050 H 
ATOM     22  H   LIG d   1       6.730  -2.376  -4.727  0.00  0.00     0.050 H 
ATOM     23  H   LIG d   1       3.184  -2.780  -2.406  0.00  0.00     0.028 H 
ATOM     24  H   LIG d   1       4.724  -2.400  -1.594  0.00  0.00     0.028 H 
ATOM     25  H   LIG d   1       2.789   0.451  -4.144  0.00  0.00     0.047 H 
ATOM     26  H   LIG d   1       2.027  -1.122  -3.781  0.00  0.00     0.047 H 
ATOM     27  H   LIG d   1       3.253  -3.263  -4.995  0.00  0.00     0.047 H 
ATOM     28  H   LIG d   1       4.759  -2.842  -5.843  0.00  0.00     0.047 H 
ENDROOT
BRANCH   1  29
ATOM     29  C   LIG d   1       8.554   2.171  -4.210  0.00  0.00    -0.012 A 
ATOM     30  C   LIG d   1       9.621   2.371  -3.334  0.00  0.00    -0.054 A 
ATOM     31  C   LIG d   1      10.725   3.088  -3.749  0.00  0.00    -0.061 A 
ATOM     32  H   LIG d   1       9.585   1.962  -2.335  0.00  0.00     0.062 H 
ATOM     33  C   LIG d   1      10.770   3.616  -5.027  0.00  0.00    -0.050 A 
ATOM     34  H   LIG d   1      11.554   3.240  -3.074  0.00  0.00     0.062 H 
ATOM     35  C   LIG d   1       9.712   3.425  -5.898  0.00  0.00     0.055 A 
ATOM     36  H   LIG d   1      11.634   4.179  -5.346  0.00  0.00     0.062 H 
ATOM     37  C   LIG d   1       8.605   2.705  -5.497  0.00  0.00    -0.042 A 
ATOM     38  H   LIG d   1       7.780   2.558  -6.178  0.00  0.00     0.063 H 
BRANCH  35  39
ATOM     39  C   LIG d   1       9.769   4.004  -7.288  0.00  0.00     0.417 C 
ATOM     40  F   LIG d   1       8.780   3.412  -8.081  0.00  0.00    -0.166 F 
ATOM     41  F   LIG d   1       9.553   5.385  -7.227  0.00  0.00    -0.166 F 
ATOM     42  F   LIG d   1      11.027   3.753  -7.847  0.00  0.00    -0.166 F 
ENDBRANCH  35  39
ENDBRANCH   1  29
BRANCH  17  43
ATOM     43  C   LIG d   1       4.677  -1.090  -7.331  0.00  0.00     0.040 A 
ATOM     44  C   LIG d   1       4.048  -1.813  -8.348  0.00  0.00    -0.032 A 
ATOM     45  C   LIG d   1       4.816  -2.347  -9.365  0.00  0.00     0.028 A 
ATOM     46  H   LIG d   1       2.977  -1.953  -8.339  0.00  0.00     0.064 H 
ATOM     47  N   LIG d   1       6.124  -2.180  -9.384  0.00  0.00    -0.263 NA
ATOM     48  H   LIG d   1       4.339  -2.908 -10.155  0.00  0.00     0.083 H 
ATOM     49  C   LIG d   1       6.757  -1.506  -8.445  0.00  0.00     0.028 A 
ATOM     50  C   LIG d   1       6.066  -0.934  -7.395  0.00  0.00    -0.032 A 
ATOM     51  H   LIG d   1       7.829  -1.395  -8.500  0.00  0.00     0.083 H 
ATOM     52  H   LIG d   1       6.590  -0.378  -6.631  0.00  0.00     0.064 H 
ENDBRANCH  17  43
TORSDOF 3
ENDMDL
MODEL 7
REMARK VINA RESULT:      -7.1      3.213      5.338
REMARK  3 active torsions:
REMARK  status: ('A' for Active; 'I' for Inactive)
REMARK    1  A    between atoms: C_3  and  C_11 
REMARK    2  A    between atoms: C_5  and  C_7 
REMARK       I    between atoms: N_25  and  C_27 
REMARK    3  A    between atoms: C_27  and  C_29 
ROOT
ATOM      1  C   LIG d   1       6.631  -2.399  -5.303  0.00  0.00     0.047 C 
ATOM      2  C   LIG d   1       6.841  -3.613  -4.665  0.00  0.00    -0.047 C 
ATOM      3  C   LIG d   1       7.101  -4.741  -5.443  0.00  0.00    -0.041 C 
ATOM      4  C   LIG d   1       7.161  -4.653  -6.800  0.00  0.00     0.027 C 
ATOM      5  N   LIG d   1       7.048  -3.456  -7.423  0.00  0.00    -0.311 N 
ATOM      6  C   LIG d   1       6.717  -2.350  -6.712  0.00  0.00     0.259 C 
ATOM      7  O   LIG d   1       6.491  -1.302  -7.294  0.00  0.00    -0.267 OA
ATOM      8  C   LIG d   1       7.281  -3.275  -8.856  0.00  0.00     0.031 C 
ATOM      9  C   LIG d   1       7.158  -4.573  -9.632  0.00  0.00    -0.006 C 
ATOM     10  H   LIG d   1       7.607  -4.424 -10.614  0.00  0.00     0.033 H 
ATOM     11  C   LIG d   1       7.944  -5.669  -8.912  0.00  0.00    -0.037 C 
ATOM     12  C   LIG d   1       7.295  -5.947  -7.570  0.00  0.00     0.016 C 
ATOM     13  H   LIG d   1       7.881  -6.665  -6.996  0.00  0.00     0.038 H 
ATOM     14  C   LIG d   1       5.870  -6.471  -7.796  0.00  0.00     0.023 C 
ATOM     15  N   LIG d   1       5.132  -5.456  -8.567  0.00  0.00    -0.297 N 
ATOM     16  C   LIG d   1       5.706  -4.983  -9.832  0.00  0.00     0.019 C 
ATOM     17  C   LIG d   1       3.961  -4.968  -8.117  0.00  0.00     0.247 C 
ATOM     18  O   LIG d   1       3.464  -5.417  -7.102  0.00  0.00    -0.270 OA
ATOM     19  H   LIG d   1       6.804  -3.682  -3.588  0.00  0.00     0.063 H 
ATOM     20  H   LIG d   1       7.258  -5.697  -4.963  0.00  0.00     0.064 H 
ATOM     21  H   LIG d   1       8.283  -2.871  -9.001  0.00  0.00     0.050 H 
ATOM     22  H   LIG d   1       6.554  -2.561  -9.245  0.00  0.00     0.050 H 
ATOM     23  H   LIG d   1       7.928  -6.583  -9.504  0.00  0.00     0.028 H 
ATOM     24  H   LIG d   1       8.975  -5.345  -8.765  0.00  0.00     0.028 H 
ATOM     25  H   LIG d   1       5.372  -6.647  -6.843  0.00  0.00     0.047 H 
ATOM     26  H   LIG d   1       5.925  -7.400  -8.364  0.00  0.00     0.047 H 
ATOM     27  H   LIG d   1       5.655  -5.782 -10.572  0.00  0.00     0.047 H 
ATOM     28  H   LIG d   1       5.136  -4.125 -10.188  0.00  0.00     0.047 H 
ENDROOT
BRANCH   1  29
ATOM     29  C   LIG d   1       6.323  -1.179  -4.522  0.00  0.00    -0.012 A 
ATOM     30  C   LIG d   1       7.349  -0.313  -4.144  0.00  0.00    -0.054 A 
ATOM     31  C   LIG d   1       7.055   0.825  -3.419  0.00  0.00    -0.061 A 
ATOM     32  H   LIG d   1       8.370  -0.529  -4.421  0.00  0.00     0.062 H 
ATOM     33  C   LIG d   1       5.748   1.101  -3.060  0.00  0.00    -0.050 A 
ATOM     34  H   LIG d   1       7.847   1.499  -3.129  0.00  0.00     0.062 H 
ATOM     35  C   LIG d   1       4.727   0.243  -3.427  0.00  0.00     0.055 A 
ATOM     36  H   LIG d   1       5.524   1.990  -2.489  0.00  0.00     0.062 H 
ATOM     37  C   LIG d   1       5.007  -0.895  -4.156  0.00  0.00    -0.042 A 
ATOM     38  H   LIG d   1       4.210  -1.565  -4.442  0.00  0.00     0.063 H 
BRANCH  35  39
ATOM     39  C   LIG d   1       3.306   0.550  -3.031  0.00  0.00     0.417 C 
ATOM     40  F   LIG d   1       2.684  -0.619  -2.582  0.00  0.00    -0.166 F 
ATOM     41  F   LIG d   1       3.305   1.503  -2.006  0.00  0.00    -0.166 F 
ATOM     42  F   LIG d   1       2.613   1.054  -4.137  0.00  0.00    -0.166 F 
ENDBRANCH  35  39
ENDBRANCH   1  29
BRANCH  17  43
ATOM     43  C   LIG d   1       3.276  -3.883  -8.857  0.00  0.00     0.040 A 
ATOM     44  C   LIG d   1       2.365  -4.173  -9.878  0.00  0.00    -0.032 A 
ATOM     45  C   LIG d   1       1.748  -3.129 -10.542  0.00  0.00     0.028 A 
ATOM     46  H   LIG d   1       2.147  -5.197 -10.144  0.00  0.00     0.064 H 
ATOM     47  N   LIG d   1       2.008  -1.877 -10.222  0.00  0.00    -0.263 NA
ATOM     48  H   LIG d   1       1.044  -3.343 -11.332  0.00  0.00     0.083 H 
ATOM     49  C   LIG d   1       2.860  -1.560  -9.268  0.00  0.00     0.028 A 
ATOM     50  C   LIG d   1       3.517  -2.541  -8.550  0.00  0.00    -0.032 A 
ATOM     51  H   LIG d   1       3.042  -0.521  -9.041  0.00  0.00     0.083 H 
ATOM     52  H   LIG d   1       4.210  -2.274  -7.765  0.00  0.00     0.064 H 
ENDBRANCH  17  43
TORSDOF 3
ENDMDL
MODEL 8
REMARK VINA RESULT:      -6.9      3.095      6.624
REMARK  3 active torsions:
REMARK  status: ('A' for Active; 'I' for Inactive)
REMARK    1  A    between atoms: C_3  and  C_11 
REMARK    2  A    between atoms: C_5  and  C_7 
REMARK       I    between atoms: N_25  and  C_27 
REMARK    3  A    between atoms: C_27  and  C_29 
ROOT
ATOM      1  C   LIG d   1       7.339   1.530  -3.820  0.00  0.00     0.047 C 
ATOM      2  C   LIG d   1       6.325   2.164  -3.118  0.00  0.00    -0.047 C 
ATOM      3  C   LIG d   1       5.238   1.407  -2.682  0.00  0.00    -0.041 C 
ATOM      4  C   LIG d   1       5.177   0.070  -2.929  0.00  0.00     0.027 C 
ATOM      5  N   LIG d   1       6.205  -0.572  -3.533  0.00  0.00    -0.311 N 
ATOM      6  C   LIG d   1       7.243   0.138  -4.040  0.00  0.00     0.259 C 
ATOM      7  O   LIG d   1       8.102  -0.430  -4.695  0.00  0.00    -0.267 OA
ATOM      8  C   LIG d   1       6.274  -2.028  -3.663  0.00  0.00     0.031 C 
ATOM      9  C   LIG d   1       4.913  -2.686  -3.530  0.00  0.00    -0.006 C 
ATOM     10  H   LIG d   1       5.069  -3.752  -3.357  0.00  0.00     0.033 H 
ATOM     11  C   LIG d   1       4.190  -2.110  -2.312  0.00  0.00    -0.037 C 
ATOM     12  C   LIG d   1       3.896  -0.643  -2.557  0.00  0.00     0.016 C 
ATOM     13  H   LIG d   1       3.455  -0.182  -1.673  0.00  0.00     0.038 H 
ATOM     14  C   LIG d   1       2.956  -0.509  -3.763  0.00  0.00     0.023 C 
ATOM     15  N   LIG d   1       3.611  -1.141  -4.919  0.00  0.00    -0.297 N 
ATOM     16  C   LIG d   1       4.076  -2.527  -4.790  0.00  0.00     0.019 C 
ATOM     17  C   LIG d   1       3.785  -0.460  -6.068  0.00  0.00     0.247 C 
ATOM     18  O   LIG d   1       3.335   0.663  -6.184  0.00  0.00    -0.270 OA
ATOM     19  H   LIG d   1       6.377   3.224  -2.912  0.00  0.00     0.063 H 
ATOM     20  H   LIG d   1       4.434   1.887  -2.142  0.00  0.00     0.064 H 
ATOM     21  H   LIG d   1       6.933  -2.419  -2.888  0.00  0.00     0.050 H 
ATOM     22  H   LIG d   1       6.693  -2.275  -4.638  0.00  0.00     0.050 H 
ATOM     23  H   LIG d   1       3.247  -2.635  -2.163  0.00  0.00     0.028 H 
ATOM     24  H   LIG d   1       4.816  -2.221  -1.426  0.00  0.00     0.028 H 
ATOM     25  H   LIG d   1       2.757   0.541  -3.977  0.00  0.00     0.047 H 
ATOM     26  H   LIG d   1       2.022  -1.025  -3.537  0.00  0.00     0.047 H 
ATOM     27  H   LIG d   1       3.215  -3.193  -4.738  0.00  0.00     0.047 H 
ATOM     28  H   LIG d   1       4.682  -2.786  -5.659  0.00  0.00     0.047 H 
ENDROOT
BRANCH   1  29
ATOM     29  C   LIG d   1       8.500   2.297  -4.328  0.00  0.00    -0.012 A 
ATOM     30  C   LIG d   1       8.663   2.494  -5.698  0.00  0.00    -0.054 A 
ATOM     31  C   LIG d   1       9.744   3.213  -6.166  0.00  0.00    -0.061 A 
ATOM     32  H   LIG d   1       7.941   2.089  -6.393  0.00  0.00     0.062 H 
ATOM     33  C   LIG d   1      10.671   3.728  -5.278  0.00  0.00    -0.050 A 
ATOM     34  H   LIG d   1       9.869   3.370  -7.227  0.00  0.00     0.062 H 
ATOM     35  C   LIG d   1      10.519   3.531  -3.917  0.00  0.00     0.055 A 
ATOM     36  H   LIG d   1      11.518   4.287  -5.648  0.00  0.00     0.062 H 
ATOM     37  C   LIG d   1       9.438   2.819  -3.437  0.00  0.00    -0.042 A 
ATOM     38  H   LIG d   1       9.321   2.665  -2.375  0.00  0.00     0.063 H 
BRANCH  35  39
ATOM     39  C   LIG d   1      11.533   4.096  -2.956  0.00  0.00     0.417 C 
ATOM     40  F   LIG d   1      11.043   3.999  -1.650  0.00  0.00    -0.166 F 
ATOM     41  F   LIG d   1      12.727   3.373  -3.062  0.00  0.00    -0.166 F 
ATOM     42  F   LIG d   1      11.772   5.439  -3.267  0.00  0.00    -0.166 F 
ENDBRANCH  35  39
ENDBRANCH   1  29
BRANCH  17  43
ATOM     43  C   LIG d   1       4.526  -1.079  -7.192  0.00  0.00     0.040 A 
ATOM     44  C   LIG d   1       3.861  -1.832  -8.164  0.00  0.00    -0.032 A 
ATOM     45  C   LIG d   1       4.591  -2.391  -9.196  0.00  0.00     0.028 A 
ATOM     46  H   LIG d   1       2.791  -1.975  -8.110  0.00  0.00     0.064 H 
ATOM     47  N   LIG d   1       5.896  -2.219  -9.270  0.00  0.00    -0.263 NA
ATOM     48  H   LIG d   1       4.086  -2.974  -9.951  0.00  0.00     0.083 H 
ATOM     49  C   LIG d   1       6.562  -1.518  -8.374  0.00  0.00     0.028 A 
ATOM     50  C   LIG d   1       5.910  -0.921  -7.314  0.00  0.00    -0.032 A 
ATOM     51  H   LIG d   1       7.631  -1.405  -8.475  0.00  0.00     0.083 H 
ATOM     52  H   LIG d   1       6.461  -0.343  -6.586  0.00  0.00     0.064 H 
ENDBRANCH  17  43
TORSDOF 3
ENDMDL
MODEL 9
REMARK VINA RESULT:      -6.8      1.941      3.441
REMARK  3 active torsions:
REMARK  status: ('A' for Active; 'I' for Inactive)
REMARK    1  A    between atoms: C_3  and  C_11 
REMARK    2  A    between atoms: C_5  and  C_7 
REMARK       I    between atoms: N_25  and  C_27 
REMARK    3  A    between atoms: C_27  and  C_29 
ROOT
ATOM      1  C   LIG d   1       6.561  -1.946  -5.346  0.00  0.00     0.047 C 
ATOM      2  C   LIG d   1       7.047  -3.217  -5.615  0.00  0.00    -0.047 C 
ATOM      3  C   LIG d   1       7.922  -3.386  -6.688  0.00  0.00    -0.041 C 
ATOM      4  C   LIG d   1       8.302  -2.325  -7.450  0.00  0.00     0.027 C 
ATOM      5  N   LIG d   1       7.905  -1.069  -7.139  0.00  0.00    -0.311 N 
ATOM      6  C   LIG d   1       6.994  -0.871  -6.153  0.00  0.00     0.259 C 
ATOM      7  O   LIG d   1       6.544   0.247  -5.962  0.00  0.00    -0.267 OA
ATOM      8  C   LIG d   1       8.423   0.124  -7.810  0.00  0.00     0.031 C 
ATOM      9  C   LIG d   1       9.024  -0.190  -9.167  0.00  0.00    -0.006 C 
ATOM     10  H   LIG d   1       9.625   0.666  -9.476  0.00  0.00     0.033 H 
ATOM     11  C   LIG d   1       9.951  -1.400  -9.041  0.00  0.00    -0.037 C 
ATOM     12  C   LIG d   1       9.128  -2.621  -8.682  0.00  0.00     0.016 C 
ATOM     13  H   LIG d   1       9.770  -3.484  -8.503  0.00  0.00     0.038 H 
ATOM     14  C   LIG d   1       8.134  -2.913  -9.815  0.00  0.00     0.023 C 
ATOM     15  N   LIG d   1       7.295  -1.717  -9.999  0.00  0.00    -0.297 N 
ATOM     16  C   LIG d   1       7.956  -0.426 -10.224  0.00  0.00     0.019 C 
ATOM     17  C   LIG d   1       5.952  -1.805  -9.957  0.00  0.00     0.247 C 
ATOM     18  O   LIG d   1       5.417  -2.891  -9.838  0.00  0.00    -0.270 OA
ATOM     19  H   LIG d   1       6.754  -4.059  -5.004  0.00  0.00     0.063 H 
ATOM     20  H   LIG d   1       8.302  -4.372  -6.917  0.00  0.00     0.064 H 
ATOM     21  H   LIG d   1       9.188   0.577  -7.180  0.00  0.00     0.050 H 
ATOM     22  H   LIG d   1       7.608   0.837  -7.940  0.00  0.00     0.050 H 
ATOM     23  H   LIG d   1      10.449  -1.581  -9.993  0.00  0.00     0.028 H 
ATOM     24  H   LIG d   1      10.696  -1.213  -8.267  0.00  0.00     0.028 H 
ATOM     25  H   LIG d   1       7.509  -3.769  -9.563  0.00  0.00     0.047 H 
ATOM     26  H   LIG d   1       8.694  -3.118 -10.728  0.00  0.00     0.047 H 
ATOM     27  H   LIG d   1       8.418  -0.424 -11.211  0.00  0.00     0.047 H 
ATOM     28  H   LIG d   1       7.215   0.372 -10.171  0.00  0.00     0.047 H 
ENDROOT
BRANCH   1  29
ATOM     29  C   LIG d   1       5.608  -1.721  -4.235  0.00  0.00    -0.012 A 
ATOM     30  C   LIG d   1       4.802  -2.765  -3.782  0.00  0.00    -0.054 A 
ATOM     31  C   LIG d   1       3.918  -2.550  -2.744  0.00  0.00    -0.061 A 
ATOM     32  H   LIG d   1       4.872  -3.740  -4.240  0.00  0.00     0.062 H 
ATOM     33  C   LIG d   1       3.824  -1.300  -2.160  0.00  0.00    -0.050 A 
ATOM     34  H   LIG d   1       3.296  -3.359  -2.390  0.00  0.00     0.062 H 
ATOM     35  C   LIG d   1       4.618  -0.259  -2.608  0.00  0.00     0.055 A 
ATOM     36  H   LIG d   1       3.129  -1.136  -1.350  0.00  0.00     0.062 H 
ATOM     37  C   LIG d   1       5.509  -0.462  -3.642  0.00  0.00    -0.042 A 
ATOM     38  H   LIG d   1       6.127   0.351  -3.991  0.00  0.00     0.063 H 
BRANCH  35  39
ATOM     39  C   LIG d   1       4.508   1.100  -1.966  0.00  0.00     0.417 C 
ATOM     40  F   LIG d   1       3.167   1.496  -1.937  0.00  0.00    -0.166 F 
ATOM     41  F   LIG d   1       5.006   1.040  -0.660  0.00  0.00    -0.166 F 
ATOM     42  F   LIG d   1       5.252   2.026  -2.707  0.00  0.00    -0.166 F 
ENDBRANCH  35  39
ENDBRANCH   1  29
BRANCH  17  43
ATOM     43  C   LIG d   1       5.125  -0.580 -10.054  0.00  0.00     0.040 A 
ATOM     44  C   LIG d   1       4.762   0.136  -8.910  0.00  0.00    -0.032 A 
ATOM     45  C   LIG d   1       3.991   1.274  -9.048  0.00  0.00     0.028 A 
ATOM     46  H   LIG d   1       5.081  -0.195  -7.932  0.00  0.00     0.064 H 
ATOM     47  N   LIG d   1       3.599   1.685 -10.237  0.00  0.00    -0.263 NA
ATOM     48  H   LIG d   1       3.705   1.833  -8.169  0.00  0.00     0.083 H 
ATOM     49  C   LIG d   1       3.918   1.040 -11.341  0.00  0.00     0.028 A 
ATOM     50  C   LIG d   1       4.691  -0.104 -11.295  0.00  0.00    -0.032 A 
ATOM     51  H   LIG d   1       3.574   1.413 -12.294  0.00  0.00     0.083 H 
ATOM     52  H   LIG d   1       4.953  -0.625 -12.205  0.00  0.00     0.064 H 
ENDBRANCH  17  43
TORSDOF 3
ENDMDL
