MODEL 1
REMARK VINA RESULT:      -7.2      0.000      0.000
REMARK  5 active torsions:
REMARK  status: ('A' for Active; 'I' for Inactive)
REMARK    1  A    between atoms: C_1  and  C_2 
REMARK    2  A    between atoms: C_6  and  O_19 
REMARK    3  A    between atoms: C_12  and  C_13 
REMARK    4  A    between atoms: O_19  and  S_20 
REMARK    5  A    between atoms: S_20  and  C_23 
ROOT
ATOM      1  C   LIG d   1       4.071  -2.210  -8.006  0.00  0.00    -0.025 A 
ATOM      2  C   LIG d   1       4.183  -3.454  -7.333  0.00  0.00     0.021 A 
ATOM      3  C   LIG d   1       3.938  -4.653  -8.022  0.00  0.00    -0.047 A 
ATOM      4  C   LIG d   1       4.048  -5.846  -7.371  0.00  0.00    -0.016 A 
ATOM      5  C   LIG d   1       4.402  -5.885  -6.023  0.00  0.00     0.160 A 
ATOM      6  C   LIG d   1       4.653  -4.713  -5.329  0.00  0.00     0.026 A 
ATOM      7  C   LIG d   1       4.541  -3.489  -5.973  0.00  0.00     0.143 A 
ATOM      8  O   LIG d   1       4.781  -2.346  -5.294  0.00  0.00    -0.422 OA
ATOM      9  C   LIG d   1       4.686  -1.147  -5.895  0.00  0.00     0.345 A 
ATOM     10  O   LIG d   1       4.908  -0.131  -5.260  0.00  0.00    -0.244 OA
ATOM     11  C   LIG d   1       4.317  -1.058  -7.309  0.00  0.00     0.070 A 
ATOM     12  H   LIG d   1       3.663  -4.629  -9.065  0.00  0.00     0.063 H 
ATOM     13  H   LIG d   1       3.858  -6.766  -7.902  0.00  0.00     0.066 H 
ATOM     14  H   LIG d   1       4.927  -4.751  -4.285  0.00  0.00     0.069 H 
ENDROOT
BRANCH   5  15
ATOM     15  O   LIG d   1       4.508  -7.079  -5.388  0.00  0.00    -0.342 OA
BRANCH  15  16
ATOM     16  S   LIG d   1       5.846  -7.775  -5.594  0.00  0.00     0.151 S 
ATOM     17  O   LIG d   1       5.733  -8.526  -6.793  0.00  0.00    -0.131 OA
ATOM     18  O   LIG d   1       6.850  -6.786  -5.406  0.00  0.00    -0.131 OA
BRANCH  16  19
ATOM     19  C   LIG d   1       6.033  -8.939  -4.285  0.00  0.00     0.128 A 
ATOM     20  C   LIG d   1       7.259  -9.087  -3.662  0.00  0.00    -0.032 A 
ATOM     21  C   LIG d   1       7.405  -9.999  -2.634  0.00  0.00    -0.046 A 
ATOM     22  H   LIG d   1       8.100  -8.489  -3.978  0.00  0.00     0.064 H 
ATOM     23  C   LIG d   1       6.327 -10.765  -2.230  0.00  0.00     0.018 A 
ATOM     24  H   LIG d   1       8.363 -10.116  -2.148  0.00  0.00     0.063 H 
ATOM     25  C   LIG d   1       5.102 -10.617  -2.853  0.00  0.00    -0.046 A 
ATOM     26 BR   LIG d   1       6.528 -12.015  -0.824  0.00  0.00    -0.050 Br
ATOM     27  C   LIG d   1       4.953  -9.700  -3.877  0.00  0.00    -0.032 A 
ATOM     28  H   LIG d   1       4.259 -11.215  -2.538  0.00  0.00     0.063 H 
ATOM     29  H   LIG d   1       3.995  -9.582  -4.362  0.00  0.00     0.064 H 
ENDBRANCH  16  19
ENDBRANCH  15  16
ENDBRANCH   5  15
BRANCH   1  30
ATOM     30  C   LIG d   1       3.688  -2.158  -9.463  0.00  0.00    -0.038 C 
ATOM     31  H   LIG d   1       4.391  -1.522 -10.000  0.00  0.00     0.028 H 
ATOM     32  H   LIG d   1       3.713  -3.163  -9.881  0.00  0.00     0.028 H 
ATOM     33  H   LIG d   1       2.681  -1.750  -9.558  0.00  0.00     0.028 H 
ENDBRANCH   1  30
BRANCH  11  34
ATOM     34  C   LIG d   1       4.211   0.261  -7.976  0.00  0.00    -0.011 A 
ATOM     35  C   LIG d   1       2.990   0.936  -8.005  0.00  0.00    -0.054 A 
ATOM     36  C   LIG d   1       2.898   2.163  -8.627  0.00  0.00    -0.061 A 
ATOM     37  H   LIG d   1       2.119   0.498  -7.539  0.00  0.00     0.062 H 
ATOM     38  C   LIG d   1       4.013   2.725  -9.224  0.00  0.00    -0.062 A 
ATOM     39  H   LIG d   1       1.954   2.687  -8.649  0.00  0.00     0.062 H 
ATOM     40  C   LIG d   1       5.226   2.060  -9.200  0.00  0.00    -0.061 A 
ATOM     41  H   LIG d   1       3.935   3.686  -9.711  0.00  0.00     0.062 H 
ATOM     42  C   LIG d   1       5.332   0.835  -8.575  0.00  0.00    -0.054 A 
ATOM     43  H   LIG d   1       6.092   2.503  -9.668  0.00  0.00     0.062 H 
ATOM     44  H   LIG d   1       6.281   0.319  -8.553  0.00  0.00     0.062 H 
ENDBRANCH  11  34
TORSDOF 5
ENDMDL
MODEL 2
REMARK VINA RESULT:      -7.0      5.743      8.277
REMARK  5 active torsions:
REMARK  status: ('A' for Active; 'I' for Inactive)
REMARK    1  A    between atoms: C_1  and  C_2 
REMARK    2  A    between atoms: C_6  and  O_19 
REMARK    3  A    between atoms: C_12  and  C_13 
REMARK    4  A    between atoms: O_19  and  S_20 
REMARK    5  A    between atoms: S_20  and  C_23 
ROOT
ATOM      1  C   LIG d   1       3.670  -0.053  -6.501  0.00  0.00    -0.025 A 
ATOM      2  C   LIG d   1       3.809   0.084  -7.906  0.00  0.00     0.021 A 
ATOM      3  C   LIG d   1       2.739   0.563  -8.677  0.00  0.00    -0.047 A 
ATOM      4  C   LIG d   1       2.878   0.693 -10.027  0.00  0.00    -0.016 A 
ATOM      5  C   LIG d   1       4.079   0.354 -10.649  0.00  0.00     0.160 A 
ATOM      6  C   LIG d   1       5.148  -0.114  -9.903  0.00  0.00     0.026 A 
ATOM      7  C   LIG d   1       5.024  -0.259  -8.529  0.00  0.00     0.143 A 
ATOM      8  O   LIG d   1       6.065  -0.721  -7.803  0.00  0.00    -0.422 OA
ATOM      9  C   LIG d   1       5.973  -0.865  -6.469  0.00  0.00     0.345 A 
ATOM     10  O   LIG d   1       6.927  -1.283  -5.837  0.00  0.00    -0.244 OA
ATOM     11  C   LIG d   1       4.732  -0.522  -5.774  0.00  0.00     0.070 A 
ATOM     12  H   LIG d   1       1.807   0.827  -8.202  0.00  0.00     0.063 H 
ATOM     13  H   LIG d   1       2.053   1.060 -10.619  0.00  0.00     0.066 H 
ATOM     14  H   LIG d   1       6.075  -0.375 -10.392  0.00  0.00     0.069 H 
ENDROOT
BRANCH   5  15
ATOM     15  O   LIG d   1       4.204   0.489 -11.994  0.00  0.00    -0.342 OA
BRANCH  15  16
ATOM     16  S   LIG d   1       4.327  -0.832 -12.740  0.00  0.00     0.151 S 
ATOM     17  O   LIG d   1       4.057  -0.554 -14.106  0.00  0.00    -0.131 OA
ATOM     18  O   LIG d   1       5.544  -1.429 -12.310  0.00  0.00    -0.131 OA
BRANCH  16  19
ATOM     19  C   LIG d   1       3.026  -1.874 -12.171  0.00  0.00     0.128 A 
ATOM     20  C   LIG d   1       1.724  -1.636 -12.572  0.00  0.00    -0.032 A 
ATOM     21  C   LIG d   1       0.704  -2.455 -12.127  0.00  0.00    -0.046 A 
ATOM     22  H   LIG d   1       1.506  -0.811 -13.234  0.00  0.00     0.064 H 
ATOM     23  C   LIG d   1       0.984  -3.511 -11.279  0.00  0.00     0.018 A 
ATOM     24  H   LIG d   1      -0.313  -2.269 -12.440  0.00  0.00     0.063 H 
ATOM     25  C   LIG d   1       2.286  -3.749 -10.879  0.00  0.00    -0.046 A 
ATOM     26 BR   LIG d   1      -0.413  -4.631 -10.669  0.00  0.00    -0.050 Br
ATOM     27  C   LIG d   1       3.308  -2.934 -11.328  0.00  0.00    -0.032 A 
ATOM     28  H   LIG d   1       2.505  -4.573 -10.217  0.00  0.00     0.063 H 
ATOM     29  H   LIG d   1       4.325  -3.122 -11.018  0.00  0.00     0.064 H 
ENDBRANCH  16  19
ENDBRANCH  15  16
ENDBRANCH   5  15
BRANCH   1  30
ATOM     30  C   LIG d   1       2.376   0.311  -5.819  0.00  0.00    -0.038 C 
ATOM     31  H   LIG d   1       2.444   1.326  -5.428  0.00  0.00     0.028 H 
ATOM     32  H   LIG d   1       1.558   0.252  -6.537  0.00  0.00     0.028 H 
ATOM     33  H   LIG d   1       2.190  -0.383  -4.999  0.00  0.00     0.028 H 
ENDBRANCH   1  30
BRANCH  11  34
ATOM     34  C   LIG d   1       4.625  -0.678  -4.304  0.00  0.00    -0.011 A 
ATOM     35  C   LIG d   1       4.984   0.373  -3.460  0.00  0.00    -0.054 A 
ATOM     36  C   LIG d   1       4.882   0.222  -2.093  0.00  0.00    -0.061 A 
ATOM     37  H   LIG d   1       5.341   1.303  -3.877  0.00  0.00     0.062 H 
ATOM     38  C   LIG d   1       4.425  -0.969  -1.558  0.00  0.00    -0.062 A 
ATOM     39  H   LIG d   1       5.160   1.035  -1.439  0.00  0.00     0.062 H 
ATOM     40  C   LIG d   1       4.068  -2.016  -2.390  0.00  0.00    -0.061 A 
ATOM     41  H   LIG d   1       4.348  -1.083  -0.487  0.00  0.00     0.062 H 
ATOM     42  C   LIG d   1       4.160  -1.874  -3.759  0.00  0.00    -0.054 A 
ATOM     43  H   LIG d   1       3.713  -2.943  -1.966  0.00  0.00     0.062 H 
ATOM     44  H   LIG d   1       3.876  -2.690  -4.408  0.00  0.00     0.062 H 
ENDBRANCH  11  34
TORSDOF 5
ENDMDL
MODEL 3
REMARK VINA RESULT:      -6.8      3.186      4.784
REMARK  5 active torsions:
REMARK  status: ('A' for Active; 'I' for Inactive)
REMARK    1  A    between atoms: C_1  and  C_2 
REMARK    2  A    between atoms: C_6  and  O_19 
REMARK    3  A    between atoms: C_12  and  C_13 
REMARK    4  A    between atoms: O_19  and  S_20 
REMARK    5  A    between atoms: S_20  and  C_23 
ROOT
ATOM      1  C   LIG d   1       6.797  -2.745  -4.117  0.00  0.00    -0.025 A 
ATOM      2  C   LIG d   1       7.768  -3.758  -4.327  0.00  0.00     0.021 A 
ATOM      3  C   LIG d   1       9.088  -3.572  -3.887  0.00  0.00    -0.047 A 
ATOM      4  C   LIG d   1      10.017  -4.548  -4.090  0.00  0.00    -0.016 A 
ATOM      5  C   LIG d   1       9.665  -5.735  -4.733  0.00  0.00     0.160 A 
ATOM      6  C   LIG d   1       8.366  -5.938  -5.168  0.00  0.00     0.026 A 
ATOM      7  C   LIG d   1       7.408  -4.953  -4.976  0.00  0.00     0.143 A 
ATOM      8  O   LIG d   1       6.143  -5.150  -5.405  0.00  0.00    -0.422 OA
ATOM      9  C   LIG d   1       5.193  -4.215  -5.226  0.00  0.00     0.345 A 
ATOM     10  O   LIG d   1       4.060  -4.418  -5.623  0.00  0.00    -0.244 OA
ATOM     11  C   LIG d   1       5.518  -2.955  -4.556  0.00  0.00     0.070 A 
ATOM     12  H   LIG d   1       9.366  -2.656  -3.389  0.00  0.00     0.063 H 
ATOM     13  H   LIG d   1      11.032  -4.403  -3.752  0.00  0.00     0.066 H 
ATOM     14  H   LIG d   1       8.101  -6.860  -5.666  0.00  0.00     0.069 H 
ENDROOT
BRANCH   5  15
ATOM     15  O   LIG d   1      10.600  -6.699  -4.928  0.00  0.00    -0.342 OA
BRANCH  15  16
ATOM     16  S   LIG d   1      10.904  -7.527  -3.688  0.00  0.00     0.151 S 
ATOM     17  O   LIG d   1      11.929  -8.441  -4.052  0.00  0.00    -0.131 OA
ATOM     18  O   LIG d   1      11.049  -6.609  -2.613  0.00  0.00    -0.131 OA
BRANCH  16  19
ATOM     19  C   LIG d   1       9.471  -8.489  -3.341  0.00  0.00     0.128 A 
ATOM     20  C   LIG d   1       8.984  -9.372  -4.287  0.00  0.00    -0.032 A 
ATOM     21  C   LIG d   1       7.860 -10.128  -4.014  0.00  0.00    -0.046 A 
ATOM     22  H   LIG d   1       9.484  -9.471  -5.240  0.00  0.00     0.064 H 
ATOM     23  C   LIG d   1       7.221 -10.001  -2.794  0.00  0.00     0.018 A 
ATOM     24  H   LIG d   1       7.480 -10.817  -4.754  0.00  0.00     0.063 H 
ATOM     25  C   LIG d   1       7.707  -9.118  -1.848  0.00  0.00    -0.046 A 
ATOM     26 BR   LIG d   1       5.682 -11.035  -2.421  0.00  0.00    -0.050 Br
ATOM     27  C   LIG d   1       8.835  -8.366  -2.119  0.00  0.00    -0.032 A 
ATOM     28  H   LIG d   1       7.208  -9.018  -0.895  0.00  0.00     0.063 H 
ATOM     29  H   LIG d   1       9.217  -7.679  -1.378  0.00  0.00     0.064 H 
ENDBRANCH  16  19
ENDBRANCH  15  16
ENDBRANCH   5  15
BRANCH   1  30
ATOM     30  C   LIG d   1       7.168  -1.459  -3.424  0.00  0.00    -0.038 C 
ATOM     31  H   LIG d   1       7.201  -1.623  -2.347  0.00  0.00     0.028 H 
ATOM     32  H   LIG d   1       8.146  -1.128  -3.771  0.00  0.00     0.028 H 
ATOM     33  H   LIG d   1       6.424  -0.695  -3.653  0.00  0.00     0.028 H 
ENDBRANCH   1  30
BRANCH  11  34
ATOM     34  C   LIG d   1       4.475  -1.920  -4.356  0.00  0.00    -0.011 A 
ATOM     35  C   LIG d   1       4.225  -0.976  -5.351  0.00  0.00    -0.054 A 
ATOM     36  C   LIG d   1       3.253  -0.016  -5.158  0.00  0.00    -0.061 A 
ATOM     37  H   LIG d   1       4.791  -0.997  -6.271  0.00  0.00     0.062 H 
ATOM     38  C   LIG d   1       2.528   0.012  -3.981  0.00  0.00    -0.062 A 
ATOM     39  H   LIG d   1       3.058   0.715  -5.928  0.00  0.00     0.062 H 
ATOM     40  C   LIG d   1       2.773  -0.922  -2.989  0.00  0.00    -0.061 A 
ATOM     41  H   LIG d   1       1.769   0.766  -3.834  0.00  0.00     0.062 H 
ATOM     42  C   LIG d   1       3.737  -1.891  -3.173  0.00  0.00    -0.054 A 
ATOM     43  H   LIG d   1       2.203  -0.895  -2.071  0.00  0.00     0.062 H 
ATOM     44  H   LIG d   1       3.924  -2.622  -2.400  0.00  0.00     0.062 H 
ENDBRANCH  11  34
TORSDOF 5
ENDMDL
MODEL 4
REMARK VINA RESULT:      -6.8      1.253      2.084
REMARK  5 active torsions:
REMARK  status: ('A' for Active; 'I' for Inactive)
REMARK    1  A    between atoms: C_1  and  C_2 
REMARK    2  A    between atoms: C_6  and  O_19 
REMARK    3  A    between atoms: C_12  and  C_13 
REMARK    4  A    between atoms: O_19  and  S_20 
REMARK    5  A    between atoms: S_20  and  C_23 
ROOT
ATOM      1  C   LIG d   1       4.462  -1.727  -6.848  0.00  0.00    -0.025 A 
ATOM      2  C   LIG d   1       4.453  -3.105  -6.511  0.00  0.00     0.021 A 
ATOM      3  C   LIG d   1       4.884  -3.524  -5.242  0.00  0.00    -0.047 A 
ATOM      4  C   LIG d   1       4.873  -4.849  -4.923  0.00  0.00    -0.016 A 
ATOM      5  C   LIG d   1       4.435  -5.795  -5.849  0.00  0.00     0.160 A 
ATOM      6  C   LIG d   1       4.001  -5.399  -7.104  0.00  0.00     0.026 A 
ATOM      7  C   LIG d   1       4.010  -4.055  -7.449  0.00  0.00     0.143 A 
ATOM      8  O   LIG d   1       3.591  -3.671  -8.674  0.00  0.00    -0.422 OA
ATOM      9  C   LIG d   1       3.584  -2.375  -9.032  0.00  0.00     0.345 A 
ATOM     10  O   LIG d   1       3.202  -2.055 -10.143  0.00  0.00    -0.244 OA
ATOM     11  C   LIG d   1       4.036  -1.348  -8.092  0.00  0.00     0.070 A 
ATOM     12  H   LIG d   1       5.224  -2.797  -4.521  0.00  0.00     0.063 H 
ATOM     13  H   LIG d   1       5.206  -5.169  -3.947  0.00  0.00     0.066 H 
ATOM     14  H   LIG d   1       3.663  -6.138  -7.816  0.00  0.00     0.069 H 
ENDROOT
BRANCH   5  15
ATOM     15  O   LIG d   1       4.429  -7.111  -5.518  0.00  0.00    -0.342 OA
BRANCH  15  16
ATOM     16  S   LIG d   1       5.772  -7.802  -5.705  0.00  0.00     0.151 S 
ATOM     17  O   LIG d   1       5.666  -8.583  -6.886  0.00  0.00    -0.131 OA
ATOM     18  O   LIG d   1       6.770  -6.804  -5.539  0.00  0.00    -0.131 OA
BRANCH  16  19
ATOM     19  C   LIG d   1       5.964  -8.934  -4.369  0.00  0.00     0.128 A 
ATOM     20  C   LIG d   1       4.895  -9.710  -3.960  0.00  0.00    -0.032 A 
ATOM     21  C   LIG d   1       5.045 -10.598  -2.913  0.00  0.00    -0.046 A 
ATOM     22  H   LIG d   1       3.942  -9.621  -4.461  0.00  0.00     0.064 H 
ATOM     23  C   LIG d   1       6.266 -10.712  -2.272  0.00  0.00     0.018 A 
ATOM     24  H   LIG d   1       4.210 -11.204  -2.594  0.00  0.00     0.063 H 
ATOM     25  C   LIG d   1       7.335  -9.936  -2.681  0.00  0.00    -0.046 A 
ATOM     26 BR   LIG d   1       6.472 -11.927  -0.838  0.00  0.00    -0.050 Br
ATOM     27  C   LIG d   1       7.186  -9.051  -3.732  0.00  0.00    -0.032 A 
ATOM     28  H   LIG d   1       8.288 -10.024  -2.180  0.00  0.00     0.063 H 
ATOM     29  H   LIG d   1       8.023  -8.448  -4.053  0.00  0.00     0.064 H 
ENDBRANCH  16  19
ENDBRANCH  15  16
ENDBRANCH   5  15
BRANCH   1  30
ATOM     30  C   LIG d   1       4.934  -0.697  -5.853  0.00  0.00    -0.038 C 
ATOM     31  H   LIG d   1       4.135  -0.485  -5.143  0.00  0.00     0.028 H 
ATOM     32  H   LIG d   1       5.803  -1.080  -5.318  0.00  0.00     0.028 H 
ATOM     33  H   LIG d   1       5.206   0.218  -6.380  0.00  0.00     0.028 H 
ENDBRANCH   1  30
BRANCH  11  34
ATOM     34  C   LIG d   1       4.030   0.082  -8.481  0.00  0.00    -0.011 A 
ATOM     35  C   LIG d   1       2.875   0.847  -8.319  0.00  0.00    -0.054 A 
ATOM     36  C   LIG d   1       2.876   2.177  -8.682  0.00  0.00    -0.061 A 
ATOM     37  H   LIG d   1       1.982   0.398  -7.909  0.00  0.00     0.062 H 
ATOM     38  C   LIG d   1       4.019   2.753  -9.207  0.00  0.00    -0.062 A 
ATOM     39  H   LIG d   1       1.982   2.771  -8.556  0.00  0.00     0.062 H 
ATOM     40  C   LIG d   1       5.167   2.000  -9.372  0.00  0.00    -0.061 A 
ATOM     41  H   LIG d   1       4.014   3.796  -9.491  0.00  0.00     0.062 H 
ATOM     42  C   LIG d   1       5.180   0.669  -9.006  0.00  0.00    -0.054 A 
ATOM     43  H   LIG d   1       6.056   2.455  -9.783  0.00  0.00     0.062 H 
ATOM     44  H   LIG d   1       6.079   0.083  -9.130  0.00  0.00     0.062 H 
ENDBRANCH  11  34
TORSDOF 5
ENDMDL
MODEL 5
REMARK VINA RESULT:      -6.6      6.514      9.865
REMARK  5 active torsions:
REMARK  status: ('A' for Active; 'I' for Inactive)
REMARK    1  A    between atoms: C_1  and  C_2 
REMARK    2  A    between atoms: C_6  and  O_19 
REMARK    3  A    between atoms: C_12  and  C_13 
REMARK    4  A    between atoms: O_19  and  S_20 
REMARK    5  A    between atoms: S_20  and  C_23 
ROOT
ATOM      1  C   LIG d   1       3.698  -0.169  -6.578  0.00  0.00    -0.025 A 
ATOM      2  C   LIG d   1       3.834  -0.123  -7.989  0.00  0.00     0.021 A 
ATOM      3  C   LIG d   1       2.801   0.403  -8.781  0.00  0.00    -0.047 A 
ATOM      4  C   LIG d   1       2.937   0.445 -10.136  0.00  0.00    -0.016 A 
ATOM      5  C   LIG d   1       4.098  -0.030 -10.745  0.00  0.00     0.160 A 
ATOM      6  C   LIG d   1       5.130  -0.546  -9.979  0.00  0.00     0.026 A 
ATOM      7  C   LIG d   1       5.008  -0.603  -8.598  0.00  0.00     0.143 A 
ATOM      8  O   LIG d   1       6.013  -1.112  -7.853  0.00  0.00    -0.422 OA
ATOM      9  C   LIG d   1       5.923  -1.173  -6.513  0.00  0.00     0.345 A 
ATOM     10  O   LIG d   1       6.843  -1.636  -5.864  0.00  0.00    -0.244 OA
ATOM     11  C   LIG d   1       4.722  -0.686  -5.831  0.00  0.00     0.070 A 
ATOM     12  H   LIG d   1       1.900   0.772  -8.316  0.00  0.00     0.063 H 
ATOM     13  H   LIG d   1       2.140   0.849 -10.744  0.00  0.00     0.066 H 
ATOM     14  H   LIG d   1       6.027  -0.913 -10.458  0.00  0.00     0.069 H 
ENDROOT
BRANCH   5  15
ATOM     15  O   LIG d   1       4.220   0.019 -12.095  0.00  0.00    -0.342 OA
BRANCH  15  16
ATOM     16  S   LIG d   1       4.246  -1.348 -12.765  0.00  0.00     0.151 S 
ATOM     17  O   LIG d   1       5.608  -1.744 -12.829  0.00  0.00    -0.131 OA
ATOM     18  O   LIG d   1       3.254  -2.135 -12.119  0.00  0.00    -0.131 OA
BRANCH  16  19
ATOM     19  C   LIG d   1       3.707  -1.123 -14.426  0.00  0.00     0.128 A 
ATOM     20  C   LIG d   1       2.663  -1.880 -14.924  0.00  0.00    -0.032 A 
ATOM     21  C   LIG d   1       2.239  -1.703 -16.227  0.00  0.00    -0.046 A 
ATOM     22  H   LIG d   1       2.177  -2.610 -14.293  0.00  0.00     0.064 H 
ATOM     23  C   LIG d   1       2.861  -0.768 -17.035  0.00  0.00     0.018 A 
ATOM     24  H   LIG d   1       1.423  -2.295 -16.615  0.00  0.00     0.063 H 
ATOM     25  C   LIG d   1       3.905  -0.011 -16.538  0.00  0.00    -0.046 A 
ATOM     26 BR   LIG d   1       2.282  -0.526 -18.819  0.00  0.00    -0.050 Br
ATOM     27  C   LIG d   1       4.325  -0.184 -15.233  0.00  0.00    -0.032 A 
ATOM     28  H   LIG d   1       4.391   0.719 -17.168  0.00  0.00     0.063 H 
ATOM     29  H   LIG d   1       5.139   0.410 -14.843  0.00  0.00     0.064 H 
ENDBRANCH  16  19
ENDBRANCH  15  16
ENDBRANCH   5  15
BRANCH   1  30
ATOM     30  C   LIG d   1       2.446   0.342  -5.911  0.00  0.00    -0.038 C 
ATOM     31  H   LIG d   1       1.640   0.393  -6.643  0.00  0.00     0.028 H 
ATOM     32  H   LIG d   1       2.163  -0.332  -5.104  0.00  0.00     0.028 H 
ATOM     33  H   LIG d   1       2.631   1.337  -5.505  0.00  0.00     0.028 H 
ENDBRANCH   1  30
BRANCH  11  34
ATOM     34  C   LIG d   1       4.617  -0.751  -4.355  0.00  0.00    -0.011 A 
ATOM     35  C   LIG d   1       4.093  -1.887  -3.739  0.00  0.00    -0.054 A 
ATOM     36  C   LIG d   1       3.999  -1.941  -2.364  0.00  0.00    -0.061 A 
ATOM     37  H   LIG d   1       3.762  -2.722  -4.338  0.00  0.00     0.062 H 
ATOM     38  C   LIG d   1       4.422  -0.871  -1.596  0.00  0.00    -0.062 A 
ATOM     39  H   LIG d   1       3.593  -2.821  -1.886  0.00  0.00     0.062 H 
ATOM     40  C   LIG d   1       4.942   0.259  -2.201  0.00  0.00    -0.061 A 
ATOM     41  H   LIG d   1       4.345  -0.918  -0.519  0.00  0.00     0.062 H 
ATOM     42  C   LIG d   1       5.048   0.322  -3.575  0.00  0.00    -0.054 A 
ATOM     43  H   LIG d   1       5.271   1.091  -1.596  0.00  0.00     0.062 H 
ATOM     44  H   LIG d   1       5.459   1.204  -4.046  0.00  0.00     0.062 H 
ENDBRANCH  11  34
TORSDOF 5
ENDMDL
MODEL 6
REMARK VINA RESULT:      -6.5      6.532      8.325
REMARK  5 active torsions:
REMARK  status: ('A' for Active; 'I' for Inactive)
REMARK    1  A    between atoms: C_1  and  C_2 
REMARK    2  A    between atoms: C_6  and  O_19 
REMARK    3  A    between atoms: C_12  and  C_13 
REMARK    4  A    between atoms: O_19  and  S_20 
REMARK    5  A    between atoms: S_20  and  C_23 
ROOT
ATOM      1  C   LIG d   1       1.390  -1.990 -10.955  0.00  0.00    -0.025 A 
ATOM      2  C   LIG d   1       0.970  -3.337 -11.103  0.00  0.00     0.021 A 
ATOM      3  C   LIG d   1      -0.043  -3.664 -12.017  0.00  0.00    -0.047 A 
ATOM      4  C   LIG d   1      -0.442  -4.961 -12.156  0.00  0.00    -0.016 A 
ATOM      5  C   LIG d   1       0.151  -5.967 -11.395  0.00  0.00     0.160 A 
ATOM      6  C   LIG d   1       1.157  -5.664 -10.493  0.00  0.00     0.026 A 
ATOM      7  C   LIG d   1       1.572  -4.350 -10.333  0.00  0.00     0.143 A 
ATOM      8  O   LIG d   1       2.550  -4.054  -9.449  0.00  0.00    -0.422 OA
ATOM      9  C   LIG d   1       2.975  -2.790  -9.279  0.00  0.00     0.345 A 
ATOM     10  O   LIG d   1       3.858  -2.550  -8.475  0.00  0.00    -0.244 OA
ATOM     11  C   LIG d   1       2.381  -1.701 -10.056  0.00  0.00     0.070 A 
ATOM     12  H   LIG d   1      -0.506  -2.890 -12.609  0.00  0.00     0.063 H 
ATOM     13  H   LIG d   1      -1.223  -5.210 -12.859  0.00  0.00     0.066 H 
ATOM     14  H   LIG d   1       1.612  -6.449  -9.907  0.00  0.00     0.069 H 
ENDROOT
BRANCH   5  15
ATOM     15  O   LIG d   1      -0.255  -7.253 -11.544  0.00  0.00    -0.342 OA
BRANCH  15  16
ATOM     16  S   LIG d   1      -1.252  -7.713 -10.490  0.00  0.00     0.151 S 
ATOM     17  O   LIG d   1      -1.698  -9.002 -10.887  0.00  0.00    -0.131 OA
ATOM     18  O   LIG d   1      -0.647  -7.473  -9.226  0.00  0.00    -0.131 OA
BRANCH  16  19
ATOM     19  C   LIG d   1      -2.647  -6.644 -10.592  0.00  0.00     0.128 A 
ATOM     20  C   LIG d   1      -2.864  -5.693  -9.612  0.00  0.00    -0.032 A 
ATOM     21  C   LIG d   1      -3.958  -4.853  -9.693  0.00  0.00    -0.046 A 
ATOM     22  H   LIG d   1      -2.176  -5.607  -8.783  0.00  0.00     0.064 H 
ATOM     23  C   LIG d   1      -4.838  -4.963 -10.754  0.00  0.00     0.018 A 
ATOM     24  H   LIG d   1      -4.126  -4.110  -8.927  0.00  0.00     0.063 H 
ATOM     25  C   LIG d   1      -4.621  -5.914 -11.735  0.00  0.00    -0.046 A 
ATOM     26 BR   LIG d   1      -6.336  -3.814 -10.865  0.00  0.00    -0.050 Br
ATOM     27  C   LIG d   1      -3.524  -6.751 -11.657  0.00  0.00    -0.032 A 
ATOM     28  H   LIG d   1      -5.308  -6.001 -12.564  0.00  0.00     0.063 H 
ATOM     29  H   LIG d   1      -3.353  -7.491 -12.425  0.00  0.00     0.064 H 
ENDBRANCH  16  19
ENDBRANCH  15  16
ENDBRANCH   5  15
BRANCH   1  30
ATOM     30  C   LIG d   1       0.754  -0.895 -11.773  0.00  0.00    -0.038 C 
ATOM     31  H   LIG d   1      -0.068  -0.452 -11.210  0.00  0.00     0.028 H 
ATOM     32  H   LIG d   1       1.497  -0.130 -11.996  0.00  0.00     0.028 H 
ATOM     33  H   LIG d   1       0.372  -1.313 -12.705  0.00  0.00     0.028 H 
ENDBRANCH   1  30
BRANCH  11  34
ATOM     34  C   LIG d   1       2.846  -0.306  -9.874  0.00  0.00    -0.011 A 
ATOM     35  C   LIG d   1       3.755   0.252 -10.772  0.00  0.00    -0.054 A 
ATOM     36  C   LIG d   1       4.184   1.551 -10.598  0.00  0.00    -0.061 A 
ATOM     37  H   LIG d   1       4.121  -0.332 -11.604  0.00  0.00     0.062 H 
ATOM     38  C   LIG d   1       3.715   2.300  -9.533  0.00  0.00    -0.062 A 
ATOM     39  H   LIG d   1       4.887   1.985 -11.293  0.00  0.00     0.062 H 
ATOM     40  C   LIG d   1       2.815   1.752  -8.637  0.00  0.00    -0.061 A 
ATOM     41  H   LIG d   1       4.055   3.317  -9.400  0.00  0.00     0.062 H 
ATOM     42  C   LIG d   1       2.373   0.455  -8.805  0.00  0.00    -0.054 A 
ATOM     43  H   LIG d   1       2.453   2.341  -7.808  0.00  0.00     0.062 H 
ATOM     44  H   LIG d   1       1.666   0.030  -8.108  0.00  0.00     0.062 H 
ENDBRANCH  11  34
TORSDOF 5
ENDMDL
MODEL 7
REMARK VINA RESULT:      -6.5      6.019      8.845
REMARK  5 active torsions:
REMARK  status: ('A' for Active; 'I' for Inactive)
REMARK    1  A    between atoms: C_1  and  C_2 
REMARK    2  A    between atoms: C_6  and  O_19 
REMARK    3  A    between atoms: C_12  and  C_13 
REMARK    4  A    between atoms: O_19  and  S_20 
REMARK    5  A    between atoms: S_20  and  C_23 
ROOT
ATOM      1  C   LIG d   1       9.270   3.293  -5.926  0.00  0.00    -0.025 A 
ATOM      2  C   LIG d   1       8.458   2.163  -5.651  0.00  0.00     0.021 A 
ATOM      3  C   LIG d   1       7.917   1.409  -6.705  0.00  0.00    -0.047 A 
ATOM      4  C   LIG d   1       7.138   0.324  -6.435  0.00  0.00    -0.016 A 
ATOM      5  C   LIG d   1       6.874  -0.046  -5.117  0.00  0.00     0.160 A 
ATOM      6  C   LIG d   1       7.404   0.682  -4.065  0.00  0.00     0.026 A 
ATOM      7  C   LIG d   1       8.194   1.794  -4.319  0.00  0.00     0.143 A 
ATOM      8  O   LIG d   1       8.707   2.506  -3.292  0.00  0.00    -0.422 OA
ATOM      9  C   LIG d   1       9.481   3.583  -3.511  0.00  0.00     0.345 A 
ATOM     10  O   LIG d   1       9.930   4.208  -2.567  0.00  0.00    -0.244 OA
ATOM     11  C   LIG d   1       9.784   4.008  -4.878  0.00  0.00     0.070 A 
ATOM     12  H   LIG d   1       8.118   1.690  -7.727  0.00  0.00     0.063 H 
ATOM     13  H   LIG d   1       6.722  -0.254  -7.247  0.00  0.00     0.066 H 
ATOM     14  H   LIG d   1       7.195   0.389  -3.046  0.00  0.00     0.069 H 
ENDROOT
BRANCH   5  15
ATOM     15  O   LIG d   1       6.097  -1.129  -4.863  0.00  0.00    -0.342 OA
BRANCH  15  16
ATOM     16  S   LIG d   1       4.614  -0.812  -4.739  0.00  0.00     0.151 S 
ATOM     17  O   LIG d   1       4.023  -1.898  -4.039  0.00  0.00    -0.131 OA
ATOM     18  O   LIG d   1       4.523   0.530  -4.279  0.00  0.00    -0.131 OA
BRANCH  16  19
ATOM     19  C   LIG d   1       3.939  -0.834  -6.365  0.00  0.00     0.128 A 
ATOM     20  C   LIG d   1       4.241  -1.874  -7.225  0.00  0.00    -0.032 A 
ATOM     21  C   LIG d   1       3.711  -1.893  -8.501  0.00  0.00    -0.046 A 
ATOM     22  H   LIG d   1       4.890  -2.673  -6.899  0.00  0.00     0.064 H 
ATOM     23  C   LIG d   1       2.878  -0.870  -8.919  0.00  0.00     0.018 A 
ATOM     24  H   LIG d   1       3.947  -2.705  -9.173  0.00  0.00     0.063 H 
ATOM     25  C   LIG d   1       2.577   0.170  -8.059  0.00  0.00    -0.046 A 
ATOM     26 BR   LIG d   1       2.153  -0.894 -10.666  0.00  0.00    -0.050 Br
ATOM     27  C   LIG d   1       3.102   0.186  -6.781  0.00  0.00    -0.032 A 
ATOM     28  H   LIG d   1       1.927   0.969  -8.385  0.00  0.00     0.063 H 
ATOM     29  H   LIG d   1       2.863   0.996  -6.108  0.00  0.00     0.064 H 
ENDBRANCH  16  19
ENDBRANCH  15  16
ENDBRANCH   5  15
BRANCH   1  30
ATOM     30  C   LIG d   1       9.561   3.700  -7.348  0.00  0.00    -0.038 C 
ATOM     31  H   LIG d   1      10.110   2.903  -7.849  0.00  0.00     0.028 H 
ATOM     32  H   LIG d   1       8.624   3.882  -7.873  0.00  0.00     0.028 H 
ATOM     33  H   LIG d   1      10.160   4.611  -7.349  0.00  0.00     0.028 H 
ENDBRANCH   1  30
BRANCH  11  34
ATOM     34  C   LIG d   1      10.637   5.195  -5.125  0.00  0.00    -0.011 A 
ATOM     35  C   LIG d   1      10.059   6.457  -5.258  0.00  0.00    -0.054 A 
ATOM     36  C   LIG d   1      10.858   7.558  -5.487  0.00  0.00    -0.061 A 
ATOM     37  H   LIG d   1       8.988   6.572  -5.181  0.00  0.00     0.062 H 
ATOM     38  C   LIG d   1      12.230   7.411  -5.586  0.00  0.00    -0.062 A 
ATOM     39  H   LIG d   1      10.412   8.536  -5.590  0.00  0.00     0.062 H 
ATOM     40  C   LIG d   1      12.809   6.162  -5.456  0.00  0.00    -0.061 A 
ATOM     41  H   LIG d   1      12.852   8.276  -5.766  0.00  0.00     0.062 H 
ATOM     42  C   LIG d   1      12.021   5.054  -5.220  0.00  0.00    -0.054 A 
ATOM     43  H   LIG d   1      13.881   6.054  -5.535  0.00  0.00     0.062 H 
ATOM     44  H   LIG d   1      12.475   4.080  -5.114  0.00  0.00     0.062 H 
ENDBRANCH  11  34
TORSDOF 5
ENDMDL
MODEL 8
REMARK VINA RESULT:      -6.5      3.271      4.406
REMARK  5 active torsions:
REMARK  status: ('A' for Active; 'I' for Inactive)
REMARK    1  A    between atoms: C_1  and  C_2 
REMARK    2  A    between atoms: C_6  and  O_19 
REMARK    3  A    between atoms: C_12  and  C_13 
REMARK    4  A    between atoms: O_19  and  S_20 
REMARK    5  A    between atoms: S_20  and  C_23 
ROOT
ATOM      1  C   LIG d   1       5.871  -3.806  -4.905  0.00  0.00    -0.025 A 
ATOM      2  C   LIG d   1       7.045  -4.598  -4.983  0.00  0.00     0.021 A 
ATOM      3  C   LIG d   1       7.015  -5.845  -5.625  0.00  0.00    -0.047 A 
ATOM      4  C   LIG d   1       8.146  -6.602  -5.697  0.00  0.00    -0.016 A 
ATOM      5  C   LIG d   1       9.338  -6.145  -5.136  0.00  0.00     0.160 A 
ATOM      6  C   LIG d   1       9.389  -4.914  -4.503  0.00  0.00     0.026 A 
ATOM      7  C   LIG d   1       8.246  -4.132  -4.415  0.00  0.00     0.143 A 
ATOM      8  O   LIG d   1       8.295  -2.934  -3.793  0.00  0.00    -0.422 OA
ATOM      9  C   LIG d   1       7.204  -2.154  -3.698  0.00  0.00     0.345 A 
ATOM     10  O   LIG d   1       7.275  -1.078  -3.132  0.00  0.00    -0.244 OA
ATOM     11  C   LIG d   1       5.931  -2.594  -4.273  0.00  0.00     0.070 A 
ATOM     12  H   LIG d   1       6.095  -6.205  -6.062  0.00  0.00     0.063 H 
ATOM     13  H   LIG d   1       8.120  -7.562  -6.191  0.00  0.00     0.066 H 
ATOM     14  H   LIG d   1      10.316  -4.567  -4.071  0.00  0.00     0.069 H 
ENDROOT
BRANCH   5  15
ATOM     15  O   LIG d   1      10.457  -6.908  -5.215  0.00  0.00    -0.342 OA
BRANCH  15  16
ATOM     16  S   LIG d   1      10.859  -7.556  -3.898  0.00  0.00     0.151 S 
ATOM     17  O   LIG d   1      11.930  -8.442  -4.192  0.00  0.00    -0.131 OA
ATOM     18  O   LIG d   1      10.979  -6.505  -2.948  0.00  0.00    -0.131 OA
BRANCH  16  19
ATOM     19  C   LIG d   1       9.507  -8.556  -3.377  0.00  0.00     0.128 A 
ATOM     20  C   LIG d   1       9.121  -9.648  -4.134  0.00  0.00    -0.032 A 
ATOM     21  C   LIG d   1       8.061 -10.433  -3.724  0.00  0.00    -0.046 A 
ATOM     22  H   LIG d   1       9.650  -9.886  -5.044  0.00  0.00     0.064 H 
ATOM     23  C   LIG d   1       7.384 -10.128  -2.557  0.00  0.00     0.018 A 
ATOM     24  H   LIG d   1       7.760 -11.286  -4.315  0.00  0.00     0.063 H 
ATOM     25  C   LIG d   1       7.769  -9.037  -1.801  0.00  0.00    -0.046 A 
ATOM     26 BR   LIG d   1       5.932 -11.202  -1.997  0.00  0.00    -0.050 Br
ATOM     27  C   LIG d   1       8.834  -8.254  -2.207  0.00  0.00    -0.032 A 
ATOM     28  H   LIG d   1       7.241  -8.797  -0.890  0.00  0.00     0.063 H 
ATOM     29  H   LIG d   1       9.137  -7.404  -1.614  0.00  0.00     0.064 H 
ENDBRANCH  16  19
ENDBRANCH  15  16
ENDBRANCH   5  15
BRANCH   1  30
ATOM     30  C   LIG d   1       4.578  -4.292  -5.509  0.00  0.00    -0.038 C 
ATOM     31  H   LIG d   1       4.747  -4.579  -6.547  0.00  0.00     0.028 H 
ATOM     32  H   LIG d   1       4.216  -5.153  -4.947  0.00  0.00     0.028 H 
ATOM     33  H   LIG d   1       3.836  -3.494  -5.468  0.00  0.00     0.028 H 
ENDBRANCH   1  30
BRANCH  11  34
ATOM     34  C   LIG d   1       4.726  -1.738  -4.172  0.00  0.00    -0.011 A 
ATOM     35  C   LIG d   1       3.894  -1.828  -3.056  0.00  0.00    -0.054 A 
ATOM     36  C   LIG d   1       2.774  -1.029  -2.968  0.00  0.00    -0.061 A 
ATOM     37  H   LIG d   1       4.127  -2.523  -2.263  0.00  0.00     0.062 H 
ATOM     38  C   LIG d   1       2.473  -0.139  -3.984  0.00  0.00    -0.062 A 
ATOM     39  H   LIG d   1       2.129  -1.097  -2.104  0.00  0.00     0.062 H 
ATOM     40  C   LIG d   1       3.294  -0.046  -5.094  0.00  0.00    -0.061 A 
ATOM     41  H   LIG d   1       1.594   0.484  -3.911  0.00  0.00     0.062 H 
ATOM     42  C   LIG d   1       4.421  -0.836  -5.190  0.00  0.00    -0.054 A 
ATOM     43  H   LIG d   1       3.054   0.650  -5.884  0.00  0.00     0.062 H 
ATOM     44  H   LIG d   1       5.063  -0.758  -6.056  0.00  0.00     0.062 H 
ENDBRANCH  11  34
TORSDOF 5
ENDMDL
MODEL 9
REMARK VINA RESULT:      -6.4      3.612      9.709
REMARK  5 active torsions:
REMARK  status: ('A' for Active; 'I' for Inactive)
REMARK    1  A    between atoms: C_1  and  C_2 
REMARK    2  A    between atoms: C_6  and  O_19 
REMARK    3  A    between atoms: C_12  and  C_13 
REMARK    4  A    between atoms: O_19  and  S_20 
REMARK    5  A    between atoms: S_20  and  C_23 
ROOT
ATOM      1  C   LIG d   1       6.884  -9.091  -3.980  0.00  0.00    -0.025 A 
ATOM      2  C   LIG d   1       6.435  -8.137  -4.929  0.00  0.00     0.021 A 
ATOM      3  C   LIG d   1       7.226  -7.018  -5.233  0.00  0.00    -0.047 A 
ATOM      4  C   LIG d   1       6.789  -6.105  -6.147  0.00  0.00    -0.016 A 
ATOM      5  C   LIG d   1       5.560  -6.274  -6.783  0.00  0.00     0.160 A 
ATOM      6  C   LIG d   1       4.769  -7.375  -6.500  0.00  0.00     0.026 A 
ATOM      7  C   LIG d   1       5.194  -8.312  -5.569  0.00  0.00     0.143 A 
ATOM      8  O   LIG d   1       4.419  -9.383  -5.289  0.00  0.00    -0.422 OA
ATOM      9  C   LIG d   1       4.809 -10.310  -4.396  0.00  0.00     0.345 A 
ATOM     10  O   LIG d   1       4.092 -11.266  -4.162  0.00  0.00    -0.244 OA
ATOM     11  C   LIG d   1       6.091 -10.172  -3.704  0.00  0.00     0.070 A 
ATOM     12  H   LIG d   1       8.178  -6.881  -4.744  0.00  0.00     0.063 H 
ATOM     13  H   LIG d   1       7.399  -5.244  -6.378  0.00  0.00     0.066 H 
ATOM     14  H   LIG d   1       3.818  -7.499  -6.997  0.00  0.00     0.069 H 
ENDROOT
BRANCH   5  15
ATOM     15  O   LIG d   1       5.139  -5.357  -7.690  0.00  0.00    -0.342 OA
BRANCH  15  16
ATOM     16  S   LIG d   1       4.040  -4.438  -7.177  0.00  0.00     0.151 S 
ATOM     17  O   LIG d   1       3.491  -3.786  -8.313  0.00  0.00    -0.131 OA
ATOM     18  O   LIG d   1       3.247  -5.211  -6.285  0.00  0.00    -0.131 OA
BRANCH  16  19
ATOM     19  C   LIG d   1       4.817  -3.190  -6.207  0.00  0.00     0.128 A 
ATOM     20  C   LIG d   1       5.385  -2.089  -6.823  0.00  0.00    -0.032 A 
ATOM     21  C   LIG d   1       5.994  -1.109  -6.062  0.00  0.00    -0.046 A 
ATOM     22  H   LIG d   1       5.351  -1.995  -7.898  0.00  0.00     0.064 H 
ATOM     23  C   LIG d   1       6.037  -1.229  -4.685  0.00  0.00     0.018 A 
ATOM     24  H   LIG d   1       6.437  -0.250  -6.543  0.00  0.00     0.063 H 
ATOM     25  C   LIG d   1       5.469  -2.330  -4.069  0.00  0.00    -0.046 A 
ATOM     26 BR   LIG d   1       6.871   0.111  -3.643  0.00  0.00    -0.050 Br
ATOM     27  C   LIG d   1       4.855  -3.307  -4.829  0.00  0.00    -0.032 A 
ATOM     28  H   LIG d   1       5.502  -2.424  -2.994  0.00  0.00     0.063 H 
ATOM     29  H   LIG d   1       4.408  -4.165  -4.348  0.00  0.00     0.064 H 
ENDBRANCH  16  19
ENDBRANCH  15  16
ENDBRANCH   5  15
BRANCH   1  30
ATOM     30  C   LIG d   1       8.211  -8.916  -3.287  0.00  0.00    -0.038 C 
ATOM     31  H   LIG d   1       8.067  -8.351  -2.365  0.00  0.00     0.028 H 
ATOM     32  H   LIG d   1       8.631  -9.893  -3.053  0.00  0.00     0.028 H 
ATOM     33  H   LIG d   1       8.894  -8.375  -3.942  0.00  0.00     0.028 H 
ENDBRANCH   1  30
BRANCH  11  34
ATOM     34  C   LIG d   1       6.527 -11.190  -2.719  0.00  0.00    -0.011 A 
ATOM     35  C   LIG d   1       6.077 -11.127  -1.401  0.00  0.00    -0.054 A 
ATOM     36  C   LIG d   1       6.484 -12.078  -0.489  0.00  0.00    -0.061 A 
ATOM     37  H   LIG d   1       5.409 -10.334  -1.095  0.00  0.00     0.062 H 
ATOM     38  C   LIG d   1       7.340 -13.092  -0.879  0.00  0.00    -0.062 A 
ATOM     39  H   LIG d   1       6.136 -12.030   0.532  0.00  0.00     0.062 H 
ATOM     40  C   LIG d   1       7.791 -13.161  -2.185  0.00  0.00    -0.061 A 
ATOM     41  H   LIG d   1       7.657 -13.835  -0.161  0.00  0.00     0.062 H 
ATOM     42  C   LIG d   1       7.384 -12.219  -3.108  0.00  0.00    -0.054 A 
ATOM     43  H   LIG d   1       8.459 -13.955  -2.484  0.00  0.00     0.062 H 
ATOM     44  H   LIG d   1       7.733 -12.276  -4.129  0.00  0.00     0.062 H 
ENDBRANCH  11  34
TORSDOF 5
ENDMDL
MODEL 10
REMARK VINA RESULT:      -6.4      5.682      7.599
REMARK  5 active torsions:
REMARK  status: ('A' for Active; 'I' for Inactive)
REMARK    1  A    between atoms: C_1  and  C_2 
REMARK    2  A    between atoms: C_6  and  O_19 
REMARK    3  A    between atoms: C_12  and  C_13 
REMARK    4  A    between atoms: O_19  and  S_20 
REMARK    5  A    between atoms: S_20  and  C_23 
ROOT
ATOM      1  C   LIG d   1       4.293  -1.714  -6.799  0.00  0.00    -0.025 A 
ATOM      2  C   LIG d   1       3.986  -1.672  -8.183  0.00  0.00     0.021 A 
ATOM      3  C   LIG d   1       4.443  -2.688  -9.038  0.00  0.00    -0.047 A 
ATOM      4  C   LIG d   1       4.145  -2.643 -10.367  0.00  0.00    -0.016 A 
ATOM      5  C   LIG d   1       3.387  -1.594 -10.887  0.00  0.00     0.160 A 
ATOM      6  C   LIG d   1       2.923  -0.587 -10.057  0.00  0.00     0.026 A 
ATOM      7  C   LIG d   1       3.221  -0.612  -8.703  0.00  0.00     0.143 A 
ATOM      8  O   LIG d   1       2.772   0.374  -7.896  0.00  0.00    -0.422 OA
ATOM      9  C   LIG d   1       3.041   0.372  -6.578  0.00  0.00     0.345 A 
ATOM     10  O   LIG d   1       2.624   1.272  -5.873  0.00  0.00    -0.244 OA
ATOM     11  C   LIG d   1       3.833  -0.710  -5.990  0.00  0.00     0.070 A 
ATOM     12  H   LIG d   1       5.030  -3.502  -8.642  0.00  0.00     0.063 H 
ATOM     13  H   LIG d   1       4.499  -3.425 -11.023  0.00  0.00     0.066 H 
ATOM     14  H   LIG d   1       2.337   0.223 -10.468  0.00  0.00     0.069 H 
ENDROOT
BRANCH   5  15
ATOM     15  O   LIG d   1       3.098  -1.563 -12.212  0.00  0.00    -0.342 OA
BRANCH  15  16
ATOM     16  S   LIG d   1       1.664  -1.949 -12.543  0.00  0.00     0.151 S 
ATOM     17  O   LIG d   1       0.826  -1.113 -11.757  0.00  0.00    -0.131 OA
ATOM     18  O   LIG d   1       1.573  -2.001 -13.960  0.00  0.00    -0.131 OA
BRANCH  16  19
ATOM     19  C   LIG d   1       1.421  -3.594 -11.961  0.00  0.00     0.128 A 
ATOM     20  C   LIG d   1       0.576  -3.833 -10.893  0.00  0.00    -0.032 A 
ATOM     21  C   LIG d   1       0.385  -5.124 -10.438  0.00  0.00    -0.046 A 
ATOM     22  H   LIG d   1       0.065  -3.011 -10.416  0.00  0.00     0.064 H 
ATOM     23  C   LIG d   1       1.040  -6.177 -11.050  0.00  0.00     0.018 A 
ATOM     24  H   LIG d   1      -0.275  -5.310  -9.604  0.00  0.00     0.063 H 
ATOM     25  C   LIG d   1       1.885  -5.938 -12.118  0.00  0.00    -0.046 A 
ATOM     26 BR   LIG d   1       0.779  -7.944 -10.427  0.00  0.00    -0.050 Br
ATOM     27  C   LIG d   1       2.072  -4.648 -12.578  0.00  0.00    -0.032 A 
ATOM     28  H   LIG d   1       2.396  -6.761 -12.597  0.00  0.00     0.063 H 
ATOM     29  H   LIG d   1       2.729  -4.462 -13.415  0.00  0.00     0.064 H 
ENDBRANCH  16  19
ENDBRANCH  15  16
ENDBRANCH   5  15
BRANCH   1  30
ATOM     30  C   LIG d   1       5.112  -2.843  -6.229  0.00  0.00    -0.038 C 
ATOM     31  H   LIG d   1       4.529  -3.368  -5.472  0.00  0.00     0.028 H 
ATOM     32  H   LIG d   1       5.380  -3.536  -7.025  0.00  0.00     0.028 H 
ATOM     33  H   LIG d   1       6.018  -2.441  -5.776  0.00  0.00     0.028 H 
ENDBRANCH   1  30
BRANCH  11  34
ATOM     34  C   LIG d   1       4.132  -0.718  -4.538  0.00  0.00    -0.011 A 
ATOM     35  C   LIG d   1       3.301  -1.408  -3.656  0.00  0.00    -0.054 A 
ATOM     36  C   LIG d   1       3.585  -1.414  -2.307  0.00  0.00    -0.061 A 
ATOM     37  H   LIG d   1       2.437  -1.939  -4.030  0.00  0.00     0.062 H 
ATOM     38  C   LIG d   1       4.691  -0.735  -1.827  0.00  0.00    -0.062 A 
ATOM     39  H   LIG d   1       2.943  -1.948  -1.623  0.00  0.00     0.062 H 
ATOM     40  C   LIG d   1       5.518  -0.047  -2.697  0.00  0.00    -0.061 A 
ATOM     41  H   LIG d   1       4.908  -0.741  -0.769  0.00  0.00     0.062 H 
ATOM     42  C   LIG d   1       5.248  -0.040  -4.050  0.00  0.00    -0.054 A 
ATOM     43  H   LIG d   1       6.380   0.481  -2.316  0.00  0.00     0.062 H 
ATOM     44  H   LIG d   1       5.898   0.493  -4.728  0.00  0.00     0.062 H 
ENDBRANCH  11  34
TORSDOF 5
ENDMDL
