MODEL 1
REMARK VINA RESULT:      -5.5      0.000      0.000
REMARK  9 active torsions:
REMARK  status: ('A' for Active; 'I' for Inactive)
REMARK    1  A    between atoms: C_1  and  C_2 
REMARK    2  A    between atoms: C_4  and  C_24 
REMARK    3  A    between atoms: C_6  and  C_21 
REMARK    4  A    between atoms: C_9  and  C_11 
REMARK    5  A    between atoms: C_11  and  C_12 
REMARK       I    between atoms: C_12  and  N_14 
REMARK    6  A    between atoms: N_17  and  C_20 
REMARK    7  A    between atoms: C_21  and  C_22 
REMARK    8  A    between atoms: C_21  and  C_23 
REMARK    9  A    between atoms: C_24  and  O_25 
ROOT
ATOM      1  C   LIG d   1       3.556   1.531  -9.786  0.00  0.00    -0.073 C 
ATOM      2  C   LIG d   1       3.912   1.169 -10.976  0.00  0.00    -0.079 C 
ATOM      3  C   LIG d   1       3.421  -0.075 -11.659  0.00  0.00     0.004 C 
ATOM      4  H   LIG d   1       2.653   0.220 -12.390  0.00  0.00     0.037 H 
ATOM      5  C   LIG d   1       2.812  -1.033 -10.633  0.00  0.00    -0.030 C 
ATOM      6  H   LIG d   1       3.605  -1.469 -10.007  0.00  0.00     0.031 H 
ATOM      7  C   LIG d   1       1.822  -0.248  -9.764  0.00  0.00    -0.042 C 
ATOM      8  C   LIG d   1       2.609   0.755  -8.919  0.00  0.00    -0.012 C 
ATOM      9  H   LIG d   1       1.915   1.468  -8.450  0.00  0.00     0.035 H 
ATOM     10  H   LIG d   1       4.618   1.786 -11.552  0.00  0.00     0.058 H 
ATOM     11  H   LIG d   1       1.108   0.283 -10.410  0.00  0.00     0.027 H 
ATOM     12  H   LIG d   1       1.276  -0.944  -9.110  0.00  0.00     0.027 H 
ENDROOT
BRANCH   8  13
ATOM     13  C   LIG d   1       3.403   0.003  -7.848  0.00  0.00     0.031 C 
ATOM     14  H   LIG d   1       3.107  -1.055  -7.846  0.00  0.00     0.036 H 
ATOM     15  H   LIG d   1       4.478   0.082  -8.067  0.00  0.00     0.036 H 
BRANCH  13  16
ATOM     16  C   LIG d   1       3.120   0.607  -6.497  0.00  0.00     0.216 C 
ATOM     17  O   LIG d   1       2.362   1.548  -6.400  0.00  0.00    -0.276 OA
ATOM     18  N   LIG d   1       3.709   0.101  -5.396  0.00  0.00    -0.299 N 
ATOM     19  C   LIG d   1       4.632  -1.041  -5.491  0.00  0.00     0.028 C 
ATOM     20  C   LIG d   1       3.446   0.674  -4.067  0.00  0.00     0.028 C 
ATOM     21  C   LIG d   1       4.189  -2.109  -4.484  0.00  0.00     0.015 C 
ATOM     22  H   LIG d   1       4.602  -1.453  -6.510  0.00  0.00     0.048 H 
ATOM     23  H   LIG d   1       5.653  -0.708  -5.259  0.00  0.00     0.048 H 
ATOM     24  N   LIG d   1       4.084  -1.505  -3.148  0.00  0.00    -0.302 N 
ATOM     25  H   LIG d   1       4.930  -2.922  -4.461  0.00  0.00     0.044 H 
ATOM     26  H   LIG d   1       3.211  -2.514  -4.781  0.00  0.00     0.044 H 
ATOM     27  C   LIG d   1       3.051  -0.461  -3.116  0.00  0.00     0.015 C 
ATOM     28  H   LIG d   1       2.959  -0.067  -2.093  0.00  0.00     0.044 H 
ATOM     29  H   LIG d   1       2.088  -0.887  -3.433  0.00  0.00     0.044 H 
ATOM     30  H   LIG d   1       4.353   1.174  -3.698  0.00  0.00     0.048 H 
ATOM     31  H   LIG d   1       2.628   1.406  -4.138  0.00  0.00     0.048 H 
BRANCH  24  32
ATOM     32  C   LIG d   1       3.831  -2.529  -2.126  0.00  0.00    -0.013 C 
ATOM     33  H   LIG d   1       4.783  -2.835  -1.669  0.00  0.00     0.039 H 
ATOM     34  H   LIG d   1       3.350  -3.402  -2.592  0.00  0.00     0.039 H 
ATOM     35  H   LIG d   1       3.167  -2.116  -1.351  0.00  0.00     0.039 H 
ENDBRANCH  24  32
ENDBRANCH  13  16
ENDBRANCH   8  13
BRANCH   1  36
ATOM     36  C   LIG d   1       4.127   2.814  -9.238  0.00  0.00    -0.043 C 
ATOM     37  H   LIG d   1       3.431   3.238  -8.499  0.00  0.00     0.027 H 
ATOM     38  H   LIG d   1       4.270   3.531 -10.059  0.00  0.00     0.027 H 
ATOM     39  H   LIG d   1       5.094   2.609  -8.757  0.00  0.00     0.027 H 
ENDBRANCH   1  36
BRANCH   5  40
ATOM     40  C   LIG d   1       2.077  -2.163 -11.358  0.00  0.00    -0.043 C 
ATOM     41  H   LIG d   1       2.766  -2.659 -12.057  0.00  0.00     0.030 H 
BRANCH  40  42
ATOM     42  C   LIG d   1       1.568  -3.179 -10.333  0.00  0.00    -0.062 C 
ATOM     43  H   LIG d   1       1.963  -4.176 -10.581  0.00  0.00     0.023 H 
ATOM     44  H   LIG d   1       0.469  -3.203 -10.356  0.00  0.00     0.023 H 
ATOM     45  H   LIG d   1       1.908  -2.888  -9.329  0.00  0.00     0.023 H 
ENDBRANCH  40  42
BRANCH  40  46
ATOM     46  C   LIG d   1       0.893  -1.584 -12.135  0.00  0.00    -0.062 C 
ATOM     47  H   LIG d   1       0.001  -1.574 -11.490  0.00  0.00     0.023 H 
ATOM     48  H   LIG d   1       0.698  -2.204 -13.022  0.00  0.00     0.023 H 
ATOM     49  H   LIG d   1       1.129  -0.556 -12.449  0.00  0.00     0.023 H 
ENDBRANCH  40  46
ENDBRANCH   5  40
BRANCH   3  50
ATOM     50  C   LIG d   1       4.592  -0.762 -12.363  0.00  0.00     0.051 C 
ATOM     51  H   LIG d   1       5.502  -0.654 -11.755  0.00  0.00     0.056 H 
ATOM     52  H   LIG d   1       4.365  -1.831 -12.495  0.00  0.00     0.056 H 
BRANCH  50  53
ATOM     53  O   LIG d   1       4.800  -0.160 -13.642  0.00  0.00    -0.394 OA
ATOM     54  H   LIG d   1       5.421  -0.667 -14.395  0.00  0.00     0.209 HD
ENDBRANCH  50  53
ENDBRANCH   3  50
TORSDOF 9
ENDMDL
MODEL 2
REMARK VINA RESULT:      -5.5      4.244      7.852
REMARK  9 active torsions:
REMARK  status: ('A' for Active; 'I' for Inactive)
REMARK    1  A    between atoms: C_1  and  C_2 
REMARK    2  A    between atoms: C_4  and  C_24 
REMARK    3  A    between atoms: C_6  and  C_21 
REMARK    4  A    between atoms: C_9  and  C_11 
REMARK    5  A    between atoms: C_11  and  C_12 
REMARK       I    between atoms: C_12  and  N_14 
REMARK    6  A    between atoms: N_17  and  C_20 
REMARK    7  A    between atoms: C_21  and  C_22 
REMARK    8  A    between atoms: C_21  and  C_23 
REMARK    9  A    between atoms: C_24  and  O_25 
ROOT
ATOM      1  C   LIG d   1       6.619  -3.459  -4.578  0.00  0.00    -0.073 C 
ATOM      2  C   LIG d   1       7.175  -2.438  -4.009  0.00  0.00    -0.079 C 
ATOM      3  C   LIG d   1       6.412  -1.303  -3.389  0.00  0.00     0.004 C 
ATOM      4  H   LIG d   1       6.428  -1.440  -2.297  0.00  0.00     0.037 H 
ATOM      5  C   LIG d   1       4.965  -1.307  -3.885  0.00  0.00    -0.030 C 
ATOM      6  H   LIG d   1       4.927  -0.998  -4.940  0.00  0.00     0.031 H 
ATOM      7  C   LIG d   1       4.402  -2.725  -3.729  0.00  0.00    -0.042 C 
ATOM      8  C   LIG d   1       5.136  -3.648  -4.704  0.00  0.00    -0.012 C 
ATOM      9  H   LIG d   1       4.905  -4.696  -4.465  0.00  0.00     0.035 H 
ATOM     10  H   LIG d   1       8.271  -2.364  -3.960  0.00  0.00     0.058 H 
ATOM     11  H   LIG d   1       4.559  -3.069  -2.696  0.00  0.00     0.027 H 
ATOM     12  H   LIG d   1       3.325  -2.719  -3.954  0.00  0.00     0.027 H 
ENDROOT
BRANCH   8  13
ATOM     13  C   LIG d   1       4.704  -3.320  -6.134  0.00  0.00     0.031 C 
ATOM     14  H   LIG d   1       3.985  -2.488  -6.120  0.00  0.00     0.036 H 
ATOM     15  H   LIG d   1       5.585  -3.032  -6.726  0.00  0.00     0.036 H 
BRANCH  13  16
ATOM     16  C   LIG d   1       4.056  -4.532  -6.753  0.00  0.00     0.216 C 
ATOM     17  O   LIG d   1       3.532  -5.367  -6.047  0.00  0.00    -0.276 OA
ATOM     18  N   LIG d   1       4.062  -4.689  -8.092  0.00  0.00    -0.299 N 
ATOM     19  C   LIG d   1       4.692  -3.689  -8.967  0.00  0.00     0.028 C 
ATOM     20  C   LIG d   1       3.435  -5.865  -8.717  0.00  0.00     0.028 C 
ATOM     21  C   LIG d   1       3.688  -3.292 -10.055  0.00  0.00     0.015 C 
ATOM     22  H   LIG d   1       4.970  -2.806  -8.373  0.00  0.00     0.048 H 
ATOM     23  H   LIG d   1       5.593  -4.120  -9.427  0.00  0.00     0.048 H 
ATOM     24  N   LIG d   1       3.207  -4.501 -10.739  0.00  0.00    -0.302 N 
ATOM     25  H   LIG d   1       4.178  -2.630 -10.783  0.00  0.00     0.044 H 
ATOM     26  H   LIG d   1       2.836  -2.767  -9.597  0.00  0.00     0.044 H 
ATOM     27  C   LIG d   1       2.481  -5.382  -9.815  0.00  0.00     0.015 C 
ATOM     28  H   LIG d   1       2.089  -6.250 -10.366  0.00  0.00     0.044 H 
ATOM     29  H   LIG d   1       1.647  -4.830  -9.359  0.00  0.00     0.044 H 
ATOM     30  H   LIG d   1       4.215  -6.506  -9.152  0.00  0.00     0.048 H 
ATOM     31  H   LIG d   1       2.877  -6.431  -7.957  0.00  0.00     0.048 H 
BRANCH  24  32
ATOM     32  C   LIG d   1       2.376  -4.155 -11.899  0.00  0.00    -0.013 C 
ATOM     33  H   LIG d   1       2.852  -3.337 -12.460  0.00  0.00     0.039 H 
ATOM     34  H   LIG d   1       1.381  -3.834 -11.555  0.00  0.00     0.039 H 
ATOM     35  H   LIG d   1       2.273  -5.035 -12.551  0.00  0.00     0.039 H 
ENDBRANCH  24  32
ENDBRANCH  13  16
ENDBRANCH   8  13
BRANCH   1  36
ATOM     36  C   LIG d   1       7.519  -4.527  -5.146  0.00  0.00    -0.043 C 
ATOM     37  H   LIG d   1       8.536  -4.124  -5.263  0.00  0.00     0.027 H 
ATOM     38  H   LIG d   1       7.135  -4.845  -6.126  0.00  0.00     0.027 H 
ATOM     39  H   LIG d   1       7.541  -5.389  -4.464  0.00  0.00     0.027 H 
ENDBRANCH   1  36
BRANCH   5  40
ATOM     40  C   LIG d   1       4.133  -0.329  -3.053  0.00  0.00    -0.043 C 
ATOM     41  H   LIG d   1       4.376   0.703  -3.349  0.00  0.00     0.030 H 
BRANCH  40  42
ATOM     42  C   LIG d   1       2.645  -0.592  -3.294  0.00  0.00    -0.062 C 
ATOM     43  H   LIG d   1       2.264  -1.271  -2.516  0.00  0.00     0.023 H 
ATOM     44  H   LIG d   1       2.510  -1.054  -4.282  0.00  0.00     0.023 H 
ATOM     45  H   LIG d   1       2.093   0.358  -3.254  0.00  0.00     0.023 H 
ENDBRANCH  40  42
BRANCH  40  46
ATOM     46  C   LIG d   1       4.453  -0.521  -1.570  0.00  0.00    -0.062 C 
ATOM     47  H   LIG d   1       5.214  -1.308  -1.458  0.00  0.00     0.023 H 
ATOM     48  H   LIG d   1       3.540  -0.815  -1.032  0.00  0.00     0.023 H 
ATOM     49  H   LIG d   1       4.837   0.422  -1.153  0.00  0.00     0.023 H 
ENDBRANCH  40  46
ENDBRANCH   5  40
BRANCH   3  50
ATOM     50  C   LIG d   1       7.076   0.021  -3.770  0.00  0.00     0.051 C 
ATOM     51  H   LIG d   1       6.525   0.482  -4.603  0.00  0.00     0.056 H 
ATOM     52  H   LIG d   1       7.064   0.700  -2.904  0.00  0.00     0.056 H 
BRANCH  50  53
ATOM     53  O   LIG d   1       8.427  -0.219  -4.168  0.00  0.00    -0.394 OA
ATOM     54  H   LIG d   1       8.861  -1.224  -4.064  0.00  0.00     0.209 HD
ENDBRANCH  50  53
ENDBRANCH   3  50
TORSDOF 9
ENDMDL
MODEL 3
REMARK VINA RESULT:      -5.4      5.377      7.191
REMARK  9 active torsions:
REMARK  status: ('A' for Active; 'I' for Inactive)
REMARK    1  A    between atoms: C_1  and  C_2 
REMARK    2  A    between atoms: C_4  and  C_24 
REMARK    3  A    between atoms: C_6  and  C_21 
REMARK    4  A    between atoms: C_9  and  C_11 
REMARK    5  A    between atoms: C_11  and  C_12 
REMARK       I    between atoms: C_12  and  N_14 
REMARK    6  A    between atoms: N_17  and  C_20 
REMARK    7  A    between atoms: C_21  and  C_22 
REMARK    8  A    between atoms: C_21  and  C_23 
REMARK    9  A    between atoms: C_24  and  O_25 
ROOT
ATOM      1  C   LIG d   1       4.613  -2.299  -3.518  0.00  0.00    -0.073 C 
ATOM      2  C   LIG d   1       4.325  -3.372  -4.181  0.00  0.00    -0.079 C 
ATOM      3  C   LIG d   1       5.292  -4.092  -5.077  0.00  0.00     0.004 C 
ATOM      4  H   LIG d   1       5.657  -4.979  -4.538  0.00  0.00     0.037 H 
ATOM      5  C   LIG d   1       6.470  -3.179  -5.421  0.00  0.00    -0.030 C 
ATOM      6  H   LIG d   1       6.143  -2.384  -6.107  0.00  0.00     0.031 H 
ATOM      7  C   LIG d   1       7.008  -2.569  -4.121  0.00  0.00    -0.042 C 
ATOM      8  C   LIG d   1       5.950  -1.619  -3.557  0.00  0.00    -0.012 C 
ATOM      9  H   LIG d   1       6.217  -1.336  -2.529  0.00  0.00     0.035 H 
ATOM     10  H   LIG d   1       3.320  -3.811  -4.108  0.00  0.00     0.058 H 
ATOM     11  H   LIG d   1       7.216  -3.372  -3.398  0.00  0.00     0.027 H 
ATOM     12  H   LIG d   1       7.936  -2.016  -4.332  0.00  0.00     0.027 H 
ENDROOT
BRANCH   8  13
ATOM     13  C   LIG d   1       5.859  -0.376  -4.446  0.00  0.00     0.031 C 
ATOM     14  H   LIG d   1       6.306  -0.593  -5.427  0.00  0.00     0.036 H 
ATOM     15  H   LIG d   1       4.804  -0.097  -4.578  0.00  0.00     0.036 H 
BRANCH  13  16
ATOM     16  C   LIG d   1       6.603   0.761  -3.795  0.00  0.00     0.216 C 
ATOM     17  O   LIG d   1       6.210   1.221  -2.745  0.00  0.00    -0.276 OA
ATOM     18  N   LIG d   1       7.705   1.268  -4.382  0.00  0.00    -0.299 N 
ATOM     19  C   LIG d   1       8.200   0.726  -5.656  0.00  0.00     0.028 C 
ATOM     20  C   LIG d   1       8.447   2.379  -3.763  0.00  0.00     0.028 C 
ATOM     21  C   LIG d   1       9.691   0.403  -5.502  0.00  0.00     0.015 C 
ATOM     22  H   LIG d   1       7.643  -0.189  -5.905  0.00  0.00     0.048 H 
ATOM     23  H   LIG d   1       8.059   1.470  -6.452  0.00  0.00     0.048 H 
ATOM     24  N   LIG d   1      10.400   1.595  -5.017  0.00  0.00    -0.302 N 
ATOM     25  H   LIG d   1      10.104   0.101  -6.475  0.00  0.00     0.044 H 
ATOM     26  H   LIG d   1       9.817  -0.417  -4.779  0.00  0.00     0.044 H 
ATOM     27  C   LIG d   1       9.928   1.991  -3.684  0.00  0.00     0.015 C 
ATOM     28  H   LIG d   1      10.513   2.851  -3.327  0.00  0.00     0.044 H 
ATOM     29  H   LIG d   1      10.050   1.150  -2.986  0.00  0.00     0.044 H 
ATOM     30  H   LIG d   1       8.329   3.284  -4.376  0.00  0.00     0.048 H 
ATOM     31  H   LIG d   1       8.053   2.566  -2.753  0.00  0.00     0.048 H 
BRANCH  24  32
ATOM     32  C   LIG d   1      11.853   1.381  -5.020  0.00  0.00    -0.013 C 
ATOM     33  H   LIG d   1      12.074   0.355  -4.693  0.00  0.00     0.039 H 
ATOM     34  H   LIG d   1      12.330   2.097  -4.333  0.00  0.00     0.039 H 
ATOM     35  H   LIG d   1      12.244   1.535  -6.037  0.00  0.00     0.039 H 
ENDBRANCH  24  32
ENDBRANCH  13  16
ENDBRANCH   8  13
BRANCH   1  36
ATOM     36  C   LIG d   1       3.538  -1.696  -2.649  0.00  0.00    -0.043 C 
ATOM     37  H   LIG d   1       3.991  -1.301  -1.728  0.00  0.00     0.027 H 
ATOM     38  H   LIG d   1       2.799  -2.468  -2.393  0.00  0.00     0.027 H 
ATOM     39  H   LIG d   1       3.042  -0.879  -3.194  0.00  0.00     0.027 H 
ENDBRANCH   1  36
BRANCH   5  40
ATOM     40  C   LIG d   1       7.572  -3.995  -6.101  0.00  0.00    -0.043 C 
ATOM     41  H   LIG d   1       7.155  -4.516  -6.976  0.00  0.00     0.030 H 
BRANCH  40  42
ATOM     42  C   LIG d   1       8.695  -3.060  -6.551  0.00  0.00    -0.062 C 
ATOM     43  H   LIG d   1       9.176  -2.614  -5.667  0.00  0.00     0.023 H 
ATOM     44  H   LIG d   1       8.277  -2.262  -7.182  0.00  0.00     0.023 H 
ATOM     45  H   LIG d   1       9.440  -3.630  -7.124  0.00  0.00     0.023 H 
ENDBRANCH  40  42
BRANCH  40  46
ATOM     46  C   LIG d   1       8.127  -5.023  -5.114  0.00  0.00    -0.062 C 
ATOM     47  H   LIG d   1       9.227  -5.003  -5.143  0.00  0.00     0.023 H 
ATOM     48  H   LIG d   1       7.771  -6.026  -5.389  0.00  0.00     0.023 H 
ATOM     49  H   LIG d   1       7.784  -4.777  -4.097  0.00  0.00     0.023 H 
ENDBRANCH  40  46
ENDBRANCH   5  40
BRANCH   3  50
ATOM     50  C   LIG d   1       4.577  -4.507  -6.364  0.00  0.00     0.051 C 
ATOM     51  H   LIG d   1       4.437  -3.625  -7.007  0.00  0.00     0.056 H 
ATOM     52  H   LIG d   1       5.184  -5.254  -6.896  0.00  0.00     0.056 H 
BRANCH  50  53
ATOM     53  O   LIG d   1       3.304  -5.070  -6.043  0.00  0.00    -0.394 OA
ATOM     54  H   LIG d   1       2.472  -4.993  -6.758  0.00  0.00     0.209 HD
ENDBRANCH  50  53
ENDBRANCH   3  50
TORSDOF 9
ENDMDL
MODEL 4
REMARK VINA RESULT:      -5.2      3.067      7.166
REMARK  9 active torsions:
REMARK  status: ('A' for Active; 'I' for Inactive)
REMARK    1  A    between atoms: C_1  and  C_2 
REMARK    2  A    between atoms: C_4  and  C_24 
REMARK    3  A    between atoms: C_6  and  C_21 
REMARK    4  A    between atoms: C_9  and  C_11 
REMARK    5  A    between atoms: C_11  and  C_12 
REMARK       I    between atoms: C_12  and  N_14 
REMARK    6  A    between atoms: N_17  and  C_20 
REMARK    7  A    between atoms: C_21  and  C_22 
REMARK    8  A    between atoms: C_21  and  C_23 
REMARK    9  A    between atoms: C_24  and  O_25 
ROOT
ATOM      1  C   LIG d   1       6.862  -2.348  -3.976  0.00  0.00    -0.073 C 
ATOM      2  C   LIG d   1       6.801  -1.319  -3.193  0.00  0.00    -0.079 C 
ATOM      3  C   LIG d   1       5.607  -0.416  -3.082  0.00  0.00     0.004 C 
ATOM      4  H   LIG d   1       5.071  -0.675  -2.157  0.00  0.00     0.037 H 
ATOM      5  C   LIG d   1       4.682  -0.615  -4.284  0.00  0.00    -0.030 C 
ATOM      6  H   LIG d   1       5.145  -0.195  -5.189  0.00  0.00     0.031 H 
ATOM      7  C   LIG d   1       4.436  -2.118  -4.464  0.00  0.00    -0.042 C 
ATOM      8  C   LIG d   1       5.750  -2.777  -4.888  0.00  0.00    -0.012 C 
ATOM      9  H   LIG d   1       5.655  -3.870  -4.816  0.00  0.00     0.035 H 
ATOM     10  H   LIG d   1       7.660  -1.061  -2.557  0.00  0.00     0.058 H 
ATOM     11  H   LIG d   1       4.090  -2.549  -3.512  0.00  0.00     0.027 H 
ATOM     12  H   LIG d   1       3.670  -2.275  -5.237  0.00  0.00     0.027 H 
ENDROOT
BRANCH   8  13
ATOM     13  C   LIG d   1       6.084  -2.364  -6.323  0.00  0.00     0.031 C 
ATOM     14  H   LIG d   1       5.794  -1.315  -6.480  0.00  0.00     0.036 H 
ATOM     15  H   LIG d   1       7.164  -2.475  -6.494  0.00  0.00     0.036 H 
BRANCH  13  16
ATOM     16  C   LIG d   1       5.328  -3.243  -7.287  0.00  0.00     0.216 C 
ATOM     17  O   LIG d   1       5.258  -4.437  -7.091  0.00  0.00    -0.276 OA
ATOM     18  N   LIG d   1       4.732  -2.701  -8.367  0.00  0.00    -0.299 N 
ATOM     19  C   LIG d   1       4.805  -1.254  -8.623  0.00  0.00     0.028 C 
ATOM     20  C   LIG d   1       3.990  -3.540  -9.320  0.00  0.00     0.028 C 
ATOM     21  C   LIG d   1       3.384  -0.730  -8.862  0.00  0.00     0.015 C 
ATOM     22  H   LIG d   1       5.249  -0.750  -7.753  0.00  0.00     0.048 H 
ATOM     23  H   LIG d   1       5.426  -1.069  -9.511  0.00  0.00     0.048 H 
ATOM     24  N   LIG d   1       2.746  -1.518  -9.926  0.00  0.00    -0.302 N 
ATOM     25  H   LIG d   1       3.428   0.327  -9.164  0.00  0.00     0.044 H 
ATOM     26  H   LIG d   1       2.797  -0.822  -7.936  0.00  0.00     0.044 H 
ATOM     27  C   LIG d   1       2.602  -2.925  -9.532  0.00  0.00     0.015 C 
ATOM     28  H   LIG d   1       2.074  -3.477 -10.324  0.00  0.00     0.044 H 
ATOM     29  H   LIG d   1       2.026  -2.989  -8.596  0.00  0.00     0.044 H 
ATOM     30  H   LIG d   1       4.533  -3.577 -10.275  0.00  0.00     0.048 H 
ATOM     31  H   LIG d   1       3.892  -4.558  -8.915  0.00  0.00     0.048 H 
BRANCH  24  32
ATOM     32  C   LIG d   1       1.450  -0.940 -10.304  0.00  0.00    -0.013 C 
ATOM     33  H   LIG d   1       1.460  -0.685 -11.373  0.00  0.00     0.039 H 
ATOM     34  H   LIG d   1       1.267  -0.031  -9.711  0.00  0.00     0.039 H 
ATOM     35  H   LIG d   1       0.652  -1.672 -10.108  0.00  0.00     0.039 H 
ENDBRANCH  24  32
ENDBRANCH  13  16
ENDBRANCH   8  13
BRANCH   1  36
ATOM     36  C   LIG d   1       8.127  -3.167  -3.970  0.00  0.00    -0.043 C 
ATOM     37  H   LIG d   1       8.933  -2.593  -3.489  0.00  0.00     0.027 H 
ATOM     38  H   LIG d   1       8.413  -3.406  -5.004  0.00  0.00     0.027 H 
ATOM     39  H   LIG d   1       7.957  -4.099  -3.412  0.00  0.00     0.027 H 
ENDBRANCH   1  36
BRANCH   5  40
ATOM     40  C   LIG d   1       3.351   0.098  -4.033  0.00  0.00    -0.043 C 
ATOM     41  H   LIG d   1       3.541   1.062  -3.538  0.00  0.00     0.030 H 
BRANCH  40  42
ATOM     42  C   LIG d   1       2.642   0.338  -5.367  0.00  0.00    -0.062 C 
ATOM     43  H   LIG d   1       1.635   0.740  -5.179  0.00  0.00     0.023 H 
ATOM     44  H   LIG d   1       2.562  -0.611  -5.916  0.00  0.00     0.023 H 
ATOM     45  H   LIG d   1       3.219   1.060  -5.964  0.00  0.00     0.023 H 
ENDBRANCH  40  42
BRANCH  40  46
ATOM     46  C   LIG d   1       2.470  -0.771  -3.135  0.00  0.00    -0.062 C 
ATOM     47  H   LIG d   1       2.818  -0.693  -2.093  0.00  0.00     0.023 H 
ATOM     48  H   LIG d   1       2.529  -1.819  -3.464  0.00  0.00     0.023 H 
ATOM     49  H   LIG d   1       1.427  -0.425  -3.198  0.00  0.00     0.023 H 
ENDBRANCH  40  46
ENDBRANCH   5  40
BRANCH   3  50
ATOM     50  C   LIG d   1       6.075   1.039  -3.037  0.00  0.00     0.051 C 
ATOM     51  H   LIG d   1       5.201   1.705  -2.986  0.00  0.00     0.056 H 
ATOM     52  H   LIG d   1       6.705   1.195  -2.148  0.00  0.00     0.056 H 
BRANCH  50  53
ATOM     53  O   LIG d   1       6.831   1.335  -4.212  0.00  0.00    -0.394 OA
ATOM     54  H   LIG d   1       6.729   0.702  -5.106  0.00  0.00     0.209 HD
ENDBRANCH  50  53
ENDBRANCH   3  50
TORSDOF 9
ENDMDL
MODEL 5
REMARK VINA RESULT:      -4.8      5.060      7.290
REMARK  9 active torsions:
REMARK  status: ('A' for Active; 'I' for Inactive)
REMARK    1  A    between atoms: C_1  and  C_2 
REMARK    2  A    between atoms: C_4  and  C_24 
REMARK    3  A    between atoms: C_6  and  C_21 
REMARK    4  A    between atoms: C_9  and  C_11 
REMARK    5  A    between atoms: C_11  and  C_12 
REMARK       I    between atoms: C_12  and  N_14 
REMARK    6  A    between atoms: N_17  and  C_20 
REMARK    7  A    between atoms: C_21  and  C_22 
REMARK    8  A    between atoms: C_21  and  C_23 
REMARK    9  A    between atoms: C_24  and  O_25 
ROOT
ATOM      1  C   LIG d   1       6.461  -1.030  -6.505  0.00  0.00    -0.073 C 
ATOM      2  C   LIG d   1       5.705  -2.080  -6.549  0.00  0.00    -0.079 C 
ATOM      3  C   LIG d   1       4.707  -2.443  -5.487  0.00  0.00     0.004 C 
ATOM      4  H   LIG d   1       3.706  -2.173  -5.857  0.00  0.00     0.037 H 
ATOM      5  C   LIG d   1       5.004  -1.671  -4.200  0.00  0.00    -0.030 C 
ATOM      6  H   LIG d   1       5.920  -2.060  -3.731  0.00  0.00     0.031 H 
ATOM      7  C   LIG d   1       5.177  -0.188  -4.551  0.00  0.00    -0.042 C 
ATOM      8  C   LIG d   1       6.451  -0.033  -5.384  0.00  0.00    -0.012 C 
ATOM      9  H   LIG d   1       6.484   0.974  -5.825  0.00  0.00     0.035 H 
ATOM     10  H   LIG d   1       5.772  -2.771  -7.401  0.00  0.00     0.058 H 
ATOM     11  H   LIG d   1       4.306   0.155  -5.129  0.00  0.00     0.027 H 
ATOM     12  H   LIG d   1       5.259   0.401  -3.626  0.00  0.00     0.027 H 
ENDROOT
BRANCH   8  13
ATOM     13  C   LIG d   1       7.672  -0.265  -4.491  0.00  0.00     0.031 C 
ATOM     14  H   LIG d   1       7.369  -0.820  -3.592  0.00  0.00     0.036 H 
ATOM     15  H   LIG d   1       8.425  -0.845  -5.043  0.00  0.00     0.036 H 
BRANCH  13  16
ATOM     16  C   LIG d   1       8.257   1.064  -4.087  0.00  0.00     0.216 C 
ATOM     17  O   LIG d   1       7.598   1.843  -3.431  0.00  0.00    -0.276 OA
ATOM     18  N   LIG d   1       9.512   1.388  -4.456  0.00  0.00    -0.299 N 
ATOM     19  C   LIG d   1      10.328   0.459  -5.252  0.00  0.00     0.028 C 
ATOM     20  C   LIG d   1      10.102   2.680  -4.072  0.00  0.00     0.028 C 
ATOM     21  C   LIG d   1      11.684   0.285  -4.558  0.00  0.00     0.015 C 
ATOM     22  H   LIG d   1       9.815  -0.512  -5.322  0.00  0.00     0.048 H 
ATOM     23  H   LIG d   1      10.473   0.870  -6.261  0.00  0.00     0.048 H 
ATOM     24  N   LIG d   1      12.288   1.605  -4.332  0.00  0.00    -0.302 N 
ATOM     25  H   LIG d   1      12.348  -0.318  -5.195  0.00  0.00     0.044 H 
ATOM     26  H   LIG d   1      11.541  -0.224  -3.593  0.00  0.00     0.044 H 
ATOM     27  C   LIG d   1      11.467   2.418  -3.426  0.00  0.00     0.015 C 
ATOM     28  H   LIG d   1      11.971   3.377  -3.233  0.00  0.00     0.044 H 
ATOM     29  H   LIG d   1      11.326   1.882  -2.476  0.00  0.00     0.044 H 
ATOM     30  H   LIG d   1      10.225   3.306  -4.968  0.00  0.00     0.048 H 
ATOM     31  H   LIG d   1       9.440   3.188  -3.357  0.00  0.00     0.048 H 
BRANCH  24  32
ATOM     32  C   LIG d   1      13.661   1.476  -3.827  0.00  0.00    -0.013 C 
ATOM     33  H   LIG d   1      13.860   2.273  -3.095  0.00  0.00     0.039 H 
ATOM     34  H   LIG d   1      14.370   1.562  -4.664  0.00  0.00     0.039 H 
ATOM     35  H   LIG d   1      13.783   0.495  -3.344  0.00  0.00     0.039 H 
ENDBRANCH  24  32
ENDBRANCH  13  16
ENDBRANCH   8  13
BRANCH   1  36
ATOM     36  C   LIG d   1       7.407  -0.793  -7.654  0.00  0.00    -0.043 C 
ATOM     37  H   LIG d   1       8.438  -0.997  -7.327  0.00  0.00     0.027 H 
ATOM     38  H   LIG d   1       7.327   0.252  -7.985  0.00  0.00     0.027 H 
ATOM     39  H   LIG d   1       7.147  -1.463  -8.487  0.00  0.00     0.027 H 
ENDBRANCH   1  36
BRANCH   5  40
ATOM     40  C   LIG d   1       3.839  -1.835  -3.221  0.00  0.00    -0.043 C 
ATOM     41  H   LIG d   1       3.429  -2.853  -3.308  0.00  0.00     0.030 H 
BRANCH  40  42
ATOM     42  C   LIG d   1       4.336  -1.604  -1.793  0.00  0.00    -0.062 C 
ATOM     43  H   LIG d   1       3.629  -0.950  -1.261  0.00  0.00     0.023 H 
ATOM     44  H   LIG d   1       5.326  -1.127  -1.823  0.00  0.00     0.023 H 
ATOM     45  H   LIG d   1       4.409  -2.569  -1.270  0.00  0.00     0.023 H 
ENDBRANCH  40  42
BRANCH  40  46
ATOM     46  C   LIG d   1       2.747  -0.817  -3.554  0.00  0.00    -0.062 C 
ATOM     47  H   LIG d   1       1.962  -1.303  -4.153  0.00  0.00     0.023 H 
ATOM     48  H   LIG d   1       3.183   0.015  -4.126  0.00  0.00     0.023 H 
ATOM     49  H   LIG d   1       2.310  -0.431  -2.621  0.00  0.00     0.023 H 
ENDBRANCH  40  46
ENDBRANCH   5  40
BRANCH   3  50
ATOM     50  C   LIG d   1       4.786  -3.944  -5.209  0.00  0.00     0.051 C 
ATOM     51  H   LIG d   1       5.741  -4.338  -5.588  0.00  0.00     0.056 H 
ATOM     52  H   LIG d   1       4.721  -4.121  -4.125  0.00  0.00     0.056 H 
BRANCH  50  53
ATOM     53  O   LIG d   1       3.705  -4.609  -5.865  0.00  0.00    -0.394 OA
ATOM     54  H   LIG d   1       3.235  -4.155  -6.750  0.00  0.00     0.209 HD
ENDBRANCH  50  53
ENDBRANCH   3  50
TORSDOF 9
ENDMDL
MODEL 6
REMARK VINA RESULT:      -4.8      2.759      3.886
REMARK  9 active torsions:
REMARK  status: ('A' for Active; 'I' for Inactive)
REMARK    1  A    between atoms: C_1  and  C_2 
REMARK    2  A    between atoms: C_4  and  C_24 
REMARK    3  A    between atoms: C_6  and  C_21 
REMARK    4  A    between atoms: C_9  and  C_11 
REMARK    5  A    between atoms: C_11  and  C_12 
REMARK       I    between atoms: C_12  and  N_14 
REMARK    6  A    between atoms: N_17  and  C_20 
REMARK    7  A    between atoms: C_21  and  C_22 
REMARK    8  A    between atoms: C_21  and  C_23 
REMARK    9  A    between atoms: C_24  and  O_25 
ROOT
ATOM      1  C   LIG d   1       3.006   0.208  -7.205  0.00  0.00    -0.073 C 
ATOM      2  C   LIG d   1       2.858   1.305  -7.875  0.00  0.00    -0.079 C 
ATOM      3  C   LIG d   1       2.882   1.385  -9.374  0.00  0.00     0.004 C 
ATOM      4  H   LIG d   1       1.843   1.477  -9.725  0.00  0.00     0.037 H 
ATOM      5  C   LIG d   1       3.511   0.119  -9.959  0.00  0.00    -0.030 C 
ATOM      6  H   LIG d   1       4.593   0.108  -9.759  0.00  0.00     0.031 H 
ATOM      7  C   LIG d   1       2.842  -1.100  -9.311  0.00  0.00    -0.042 C 
ATOM      8  C   LIG d   1       3.230  -1.137  -7.832  0.00  0.00    -0.012 C 
ATOM      9  H   LIG d   1       2.601  -1.867  -7.303  0.00  0.00     0.035 H 
ATOM     10  H   LIG d   1       2.705   2.257  -7.346  0.00  0.00     0.058 H 
ATOM     11  H   LIG d   1       1.749  -1.014  -9.411  0.00  0.00     0.027 H 
ATOM     12  H   LIG d   1       3.185  -2.017  -9.813  0.00  0.00     0.027 H 
ENDROOT
BRANCH   8  13
ATOM     13  C   LIG d   1       4.707  -1.515  -7.705  0.00  0.00     0.031 C 
ATOM     14  H   LIG d   1       5.168  -1.535  -8.702  0.00  0.00     0.036 H 
ATOM     15  H   LIG d   1       5.223  -0.773  -7.078  0.00  0.00     0.036 H 
BRANCH  13  16
ATOM     16  C   LIG d   1       4.824  -2.878  -7.071  0.00  0.00     0.216 C 
ATOM     17  O   LIG d   1       4.283  -3.833  -7.585  0.00  0.00    -0.276 OA
ATOM     18  N   LIG d   1       5.527  -3.033  -5.932  0.00  0.00    -0.299 N 
ATOM     19  C   LIG d   1       6.190  -1.887  -5.292  0.00  0.00     0.028 C 
ATOM     20  C   LIG d   1       5.654  -4.354  -5.297  0.00  0.00     0.028 C 
ATOM     21  C   LIG d   1       7.654  -2.257  -5.027  0.00  0.00     0.015 C 
ATOM     22  H   LIG d   1       6.139  -1.014  -5.960  0.00  0.00     0.048 H 
ATOM     23  H   LIG d   1       5.686  -1.653  -4.344  0.00  0.00     0.048 H 
ATOM     24  N   LIG d   1       7.709  -3.512  -4.265  0.00  0.00    -0.302 N 
ATOM     25  H   LIG d   1       8.137  -1.455  -4.450  0.00  0.00     0.044 H 
ATOM     26  H   LIG d   1       8.180  -2.387  -5.985  0.00  0.00     0.044 H 
ATOM     27  C   LIG d   1       7.138  -4.627  -5.032  0.00  0.00     0.015 C 
ATOM     28  H   LIG d   1       7.243  -5.560  -4.458  0.00  0.00     0.044 H 
ATOM     29  H   LIG d   1       7.670  -4.725  -5.990  0.00  0.00     0.044 H 
ATOM     30  H   LIG d   1       5.096  -4.359  -4.349  0.00  0.00     0.048 H 
ATOM     31  H   LIG d   1       5.244  -5.124  -5.967  0.00  0.00     0.048 H 
BRANCH  24  32
ATOM     32  C   LIG d   1       9.084  -3.812  -3.842  0.00  0.00    -0.013 C 
ATOM     33  H   LIG d   1       9.068  -4.275  -2.845  0.00  0.00     0.039 H 
ATOM     34  H   LIG d   1       9.667  -2.879  -3.805  0.00  0.00     0.039 H 
ATOM     35  H   LIG d   1       9.545  -4.504  -4.562  0.00  0.00     0.039 H 
ENDBRANCH  24  32
ENDBRANCH  13  16
ENDBRANCH   8  13
BRANCH   1  36
ATOM     36  C   LIG d   1       2.948   0.286  -5.700  0.00  0.00    -0.043 C 
ATOM     37  H   LIG d   1       2.970   1.340  -5.387  0.00  0.00     0.027 H 
ATOM     38  H   LIG d   1       3.812  -0.242  -5.273  0.00  0.00     0.027 H 
ATOM     39  H   LIG d   1       2.019  -0.184  -5.345  0.00  0.00     0.027 H 
ENDBRANCH   1  36
BRANCH   5  40
ATOM     40  C   LIG d   1       3.287   0.084 -11.472  0.00  0.00    -0.043 C 
ATOM     41  H   LIG d   1       2.923   1.066 -11.811  0.00  0.00     0.030 H 
BRANCH  40  42
ATOM     42  C   LIG d   1       4.606  -0.242 -12.176  0.00  0.00    -0.062 C 
ATOM     43  H   LIG d   1       5.145   0.692 -12.393  0.00  0.00     0.023 H 
ATOM     44  H   LIG d   1       4.398  -0.773 -13.115  0.00  0.00     0.023 H 
ATOM     45  H   LIG d   1       5.221  -0.878 -11.523  0.00  0.00     0.023 H 
ENDBRANCH  40  42
BRANCH  40  46
ATOM     46  C   LIG d   1       2.249  -0.987 -11.809  0.00  0.00    -0.062 C 
ATOM     47  H   LIG d   1       1.640  -0.652 -12.663  0.00  0.00     0.023 H 
ATOM     48  H   LIG d   1       1.598  -1.155 -10.939  0.00  0.00     0.023 H 
ATOM     49  H   LIG d   1       2.762  -1.925 -12.071  0.00  0.00     0.023 H 
ENDBRANCH  40  46
ENDBRANCH   5  40
BRANCH   3  50
ATOM     50  C   LIG d   1       3.700   2.603  -9.804  0.00  0.00     0.051 C 
ATOM     51  H   LIG d   1       3.627   2.728 -10.895  0.00  0.00     0.056 H 
ATOM     52  H   LIG d   1       3.308   3.502  -9.305  0.00  0.00     0.056 H 
BRANCH  50  53
ATOM     53  O   LIG d   1       5.067   2.414  -9.437  0.00  0.00    -0.394 OA
ATOM     54  H   LIG d   1       5.669   3.269  -9.093  0.00  0.00     0.209 HD
ENDBRANCH  50  53
ENDBRANCH   3  50
TORSDOF 9
ENDMDL
MODEL 7
REMARK VINA RESULT:      -4.8      4.941      7.833
REMARK  9 active torsions:
REMARK  status: ('A' for Active; 'I' for Inactive)
REMARK    1  A    between atoms: C_1  and  C_2 
REMARK    2  A    between atoms: C_4  and  C_24 
REMARK    3  A    between atoms: C_6  and  C_21 
REMARK    4  A    between atoms: C_9  and  C_11 
REMARK    5  A    between atoms: C_11  and  C_12 
REMARK       I    between atoms: C_12  and  N_14 
REMARK    6  A    between atoms: N_17  and  C_20 
REMARK    7  A    between atoms: C_21  and  C_22 
REMARK    8  A    between atoms: C_21  and  C_23 
REMARK    9  A    between atoms: C_24  and  O_25 
ROOT
ATOM      1  C   LIG d   1       7.442  -1.217  -5.587  0.00  0.00    -0.073 C 
ATOM      2  C   LIG d   1       6.414  -0.508  -5.927  0.00  0.00    -0.079 C 
ATOM      3  C   LIG d   1       5.201  -0.316  -5.064  0.00  0.00     0.004 C 
ATOM      4  H   LIG d   1       5.264   0.685  -4.609  0.00  0.00     0.037 H 
ATOM      5  C   LIG d   1       5.164  -1.378  -3.963  0.00  0.00    -0.030 C 
ATOM      6  H   LIG d   1       4.927  -2.361  -4.395  0.00  0.00     0.031 H 
ATOM      7  C   LIG d   1       6.538  -1.418  -3.281  0.00  0.00    -0.042 C 
ATOM      8  C   LIG d   1       7.562  -1.952  -4.284  0.00  0.00    -0.012 C 
ATOM      9  H   LIG d   1       8.578  -1.791  -3.896  0.00  0.00     0.035 H 
ATOM     10  H   LIG d   1       6.393  -0.002  -6.904  0.00  0.00     0.058 H 
ATOM     11  H   LIG d   1       6.818  -0.403  -2.962  0.00  0.00     0.027 H 
ATOM     12  H   LIG d   1       6.492  -2.078  -2.402  0.00  0.00     0.027 H 
ENDROOT
BRANCH   8  13
ATOM     13  C   LIG d   1       7.311  -3.443  -4.519  0.00  0.00     0.031 C 
ATOM     14  H   LIG d   1       6.410  -3.755  -3.971  0.00  0.00     0.036 H 
ATOM     15  H   LIG d   1       7.167  -3.625  -5.594  0.00  0.00     0.036 H 
BRANCH  13  16
ATOM     16  C   LIG d   1       8.496  -4.235  -4.029  0.00  0.00     0.216 C 
ATOM     17  O   LIG d   1       9.239  -3.762  -3.196  0.00  0.00    -0.276 OA
ATOM     18  N   LIG d   1       8.731  -5.468  -4.518  0.00  0.00    -0.299 N 
ATOM     19  C   LIG d   1       7.843  -6.061  -5.530  0.00  0.00     0.028 C 
ATOM     20  C   LIG d   1       9.882  -6.258  -4.053  0.00  0.00     0.028 C 
ATOM     21  C   LIG d   1       7.424  -7.456  -5.052  0.00  0.00     0.015 C 
ATOM     22  H   LIG d   1       6.954  -5.426  -5.654  0.00  0.00     0.048 H 
ATOM     23  H   LIG d   1       8.376  -6.138  -6.487  0.00  0.00     0.048 H 
ATOM     24  N   LIG d   1       8.624  -8.245  -4.740  0.00  0.00    -0.302 N 
ATOM     25  H   LIG d   1       6.850  -7.959  -5.844  0.00  0.00     0.044 H 
ATOM     26  H   LIG d   1       6.800  -7.365  -4.150  0.00  0.00     0.044 H 
ATOM     27  C   LIG d   1       9.382  -7.645  -3.634  0.00  0.00     0.015 C 
ATOM     28  H   LIG d   1      10.243  -8.286  -3.389  0.00  0.00     0.044 H 
ATOM     29  H   LIG d   1       8.734  -7.550  -2.751  0.00  0.00     0.044 H 
ATOM     30  H   LIG d   1      10.613  -6.353  -4.869  0.00  0.00     0.048 H 
ATOM     31  H   LIG d   1      10.351  -5.754  -3.197  0.00  0.00     0.048 H 
BRANCH  24  32
ATOM     32  C   LIG d   1       8.274  -9.641  -4.444  0.00  0.00    -0.013 C 
ATOM     33  H   LIG d   1       7.202  -9.709  -4.211  0.00  0.00     0.039 H 
ATOM     34  H   LIG d   1       8.861  -9.990  -3.580  0.00  0.00     0.039 H 
ATOM     35  H   LIG d   1       8.501 -10.268  -5.318  0.00  0.00     0.039 H 
ENDBRANCH  24  32
ENDBRANCH  13  16
ENDBRANCH   8  13
BRANCH   1  36
ATOM     36  C   LIG d   1       8.591  -1.307  -6.558  0.00  0.00    -0.043 C 
ATOM     37  H   LIG d   1       9.485  -0.849  -6.111  0.00  0.00     0.027 H 
ATOM     38  H   LIG d   1       8.330  -0.775  -7.484  0.00  0.00     0.027 H 
ATOM     39  H   LIG d   1       8.794  -2.364  -6.787  0.00  0.00     0.027 H 
ENDBRANCH   1  36
BRANCH   5  40
ATOM     40  C   LIG d   1       4.090  -1.017  -2.935  0.00  0.00    -0.043 C 
ATOM     41  H   LIG d   1       3.204  -0.622  -3.455  0.00  0.00     0.030 H 
BRANCH  40  42
ATOM     42  C   LIG d   1       3.702  -2.267  -2.142  0.00  0.00    -0.062 C 
ATOM     43  H   LIG d   1       3.431  -3.073  -2.840  0.00  0.00     0.023 H 
ATOM     44  H   LIG d   1       2.844  -2.038  -1.494  0.00  0.00     0.023 H 
ATOM     45  H   LIG d   1       4.554  -2.588  -1.525  0.00  0.00     0.023 H 
ENDBRANCH  40  42
BRANCH  40  46
ATOM     46  C   LIG d   1       4.635   0.046  -1.979  0.00  0.00    -0.062 C 
ATOM     47  H   LIG d   1       5.255   0.761  -2.542  0.00  0.00     0.023 H 
ATOM     48  H   LIG d   1       5.246  -0.437  -1.203  0.00  0.00     0.023 H 
ATOM     49  H   LIG d   1       3.797   0.580  -1.508  0.00  0.00     0.023 H 
ENDBRANCH  40  46
ENDBRANCH   5  40
BRANCH   3  50
ATOM     50  C   LIG d   1       3.942  -0.433  -5.924  0.00  0.00     0.051 C 
ATOM     51  H   LIG d   1       4.228  -0.609  -6.971  0.00  0.00     0.056 H 
ATOM     52  H   LIG d   1       3.329  -1.273  -5.565  0.00  0.00     0.056 H 
BRANCH  50  53
ATOM     53  O   LIG d   1       3.188   0.778  -5.833  0.00  0.00    -0.394 OA
ATOM     54  H   LIG d   1       3.589   1.709  -6.260  0.00  0.00     0.209 HD
ENDBRANCH  50  53
ENDBRANCH   3  50
TORSDOF 9
ENDMDL
MODEL 8
REMARK VINA RESULT:      -4.8      2.458      3.842
REMARK  9 active torsions:
REMARK  status: ('A' for Active; 'I' for Inactive)
REMARK    1  A    between atoms: C_1  and  C_2 
REMARK    2  A    between atoms: C_4  and  C_24 
REMARK    3  A    between atoms: C_6  and  C_21 
REMARK    4  A    between atoms: C_9  and  C_11 
REMARK    5  A    between atoms: C_11  and  C_12 
REMARK       I    between atoms: C_12  and  N_14 
REMARK    6  A    between atoms: N_17  and  C_20 
REMARK    7  A    between atoms: C_21  and  C_22 
REMARK    8  A    between atoms: C_21  and  C_23 
REMARK    9  A    between atoms: C_24  and  O_25 
ROOT
ATOM      1  C   LIG d   1       4.394  -2.530  -9.588  0.00  0.00    -0.073 C 
ATOM      2  C   LIG d   1       3.434  -2.198 -10.389  0.00  0.00    -0.079 C 
ATOM      3  C   LIG d   1       2.813  -0.832 -10.437  0.00  0.00     0.004 C 
ATOM      4  H   LIG d   1       3.217  -0.306 -11.315  0.00  0.00     0.037 H 
ATOM      5  C   LIG d   1       3.158  -0.052  -9.167  0.00  0.00    -0.030 C 
ATOM      6  H   LIG d   1       2.614  -0.470  -8.308  0.00  0.00     0.031 H 
ATOM      7  C   LIG d   1       4.671  -0.149  -8.934  0.00  0.00    -0.042 C 
ATOM      8  C   LIG d   1       5.016  -1.599  -8.589  0.00  0.00    -0.012 C 
ATOM      9  H   LIG d   1       6.106  -1.739  -8.627  0.00  0.00     0.035 H 
ATOM     10  H   LIG d   1       3.022  -2.937 -11.092  0.00  0.00     0.058 H 
ATOM     11  H   LIG d   1       5.203   0.157  -9.848  0.00  0.00     0.027 H 
ATOM     12  H   LIG d   1       4.958   0.514  -8.104  0.00  0.00     0.027 H 
ENDROOT
BRANCH   8  13
ATOM     13  C   LIG d   1       4.485  -1.927  -7.192  0.00  0.00     0.031 C 
ATOM     14  H   LIG d   1       3.680  -1.226  -6.931  0.00  0.00     0.036 H 
ATOM     15  H   LIG d   1       4.093  -2.955  -7.181  0.00  0.00     0.036 H 
BRANCH  13  16
ATOM     16  C   LIG d   1       5.603  -1.805  -6.189  0.00  0.00     0.216 C 
ATOM     17  O   LIG d   1       6.755  -1.908  -6.549  0.00  0.00    -0.276 OA
ATOM     18  N   LIG d   1       5.321  -1.582  -4.890  0.00  0.00    -0.299 N 
ATOM     19  C   LIG d   1       3.929  -1.454  -4.431  0.00  0.00     0.028 C 
ATOM     20  C   LIG d   1       6.397  -1.459  -3.894  0.00  0.00     0.028 C 
ATOM     21  C   LIG d   1       3.804  -0.166  -3.609  0.00  0.00     0.015 C 
ATOM     22  H   LIG d   1       3.259  -1.410  -5.301  0.00  0.00     0.048 H 
ATOM     23  H   LIG d   1       3.666  -2.322  -3.809  0.00  0.00     0.048 H 
ATOM     24  N   LIG d   1       4.813  -0.169  -2.541  0.00  0.00    -0.302 N 
ATOM     25  H   LIG d   1       2.799  -0.110  -3.165  0.00  0.00     0.044 H 
ATOM     26  H   LIG d   1       3.965   0.705  -4.263  0.00  0.00     0.044 H 
ATOM     27  C   LIG d   1       6.174  -0.171  -3.094  0.00  0.00     0.015 C 
ATOM     28  H   LIG d   1       6.904  -0.119  -2.272  0.00  0.00     0.044 H 
ATOM     29  H   LIG d   1       6.303   0.699  -3.754  0.00  0.00     0.044 H 
ATOM     30  H   LIG d   1       6.373  -2.328  -3.221  0.00  0.00     0.048 H 
ATOM     31  H   LIG d   1       7.369  -1.419  -4.407  0.00  0.00     0.048 H 
BRANCH  24  32
ATOM     32  C   LIG d   1       4.616   0.963  -1.627  0.00  0.00    -0.013 C 
ATOM     33  H   LIG d   1       4.515   1.891  -2.209  0.00  0.00     0.039 H 
ATOM     34  H   LIG d   1       5.482   1.045  -0.953  0.00  0.00     0.039 H 
ATOM     35  H   LIG d   1       3.704   0.800  -1.033  0.00  0.00     0.039 H 
ENDBRANCH  24  32
ENDBRANCH  13  16
ENDBRANCH   8  13
BRANCH   1  36
ATOM     36  C   LIG d   1       4.922  -3.940  -9.665  0.00  0.00    -0.043 C 
ATOM     37  H   LIG d   1       5.460  -4.078 -10.615  0.00  0.00     0.027 H 
ATOM     38  H   LIG d   1       4.084  -4.648  -9.612  0.00  0.00     0.027 H 
ATOM     39  H   LIG d   1       5.608  -4.120  -8.825  0.00  0.00     0.027 H 
ENDBRANCH   1  36
BRANCH   5  40
ATOM     40  C   LIG d   1       2.758   1.416  -9.340  0.00  0.00    -0.043 C 
ATOM     41  H   LIG d   1       1.759   1.471  -9.797  0.00  0.00     0.030 H 
BRANCH  40  42
ATOM     42  C   LIG d   1       2.733   2.101  -7.972  0.00  0.00    -0.062 C 
ATOM     43  H   LIG d   1       2.316   3.114  -8.078  0.00  0.00     0.023 H 
ATOM     44  H   LIG d   1       3.757   2.166  -7.576  0.00  0.00     0.023 H 
ATOM     45  H   LIG d   1       2.108   1.517  -7.281  0.00  0.00     0.023 H 
ENDBRANCH  40  42
BRANCH  40  46
ATOM     46  C   LIG d   1       3.772   2.117 -10.245  0.00  0.00    -0.062 C 
ATOM     47  H   LIG d   1       3.989   1.480 -11.115  0.00  0.00     0.023 H 
ATOM     48  H   LIG d   1       4.700   2.301  -9.684  0.00  0.00     0.023 H 
ATOM     49  H   LIG d   1       3.354   3.076 -10.588  0.00  0.00     0.023 H 
ENDBRANCH  40  46
ENDBRANCH   5  40
BRANCH   3  50
ATOM     50  C   LIG d   1       1.294  -0.969 -10.551  0.00  0.00     0.051 C 
ATOM     51  H   LIG d   1       0.808  -0.244  -9.881  0.00  0.00     0.056 H 
ATOM     52  H   LIG d   1       0.985  -0.773 -11.589  0.00  0.00     0.056 H 
BRANCH  50  53
ATOM     53  O   LIG d   1       0.905  -2.293 -10.181  0.00  0.00    -0.394 OA
ATOM     54  H   LIG d   1      -0.098  -2.478  -9.768  0.00  0.00     0.209 HD
ENDBRANCH  50  53
ENDBRANCH   3  50
TORSDOF 9
ENDMDL
MODEL 9
REMARK VINA RESULT:      -4.7      9.535     12.503
REMARK  9 active torsions:
REMARK  status: ('A' for Active; 'I' for Inactive)
REMARK    1  A    between atoms: C_1  and  C_2 
REMARK    2  A    between atoms: C_4  and  C_24 
REMARK    3  A    between atoms: C_6  and  C_21 
REMARK    4  A    between atoms: C_9  and  C_11 
REMARK    5  A    between atoms: C_11  and  C_12 
REMARK       I    between atoms: C_12  and  N_14 
REMARK    6  A    between atoms: N_17  and  C_20 
REMARK    7  A    between atoms: C_21  and  C_22 
REMARK    8  A    between atoms: C_21  and  C_23 
REMARK    9  A    between atoms: C_24  and  O_25 
ROOT
ATOM      1  C   LIG d   1      10.221   8.821  -3.743  0.00  0.00    -0.073 C 
ATOM      2  C   LIG d   1      10.090   9.676  -2.781  0.00  0.00    -0.079 C 
ATOM      3  C   LIG d   1      10.326   9.356  -1.333  0.00  0.00     0.004 C 
ATOM      4  H   LIG d   1      11.309   9.763  -1.052  0.00  0.00     0.037 H 
ATOM      5  C   LIG d   1      10.318   7.841  -1.121  0.00  0.00    -0.030 C 
ATOM      6  H   LIG d   1       9.296   7.450  -1.230  0.00  0.00     0.031 H 
ATOM      7  C   LIG d   1      11.244   7.200  -2.162  0.00  0.00    -0.042 C 
ATOM      8  C   LIG d   1      10.620   7.388  -3.546  0.00  0.00    -0.012 C 
ATOM      9  H   LIG d   1      11.357   7.131  -4.322  0.00  0.00     0.035 H 
ATOM     10  H   LIG d   1       9.786  10.710  -3.001  0.00  0.00     0.058 H 
ATOM     11  H   LIG d   1      12.230   7.687  -2.125  0.00  0.00     0.027 H 
ATOM     12  H   LIG d   1      11.356   6.128  -1.943  0.00  0.00     0.027 H 
ENDROOT
BRANCH   8  13
ATOM     13  C   LIG d   1       9.383   6.497  -3.670  0.00  0.00     0.031 C 
ATOM     14  H   LIG d   1       9.238   5.937  -2.735  0.00  0.00     0.036 H 
ATOM     15  H   LIG d   1       8.499   7.122  -3.863  0.00  0.00     0.036 H 
BRANCH  13  16
ATOM     16  C   LIG d   1       9.574   5.529  -4.810  0.00  0.00     0.216 C 
ATOM     17  O   LIG d   1       9.533   5.925  -5.955  0.00  0.00    -0.276 OA
ATOM     18  N   LIG d   1       9.787   4.223  -4.556  0.00  0.00    -0.299 N 
ATOM     19  C   LIG d   1       9.839   3.721  -3.174  0.00  0.00     0.028 C 
ATOM     20  C   LIG d   1       9.976   3.261  -5.653  0.00  0.00     0.028 C 
ATOM     21  C   LIG d   1      11.123   2.901  -3.002  0.00  0.00     0.015 C 
ATOM     22  H   LIG d   1       9.841   4.570  -2.476  0.00  0.00     0.048 H 
ATOM     23  H   LIG d   1       8.962   3.088  -2.980  0.00  0.00     0.048 H 
ATOM     24  N   LIG d   1      11.182   1.864  -4.042  0.00  0.00    -0.302 N 
ATOM     25  H   LIG d   1      11.126   2.426  -2.010  0.00  0.00     0.044 H 
ATOM     26  H   LIG d   1      11.998   3.562  -3.094  0.00  0.00     0.044 H 
ATOM     27  C   LIG d   1      11.254   2.459  -5.383  0.00  0.00     0.015 C 
ATOM     28  H   LIG d   1      11.351   1.661  -6.135  0.00  0.00     0.044 H 
ATOM     29  H   LIG d   1      12.126   3.127  -5.443  0.00  0.00     0.044 H 
ATOM     30  H   LIG d   1       9.111   2.584  -5.699  0.00  0.00     0.048 H 
ATOM     31  H   LIG d   1      10.068   3.804  -6.605  0.00  0.00     0.048 H 
BRANCH  24  32
ATOM     32  C   LIG d   1      12.307   0.949  -3.810  0.00  0.00    -0.013 C 
ATOM     33  H   LIG d   1      11.924  -0.024  -3.469  0.00  0.00     0.039 H 
ATOM     34  H   LIG d   1      12.971   1.372  -3.042  0.00  0.00     0.039 H 
ATOM     35  H   LIG d   1      12.869   0.815  -4.747  0.00  0.00     0.039 H 
ENDBRANCH  24  32
ENDBRANCH  13  16
ENDBRANCH   8  13
BRANCH   1  36
ATOM     36  C   LIG d   1       9.960   9.295  -5.150  0.00  0.00    -0.043 C 
ATOM     37  H   LIG d   1      10.267  10.347  -5.245  0.00  0.00     0.027 H 
ATOM     38  H   LIG d   1       8.887   9.206  -5.373  0.00  0.00     0.027 H 
ATOM     39  H   LIG d   1      10.534   8.679  -5.857  0.00  0.00     0.027 H 
ENDBRANCH   1  36
BRANCH   5  40
ATOM     40  C   LIG d   1      10.824   7.516   0.286  0.00  0.00    -0.043 C 
ATOM     41  H   LIG d   1      10.096   7.874   1.029  0.00  0.00     0.030 H 
BRANCH  40  42
ATOM     42  C   LIG d   1      10.997   6.002   0.429  0.00  0.00    -0.062 C 
ATOM     43  H   LIG d   1      10.023   5.543   0.656  0.00  0.00     0.023 H 
ATOM     44  H   LIG d   1      11.702   5.790   1.245  0.00  0.00     0.023 H 
ATOM     45  H   LIG d   1      11.388   5.588  -0.512  0.00  0.00     0.023 H 
ENDBRANCH  40  42
BRANCH  40  46
ATOM     46  C   LIG d   1      12.169   8.208   0.517  0.00  0.00    -0.062 C 
ATOM     47  H   LIG d   1      12.756   7.632   1.248  0.00  0.00     0.023 H 
ATOM     48  H   LIG d   1      11.998   9.224   0.901  0.00  0.00     0.023 H 
ATOM     49  H   LIG d   1      12.720   8.262  -0.434  0.00  0.00     0.023 H 
ENDBRANCH  40  46
ENDBRANCH   5  40
BRANCH   3  50
ATOM     50  C   LIG d   1       9.223   9.993  -0.487  0.00  0.00     0.051 C 
ATOM     51  H   LIG d   1       9.042   9.376   0.406  0.00  0.00     0.056 H 
ATOM     52  H   LIG d   1       9.534  11.002  -0.178  0.00  0.00     0.056 H 
BRANCH  50  53
ATOM     53  O   LIG d   1       8.022  10.080  -1.255  0.00  0.00    -0.394 OA
ATOM     54  H   LIG d   1       7.840  10.956  -1.896  0.00  0.00     0.209 HD
ENDBRANCH  50  53
ENDBRANCH   3  50
TORSDOF 9
ENDMDL
