MODEL 1
REMARK VINA RESULT:      -6.6      0.000      0.000
REMARK  9 active torsions:
REMARK  status: ('A' for Active; 'I' for Inactive)
REMARK    1  A    between atoms: C_1  and  C_2 
REMARK    2  A    between atoms: C_2  and  C_3 
REMARK    3  A    between atoms: C_2  and  O_4 
REMARK    4  A    between atoms: O_4  and  C_5 
REMARK    5  A    between atoms: C_5  and  C_6 
REMARK    6  A    between atoms: C_6  and  C_7 
REMARK    7  A    between atoms: C_7  and  N_8 
REMARK    8  A    between atoms: C_28  and  C_29 
REMARK    9  A    between atoms: C_28  and  C_30 
ROOT
ATOM      1  N   LIG d   1       5.506  -6.154  -7.005  0.00  0.00    -0.291 N 
ATOM      2  C   LIG d   1       4.479  -5.742  -7.948  0.00  0.00     0.091 A 
ATOM      3  C   LIG d   1       4.280  -4.261  -7.950  0.00  0.00     0.234 A 
ATOM      4  O   LIG d   1       3.462  -3.801  -8.719  0.00  0.00    -0.274 OA
ATOM      5  N   LIG d   1       4.943  -3.409  -7.164  0.00  0.00    -0.278 N 
ATOM      6  C   LIG d   1       5.893  -3.842  -6.140  0.00  0.00     0.107 A 
ATOM      7  H   LIG d   1       6.841  -3.328  -6.300  0.00  0.00     0.060 H 
ATOM      8  C   LIG d   1       6.142  -5.315  -6.190  0.00  0.00     0.237 A 
ATOM      9  O   LIG d   1       6.980  -5.775  -5.444  0.00  0.00    -0.274 OA
ATOM     10  C   LIG d   1       5.351  -3.461  -4.756  0.00  0.00     0.002 C 
ATOM     11  C   LIG d   1       4.847  -2.041  -4.805  0.00  0.00    -0.015 A 
ATOM     12  C   LIG d   1       4.581  -1.143  -3.700  0.00  0.00     0.003 A 
ATOM     13  C   LIG d   1       4.696  -1.285  -2.314  0.00  0.00    -0.052 A 
ATOM     14  C   LIG d   1       4.350  -0.200  -1.548  0.00  0.00    -0.061 A 
ATOM     15  C   LIG d   1       3.904   0.986  -2.109  0.00  0.00    -0.060 A 
ATOM     16  C   LIG d   1       3.779   1.153  -3.478  0.00  0.00    -0.038 A 
ATOM     17  C   LIG d   1       4.125   0.068  -4.281  0.00  0.00     0.047 A 
ATOM     18  N   LIG d   1       4.121  -0.107  -5.635  0.00  0.00    -0.356 N 
ATOM     19  H   LIG d   1       3.851   0.563  -6.283  0.00  0.00     0.166 HD
ATOM     20  C   LIG d   1       4.558  -1.368  -5.941  0.00  0.00     0.044 A 
ATOM     21  C   LIG d   1       4.713  -1.958  -7.324  0.00  0.00     0.073 C 
ATOM     22  H   LIG d   1       4.768  -6.061  -8.949  0.00  0.00     0.056 H 
ATOM     23  H   LIG d   1       3.539  -6.225  -7.682  0.00  0.00     0.056 H 
ATOM     24  H   LIG d   1       4.533  -4.129  -4.487  0.00  0.00     0.034 H 
ATOM     25  H   LIG d   1       6.148  -3.541  -4.016  0.00  0.00     0.034 H 
ATOM     26  H   LIG d   1       5.042  -2.207  -1.867  0.00  0.00     0.062 H 
ATOM     27  H   LIG d   1       4.426  -0.274  -0.473  0.00  0.00     0.062 H 
ATOM     28  H   LIG d   1       3.646   1.807  -1.457  0.00  0.00     0.062 H 
ATOM     29  H   LIG d   1       3.430   2.082  -3.903  0.00  0.00     0.064 H 
ENDROOT
BRANCH   1  30
ATOM     30  C   LIG d   1       5.856  -7.575  -6.945  0.00  0.00     0.017 C 
ATOM     31  H   LIG d   1       6.728  -7.707  -6.302  0.00  0.00     0.046 H 
ATOM     32  H   LIG d   1       6.087  -7.936  -7.947  0.00  0.00     0.046 H 
BRANCH  30  33
ATOM     33  C   LIG d   1       4.679  -8.367  -6.374  0.00  0.00    -0.014 C 
ATOM     34  H   LIG d   1       4.438  -9.192  -7.044  0.00  0.00     0.030 H 
ATOM     35  H   LIG d   1       3.812  -7.712  -6.279  0.00  0.00     0.030 H 
BRANCH  33  36
ATOM     36  C   LIG d   1       5.055  -8.919  -4.997  0.00  0.00     0.049 C 
ATOM     37  H   LIG d   1       5.759  -8.242  -4.515  0.00  0.00     0.056 H 
ATOM     38  H   LIG d   1       5.515  -9.900  -5.113  0.00  0.00     0.056 H 
BRANCH  36  39
ATOM     39  O   LIG d   1       3.879  -9.036  -4.195  0.00  0.00    -0.377 OA
BRANCH  39  40
ATOM     40  C   LIG d   1       3.773 -10.278  -3.496  0.00  0.00     0.053 C 
ATOM     41  H   LIG d   1       2.895 -10.257  -2.850  0.00  0.00     0.059 H 
BRANCH  40  42
ATOM     42  C   LIG d   1       3.637 -11.421  -4.504  0.00  0.00    -0.039 C 
ATOM     43  H   LIG d   1       4.629 -11.769  -4.795  0.00  0.00     0.025 H 
ATOM     44  H   LIG d   1       3.083 -12.242  -4.051  0.00  0.00     0.025 H 
ATOM     45  H   LIG d   1       3.104 -11.066  -5.386  0.00  0.00     0.025 H 
ENDBRANCH  40  42
BRANCH  40  46
ATOM     46  C   LIG d   1       5.026 -10.495  -2.646  0.00  0.00    -0.039 C 
ATOM     47  H   LIG d   1       5.881 -10.673  -3.297  0.00  0.00     0.025 H 
ATOM     48  H   LIG d   1       5.211  -9.608  -2.039  0.00  0.00     0.025 H 
ATOM     49  H   LIG d   1       4.879 -11.356  -1.994  0.00  0.00     0.025 H 
ENDBRANCH  40  46
ENDBRANCH  39  40
ENDBRANCH  36  39
ENDBRANCH  33  36
ENDBRANCH  30  33
ENDBRANCH   1  30
BRANCH  21  50
ATOM     50  C   LIG d   1       3.437  -1.720  -8.135  0.00  0.00    -0.038 C 
ATOM     51  H   LIG d   1       3.062  -0.717  -7.937  0.00  0.00     0.025 H 
ATOM     52  H   LIG d   1       3.659  -1.822  -9.199  0.00  0.00     0.025 H 
ATOM     53  H   LIG d   1       2.683  -2.454  -7.850  0.00  0.00     0.025 H 
ENDBRANCH  21  50
BRANCH  21  54
ATOM     54  C   LIG d   1       5.907  -1.317  -8.031  0.00  0.00    -0.038 C 
ATOM     55  H   LIG d   1       5.704  -1.250  -9.099  0.00  0.00     0.025 H 
ATOM     56  H   LIG d   1       6.074  -0.317  -7.629  0.00  0.00     0.025 H 
ATOM     57  H   LIG d   1       6.797  -1.927  -7.868  0.00  0.00     0.025 H 
ENDBRANCH  21  54
TORSDOF 9
ENDMDL
MODEL 2
REMARK VINA RESULT:      -6.4      4.797      7.650
REMARK  9 active torsions:
REMARK  status: ('A' for Active; 'I' for Inactive)
REMARK    1  A    between atoms: C_1  and  C_2 
REMARK    2  A    between atoms: C_2  and  C_3 
REMARK    3  A    between atoms: C_2  and  O_4 
REMARK    4  A    between atoms: O_4  and  C_5 
REMARK    5  A    between atoms: C_5  and  C_6 
REMARK    6  A    between atoms: C_6  and  C_7 
REMARK    7  A    between atoms: C_7  and  N_8 
REMARK    8  A    between atoms: C_28  and  C_29 
REMARK    9  A    between atoms: C_28  and  C_30 
ROOT
ATOM      1  N   LIG d   1       6.202  -0.493  -6.484  0.00  0.00    -0.291 N 
ATOM      2  C   LIG d   1       6.717   0.400  -7.509  0.00  0.00     0.091 A 
ATOM      3  C   LIG d   1       5.679   0.743  -8.528  0.00  0.00     0.234 A 
ATOM      4  O   LIG d   1       5.992   1.503  -9.420  0.00  0.00    -0.274 OA
ATOM      5  N   LIG d   1       4.431   0.269  -8.522  0.00  0.00    -0.278 N 
ATOM      6  C   LIG d   1       3.954  -0.715  -7.552  0.00  0.00     0.107 A 
ATOM      7  H   LIG d   1       3.056  -0.328  -7.070  0.00  0.00     0.060 H 
ATOM      8  C   LIG d   1       4.971  -1.000  -6.494  0.00  0.00     0.237 A 
ATOM      9  O   LIG d   1       4.654  -1.738  -5.584  0.00  0.00    -0.274 OA
ATOM     10  C   LIG d   1       3.601  -2.016  -8.285  0.00  0.00     0.002 C 
ATOM     11  C   LIG d   1       2.796  -1.677  -9.515  0.00  0.00    -0.015 A 
ATOM     12  C   LIG d   1       1.957  -2.551 -10.308  0.00  0.00     0.003 A 
ATOM     13  C   LIG d   1       1.634  -3.908 -10.204  0.00  0.00    -0.052 A 
ATOM     14  C   LIG d   1       0.785  -4.418 -11.154  0.00  0.00    -0.061 A 
ATOM     15  C   LIG d   1       0.265  -3.637 -12.174  0.00  0.00    -0.060 A 
ATOM     16  C   LIG d   1       0.569  -2.292 -12.301  0.00  0.00    -0.038 A 
ATOM     17  C   LIG d   1       1.429  -1.747 -11.350  0.00  0.00     0.047 A 
ATOM     18  N   LIG d   1       1.926  -0.486 -11.182  0.00  0.00    -0.356 N 
ATOM     19  H   LIG d   1       1.730   0.272 -11.755  0.00  0.00     0.166 HD
ATOM     20  C   LIG d   1       2.739  -0.452 -10.080  0.00  0.00     0.044 A 
ATOM     21  C   LIG d   1       3.476   0.753  -9.541  0.00  0.00     0.073 C 
ATOM     22  H   LIG d   1       7.066   1.318  -7.036  0.00  0.00     0.056 H 
ATOM     23  H   LIG d   1       7.558  -0.082  -8.008  0.00  0.00     0.056 H 
ATOM     24  H   LIG d   1       4.515  -2.531  -8.579  0.00  0.00     0.034 H 
ATOM     25  H   LIG d   1       3.012  -2.658  -7.629  0.00  0.00     0.034 H 
ATOM     26  H   LIG d   1       2.036  -4.525  -9.413  0.00  0.00     0.062 H 
ATOM     27  H   LIG d   1       0.514  -5.463 -11.105  0.00  0.00     0.062 H 
ATOM     28  H   LIG d   1      -0.399  -4.093 -12.893  0.00  0.00     0.062 H 
ATOM     29  H   LIG d   1       0.158  -1.695 -13.101  0.00  0.00     0.064 H 
ENDROOT
BRANCH   1  30
ATOM     30  C   LIG d   1       7.092  -0.860  -5.379  0.00  0.00     0.017 C 
ATOM     31  H   LIG d   1       8.075  -1.116  -5.775  0.00  0.00     0.046 H 
ATOM     32  H   LIG d   1       6.679  -1.719  -4.849  0.00  0.00     0.046 H 
BRANCH  30  33
ATOM     33  C   LIG d   1       7.222   0.320  -4.415  0.00  0.00    -0.014 C 
ATOM     34  H   LIG d   1       6.747   1.199  -4.850  0.00  0.00     0.030 H 
ATOM     35  H   LIG d   1       8.278   0.529  -4.236  0.00  0.00     0.030 H 
BRANCH  33  36
ATOM     36  C   LIG d   1       6.540  -0.026  -3.089  0.00  0.00     0.049 C 
ATOM     37  H   LIG d   1       7.290  -0.349  -2.369  0.00  0.00     0.056 H 
ATOM     38  H   LIG d   1       5.821  -0.829  -3.250  0.00  0.00     0.056 H 
BRANCH  36  39
ATOM     39  O   LIG d   1       5.863   1.127  -2.588  0.00  0.00    -0.377 OA
BRANCH  39  40
ATOM     40  C   LIG d   1       4.660   0.832  -1.875  0.00  0.00     0.053 C 
ATOM     41  H   LIG d   1       4.726   1.239  -0.866  0.00  0.00     0.059 H 
BRANCH  40  42
ATOM     42  C   LIG d   1       3.470   1.462  -2.602  0.00  0.00    -0.039 C 
ATOM     43  H   LIG d   1       3.728   2.473  -2.914  0.00  0.00     0.025 H 
ATOM     44  H   LIG d   1       3.221   0.864  -3.478  0.00  0.00     0.025 H 
ATOM     45  H   LIG d   1       2.611   1.496  -1.931  0.00  0.00     0.025 H 
ENDBRANCH  40  42
BRANCH  40  46
ATOM     46  C   LIG d   1       4.469  -0.684  -1.803  0.00  0.00    -0.039 C 
ATOM     47  H   LIG d   1       4.429  -0.996  -0.760  0.00  0.00     0.025 H 
ATOM     48  H   LIG d   1       3.538  -0.957  -2.299  0.00  0.00     0.025 H 
ATOM     49  H   LIG d   1       5.303  -1.180  -2.300  0.00  0.00     0.025 H 
ENDBRANCH  40  46
ENDBRANCH  39  40
ENDBRANCH  36  39
ENDBRANCH  33  36
ENDBRANCH  30  33
ENDBRANCH   1  30
BRANCH  21  50
ATOM     50  C   LIG d   1       4.233   1.449 -10.674  0.00  0.00    -0.038 C 
ATOM     51  H   LIG d   1       4.061   2.523 -10.620  0.00  0.00     0.025 H 
ATOM     52  H   LIG d   1       5.300   1.245 -10.577  0.00  0.00     0.025 H 
ATOM     53  H   LIG d   1       3.877   1.071 -11.633  0.00  0.00     0.025 H 
ENDBRANCH  21  50
BRANCH  21  54
ATOM     54  C   LIG d   1       2.484   1.726  -8.903  0.00  0.00    -0.038 C 
ATOM     55  H   LIG d   1       2.808   2.749  -9.089  0.00  0.00     0.025 H 
ATOM     56  H   LIG d   1       1.495   1.574  -9.336  0.00  0.00     0.025 H 
ATOM     57  H   LIG d   1       2.440   1.548  -7.828  0.00  0.00     0.025 H 
ENDBRANCH  21  54
TORSDOF 9
ENDMDL
MODEL 3
REMARK VINA RESULT:      -6.3      3.037      7.159
REMARK  9 active torsions:
REMARK  status: ('A' for Active; 'I' for Inactive)
REMARK    1  A    between atoms: C_1  and  C_2 
REMARK    2  A    between atoms: C_2  and  C_3 
REMARK    3  A    between atoms: C_2  and  O_4 
REMARK    4  A    between atoms: O_4  and  C_5 
REMARK    5  A    between atoms: C_5  and  C_6 
REMARK    6  A    between atoms: C_6  and  C_7 
REMARK    7  A    between atoms: C_7  and  N_8 
REMARK    8  A    between atoms: C_28  and  C_29 
REMARK    9  A    between atoms: C_28  and  C_30 
ROOT
ATOM      1  N   LIG d   1       6.050  -1.158  -4.506  0.00  0.00    -0.291 N 
ATOM      2  C   LIG d   1       5.529  -2.407  -3.973  0.00  0.00     0.091 A 
ATOM      3  C   LIG d   1       5.034  -3.315  -5.051  0.00  0.00     0.234 A 
ATOM      4  O   LIG d   1       4.598  -4.398  -4.723  0.00  0.00    -0.274 OA
ATOM      5  N   LIG d   1       5.040  -3.014  -6.352  0.00  0.00    -0.278 N 
ATOM      6  C   LIG d   1       5.461  -1.713  -6.870  0.00  0.00     0.107 A 
ATOM      7  H   LIG d   1       6.232  -1.868  -7.625  0.00  0.00     0.060 H 
ATOM      8  C   LIG d   1       6.022  -0.836  -5.797  0.00  0.00     0.237 A 
ATOM      9  O   LIG d   1       6.485   0.236  -6.125  0.00  0.00    -0.274 OA
ATOM     10  C   LIG d   1       4.260  -1.018  -7.524  0.00  0.00     0.002 C 
ATOM     11  C   LIG d   1       3.540  -2.012  -8.399  0.00  0.00    -0.015 A 
ATOM     12  C   LIG d   1       2.592  -1.751  -9.464  0.00  0.00     0.003 A 
ATOM     13  C   LIG d   1       2.066  -0.570  -9.997  0.00  0.00    -0.052 A 
ATOM     14  C   LIG d   1       1.168  -0.701 -11.027  0.00  0.00    -0.061 A 
ATOM     15  C   LIG d   1       0.793  -1.938 -11.524  0.00  0.00    -0.060 A 
ATOM     16  C   LIG d   1       1.297  -3.123 -11.014  0.00  0.00    -0.038 A 
ATOM     17  C   LIG d   1       2.211  -3.021  -9.968  0.00  0.00     0.047 A 
ATOM     18  N   LIG d   1       2.887  -3.964  -9.248  0.00  0.00    -0.356 N 
ATOM     19  H   LIG d   1       2.816  -4.923  -9.379  0.00  0.00     0.166 HD
ATOM     20  C   LIG d   1       3.682  -3.353  -8.315  0.00  0.00     0.044 A 
ATOM     21  C   LIG d   1       4.599  -4.035  -7.326  0.00  0.00     0.073 C 
ATOM     22  H   LIG d   1       6.320  -2.913  -3.420  0.00  0.00     0.056 H 
ATOM     23  H   LIG d   1       4.708  -2.186  -3.291  0.00  0.00     0.056 H 
ATOM     24  H   LIG d   1       3.582  -0.655  -6.751  0.00  0.00     0.034 H 
ATOM     25  H   LIG d   1       4.607  -0.181  -8.130  0.00  0.00     0.034 H 
ATOM     26  H   LIG d   1       2.352   0.399  -9.614  0.00  0.00     0.062 H 
ATOM     27  H   LIG d   1       0.741   0.190 -11.464  0.00  0.00     0.062 H 
ATOM     28  H   LIG d   1       0.083  -1.980 -12.337  0.00  0.00     0.062 H 
ATOM     29  H   LIG d   1       0.995  -4.081 -11.410  0.00  0.00     0.064 H 
ENDROOT
BRANCH   1  30
ATOM     30  C   LIG d   1       6.634  -0.198  -3.566  0.00  0.00     0.017 C 
ATOM     31  H   LIG d   1       6.960   0.689  -4.110  0.00  0.00     0.046 H 
ATOM     32  H   LIG d   1       7.489  -0.652  -3.066  0.00  0.00     0.046 H 
BRANCH  30  33
ATOM     33  C   LIG d   1       5.585   0.200  -2.526  0.00  0.00    -0.014 C 
ATOM     34  H   LIG d   1       6.063   0.312  -1.553  0.00  0.00     0.030 H 
ATOM     35  H   LIG d   1       4.819  -0.574  -2.467  0.00  0.00     0.030 H 
BRANCH  33  36
ATOM     36  C   LIG d   1       4.940   1.527  -2.934  0.00  0.00     0.049 C 
ATOM     37  H   LIG d   1       5.345   1.848  -3.893  0.00  0.00     0.056 H 
ATOM     38  H   LIG d   1       5.155   2.282  -2.178  0.00  0.00     0.056 H 
BRANCH  36  39
ATOM     39  O   LIG d   1       3.527   1.354  -3.047  0.00  0.00    -0.377 OA
BRANCH  39  40
ATOM     40  C   LIG d   1       3.139   0.265  -3.887  0.00  0.00     0.053 C 
ATOM     41  H   LIG d   1       4.030  -0.214  -4.295  0.00  0.00     0.059 H 
BRANCH  40  42
ATOM     42  C   LIG d   1       2.343  -0.753  -3.068  0.00  0.00    -0.039 C 
ATOM     43  H   LIG d   1       1.973  -1.539  -3.726  0.00  0.00     0.025 H 
ATOM     44  H   LIG d   1       2.988  -1.191  -2.307  0.00  0.00     0.025 H 
ATOM     45  H   LIG d   1       1.502  -0.254  -2.588  0.00  0.00     0.025 H 
ENDBRANCH  40  42
BRANCH  40  46
ATOM     46  C   LIG d   1       2.271   0.788  -5.033  0.00  0.00    -0.039 C 
ATOM     47  H   LIG d   1       2.617   1.778  -5.328  0.00  0.00     0.025 H 
ATOM     48  H   LIG d   1       2.344   0.110  -5.883  0.00  0.00     0.025 H 
ATOM     49  H   LIG d   1       1.233   0.847  -4.705  0.00  0.00     0.025 H 
ENDBRANCH  40  46
ENDBRANCH  39  40
ENDBRANCH  36  39
ENDBRANCH  33  36
ENDBRANCH  30  33
ENDBRANCH   1  30
BRANCH  21  50
ATOM     50  C   LIG d   1       3.843  -5.151  -6.602  0.00  0.00    -0.038 C 
ATOM     51  H   LIG d   1       3.844  -4.956  -5.530  0.00  0.00     0.025 H 
ATOM     52  H   LIG d   1       2.815  -5.188  -6.964  0.00  0.00     0.025 H 
ATOM     53  H   LIG d   1       4.331  -6.106  -6.798  0.00  0.00     0.025 H 
ENDBRANCH  21  50
BRANCH  21  54
ATOM     54  C   LIG d   1       5.811  -4.615  -8.055  0.00  0.00    -0.038 C 
ATOM     55  H   LIG d   1       5.575  -4.739  -9.111  0.00  0.00     0.025 H 
ATOM     56  H   LIG d   1       6.659  -3.938  -7.948  0.00  0.00     0.025 H 
ATOM     57  H   LIG d   1       6.066  -5.584  -7.623  0.00  0.00     0.025 H 
ENDBRANCH  21  54
TORSDOF 9
ENDMDL
MODEL 4
REMARK VINA RESULT:      -6.3      6.440     10.136
REMARK  9 active torsions:
REMARK  status: ('A' for Active; 'I' for Inactive)
REMARK    1  A    between atoms: C_1  and  C_2 
REMARK    2  A    between atoms: C_2  and  C_3 
REMARK    3  A    between atoms: C_2  and  O_4 
REMARK    4  A    between atoms: O_4  and  C_5 
REMARK    5  A    between atoms: C_5  and  C_6 
REMARK    6  A    between atoms: C_6  and  C_7 
REMARK    7  A    between atoms: C_7  and  N_8 
REMARK    8  A    between atoms: C_28  and  C_29 
REMARK    9  A    between atoms: C_28  and  C_30 
ROOT
ATOM      1  N   LIG d   1      10.918   3.200  -4.529  0.00  0.00    -0.291 N 
ATOM      2  C   LIG d   1      11.748   2.006  -4.553  0.00  0.00     0.091 A 
ATOM      3  C   LIG d   1      10.955   0.776  -4.857  0.00  0.00     0.234 A 
ATOM      4  O   LIG d   1      11.551  -0.278  -4.927  0.00  0.00    -0.274 OA
ATOM      5  N   LIG d   1       9.636   0.761  -5.059  0.00  0.00    -0.278 N 
ATOM      6  C   LIG d   1       8.792   1.947  -4.923  0.00  0.00     0.107 A 
ATOM      7  H   LIG d   1       8.218   2.078  -5.840  0.00  0.00     0.060 H 
ATOM      8  C   LIG d   1       9.596   3.185  -4.690  0.00  0.00     0.237 A 
ATOM      9  O   LIG d   1       9.009   4.246  -4.648  0.00  0.00    -0.274 OA
ATOM     10  C   LIG d   1       7.818   1.742  -3.755  0.00  0.00     0.002 C 
ATOM     11  C   LIG d   1       7.217   0.364  -3.859  0.00  0.00    -0.015 A 
ATOM     12  C   LIG d   1       6.021  -0.146  -3.220  0.00  0.00     0.003 A 
ATOM     13  C   LIG d   1       5.090   0.432  -2.352  0.00  0.00    -0.052 A 
ATOM     14  C   LIG d   1       4.054  -0.365  -1.934  0.00  0.00    -0.061 A 
ATOM     15  C   LIG d   1       3.925  -1.682  -2.344  0.00  0.00    -0.060 A 
ATOM     16  C   LIG d   1       4.833  -2.280  -3.201  0.00  0.00    -0.038 A 
ATOM     17  C   LIG d   1       5.896  -1.494  -3.643  0.00  0.00     0.047 A 
ATOM     18  N   LIG d   1       6.948  -1.760  -4.473  0.00  0.00    -0.356 N 
ATOM     19  H   LIG d   1       7.114  -2.611  -4.908  0.00  0.00     0.166 HD
ATOM     20  C   LIG d   1       7.730  -0.643  -4.600  0.00  0.00     0.044 A 
ATOM     21  C   LIG d   1       8.983  -0.511  -5.436  0.00  0.00     0.073 C 
ATOM     22  H   LIG d   1      12.520   2.126  -5.313  0.00  0.00     0.056 H 
ATOM     23  H   LIG d   1      12.226   1.888  -3.581  0.00  0.00     0.056 H 
ATOM     24  H   LIG d   1       8.355   1.835  -2.810  0.00  0.00     0.034 H 
ATOM     25  H   LIG d   1       7.027   2.491  -3.802  0.00  0.00     0.034 H 
ATOM     26  H   LIG d   1       5.182   1.458  -2.026  0.00  0.00     0.062 H 
ATOM     27  H   LIG d   1       3.315   0.048  -1.263  0.00  0.00     0.062 H 
ATOM     28  H   LIG d   1       3.088  -2.261  -1.984  0.00  0.00     0.062 H 
ATOM     29  H   LIG d   1       4.723  -3.308  -3.513  0.00  0.00     0.064 H 
ENDROOT
BRANCH   1  30
ATOM     30  C   LIG d   1      11.574   4.491  -4.310  0.00  0.00     0.017 C 
ATOM     31  H   LIG d   1      10.823   5.281  -4.297  0.00  0.00     0.046 H 
ATOM     32  H   LIG d   1      12.285   4.679  -5.115  0.00  0.00     0.046 H 
BRANCH  30  33
ATOM     33  C   LIG d   1      12.312   4.468  -2.971  0.00  0.00    -0.014 C 
ATOM     34  H   LIG d   1      13.102   5.219  -2.978  0.00  0.00     0.030 H 
ATOM     35  H   LIG d   1      12.752   3.482  -2.814  0.00  0.00     0.030 H 
BRANCH  33  36
ATOM     36  C   LIG d   1      11.328   4.773  -1.840  0.00  0.00     0.049 C 
ATOM     37  H   LIG d   1      10.715   3.893  -1.644  0.00  0.00     0.056 H 
ATOM     38  H   LIG d   1      10.687   5.604  -2.131  0.00  0.00     0.056 H 
BRANCH  36  39
ATOM     39  O   LIG d   1      12.052   5.120  -0.659  0.00  0.00    -0.377 OA
BRANCH  39  40
ATOM     40  C   LIG d   1      11.513   6.240   0.046  0.00  0.00     0.053 C 
ATOM     41  H   LIG d   1      12.281   7.007   0.153  0.00  0.00     0.059 H 
BRANCH  40  42
ATOM     42  C   LIG d   1      10.327   6.811  -0.734  0.00  0.00    -0.039 C 
ATOM     43  H   LIG d   1      10.437   6.567  -1.791  0.00  0.00     0.025 H 
ATOM     44  H   LIG d   1       9.401   6.379  -0.356  0.00  0.00     0.025 H 
ATOM     45  H   LIG d   1      10.299   7.894  -0.612  0.00  0.00     0.025 H 
ENDBRANCH  40  42
BRANCH  40  46
ATOM     46  C   LIG d   1      11.043   5.793   1.431  0.00  0.00    -0.039 C 
ATOM     47  H   LIG d   1      10.100   5.256   1.340  0.00  0.00     0.025 H 
ATOM     48  H   LIG d   1      11.792   5.137   1.875  0.00  0.00     0.025 H 
ATOM     49  H   LIG d   1      10.904   6.667   2.068  0.00  0.00     0.025 H 
ENDBRANCH  40  46
ENDBRANCH  39  40
ENDBRANCH  36  39
ENDBRANCH  33  36
ENDBRANCH  30  33
ENDBRANCH   1  30
BRANCH  21  50
ATOM     50  C   LIG d   1       9.924  -1.683  -5.149  0.00  0.00    -0.038 C 
ATOM     51  H   LIG d   1      10.631  -1.399  -4.370  0.00  0.00     0.025 H 
ATOM     52  H   LIG d   1       9.342  -2.544  -4.816  0.00  0.00     0.025 H 
ATOM     53  H   LIG d   1      10.468  -1.942  -6.057  0.00  0.00     0.025 H 
ENDBRANCH  21  50
BRANCH  21  54
ATOM     54  C   LIG d   1       8.618  -0.488  -6.920  0.00  0.00    -0.038 C 
ATOM     55  H   LIG d   1       7.599  -0.121  -7.038  0.00  0.00     0.025 H 
ATOM     56  H   LIG d   1       9.305   0.169  -7.454  0.00  0.00     0.025 H 
ATOM     57  H   LIG d   1       8.690  -1.497  -7.329  0.00  0.00     0.025 H 
ENDBRANCH  21  54
TORSDOF 9
ENDMDL
MODEL 5
REMARK VINA RESULT:      -6.1      3.447      4.259
REMARK  9 active torsions:
REMARK  status: ('A' for Active; 'I' for Inactive)
REMARK    1  A    between atoms: C_1  and  C_2 
REMARK    2  A    between atoms: C_2  and  C_3 
REMARK    3  A    between atoms: C_2  and  O_4 
REMARK    4  A    between atoms: O_4  and  C_5 
REMARK    5  A    between atoms: C_5  and  C_6 
REMARK    6  A    between atoms: C_6  and  C_7 
REMARK    7  A    between atoms: C_7  and  N_8 
REMARK    8  A    between atoms: C_28  and  C_29 
REMARK    9  A    between atoms: C_28  and  C_30 
ROOT
ATOM      1  N   LIG d   1       3.635  -4.634  -9.244  0.00  0.00    -0.291 N 
ATOM      2  C   LIG d   1       2.663  -3.674  -9.742  0.00  0.00     0.091 A 
ATOM      3  C   LIG d   1       2.846  -2.322  -9.132  0.00  0.00     0.234 A 
ATOM      4  O   LIG d   1       2.104  -1.434  -9.494  0.00  0.00    -0.274 OA
ATOM      5  N   LIG d   1       3.771  -2.026  -8.216  0.00  0.00    -0.278 N 
ATOM      6  C   LIG d   1       4.670  -3.024  -7.638  0.00  0.00     0.107 A 
ATOM      7  H   LIG d   1       5.698  -2.683  -7.760  0.00  0.00     0.060 H 
ATOM      8  C   LIG d   1       4.533  -4.356  -8.301  0.00  0.00     0.237 A 
ATOM      9  O   LIG d   1       5.292  -5.240  -7.963  0.00  0.00    -0.274 OA
ATOM     10  C   LIG d   1       4.370  -3.165  -6.140  0.00  0.00     0.002 C 
ATOM     11  C   LIG d   1       4.239  -1.789  -5.539  0.00  0.00    -0.015 A 
ATOM     12  C   LIG d   1       4.310  -1.407  -4.143  0.00  0.00     0.003 A 
ATOM     13  C   LIG d   1       4.512  -2.139  -2.969  0.00  0.00    -0.052 A 
ATOM     14  C   LIG d   1       4.521  -1.433  -1.792  0.00  0.00    -0.061 A 
ATOM     15  C   LIG d   1       4.341  -0.060  -1.755  0.00  0.00    -0.060 A 
ATOM     16  C   LIG d   1       4.138   0.689  -2.902  0.00  0.00    -0.038 A 
ATOM     17  C   LIG d   1       4.124  -0.001  -4.112  0.00  0.00     0.047 A 
ATOM     18  N   LIG d   1       3.953   0.415  -5.401  0.00  0.00    -0.356 N 
ATOM     19  H   LIG d   1       3.803   1.334  -5.676  0.00  0.00     0.166 HD
ATOM     20  C   LIG d   1       4.027  -0.658  -6.248  0.00  0.00     0.044 A 
ATOM     21  C   LIG d   1       3.901  -0.628  -7.754  0.00  0.00     0.073 C 
ATOM     22  H   LIG d   1       2.770  -3.591 -10.824  0.00  0.00     0.056 H 
ATOM     23  H   LIG d   1       1.660  -4.033  -9.514  0.00  0.00     0.056 H 
ATOM     24  H   LIG d   1       3.437  -3.713  -6.003  0.00  0.00     0.034 H 
ATOM     25  H   LIG d   1       5.185  -3.701  -5.652  0.00  0.00     0.034 H 
ATOM     26  H   LIG d   1       4.652  -3.210  -2.988  0.00  0.00     0.062 H 
ATOM     27  H   LIG d   1       4.674  -1.966  -0.864  0.00  0.00     0.062 H 
ATOM     28  H   LIG d   1       4.359   0.443  -0.799  0.00  0.00     0.062 H 
ATOM     29  H   LIG d   1       3.998   1.759  -2.859  0.00  0.00     0.064 H 
ENDROOT
BRANCH   1  30
ATOM     30  C   LIG d   1       3.618  -5.986  -9.806  0.00  0.00     0.017 C 
ATOM     31  H   LIG d   1       3.387  -6.704  -9.018  0.00  0.00     0.046 H 
ATOM     32  H   LIG d   1       4.596  -6.216 -10.231  0.00  0.00     0.046 H 
BRANCH  30  33
ATOM     33  C   LIG d   1       2.554  -6.071 -10.901  0.00  0.00    -0.014 C 
ATOM     34  H   LIG d   1       3.025  -6.342 -11.846  0.00  0.00     0.030 H 
ATOM     35  H   LIG d   1       2.061  -5.104 -11.005  0.00  0.00     0.030 H 
BRANCH  33  36
ATOM     36  C   LIG d   1       1.518  -7.133 -10.524  0.00  0.00     0.049 C 
ATOM     37  H   LIG d   1       2.023  -7.996 -10.091  0.00  0.00     0.056 H 
ATOM     38  H   LIG d   1       0.974  -7.441 -11.416  0.00  0.00     0.056 H 
BRANCH  36  39
ATOM     39  O   LIG d   1       0.603  -6.589  -9.572  0.00  0.00    -0.377 OA
BRANCH  39  40
ATOM     40  C   LIG d   1      -0.770  -6.716  -9.946  0.00  0.00     0.053 C 
ATOM     41  H   LIG d   1      -1.301  -7.295  -9.190  0.00  0.00     0.059 H 
BRANCH  40  42
ATOM     42  C   LIG d   1      -1.398  -5.325 -10.056  0.00  0.00    -0.039 C 
ATOM     43  H   LIG d   1      -2.006  -5.272 -10.960  0.00  0.00     0.025 H 
ATOM     44  H   LIG d   1      -2.026  -5.139  -9.185  0.00  0.00     0.025 H 
ATOM     45  H   LIG d   1      -0.611  -4.573 -10.102  0.00  0.00     0.025 H 
ENDBRANCH  40  42
BRANCH  40  46
ATOM     46  C   LIG d   1      -0.868  -7.428 -11.296  0.00  0.00    -0.039 C 
ATOM     47  H   LIG d   1      -1.904  -7.431 -11.631  0.00  0.00     0.025 H 
ATOM     48  H   LIG d   1      -0.251  -6.906 -12.028  0.00  0.00     0.025 H 
ATOM     49  H   LIG d   1      -0.515  -8.454 -11.192  0.00  0.00     0.025 H 
ENDBRANCH  40  46
ENDBRANCH  39  40
ENDBRANCH  36  39
ENDBRANCH  33  36
ENDBRANCH  30  33
ENDBRANCH   1  30
BRANCH  21  50
ATOM     50  C   LIG d   1       2.659   0.170  -8.156  0.00  0.00    -0.038 C 
ATOM     51  H   LIG d   1       2.884   1.236  -8.118  0.00  0.00     0.025 H 
ATOM     52  H   LIG d   1       2.363  -0.104  -9.169  0.00  0.00     0.025 H 
ATOM     53  H   LIG d   1       1.845  -0.055  -7.466  0.00  0.00     0.025 H 
ENDBRANCH  21  50
BRANCH  21  54
ATOM     54  C   LIG d   1       5.149   0.008  -8.367  0.00  0.00    -0.038 C 
ATOM     55  H   LIG d   1       4.853   0.765  -9.092  0.00  0.00     0.025 H 
ATOM     56  H   LIG d   1       5.746   0.470  -7.580  0.00  0.00     0.025 H 
ATOM     57  H   LIG d   1       5.742  -0.761  -8.866  0.00  0.00     0.025 H 
ENDBRANCH  21  54
TORSDOF 9
ENDMDL
MODEL 6
REMARK VINA RESULT:      -5.8      6.035      8.310
REMARK  9 active torsions:
REMARK  status: ('A' for Active; 'I' for Inactive)
REMARK    1  A    between atoms: C_1  and  C_2 
REMARK    2  A    between atoms: C_2  and  C_3 
REMARK    3  A    between atoms: C_2  and  O_4 
REMARK    4  A    between atoms: O_4  and  C_5 
REMARK    5  A    between atoms: C_5  and  C_6 
REMARK    6  A    between atoms: C_6  and  C_7 
REMARK    7  A    between atoms: C_7  and  N_8 
REMARK    8  A    between atoms: C_28  and  C_29 
REMARK    9  A    between atoms: C_28  and  C_30 
ROOT
ATOM      1  N   LIG d   1       7.204   0.314  -6.765  0.00  0.00    -0.291 N 
ATOM      2  C   LIG d   1       6.872   1.004  -8.001  0.00  0.00     0.091 A 
ATOM      3  C   LIG d   1       7.785   2.158  -8.263  0.00  0.00     0.234 A 
ATOM      4  O   LIG d   1       7.615   2.793  -9.282  0.00  0.00    -0.274 OA
ATOM      5  N   LIG d   1       8.774   2.537  -7.450  0.00  0.00    -0.278 N 
ATOM      6  C   LIG d   1       9.030   1.908  -6.155  0.00  0.00     0.107 A 
ATOM      7  H   LIG d   1      10.072   1.589  -6.118  0.00  0.00     0.060 H 
ATOM      8  C   LIG d   1       8.164   0.711  -5.931  0.00  0.00     0.237 A 
ATOM      9  O   LIG d   1       8.348   0.055  -4.927  0.00  0.00    -0.274 OA
ATOM     10  C   LIG d   1       8.786   2.932  -5.040  0.00  0.00     0.002 C 
ATOM     11  C   LIG d   1       9.447   4.232  -5.421  0.00  0.00    -0.015 A 
ATOM     12  C   LIG d   1       9.791   5.351  -4.567  0.00  0.00     0.003 A 
ATOM     13  C   LIG d   1       9.634   5.580  -3.196  0.00  0.00    -0.052 A 
ATOM     14  C   LIG d   1      10.087   6.783  -2.713  0.00  0.00    -0.061 A 
ATOM     15  C   LIG d   1      10.673   7.733  -3.534  0.00  0.00    -0.060 A 
ATOM     16  C   LIG d   1      10.839   7.532  -4.893  0.00  0.00    -0.038 A 
ATOM     17  C   LIG d   1      10.389   6.320  -5.412  0.00  0.00     0.047 A 
ATOM     18  N   LIG d   1      10.395   5.808  -6.678  0.00  0.00    -0.356 N 
ATOM     19  H   LIG d   1      10.746   6.260  -7.462  0.00  0.00     0.166 HD
ATOM     20  C   LIG d   1       9.834   4.558  -6.674  0.00  0.00     0.044 A 
ATOM     21  C   LIG d   1       9.660   3.645  -7.867  0.00  0.00     0.073 C 
ATOM     22  H   LIG d   1       6.946   0.300  -8.830  0.00  0.00     0.056 H 
ATOM     23  H   LIG d   1       5.848   1.370  -7.938  0.00  0.00     0.056 H 
ATOM     24  H   LIG d   1       7.715   3.091  -4.916  0.00  0.00     0.034 H 
ATOM     25  H   LIG d   1       9.213   2.566  -4.106  0.00  0.00     0.034 H 
ATOM     26  H   LIG d   1       9.178   4.846  -2.549  0.00  0.00     0.062 H 
ATOM     27  H   LIG d   1       9.983   6.994  -1.659  0.00  0.00     0.062 H 
ATOM     28  H   LIG d   1      11.012   8.661  -3.098  0.00  0.00     0.062 H 
ATOM     29  H   LIG d   1      11.296   8.282  -5.522  0.00  0.00     0.064 H 
ENDROOT
BRANCH   1  30
ATOM     30  C   LIG d   1       6.434  -0.882  -6.414  0.00  0.00     0.017 C 
ATOM     31  H   LIG d   1       6.789  -1.275  -5.461  0.00  0.00     0.046 H 
ATOM     32  H   LIG d   1       6.562  -1.637  -7.190  0.00  0.00     0.046 H 
BRANCH  30  33
ATOM     33  C   LIG d   1       4.953  -0.518  -6.295  0.00  0.00    -0.014 C 
ATOM     34  H   LIG d   1       4.367  -1.163  -6.950  0.00  0.00     0.030 H 
ATOM     35  H   LIG d   1       4.809   0.523  -6.588  0.00  0.00     0.030 H 
BRANCH  33  36
ATOM     36  C   LIG d   1       4.496  -0.710  -4.847  0.00  0.00     0.049 C 
ATOM     37  H   LIG d   1       5.089  -1.495  -4.380  0.00  0.00     0.056 H 
ATOM     38  H   LIG d   1       3.444  -0.993  -4.834  0.00  0.00     0.056 H 
BRANCH  36  39
ATOM     39  O   LIG d   1       4.670   0.512  -4.128  0.00  0.00    -0.377 OA
BRANCH  39  40
ATOM     40  C   LIG d   1       3.744   0.691  -3.054  0.00  0.00     0.053 C 
ATOM     41  H   LIG d   1       3.151   1.589  -3.232  0.00  0.00     0.059 H 
BRANCH  40  42
ATOM     42  C   LIG d   1       2.818  -0.524  -2.971  0.00  0.00    -0.039 C 
ATOM     43  H   LIG d   1       2.793  -1.028  -3.937  0.00  0.00     0.025 H 
ATOM     44  H   LIG d   1       3.189  -1.212  -2.211  0.00  0.00     0.025 H 
ATOM     45  H   LIG d   1       1.813  -0.197  -2.704  0.00  0.00     0.025 H 
ENDBRANCH  40  42
BRANCH  40  46
ATOM     46  C   LIG d   1       4.510   0.839  -1.739  0.00  0.00    -0.039 C 
ATOM     47  H   LIG d   1       4.043   1.613  -1.130  0.00  0.00     0.025 H 
ATOM     48  H   LIG d   1       4.492  -0.108  -1.199  0.00  0.00     0.025 H 
ATOM     49  H   LIG d   1       5.544   1.116  -1.949  0.00  0.00     0.025 H 
ENDBRANCH  40  46
ENDBRANCH  39  40
ENDBRANCH  36  39
ENDBRANCH  33  36
ENDBRANCH  30  33
ENDBRANCH   1  30
BRANCH  21  50
ATOM     50  C   LIG d   1       9.018   4.417  -9.021  0.00  0.00    -0.038 C 
ATOM     51  H   LIG d   1       9.705   5.187  -9.370  0.00  0.00     0.025 H 
ATOM     52  H   LIG d   1       8.797   3.730  -9.839  0.00  0.00     0.025 H 
ATOM     53  H   LIG d   1       8.094   4.882  -8.678  0.00  0.00     0.025 H 
ENDBRANCH  21  50
BRANCH  21  54
ATOM     54  C   LIG d   1      11.017   3.091  -8.300  0.00  0.00    -0.038 C 
ATOM     55  H   LIG d   1      11.099   3.138  -9.385  0.00  0.00     0.025 H 
ATOM     56  H   LIG d   1      11.813   3.685  -7.850  0.00  0.00     0.025 H 
ATOM     57  H   LIG d   1      11.109   2.055  -7.973  0.00  0.00     0.025 H 
ENDBRANCH  21  54
TORSDOF 9
ENDMDL
MODEL 7
REMARK VINA RESULT:      -5.6      4.432      5.589
REMARK  9 active torsions:
REMARK  status: ('A' for Active; 'I' for Inactive)
REMARK    1  A    between atoms: C_1  and  C_2 
REMARK    2  A    between atoms: C_2  and  C_3 
REMARK    3  A    between atoms: C_2  and  O_4 
REMARK    4  A    between atoms: O_4  and  C_5 
REMARK    5  A    between atoms: C_5  and  C_6 
REMARK    6  A    between atoms: C_6  and  C_7 
REMARK    7  A    between atoms: C_7  and  N_8 
REMARK    8  A    between atoms: C_28  and  C_29 
REMARK    9  A    between atoms: C_28  and  C_30 
ROOT
ATOM      1  N   LIG d   1       6.723  -0.590 -10.607  0.00  0.00    -0.291 N 
ATOM      2  C   LIG d   1       5.428  -1.008 -11.119  0.00  0.00     0.091 A 
ATOM      3  C   LIG d   1       4.314  -0.652 -10.189  0.00  0.00     0.234 A 
ATOM      4  O   LIG d   1       3.184  -0.932 -10.527  0.00  0.00    -0.274 OA
ATOM      5  N   LIG d   1       4.480  -0.046  -9.011  0.00  0.00    -0.278 N 
ATOM      6  C   LIG d   1       5.794   0.269  -8.452  0.00  0.00     0.107 A 
ATOM      7  H   LIG d   1       5.826   1.330  -8.204  0.00  0.00     0.060 H 
ATOM      8  C   LIG d   1       6.899  -0.022  -9.415  0.00  0.00     0.237 A 
ATOM      9  O   LIG d   1       8.029   0.282  -9.094  0.00  0.00    -0.274 OA
ATOM     10  C   LIG d   1       6.006  -0.545  -7.169  0.00  0.00     0.002 C 
ATOM     11  C   LIG d   1       4.758  -0.459  -6.328  0.00  0.00    -0.015 A 
ATOM     12  C   LIG d   1       4.602  -0.753  -4.918  0.00  0.00     0.003 A 
ATOM     13  C   LIG d   1       5.498  -1.185  -3.935  0.00  0.00    -0.052 A 
ATOM     14  C   LIG d   1       4.993  -1.365  -2.671  0.00  0.00    -0.061 A 
ATOM     15  C   LIG d   1       3.661  -1.134  -2.371  0.00  0.00    -0.060 A 
ATOM     16  C   LIG d   1       2.752  -0.708  -3.325  0.00  0.00    -0.038 A 
ATOM     17  C   LIG d   1       3.237  -0.516  -4.617  0.00  0.00     0.047 A 
ATOM     18  N   LIG d   1       2.630  -0.112  -5.771  0.00  0.00    -0.356 N 
ATOM     19  H   LIG d   1       1.691   0.117  -5.858  0.00  0.00     0.166 HD
ATOM     20  C   LIG d   1       3.546  -0.077  -6.789  0.00  0.00     0.044 A 
ATOM     21  C   LIG d   1       3.287   0.327  -8.222  0.00  0.00     0.073 C 
ATOM     22  H   LIG d   1       5.255  -0.523 -12.080  0.00  0.00     0.056 H 
ATOM     23  H   LIG d   1       5.436  -2.088 -11.265  0.00  0.00     0.056 H 
ATOM     24  H   LIG d   1       6.202  -1.587  -7.425  0.00  0.00     0.034 H 
ATOM     25  H   LIG d   1       6.850  -0.139  -6.612  0.00  0.00     0.034 H 
ATOM     26  H   LIG d   1       6.539  -1.368  -4.160  0.00  0.00     0.062 H 
ATOM     27  H   LIG d   1       5.656  -1.697  -1.886  0.00  0.00     0.062 H 
ATOM     28  H   LIG d   1       3.319  -1.291  -1.358  0.00  0.00     0.062 H 
ATOM     29  H   LIG d   1       1.715  -0.532  -3.078  0.00  0.00     0.064 H 
ENDROOT
BRANCH   1  30
ATOM     30  C   LIG d   1       7.902  -0.814 -11.447  0.00  0.00     0.017 C 
ATOM     31  H   LIG d   1       8.804  -0.645 -10.859  0.00  0.00     0.046 H 
ATOM     32  H   LIG d   1       7.884  -0.123 -12.290  0.00  0.00     0.046 H 
BRANCH  30  33
ATOM     33  C   LIG d   1       7.894  -2.252 -11.966  0.00  0.00    -0.014 C 
ATOM     34  H   LIG d   1       8.547  -2.329 -12.835  0.00  0.00     0.030 H 
ATOM     35  H   LIG d   1       6.878  -2.531 -12.250  0.00  0.00     0.030 H 
BRANCH  33  36
ATOM     36  C   LIG d   1       8.393  -3.194 -10.867  0.00  0.00     0.049 C 
ATOM     37  H   LIG d   1       8.685  -2.610  -9.994  0.00  0.00     0.056 H 
ATOM     38  H   LIG d   1       9.252  -3.755 -11.233  0.00  0.00     0.056 H 
BRANCH  36  39
ATOM     39  O   LIG d   1       7.350  -4.100 -10.507  0.00  0.00    -0.377 OA
BRANCH  39  40
ATOM     40  C   LIG d   1       7.166  -4.246  -9.097  0.00  0.00     0.053 C 
ATOM     41  H   LIG d   1       7.327  -5.287  -8.815  0.00  0.00     0.059 H 
BRANCH  40  42
ATOM     42  C   LIG d   1       8.169  -3.357  -8.358  0.00  0.00    -0.039 C 
ATOM     43  H   LIG d   1       9.177  -3.741  -8.512  0.00  0.00     0.025 H 
ATOM     44  H   LIG d   1       8.106  -2.340  -8.744  0.00  0.00     0.025 H 
ATOM     45  H   LIG d   1       7.938  -3.356  -7.293  0.00  0.00     0.025 H 
ENDBRANCH  40  42
BRANCH  40  46
ATOM     46  C   LIG d   1       5.743  -3.830  -8.722  0.00  0.00    -0.039 C 
ATOM     47  H   LIG d   1       5.116  -3.833  -9.612  0.00  0.00     0.025 H 
ATOM     48  H   LIG d   1       5.340  -4.531  -7.992  0.00  0.00     0.025 H 
ATOM     49  H   LIG d   1       5.759  -2.828  -8.291  0.00  0.00     0.025 H 
ENDBRANCH  40  46
ENDBRANCH  39  40
ENDBRANCH  36  39
ENDBRANCH  33  36
ENDBRANCH  30  33
ENDBRANCH   1  30
BRANCH  21  50
ATOM     50  C   LIG d   1       2.059  -0.413  -8.756  0.00  0.00    -0.038 C 
ATOM     51  H   LIG d   1       2.364  -1.104  -9.541  0.00  0.00     0.025 H 
ATOM     52  H   LIG d   1       1.588  -0.970  -7.944  0.00  0.00     0.025 H 
ATOM     53  H   LIG d   1       1.348   0.307  -9.161  0.00  0.00     0.025 H 
ENDBRANCH  21  50
BRANCH  21  54
ATOM     54  C   LIG d   1       3.061   1.837  -8.304  0.00  0.00    -0.038 C 
ATOM     55  H   LIG d   1       2.355   2.141  -7.532  0.00  0.00     0.025 H 
ATOM     56  H   LIG d   1       4.009   2.355  -8.155  0.00  0.00     0.025 H 
ATOM     57  H   LIG d   1       2.659   2.092  -9.285  0.00  0.00     0.025 H 
ENDBRANCH  21  54
TORSDOF 9
ENDMDL
MODEL 8
REMARK VINA RESULT:      -5.6     13.195     16.316
REMARK  9 active torsions:
REMARK  status: ('A' for Active; 'I' for Inactive)
REMARK    1  A    between atoms: C_1  and  C_2 
REMARK    2  A    between atoms: C_2  and  C_3 
REMARK    3  A    between atoms: C_2  and  O_4 
REMARK    4  A    between atoms: O_4  and  C_5 
REMARK    5  A    between atoms: C_5  and  C_6 
REMARK    6  A    between atoms: C_6  and  C_7 
REMARK    7  A    between atoms: C_7  and  N_8 
REMARK    8  A    between atoms: C_28  and  C_29 
REMARK    9  A    between atoms: C_28  and  C_30 
ROOT
ATOM      1  N   LIG d   1      11.241   9.497   0.076  0.00  0.00    -0.291 N 
ATOM      2  C   LIG d   1      11.803  10.761  -0.371  0.00  0.00     0.091 A 
ATOM      3  C   LIG d   1      11.204  11.218  -1.661  0.00  0.00     0.234 A 
ATOM      4  O   LIG d   1      11.582  12.276  -2.117  0.00  0.00    -0.274 OA
ATOM      5  N   LIG d   1      10.280  10.539  -2.346  0.00  0.00    -0.278 N 
ATOM      6  C   LIG d   1       9.802   9.216  -1.948  0.00  0.00     0.107 A 
ATOM      7  H   LIG d   1       8.714   9.241  -1.878  0.00  0.00     0.060 H 
ATOM      8  C   LIG d   1      10.349   8.796  -0.622  0.00  0.00     0.237 A 
ATOM      9  O   LIG d   1       9.953   7.752  -0.148  0.00  0.00    -0.274 OA
ATOM     10  C   LIG d   1      10.206   8.191  -3.016  0.00  0.00     0.002 C 
ATOM     11  C   LIG d   1       9.892   8.759  -4.377  0.00  0.00    -0.015 A 
ATOM     12  C   LIG d   1       9.764   8.056  -5.637  0.00  0.00     0.003 A 
ATOM     13  C   LIG d   1       9.882   6.706  -5.986  0.00  0.00    -0.052 A 
ATOM     14  C   LIG d   1       9.692   6.389  -7.307  0.00  0.00    -0.061 A 
ATOM     15  C   LIG d   1       9.397   7.350  -8.261  0.00  0.00    -0.060 A 
ATOM     16  C   LIG d   1       9.277   8.692  -7.943  0.00  0.00    -0.038 A 
ATOM     17  C   LIG d   1       9.464   9.044  -6.609  0.00  0.00     0.047 A 
ATOM     18  N   LIG d   1       9.420  10.247  -5.965  0.00  0.00    -0.356 N 
ATOM     19  H   LIG d   1       9.236  11.101  -6.388  0.00  0.00     0.166 HD
ATOM     20  C   LIG d   1       9.673  10.068  -4.630  0.00  0.00     0.044 A 
ATOM     21  C   LIG d   1       9.706  11.142  -3.567  0.00  0.00     0.073 C 
ATOM     22  H   LIG d   1      11.621  11.518   0.392  0.00  0.00     0.056 H 
ATOM     23  H   LIG d   1      12.879  10.644  -0.502  0.00  0.00     0.056 H 
ATOM     24  H   LIG d   1      11.274   7.989  -2.943  0.00  0.00     0.034 H 
ATOM     25  H   LIG d   1       9.646   7.268  -2.867  0.00  0.00     0.034 H 
ATOM     26  H   LIG d   1      10.112   5.950  -5.249  0.00  0.00     0.062 H 
ATOM     27  H   LIG d   1       9.775   5.356  -7.613  0.00  0.00     0.062 H 
ATOM     28  H   LIG d   1       9.257   7.041  -9.286  0.00  0.00     0.062 H 
ATOM     29  H   LIG d   1       9.048   9.431  -8.697  0.00  0.00     0.064 H 
ENDROOT
BRANCH   1  30
ATOM     30  C   LIG d   1      11.687   8.960   1.364  0.00  0.00     0.017 C 
ATOM     31  H   LIG d   1      12.494   8.246   1.200  0.00  0.00     0.046 H 
ATOM     32  H   LIG d   1      10.854   8.460   1.858  0.00  0.00     0.046 H 
BRANCH  30  33
ATOM     33  C   LIG d   1      12.191  10.104   2.246  0.00  0.00    -0.014 C 
ATOM     34  H   LIG d   1      11.421  10.871   2.321  0.00  0.00     0.030 H 
ATOM     35  H   LIG d   1      13.090  10.535   1.804  0.00  0.00     0.030 H 
BRANCH  33  36
ATOM     36  C   LIG d   1      12.515   9.567   3.642  0.00  0.00     0.049 C 
ATOM     37  H   LIG d   1      12.230  10.306   4.390  0.00  0.00     0.056 H 
ATOM     38  H   LIG d   1      13.584   9.370   3.716  0.00  0.00     0.056 H 
BRANCH  36  39
ATOM     39  O   LIG d   1      11.791   8.357   3.867  0.00  0.00    -0.377 OA
BRANCH  39  40
ATOM     40  C   LIG d   1      11.967   7.808   5.174  0.00  0.00     0.053 C 
ATOM     41  H   LIG d   1      12.995   7.462   5.287  0.00  0.00     0.059 H 
BRANCH  40  42
ATOM     42  C   LIG d   1      11.674   8.883   6.223  0.00  0.00    -0.039 C 
ATOM     43  H   LIG d   1      12.598   9.155   6.733  0.00  0.00     0.025 H 
ATOM     44  H   LIG d   1      11.256   9.763   5.734  0.00  0.00     0.025 H 
ATOM     45  H   LIG d   1      10.957   8.497   6.948  0.00  0.00     0.025 H 
ENDBRANCH  40  42
BRANCH  40  46
ATOM     46  C   LIG d   1      11.008   6.632   5.368  0.00  0.00    -0.039 C 
ATOM     47  H   LIG d   1      10.975   6.359   6.422  0.00  0.00     0.025 H 
ATOM     48  H   LIG d   1      10.010   6.919   5.036  0.00  0.00     0.025 H 
ATOM     49  H   LIG d   1      11.354   5.780   4.782  0.00  0.00     0.025 H 
ENDBRANCH  40  46
ENDBRANCH  39  40
ENDBRANCH  36  39
ENDBRANCH  33  36
ENDBRANCH  30  33
ENDBRANCH   1  30
BRANCH  21  50
ATOM     50  C   LIG d   1      10.583  12.307  -4.033  0.00  0.00    -0.038 C 
ATOM     51  H   LIG d   1      10.230  13.232  -3.577  0.00  0.00     0.025 H 
ATOM     52  H   LIG d   1      11.616  12.125  -3.736  0.00  0.00     0.025 H 
ATOM     53  H   LIG d   1      10.526  12.392  -5.118  0.00  0.00     0.025 H 
ENDBRANCH  21  50
BRANCH  21  54
ATOM     54  C   LIG d   1       8.287  11.639  -3.285  0.00  0.00    -0.038 C 
ATOM     55  H   LIG d   1       8.230  12.708  -3.483  0.00  0.00     0.025 H 
ATOM     56  H   LIG d   1       7.583  11.111  -3.929  0.00  0.00     0.025 H 
ATOM     57  H   LIG d   1       8.036  11.447  -2.241  0.00  0.00     0.025 H 
ENDBRANCH  21  54
TORSDOF 9
ENDMDL
MODEL 9
REMARK VINA RESULT:      -5.4      6.418      8.573
REMARK  9 active torsions:
REMARK  status: ('A' for Active; 'I' for Inactive)
REMARK    1  A    between atoms: C_1  and  C_2 
REMARK    2  A    between atoms: C_2  and  C_3 
REMARK    3  A    between atoms: C_2  and  O_4 
REMARK    4  A    between atoms: O_4  and  C_5 
REMARK    5  A    between atoms: C_5  and  C_6 
REMARK    6  A    between atoms: C_6  and  C_7 
REMARK    7  A    between atoms: C_7  and  N_8 
REMARK    8  A    between atoms: C_28  and  C_29 
REMARK    9  A    between atoms: C_28  and  C_30 
ROOT
ATOM      1  N   LIG d   1       7.640  -0.042  -4.512  0.00  0.00    -0.291 N 
ATOM      2  C   LIG d   1       8.649  -0.554  -5.426  0.00  0.00     0.091 A 
ATOM      3  C   LIG d   1       9.882   0.290  -5.432  0.00  0.00     0.234 A 
ATOM      4  O   LIG d   1      10.801  -0.057  -6.142  0.00  0.00    -0.274 OA
ATOM      5  N   LIG d   1      10.039   1.401  -4.708  0.00  0.00    -0.278 N 
ATOM      6  C   LIG d   1       8.979   1.970  -3.877  0.00  0.00     0.107 A 
ATOM      7  H   LIG d   1       9.358   2.102  -2.864  0.00  0.00     0.060 H 
ATOM      8  C   LIG d   1       7.775   1.086  -3.818  0.00  0.00     0.237 A 
ATOM      9  O   LIG d   1       6.864   1.414  -3.087  0.00  0.00    -0.274 OA
ATOM     10  C   LIG d   1       8.579   3.341  -4.439  0.00  0.00     0.002 C 
ATOM     11  C   LIG d   1       9.831   4.121  -4.752  0.00  0.00    -0.015 A 
ATOM     12  C   LIG d   1       9.973   5.548  -4.959  0.00  0.00     0.003 A 
ATOM     13  C   LIG d   1       9.057   6.605  -4.937  0.00  0.00    -0.052 A 
ATOM     14  C   LIG d   1       9.554   7.861  -5.182  0.00  0.00    -0.061 A 
ATOM     15  C   LIG d   1      10.896   8.084  -5.440  0.00  0.00    -0.060 A 
ATOM     16  C   LIG d   1      11.824   7.057  -5.469  0.00  0.00    -0.038 A 
ATOM     17  C   LIG d   1      11.348   5.770  -5.224  0.00  0.00     0.047 A 
ATOM     18  N   LIG d   1      11.973   4.557  -5.178  0.00  0.00    -0.356 N 
ATOM     19  H   LIG d   1      12.921   4.411  -5.324  0.00  0.00     0.166 HD
ATOM     20  C   LIG d   1      11.060   3.577  -4.892  0.00  0.00     0.044 A 
ATOM     21  C   LIG d   1      11.341   2.099  -4.740  0.00  0.00     0.073 C 
ATOM     22  H   LIG d   1       8.916  -1.568  -5.127  0.00  0.00     0.056 H 
ATOM     23  H   LIG d   1       8.233  -0.581  -6.433  0.00  0.00     0.056 H 
ATOM     24  H   LIG d   1       7.995   3.207  -5.350  0.00  0.00     0.034 H 
ATOM     25  H   LIG d   1       7.988   3.881  -3.699  0.00  0.00     0.034 H 
ATOM     26  H   LIG d   1       8.008   6.439  -4.738  0.00  0.00     0.062 H 
ATOM     27  H   LIG d   1       8.875   8.701  -5.173  0.00  0.00     0.062 H 
ATOM     28  H   LIG d   1      11.231   9.094  -5.624  0.00  0.00     0.062 H 
ATOM     29  H   LIG d   1      12.867   7.244  -5.673  0.00  0.00     0.064 H 
ENDROOT
BRANCH   1  30
ATOM     30  C   LIG d   1       6.403  -0.809  -4.351  0.00  0.00     0.017 C 
ATOM     31  H   LIG d   1       5.922  -0.529  -3.413  0.00  0.00     0.046 H 
ATOM     32  H   LIG d   1       6.634  -1.874  -4.337  0.00  0.00     0.046 H 
BRANCH  30  33
ATOM     33  C   LIG d   1       5.460  -0.506  -5.517  0.00  0.00    -0.014 C 
ATOM     34  H   LIG d   1       5.463  -1.344  -6.214  0.00  0.00     0.030 H 
ATOM     35  H   LIG d   1       5.794   0.396  -6.031  0.00  0.00     0.030 H 
BRANCH  33  36
ATOM     36  C   LIG d   1       4.041  -0.292  -4.983  0.00  0.00     0.049 C 
ATOM     37  H   LIG d   1       3.365  -0.102  -5.816  0.00  0.00     0.056 H 
ATOM     38  H   LIG d   1       4.032   0.561  -4.307  0.00  0.00     0.056 H 
BRANCH  36  39
ATOM     39  O   LIG d   1       3.615  -1.461  -4.282  0.00  0.00    -0.377 OA
BRANCH  39  40
ATOM     40  C   LIG d   1       3.094  -1.200  -2.977  0.00  0.00     0.053 C 
ATOM     41  H   LIG d   1       2.055  -1.528  -2.929  0.00  0.00     0.059 H 
BRANCH  40  42
ATOM     42  C   LIG d   1       3.919  -1.960  -1.937  0.00  0.00    -0.039 C 
ATOM     43  H   LIG d   1       3.534  -1.745  -0.940  0.00  0.00     0.025 H 
ATOM     44  H   LIG d   1       3.849  -3.030  -2.130  0.00  0.00     0.025 H 
ATOM     45  H   LIG d   1       4.961  -1.648  -2.000  0.00  0.00     0.025 H 
ENDBRANCH  40  42
BRANCH  40  46
ATOM     46  C   LIG d   1       3.169   0.301  -2.689  0.00  0.00    -0.039 C 
ATOM     47  H   LIG d   1       2.212   0.765  -2.925  0.00  0.00     0.025 H 
ATOM     48  H   LIG d   1       3.399   0.457  -1.635  0.00  0.00     0.025 H 
ATOM     49  H   LIG d   1       3.952   0.750  -3.301  0.00  0.00     0.025 H 
ENDBRANCH  40  46
ENDBRANCH  39  40
ENDBRANCH  36  39
ENDBRANCH  33  36
ENDBRANCH  30  33
ENDBRANCH   1  30
BRANCH  21  50
ATOM     50  C   LIG d   1      12.167   1.604  -5.929  0.00  0.00    -0.038 C 
ATOM     51  H   LIG d   1      13.151   1.290  -5.583  0.00  0.00     0.025 H 
ATOM     52  H   LIG d   1      11.660   0.760  -6.398  0.00  0.00     0.025 H 
ATOM     53  H   LIG d   1      12.278   2.410  -6.655  0.00  0.00     0.025 H 
ENDBRANCH  21  50
BRANCH  21  54
ATOM     54  C   LIG d   1      12.100   1.845  -3.437  0.00  0.00    -0.038 C 
ATOM     55  H   LIG d   1      11.435   1.375  -2.715  0.00  0.00     0.025 H 
ATOM     56  H   LIG d   1      12.948   1.188  -3.632  0.00  0.00     0.025 H 
ATOM     57  H   LIG d   1      12.461   2.793  -3.036  0.00  0.00     0.025 H 
ENDBRANCH  21  54
TORSDOF 9
ENDMDL
MODEL 10
REMARK VINA RESULT:      -5.3      4.607      8.593
REMARK  9 active torsions:
REMARK  status: ('A' for Active; 'I' for Inactive)
REMARK    1  A    between atoms: C_1  and  C_2 
REMARK    2  A    between atoms: C_2  and  C_3 
REMARK    3  A    between atoms: C_2  and  O_4 
REMARK    4  A    between atoms: O_4  and  C_5 
REMARK    5  A    between atoms: C_5  and  C_6 
REMARK    6  A    between atoms: C_6  and  C_7 
REMARK    7  A    between atoms: C_7  and  N_8 
REMARK    8  A    between atoms: C_28  and  C_29 
REMARK    9  A    between atoms: C_28  and  C_30 
ROOT
ATOM      1  N   LIG d   1       3.438  -0.839  -8.002  0.00  0.00    -0.291 N 
ATOM      2  C   LIG d   1       3.930  -2.201  -8.129  0.00  0.00     0.091 A 
ATOM      3  C   LIG d   1       3.821  -2.709  -9.531  0.00  0.00     0.234 A 
ATOM      4  O   LIG d   1       4.225  -3.829  -9.759  0.00  0.00    -0.274 OA
ATOM      5  N   LIG d   1       3.309  -2.011 -10.548  0.00  0.00    -0.278 N 
ATOM      6  C   LIG d   1       2.715  -0.685 -10.389  0.00  0.00     0.107 A 
ATOM      7  H   LIG d   1       3.197   0.003 -11.084  0.00  0.00     0.060 H 
ATOM      8  C   LIG d   1       2.890  -0.153  -9.003  0.00  0.00     0.237 A 
ATOM      9  O   LIG d   1       2.514   0.978  -8.777  0.00  0.00    -0.274 OA
ATOM     10  C   LIG d   1       1.219  -0.759 -10.723  0.00  0.00     0.002 C 
ATOM     11  C   LIG d   1       1.045  -1.546 -11.997  0.00  0.00    -0.015 A 
ATOM     12  C   LIG d   1      -0.104  -1.585 -12.879  0.00  0.00     0.003 A 
ATOM     13  C   LIG d   1      -1.349  -0.948 -12.844  0.00  0.00    -0.052 A 
ATOM     14  C   LIG d   1      -2.216  -1.224 -13.872  0.00  0.00    -0.061 A 
ATOM     15  C   LIG d   1      -1.886  -2.092 -14.900  0.00  0.00    -0.060 A 
ATOM     16  C   LIG d   1      -0.663  -2.737 -14.958  0.00  0.00    -0.038 A 
ATOM     17  C   LIG d   1       0.238  -2.475 -13.928  0.00  0.00     0.047 A 
ATOM     18  N   LIG d   1       1.502  -2.930 -13.680  0.00  0.00    -0.356 N 
ATOM     19  H   LIG d   1       1.989  -3.557 -14.238  0.00  0.00     0.166 HD
ATOM     20  C   LIG d   1       1.978  -2.367 -12.525  0.00  0.00     0.044 A 
ATOM     21  C   LIG d   1       3.337  -2.597 -11.905  0.00  0.00     0.073 C 
ATOM     22  H   LIG d   1       4.975  -2.231  -7.823  0.00  0.00     0.056 H 
ATOM     23  H   LIG d   1       3.351  -2.849  -7.472  0.00  0.00     0.056 H 
ATOM     24  H   LIG d   1       0.687  -1.256  -9.911  0.00  0.00     0.034 H 
ATOM     25  H   LIG d   1       0.824   0.248 -10.859  0.00  0.00     0.034 H 
ATOM     26  H   LIG d   1      -1.614  -0.271 -12.045  0.00  0.00     0.062 H 
ATOM     27  H   LIG d   1      -3.186  -0.750 -13.878  0.00  0.00     0.062 H 
ATOM     28  H   LIG d   1      -2.608  -2.271 -15.683  0.00  0.00     0.062 H 
ATOM     29  H   LIG d   1      -0.419  -3.412 -15.765  0.00  0.00     0.064 H 
ENDROOT
BRANCH   1  30
ATOM     30  C   LIG d   1       3.546  -0.186  -6.695  0.00  0.00     0.017 C 
ATOM     31  H   LIG d   1       2.728  -0.518  -6.055  0.00  0.00     0.046 H 
ATOM     32  H   LIG d   1       3.492   0.895  -6.822  0.00  0.00     0.046 H 
BRANCH  30  33
ATOM     33  C   LIG d   1       4.881  -0.558  -6.047  0.00  0.00    -0.014 C 
ATOM     34  H   LIG d   1       5.681   0.024  -6.505  0.00  0.00     0.030 H 
ATOM     35  H   LIG d   1       5.075  -1.621  -6.197  0.00  0.00     0.030 H 
BRANCH  33  36
ATOM     36  C   LIG d   1       4.823  -0.257  -4.548  0.00  0.00     0.049 C 
ATOM     37  H   LIG d   1       5.148   0.768  -4.371  0.00  0.00     0.056 H 
ATOM     38  H   LIG d   1       5.480  -0.943  -4.014  0.00  0.00     0.056 H 
BRANCH  36  39
ATOM     39  O   LIG d   1       3.483  -0.419  -4.082  0.00  0.00    -0.377 OA
BRANCH  39  40
ATOM     40  C   LIG d   1       3.379  -0.632  -2.672  0.00  0.00     0.053 C 
ATOM     41  H   LIG d   1       2.345  -0.486  -2.358  0.00  0.00     0.059 H 
BRANCH  40  42
ATOM     42  C   LIG d   1       3.818  -2.059  -2.338  0.00  0.00    -0.039 C 
ATOM     43  H   LIG d   1       3.556  -2.287  -1.305  0.00  0.00     0.025 H 
ATOM     44  H   LIG d   1       3.314  -2.759  -3.004  0.00  0.00     0.025 H 
ATOM     45  H   LIG d   1       4.896  -2.148  -2.469  0.00  0.00     0.025 H 
ENDBRANCH  40  42
BRANCH  40  46
ATOM     46  C   LIG d   1       4.281   0.363  -1.938  0.00  0.00    -0.039 C 
ATOM     47  H   LIG d   1       5.146   0.595  -2.557  0.00  0.00     0.025 H 
ATOM     48  H   LIG d   1       3.723   1.278  -1.736  0.00  0.00     0.025 H 
ATOM     49  H   LIG d   1       4.613  -0.074  -0.996  0.00  0.00     0.025 H 
ENDBRANCH  40  46
ENDBRANCH  39  40
ENDBRANCH  36  39
ENDBRANCH  33  36
ENDBRANCH  30  33
ENDBRANCH   1  30
BRANCH  21  50
ATOM     50  C   LIG d   1       3.620  -4.099 -11.816  0.00  0.00    -0.038 C 
ATOM     51  H   LIG d   1       2.677  -4.646 -11.796  0.00  0.00     0.025 H 
ATOM     52  H   LIG d   1       4.203  -4.410 -12.684  0.00  0.00     0.025 H 
ATOM     53  H   LIG d   1       4.182  -4.309 -10.907  0.00  0.00     0.025 H 
ENDBRANCH  21  50
BRANCH  21  54
ATOM     54  C   LIG d   1       4.415  -1.913 -12.745  0.00  0.00    -0.038 C 
ATOM     55  H   LIG d   1       4.046  -0.950 -13.095  0.00  0.00     0.025 H 
ATOM     56  H   LIG d   1       5.308  -1.761 -12.138  0.00  0.00     0.025 H 
ATOM     57  H   LIG d   1       4.662  -2.541 -13.602  0.00  0.00     0.025 H 
ENDBRANCH  21  54
TORSDOF 9
ENDMDL
