MODEL 1
REMARK VINA RESULT:      -6.0      0.000      0.000
REMARK  0 active torsions:
REMARK  status: ('A' for Active; 'I' for Inactive)
ROOT
ATOM      1  C   LIG d   1       4.320  -2.382  -6.708  0.00  0.00    -0.026 A 
ATOM      2  C   LIG d   1       4.119  -1.509  -5.642  0.00  0.00     0.004 A 
ATOM      3  C   LIG d   1       4.472  -1.873  -4.322  0.00  0.00    -0.031 A 
ATOM      4  C   LIG d   1       4.254  -0.969  -3.327  0.00  0.00     0.078 A 
ATOM      5  C   LIG d   1       3.697   0.282  -3.610  0.00  0.00     0.148 A 
ATOM      6  N   LIG d   1       3.362   0.642  -4.823  0.00  0.00    -0.234 NA
ATOM      7  C   LIG d   1       3.540  -0.181  -5.868  0.00  0.00     0.073 A 
ATOM      8  C   LIG d   1       3.182   0.211  -7.157  0.00  0.00    -0.026 A 
ATOM      9  C   LIG d   1       3.378  -0.664  -8.222  0.00  0.00     0.004 A 
ATOM     10  C   LIG d   1       3.957  -1.991  -7.997  0.00  0.00     0.073 A 
ATOM     11  N   LIG d   1       4.136  -2.815  -9.042  0.00  0.00    -0.234 NA
ATOM     12  C   LIG d   1       3.802  -2.453 -10.255  0.00  0.00     0.148 A 
ATOM     13  C   LIG d   1       3.244  -1.203 -10.538  0.00  0.00     0.078 A 
ATOM     14  C   LIG d   1       3.026  -0.299  -9.542  0.00  0.00    -0.031 A 
ATOM     15 CL   LIG d   1       2.827  -0.798 -12.174  0.00  0.00    -0.080 Cl
ATOM     16 CL   LIG d   1       4.060  -3.568 -11.560  0.00  0.00    -0.060 Cl
ATOM     17 CL   LIG d   1       3.440   1.397  -2.304  0.00  0.00    -0.060 Cl
ATOM     18 CL   LIG d   1       4.672  -1.374  -1.691  0.00  0.00    -0.080 Cl
ATOM     19  H   LIG d   1       4.748  -3.359  -6.536  0.00  0.00     0.065 H 
ATOM     20  H   LIG d   1       4.901  -2.841  -4.109  0.00  0.00     0.064 H 
ATOM     21  H   LIG d   1       2.754   1.188  -7.328  0.00  0.00     0.065 H 
ATOM     22  H   LIG d   1       2.596   0.668  -9.754  0.00  0.00     0.064 H 
ENDROOT
TORSDOF 0
ENDMDL
MODEL 2
REMARK VINA RESULT:      -6.0      0.030      6.793
REMARK  0 active torsions:
REMARK  status: ('A' for Active; 'I' for Inactive)
ROOT
ATOM      1  C   LIG d   1       3.170   0.207  -7.158  0.00  0.00    -0.026 A 
ATOM      2  C   LIG d   1       3.355  -0.676  -8.218  0.00  0.00     0.004 A 
ATOM      3  C   LIG d   1       3.000  -0.318  -9.539  0.00  0.00    -0.031 A 
ATOM      4  C   LIG d   1       3.213  -1.227 -10.531  0.00  0.00     0.078 A 
ATOM      5  C   LIG d   1       3.767  -2.478 -10.243  0.00  0.00     0.148 A 
ATOM      6  N   LIG d   1       4.103  -2.834  -9.029  0.00  0.00    -0.234 NA
ATOM      7  C   LIG d   1       3.931  -2.005  -7.988  0.00  0.00     0.073 A 
ATOM      8  C   LIG d   1       4.293  -2.391  -6.698  0.00  0.00    -0.026 A 
ATOM      9  C   LIG d   1       4.103  -1.509  -5.637  0.00  0.00     0.004 A 
ATOM     10  C   LIG d   1       3.527  -0.182  -5.867  0.00  0.00     0.073 A 
ATOM     11  N   LIG d   1       3.356   0.649  -4.826  0.00  0.00    -0.234 NA
ATOM     12  C   LIG d   1       3.694   0.292  -3.612  0.00  0.00     0.148 A 
ATOM     13  C   LIG d   1       4.247  -0.959  -3.324  0.00  0.00     0.078 A 
ATOM     14  C   LIG d   1       4.459  -1.869  -4.316  0.00  0.00    -0.031 A 
ATOM     15 CL   LIG d   1       4.668  -1.357  -1.688  0.00  0.00    -0.080 Cl
ATOM     16 CL   LIG d   1       3.444   1.415  -2.312  0.00  0.00    -0.060 Cl
ATOM     17 CL   LIG d   1       4.017  -3.600 -11.544  0.00  0.00    -0.060 Cl
ATOM     18 CL   LIG d   1       2.792  -0.829 -12.168  0.00  0.00    -0.080 Cl
ATOM     19  H   LIG d   1       2.745   1.184  -7.333  0.00  0.00     0.065 H 
ATOM     20  H   LIG d   1       2.572   0.651  -9.755  0.00  0.00     0.064 H 
ATOM     21  H   LIG d   1       4.718  -3.368  -6.523  0.00  0.00     0.065 H 
ATOM     22  H   LIG d   1       4.887  -2.836  -4.100  0.00  0.00     0.064 H 
ENDROOT
TORSDOF 0
ENDMDL
MODEL 3
REMARK VINA RESULT:      -5.6      5.685      7.943
REMARK  0 active torsions:
REMARK  status: ('A' for Active; 'I' for Inactive)
ROOT
ATOM      1  C   LIG d   1       8.162   1.950  -4.370  0.00  0.00    -0.026 A 
ATOM      2  C   LIG d   1       9.259   1.492  -5.095  0.00  0.00     0.004 A 
ATOM      3  C   LIG d   1      10.216   2.391  -5.620  0.00  0.00    -0.031 A 
ATOM      4  C   LIG d   1      11.268   1.876  -6.314  0.00  0.00     0.078 A 
ATOM      5  C   LIG d   1      11.393   0.496  -6.499  0.00  0.00     0.148 A 
ATOM      6  N   LIG d   1      10.521  -0.357  -6.023  0.00  0.00    -0.234 NA
ATOM      7  C   LIG d   1       9.452   0.057  -5.326  0.00  0.00     0.073 A 
ATOM      8  C   LIG d   1       8.528  -0.858  -4.822  0.00  0.00    -0.026 A 
ATOM      9  C   LIG d   1       7.428  -0.400  -4.101  0.00  0.00     0.004 A 
ATOM     10  C   LIG d   1       7.235   1.034  -3.870  0.00  0.00     0.073 A 
ATOM     11  N   LIG d   1       6.166   1.449  -3.172  0.00  0.00    -0.234 NA
ATOM     12  C   LIG d   1       5.295   0.594  -2.695  0.00  0.00     0.148 A 
ATOM     13  C   LIG d   1       5.419  -0.786  -2.881  0.00  0.00     0.078 A 
ATOM     14  C   LIG d   1       6.473  -1.300  -3.576  0.00  0.00    -0.031 A 
ATOM     15 CL   LIG d   1       4.222  -1.853  -2.218  0.00  0.00    -0.080 Cl
ATOM     16 CL   LIG d   1       3.936   1.199  -1.802  0.00  0.00    -0.060 Cl
ATOM     17 CL   LIG d   1      12.753  -0.109  -7.392  0.00  0.00    -0.060 Cl
ATOM     18 CL   LIG d   1      12.467   2.944  -6.976  0.00  0.00    -0.080 Cl
ATOM     19  H   LIG d   1       8.025   3.008  -4.203  0.00  0.00     0.065 H 
ATOM     20  H   LIG d   1      10.114   3.457  -5.474  0.00  0.00     0.064 H 
ATOM     21  H   LIG d   1       8.665  -1.916  -4.989  0.00  0.00     0.065 H 
ATOM     22  H   LIG d   1       6.574  -2.365  -3.722  0.00  0.00     0.064 H 
ENDROOT
TORSDOF 0
ENDMDL
MODEL 4
REMARK VINA RESULT:      -5.6      5.625      6.351
REMARK  0 active torsions:
REMARK  status: ('A' for Active; 'I' for Inactive)
ROOT
ATOM      1  C   LIG d   1       8.489  -0.930  -4.758  0.00  0.00    -0.026 A 
ATOM      2  C   LIG d   1       7.384  -0.450  -4.060  0.00  0.00     0.004 A 
ATOM      3  C   LIG d   1       6.442  -1.334  -3.484  0.00  0.00    -0.031 A 
ATOM      4  C   LIG d   1       5.387  -0.798  -2.809  0.00  0.00     0.078 A 
ATOM      5  C   LIG d   1       5.246   0.588  -2.693  0.00  0.00     0.148 A 
ATOM      6  N   LIG d   1       6.104   1.427  -3.217  0.00  0.00    -0.234 NA
ATOM      7  C   LIG d   1       7.175   0.992  -3.900  0.00  0.00     0.073 A 
ATOM      8  C   LIG d   1       8.084   1.892  -4.454  0.00  0.00    -0.026 A 
ATOM      9  C   LIG d   1       9.187   1.412  -5.157  0.00  0.00     0.004 A 
ATOM     10  C   LIG d   1       9.396  -0.030  -5.317  0.00  0.00     0.073 A 
ATOM     11  N   LIG d   1      10.467  -0.465  -5.999  0.00  0.00    -0.234 NA
ATOM     12  C   LIG d   1      11.325   0.374  -6.522  0.00  0.00     0.148 A 
ATOM     13  C   LIG d   1      11.184   1.760  -6.407  0.00  0.00     0.078 A 
ATOM     14  C   LIG d   1      10.128   2.296  -5.732  0.00  0.00    -0.031 A 
ATOM     15 CL   LIG d   1      12.364   2.808  -7.129  0.00  0.00    -0.080 Cl
ATOM     16 CL   LIG d   1      12.687  -0.258  -7.391  0.00  0.00    -0.060 Cl
ATOM     17 CL   LIG d   1       3.884   1.221  -1.822  0.00  0.00    -0.060 Cl
ATOM     18 CL   LIG d   1       4.207  -1.845  -2.085  0.00  0.00    -0.080 Cl
ATOM     19  H   LIG d   1       8.638  -1.994  -4.873  0.00  0.00     0.065 H 
ATOM     20  H   LIG d   1       6.556  -2.404  -3.577  0.00  0.00     0.064 H 
ATOM     21  H   LIG d   1       7.934   2.955  -4.339  0.00  0.00     0.065 H 
ATOM     22  H   LIG d   1      10.014   3.366  -5.639  0.00  0.00     0.064 H 
ENDROOT
TORSDOF 0
ENDMDL
MODEL 5
REMARK VINA RESULT:      -5.6      4.129      6.048
REMARK  0 active torsions:
REMARK  status: ('A' for Active; 'I' for Inactive)
ROOT
ATOM      1  C   LIG d   1       7.207  -1.900  -3.143  0.00  0.00    -0.026 A 
ATOM      2  C   LIG d   1       5.986  -1.356  -3.533  0.00  0.00     0.004 A 
ATOM      3  C   LIG d   1       5.495  -0.166  -2.946  0.00  0.00    -0.031 A 
ATOM      4  C   LIG d   1       4.296   0.315  -3.377  0.00  0.00     0.078 A 
ATOM      5  C   LIG d   1       3.577  -0.353  -4.372  0.00  0.00     0.148 A 
ATOM      6  N   LIG d   1       4.009  -1.456  -4.930  0.00  0.00    -0.234 NA
ATOM      7  C   LIG d   1       5.179  -2.005  -4.571  0.00  0.00     0.073 A 
ATOM      8  C   LIG d   1       5.633  -3.179  -5.170  0.00  0.00    -0.026 A 
ATOM      9  C   LIG d   1       6.852  -3.727  -4.777  0.00  0.00     0.004 A 
ATOM     10  C   LIG d   1       7.658  -3.078  -3.740  0.00  0.00     0.073 A 
ATOM     11  N   LIG d   1       8.829  -3.626  -3.380  0.00  0.00    -0.234 NA
ATOM     12  C   LIG d   1       9.262  -4.729  -3.940  0.00  0.00     0.148 A 
ATOM     13  C   LIG d   1       8.541  -5.398  -4.934  0.00  0.00     0.078 A 
ATOM     14  C   LIG d   1       7.342  -4.916  -5.365  0.00  0.00    -0.031 A 
ATOM     15 CL   LIG d   1       9.182  -6.855  -5.626  0.00  0.00    -0.080 Cl
ATOM     16 CL   LIG d   1      10.785  -5.384  -3.427  0.00  0.00    -0.060 Cl
ATOM     17 CL   LIG d   1       2.053   0.303  -4.886  0.00  0.00    -0.060 Cl
ATOM     18 CL   LIG d   1       3.656   1.774  -2.686  0.00  0.00    -0.080 Cl
ATOM     19  H   LIG d   1       7.797  -1.418  -2.378  0.00  0.00     0.065 H 
ATOM     20  H   LIG d   1       6.056   0.346  -2.178  0.00  0.00     0.064 H 
ATOM     21  H   LIG d   1       5.042  -3.662  -5.935  0.00  0.00     0.065 H 
ATOM     22  H   LIG d   1       6.781  -5.428  -6.132  0.00  0.00     0.064 H 
ENDROOT
TORSDOF 0
ENDMDL
MODEL 6
REMARK VINA RESULT:      -5.6      1.430      2.406
REMARK  0 active torsions:
REMARK  status: ('A' for Active; 'I' for Inactive)
ROOT
ATOM      1  C   LIG d   1       2.352   0.000  -7.173  0.00  0.00    -0.026 A 
ATOM      2  C   LIG d   1       3.229  -0.104  -6.097  0.00  0.00     0.004 A 
ATOM      3  C   LIG d   1       2.970   0.559  -4.875  0.00  0.00    -0.031 A 
ATOM      4  C   LIG d   1       3.867   0.411  -3.861  0.00  0.00     0.078 A 
ATOM      5  C   LIG d   1       5.009  -0.378  -4.029  0.00  0.00     0.148 A 
ATOM      6  N   LIG d   1       5.271  -1.002  -5.150  0.00  0.00    -0.234 NA
ATOM      7  C   LIG d   1       4.446  -0.915  -6.205  0.00  0.00     0.073 A 
ATOM      8  C   LIG d   1       4.733  -1.583  -7.394  0.00  0.00    -0.026 A 
ATOM      9  C   LIG d   1       3.858  -1.475  -8.473  0.00  0.00     0.004 A 
ATOM     10  C   LIG d   1       2.642  -0.665  -8.365  0.00  0.00     0.073 A 
ATOM     11  N   LIG d   1       1.815  -0.578  -9.420  0.00  0.00    -0.234 NA
ATOM     12  C   LIG d   1       2.078  -1.204 -10.540  0.00  0.00     0.148 A 
ATOM     13  C   LIG d   1       3.221  -1.991 -10.709  0.00  0.00     0.078 A 
ATOM     14  C   LIG d   1       4.117  -2.140  -9.693  0.00  0.00    -0.031 A 
ATOM     15 CL   LIG d   1       3.499  -2.788 -12.225  0.00  0.00    -0.080 Cl
ATOM     16 CL   LIG d   1       0.967  -1.047 -11.863  0.00  0.00    -0.060 Cl
ATOM     17 CL   LIG d   1       6.120  -0.535  -2.704  0.00  0.00    -0.060 Cl
ATOM     18 CL   LIG d   1       3.589   1.207  -2.343  0.00  0.00    -0.080 Cl
ATOM     19  H   LIG d   1       1.457   0.599  -7.088  0.00  0.00     0.065 H 
ATOM     20  H   LIG d   1       2.086   1.168  -4.751  0.00  0.00     0.064 H 
ATOM     21  H   LIG d   1       5.628  -2.182  -7.479  0.00  0.00     0.065 H 
ATOM     22  H   LIG d   1       5.001  -2.747  -9.818  0.00  0.00     0.064 H 
ENDROOT
TORSDOF 0
ENDMDL
MODEL 7
REMARK VINA RESULT:      -5.4      4.568      7.246
REMARK  0 active torsions:
REMARK  status: ('A' for Active; 'I' for Inactive)
ROOT
ATOM      1  C   LIG d   1       7.786  -2.426  -3.658  0.00  0.00    -0.026 A 
ATOM      2  C   LIG d   1       8.050  -3.563  -4.416  0.00  0.00     0.004 A 
ATOM      3  C   LIG d   1       9.369  -4.050  -4.570  0.00  0.00    -0.031 A 
ATOM      4  C   LIG d   1       9.556  -5.171  -5.320  0.00  0.00     0.078 A 
ATOM      5  C   LIG d   1       8.470  -5.818  -5.917  0.00  0.00     0.148 A 
ATOM      6  N   LIG d   1       7.240  -5.388  -5.790  0.00  0.00    -0.234 NA
ATOM      7  C   LIG d   1       6.958  -4.291  -5.069  0.00  0.00     0.073 A 
ATOM      8  C   LIG d   1       5.645  -3.840  -4.938  0.00  0.00    -0.026 A 
ATOM      9  C   LIG d   1       5.382  -2.699  -4.184  0.00  0.00     0.004 A 
ATOM     10  C   LIG d   1       6.473  -1.971  -3.530  0.00  0.00     0.073 A 
ATOM     11  N   LIG d   1       6.191  -0.875  -2.809  0.00  0.00    -0.234 NA
ATOM     12  C   LIG d   1       4.961  -0.446  -2.681  0.00  0.00     0.148 A 
ATOM     13  C   LIG d   1       3.875  -1.092  -3.279  0.00  0.00     0.078 A 
ATOM     14  C   LIG d   1       4.063  -2.214  -4.029  0.00  0.00    -0.031 A 
ATOM     15 CL   LIG d   1       2.273  -0.460  -3.062  0.00  0.00    -0.080 Cl
ATOM     16 CL   LIG d   1       4.668   0.979  -1.734  0.00  0.00    -0.060 Cl
ATOM     17 CL   LIG d   1       8.763  -7.244  -6.863  0.00  0.00    -0.060 Cl
ATOM     18 CL   LIG d   1      11.158  -5.804  -5.536  0.00  0.00    -0.080 Cl
ATOM     19  H   LIG d   1       8.594  -1.893  -3.178  0.00  0.00     0.065 H 
ATOM     20  H   LIG d   1      10.204  -3.545  -4.106  0.00  0.00     0.064 H 
ATOM     21  H   LIG d   1       4.837  -4.372  -5.417  0.00  0.00     0.065 H 
ATOM     22  H   LIG d   1       3.228  -2.718  -4.493  0.00  0.00     0.064 H 
ENDROOT
TORSDOF 0
ENDMDL
MODEL 8
REMARK VINA RESULT:      -5.4      9.330     10.931
REMARK  0 active torsions:
REMARK  status: ('A' for Active; 'I' for Inactive)
ROOT
ATOM      1  C   LIG d   1      11.207   4.968  -1.248  0.00  0.00    -0.026 A 
ATOM      2  C   LIG d   1      10.911   6.274  -0.866  0.00  0.00     0.004 A 
ATOM      3  C   LIG d   1      11.412   6.814   0.342  0.00  0.00    -0.031 A 
ATOM      4  C   LIG d   1      11.088   8.100   0.653  0.00  0.00     0.078 A 
ATOM      5  C   LIG d   1      10.284   8.859  -0.202  0.00  0.00     0.148 A 
ATOM      6  N   LIG d   1       9.809   8.382  -1.325  0.00  0.00    -0.234 NA
ATOM      7  C   LIG d   1      10.074   7.126  -1.716  0.00  0.00     0.073 A 
ATOM      8  C   LIG d   1       9.564   6.626  -2.913  0.00  0.00    -0.026 A 
ATOM      9  C   LIG d   1       9.856   5.318  -3.293  0.00  0.00     0.004 A 
ATOM     10  C   LIG d   1      10.693   4.467  -2.444  0.00  0.00     0.073 A 
ATOM     11  N   LIG d   1      10.960   3.210  -2.835  0.00  0.00    -0.234 NA
ATOM     12  C   LIG d   1      10.484   2.735  -3.959  0.00  0.00     0.148 A 
ATOM     13  C   LIG d   1       9.679   3.494  -4.813  0.00  0.00     0.078 A 
ATOM     14  C   LIG d   1       9.356   4.780  -4.501  0.00  0.00    -0.031 A 
ATOM     15 CL   LIG d   1       9.088   2.791  -6.286  0.00  0.00    -0.080 Cl
ATOM     16 CL   LIG d   1      10.868   1.101  -4.402  0.00  0.00    -0.060 Cl
ATOM     17 CL   LIG d   1       9.902  10.493   0.241  0.00  0.00    -0.060 Cl
ATOM     18 CL   LIG d   1      11.681   8.803   2.126  0.00  0.00    -0.080 Cl
ATOM     19  H   LIG d   1      11.825   4.345  -0.618  0.00  0.00     0.065 H 
ATOM     20  H   LIG d   1      12.032   6.222   0.999  0.00  0.00     0.064 H 
ATOM     21  H   LIG d   1       8.947   7.250  -3.543  0.00  0.00     0.065 H 
ATOM     22  H   LIG d   1       8.735   5.371  -5.158  0.00  0.00     0.064 H 
ENDROOT
TORSDOF 0
ENDMDL
MODEL 9
REMARK VINA RESULT:      -5.3     11.193     13.959
REMARK  0 active torsions:
REMARK  status: ('A' for Active; 'I' for Inactive)
ROOT
ATOM      1  C   LIG d   1      10.720   9.802  -2.432  0.00  0.00    -0.026 A 
ATOM      2  C   LIG d   1      10.309   9.479  -3.722  0.00  0.00     0.004 A 
ATOM      3  C   LIG d   1      10.250  10.462  -4.738  0.00  0.00    -0.031 A 
ATOM      4  C   LIG d   1       9.844  10.078  -5.980  0.00  0.00     0.078 A 
ATOM      5  C   LIG d   1       9.498   8.748  -6.237  0.00  0.00     0.148 A 
ATOM      6  N   LIG d   1       9.543   7.820  -5.314  0.00  0.00    -0.234 NA
ATOM      7  C   LIG d   1       9.931   8.104  -4.061  0.00  0.00     0.073 A 
ATOM      8  C   LIG d   1       9.977   7.110  -3.084  0.00  0.00    -0.026 A 
ATOM      9  C   LIG d   1      10.384   7.434  -1.791  0.00  0.00     0.004 A 
ATOM     10  C   LIG d   1      10.761   8.809  -1.453  0.00  0.00     0.073 A 
ATOM     11  N   LIG d   1      11.150   9.093  -0.200  0.00  0.00    -0.234 NA
ATOM     12  C   LIG d   1      11.196   8.164   0.722  0.00  0.00     0.148 A 
ATOM     13  C   LIG d   1      10.848   6.835   0.466  0.00  0.00     0.078 A 
ATOM     14  C   LIG d   1      10.443   6.451  -0.777  0.00  0.00    -0.031 A 
ATOM     15 CL   LIG d   1      10.936   5.662   1.743  0.00  0.00    -0.080 Cl
ATOM     16 CL   LIG d   1      11.707   8.601   2.322  0.00  0.00    -0.060 Cl
ATOM     17 CL   LIG d   1       8.987   8.311  -7.838  0.00  0.00    -0.060 Cl
ATOM     18 CL   LIG d   1       9.758  11.250  -7.258  0.00  0.00    -0.080 Cl
ATOM     19  H   LIG d   1      10.997  10.817  -2.188  0.00  0.00     0.065 H 
ATOM     20  H   LIG d   1      10.519  11.488  -4.534  0.00  0.00     0.064 H 
ATOM     21  H   LIG d   1       9.700   6.096  -3.328  0.00  0.00     0.065 H 
ATOM     22  H   LIG d   1      10.173   5.425  -0.981  0.00  0.00     0.064 H 
ENDROOT
TORSDOF 0
ENDMDL
MODEL 10
REMARK VINA RESULT:      -5.3      9.145     10.932
REMARK  0 active torsions:
REMARK  status: ('A' for Active; 'I' for Inactive)
ROOT
ATOM      1  C   LIG d   1       9.473   6.473  -3.108  0.00  0.00    -0.026 A 
ATOM      2  C   LIG d   1       9.955   6.998  -1.912  0.00  0.00     0.004 A 
ATOM      3  C   LIG d   1       9.678   8.333  -1.536  0.00  0.00    -0.031 A 
ATOM      4  C   LIG d   1      10.175   8.782  -0.349  0.00  0.00     0.078 A 
ATOM      5  C   LIG d   1      10.936   7.941   0.468  0.00  0.00     0.148 A 
ATOM      6  N   LIG d   1      11.205   6.702   0.142  0.00  0.00    -0.234 NA
ATOM      7  C   LIG d   1      10.759   6.171  -1.006  0.00  0.00     0.073 A 
ATOM      8  C   LIG d   1      11.050   4.851  -1.346  0.00  0.00    -0.026 A 
ATOM      9  C   LIG d   1      10.572   4.327  -2.545  0.00  0.00     0.004 A 
ATOM     10  C   LIG d   1       9.769   5.153  -3.449  0.00  0.00     0.073 A 
ATOM     11  N   LIG d   1       9.321   4.622  -4.598  0.00  0.00    -0.234 NA
ATOM     12  C   LIG d   1       9.590   3.382  -4.923  0.00  0.00     0.148 A 
ATOM     13  C   LIG d   1      10.351   2.542  -4.106  0.00  0.00     0.078 A 
ATOM     14  C   LIG d   1      10.848   2.991  -2.919  0.00  0.00    -0.031 A 
ATOM     15 CL   LIG d   1      10.665   0.910  -4.607  0.00  0.00    -0.080 Cl
ATOM     16 CL   LIG d   1       8.979   2.761  -6.424  0.00  0.00    -0.060 Cl
ATOM     17 CL   LIG d   1      11.546   8.563   1.970  0.00  0.00    -0.060 Cl
ATOM     18 CL   LIG d   1       9.861  10.414   0.153  0.00  0.00    -0.080 Cl
ATOM     19  H   LIG d   1       8.881   7.086  -3.771  0.00  0.00     0.065 H 
ATOM     20  H   LIG d   1       9.090   8.978  -2.172  0.00  0.00     0.064 H 
ATOM     21  H   LIG d   1      11.642   4.238  -0.683  0.00  0.00     0.065 H 
ATOM     22  H   LIG d   1      11.437   2.347  -2.284  0.00  0.00     0.064 H 
ENDROOT
TORSDOF 0
ENDMDL
