MODEL 1
REMARK VINA RESULT:      -5.2      0.000      0.000
REMARK  9 active torsions:
REMARK  status: ('A' for Active; 'I' for Inactive)
REMARK    1  A    between atoms: C_1  and  C_2 
REMARK    2  A    between atoms: C_2  and  C_8 
REMARK    3  A    between atoms: N_3  and  N_4 
REMARK       I    between atoms: N_4  and  C_5 
REMARK       I    between atoms: C_5  and  N_7 
REMARK    4  A    between atoms: C_8  and  C_20 
REMARK    5  A    between atoms: C_11  and  C_16 
REMARK    6  A    between atoms: C_13  and  C_14 
REMARK    7  A    between atoms: C_13  and  C_15 
REMARK    8  A    between atoms: C_16  and  O_18 
REMARK    9  A    between atoms: O_18  and  C_19 
ROOT
ATOM      1  C   LIG d   1       4.455  -0.627  -4.240  0.00  0.00     0.013 C 
ATOM      2  C   LIG d   1       4.320  -0.420  -5.763  0.00  0.00    -0.041 C 
ATOM      3  C   LIG d   1       4.359  -1.855  -6.345  0.00  0.00    -0.039 C 
ATOM      4  C   LIG d   1       5.408  -2.559  -5.450  0.00  0.00     0.062 C 
ATOM      5  H   LIG d   1       6.418  -2.316  -5.779  0.00  0.00     0.042 H 
ATOM      6  C   LIG d   1       5.147  -1.987  -4.041  0.00  0.00    -0.011 C 
ATOM      7  H   LIG d   1       3.371   0.062  -5.999  0.00  0.00     0.027 H 
ATOM      8  H   LIG d   1       5.152   0.172  -6.142  0.00  0.00     0.027 H 
ATOM      9  H   LIG d   1       4.687  -1.840  -7.385  0.00  0.00     0.027 H 
ATOM     10  H   LIG d   1       3.386  -2.336  -6.253  0.00  0.00     0.027 H 
ENDROOT
BRANCH   1  11
ATOM     11  C   LIG d   1       5.296   0.472  -3.642  0.00  0.00     0.040 C 
ATOM     12  N   LIG d   1       6.277   0.959  -4.304  0.00  0.00    -0.188 NA
BRANCH  11  13
ATOM     13  C   LIG d   1       4.980   0.998  -2.266  0.00  0.00    -0.024 C 
ATOM     14  H   LIG d   1       4.969   2.088  -2.287  0.00  0.00     0.029 H 
ATOM     15  H   LIG d   1       4.002   0.631  -1.952  0.00  0.00     0.029 H 
ATOM     16  H   LIG d   1       5.738   0.655  -1.563  0.00  0.00     0.029 H 
ENDBRANCH  11  13
BRANCH  12  17
ATOM     17  N   LIG d   1       7.057   1.982  -3.748  0.00  0.00    -0.191 N 
ATOM     18  C   LIG d   1       8.401   1.865  -3.721  0.00  0.00     0.317 C 
ATOM     19  O   LIG d   1       9.078   2.752  -3.239  0.00  0.00    -0.251 OA
ATOM     20  N   LIG d   1       8.992   0.765  -4.230  0.00  0.00    -0.312 N 
ATOM     21  H   LIG d   1       8.451   0.058  -4.615  0.00  0.00     0.146 HD
ATOM     22  H   LIG d   1       9.958   0.682  -4.211  0.00  0.00     0.146 HD
ATOM     23  H   LIG d   1       6.632   2.772  -3.383  0.00  0.00     0.179 HD
ENDBRANCH  12  17
ENDBRANCH   1  11
BRANCH   1  24
ATOM     24  C   LIG d   1       3.071  -0.642  -3.587  0.00  0.00    -0.054 C 
ATOM     25  H   LIG d   1       3.122  -0.150  -2.617  0.00  0.00     0.024 H 
ATOM     26  H   LIG d   1       2.362  -0.117  -4.226  0.00  0.00     0.024 H 
ATOM     27  H   LIG d   1       2.745  -1.674  -3.454  0.00  0.00     0.024 H 
ENDBRANCH   1  24
BRANCH   6  28
ATOM     28  C   LIG d   1       4.235  -2.929  -3.253  0.00  0.00    -0.058 C 
ATOM     29  H   LIG d   1       3.671  -3.554  -3.946  0.00  0.00     0.024 H 
ATOM     30  H   LIG d   1       4.840  -3.561  -2.602  0.00  0.00     0.024 H 
ATOM     31  H   LIG d   1       3.544  -2.342  -2.647  0.00  0.00     0.024 H 
ENDBRANCH   6  28
BRANCH   6  32
ATOM     32  C   LIG d   1       6.472  -1.798  -3.298  0.00  0.00    -0.058 C 
ATOM     33  H   LIG d   1       6.903  -2.773  -3.071  0.00  0.00     0.024 H 
ATOM     34  H   LIG d   1       7.163  -1.233  -3.926  0.00  0.00     0.024 H 
ATOM     35  H   LIG d   1       6.295  -1.253  -2.372  0.00  0.00     0.024 H 
ENDBRANCH   6  32
BRANCH   4  36
ATOM     36  C   LIG d   1       5.195  -4.051  -5.460  0.00  0.00     0.310 C 
ATOM     37  O   LIG d   1       6.100  -4.793  -5.162  0.00  0.00    -0.251 OA
BRANCH  36  38
ATOM     38  O   LIG d   1       4.000  -4.555  -5.806  0.00  0.00    -0.468 OA
BRANCH  38  39
ATOM     39  C   LIG d   1       3.973  -5.475  -6.930  0.00  0.00     0.082 C 
ATOM     40  H   LIG d   1       3.102  -6.126  -6.844  0.00  0.00     0.066 H 
ATOM     41  H   LIG d   1       3.915  -4.911  -7.860  0.00  0.00     0.066 H 
ATOM     42  H   LIG d   1       4.879  -6.079  -6.925  0.00  0.00     0.066 H 
ENDBRANCH  38  39
ENDBRANCH  36  38
ENDBRANCH   4  36
TORSDOF 9
ENDMDL
MODEL 2
REMARK VINA RESULT:      -4.8      4.949      7.529
REMARK  9 active torsions:
REMARK  status: ('A' for Active; 'I' for Inactive)
REMARK    1  A    between atoms: C_1  and  C_2 
REMARK    2  A    between atoms: C_2  and  C_8 
REMARK    3  A    between atoms: N_3  and  N_4 
REMARK       I    between atoms: N_4  and  C_5 
REMARK       I    between atoms: C_5  and  N_7 
REMARK    4  A    between atoms: C_8  and  C_20 
REMARK    5  A    between atoms: C_11  and  C_16 
REMARK    6  A    between atoms: C_13  and  C_14 
REMARK    7  A    between atoms: C_13  and  C_15 
REMARK    8  A    between atoms: C_16  and  O_18 
REMARK    9  A    between atoms: O_18  and  C_19 
ROOT
ATOM      1  C   LIG d   1       2.777  -0.853  -9.504  0.00  0.00     0.013 C 
ATOM      2  C   LIG d   1       2.409  -0.424  -8.069  0.00  0.00    -0.041 C 
ATOM      3  C   LIG d   1       3.106   0.948  -7.893  0.00  0.00    -0.039 C 
ATOM      4  C   LIG d   1       4.448   0.748  -8.640  0.00  0.00     0.062 C 
ATOM      5  H   LIG d   1       5.163   0.219  -8.010  0.00  0.00     0.042 H 
ATOM      6  C   LIG d   1       4.073  -0.108  -9.867  0.00  0.00    -0.011 C 
ATOM      7  H   LIG d   1       1.329  -0.319  -7.968  0.00  0.00     0.027 H 
ATOM      8  H   LIG d   1       2.791  -1.144  -7.346  0.00  0.00     0.027 H 
ATOM      9  H   LIG d   1       3.279   1.160  -6.837  0.00  0.00     0.027 H 
ATOM     10  H   LIG d   1       2.520   1.742  -8.356  0.00  0.00     0.027 H 
ENDROOT
BRANCH   1  11
ATOM     11  C   LIG d   1       3.006  -2.342  -9.555  0.00  0.00     0.040 C 
ATOM     12  N   LIG d   1       3.453  -2.956  -8.526  0.00  0.00    -0.188 NA
BRANCH  11  13
ATOM     13  C   LIG d   1       2.707  -3.107 -10.818  0.00  0.00    -0.024 C 
ATOM     14  H   LIG d   1       3.044  -4.138 -10.708  0.00  0.00     0.029 H 
ATOM     15  H   LIG d   1       1.632  -3.095 -11.006  0.00  0.00     0.029 H 
ATOM     16  H   LIG d   1       3.226  -2.643 -11.656  0.00  0.00     0.029 H 
ENDBRANCH  11  13
BRANCH  12  17
ATOM     17  N   LIG d   1       3.665  -4.341  -8.573  0.00  0.00    -0.191 N 
ATOM     18  C   LIG d   1       3.698  -5.057  -7.431  0.00  0.00     0.317 C 
ATOM     19  O   LIG d   1       3.883  -6.258  -7.472  0.00  0.00    -0.251 OA
ATOM     20  N   LIG d   1       3.528  -4.441  -6.244  0.00  0.00    -0.312 N 
ATOM     21  H   LIG d   1       3.381  -3.482  -6.212  0.00  0.00     0.146 HD
ATOM     22  H   LIG d   1       3.551  -4.956  -5.423  0.00  0.00     0.146 HD
ATOM     23  H   LIG d   1       3.787  -4.784  -9.427  0.00  0.00     0.179 HD
ENDBRANCH  12  17
ENDBRANCH   1  11
BRANCH   1  24
ATOM     24  C   LIG d   1       1.658  -0.461 -10.472  0.00  0.00    -0.054 C 
ATOM     25  H   LIG d   1       0.696  -0.748 -10.050  0.00  0.00     0.024 H 
ATOM     26  H   LIG d   1       1.679   0.616 -10.634  0.00  0.00     0.024 H 
ATOM     27  H   LIG d   1       1.805  -0.974 -11.423  0.00  0.00     0.024 H 
ENDBRANCH   1  24
BRANCH   6  28
ATOM     28  C   LIG d   1       3.839   0.791 -11.082  0.00  0.00    -0.058 C 
ATOM     29  H   LIG d   1       2.885   0.536 -11.545  0.00  0.00     0.024 H 
ATOM     30  H   LIG d   1       3.821   1.834 -10.766  0.00  0.00     0.024 H 
ATOM     31  H   LIG d   1       4.644   0.645 -11.803  0.00  0.00     0.024 H 
ENDBRANCH   6  28
BRANCH   6  32
ATOM     32  C   LIG d   1       5.190  -1.112 -10.167  0.00  0.00    -0.058 C 
ATOM     33  H   LIG d   1       5.554  -1.539  -9.232  0.00  0.00     0.024 H 
ATOM     34  H   LIG d   1       4.801  -1.907 -10.803  0.00  0.00     0.024 H 
ATOM     35  H   LIG d   1       6.007  -0.604 -10.678  0.00  0.00     0.024 H 
ENDBRANCH   6  32
BRANCH   4  36
ATOM     36  C   LIG d   1       5.012   2.076  -9.076  0.00  0.00     0.310 C 
ATOM     37  O   LIG d   1       4.313   3.061  -9.069  0.00  0.00    -0.251 OA
BRANCH  36  38
ATOM     38  O   LIG d   1       6.290   2.163  -9.478  0.00  0.00    -0.468 OA
BRANCH  38  39
ATOM     39  C   LIG d   1       7.310   1.778  -8.518  0.00  0.00     0.082 C 
ATOM     40  H   LIG d   1       8.263   2.226  -8.802  0.00  0.00     0.066 H 
ATOM     41  H   LIG d   1       7.026   2.125  -7.526  0.00  0.00     0.066 H 
ATOM     42  H   LIG d   1       7.408   0.693  -8.510  0.00  0.00     0.066 H 
ENDBRANCH  38  39
ENDBRANCH  36  38
ENDBRANCH   4  36
TORSDOF 9
ENDMDL
MODEL 3
REMARK VINA RESULT:      -4.6      2.908      4.120
REMARK  9 active torsions:
REMARK  status: ('A' for Active; 'I' for Inactive)
REMARK    1  A    between atoms: C_1  and  C_2 
REMARK    2  A    between atoms: C_2  and  C_8 
REMARK    3  A    between atoms: N_3  and  N_4 
REMARK       I    between atoms: N_4  and  C_5 
REMARK       I    between atoms: C_5  and  N_7 
REMARK    4  A    between atoms: C_8  and  C_20 
REMARK    5  A    between atoms: C_11  and  C_16 
REMARK    6  A    between atoms: C_13  and  C_14 
REMARK    7  A    between atoms: C_13  and  C_15 
REMARK    8  A    between atoms: C_16  and  O_18 
REMARK    9  A    between atoms: O_18  and  C_19 
ROOT
ATOM      1  C   LIG d   1       4.673  -1.873  -4.312  0.00  0.00     0.013 C 
ATOM      2  C   LIG d   1       4.537  -3.115  -5.218  0.00  0.00    -0.041 C 
ATOM      3  C   LIG d   1       5.943  -3.764  -5.186  0.00  0.00    -0.039 C 
ATOM      4  C   LIG d   1       6.886  -2.535  -5.187  0.00  0.00     0.062 C 
ATOM      5  H   LIG d   1       7.006  -2.145  -6.198  0.00  0.00     0.042 H 
ATOM      6  C   LIG d   1       6.166  -1.505  -4.293  0.00  0.00    -0.011 C 
ATOM      7  H   LIG d   1       3.791  -3.800  -4.815  0.00  0.00     0.027 H 
ATOM      8  H   LIG d   1       4.274  -2.819  -6.233  0.00  0.00     0.027 H 
ATOM      9  H   LIG d   1       6.105  -4.377  -6.073  0.00  0.00     0.027 H 
ATOM     10  H   LIG d   1       6.076  -4.352  -4.278  0.00  0.00     0.027 H 
ENDROOT
BRANCH   1  11
ATOM     11  C   LIG d   1       3.867  -0.731  -4.877  0.00  0.00     0.040 C 
ATOM     12  N   LIG d   1       3.787  -0.570  -6.144  0.00  0.00    -0.188 NA
BRANCH  11  13
ATOM     13  C   LIG d   1       3.155   0.219  -3.950  0.00  0.00    -0.024 C 
ATOM     14  H   LIG d   1       3.108  -0.215  -2.951  0.00  0.00     0.029 H 
ATOM     15  H   LIG d   1       3.697   1.164  -3.910  0.00  0.00     0.029 H 
ATOM     16  H   LIG d   1       2.144   0.396  -4.316  0.00  0.00     0.029 H 
ENDBRANCH  11  13
BRANCH  12  17
ATOM     17  N   LIG d   1       3.037   0.492  -6.668  0.00  0.00    -0.191 N 
ATOM     18  C   LIG d   1       3.541   1.243  -7.668  0.00  0.00     0.317 C 
ATOM     19  O   LIG d   1       2.890   2.164  -8.124  0.00  0.00    -0.251 OA
ATOM     20  N   LIG d   1       4.765   0.972  -8.163  0.00  0.00    -0.312 N 
ATOM     21  H   LIG d   1       5.284   0.238  -7.800  0.00  0.00     0.146 HD
ATOM     22  H   LIG d   1       5.127   1.512  -8.883  0.00  0.00     0.146 HD
ATOM     23  H   LIG d   1       2.157   0.686  -6.313  0.00  0.00     0.179 HD
ENDBRANCH  12  17
ENDBRANCH   1  11
BRANCH   1  24
ATOM     24  C   LIG d   1       4.195  -2.202  -2.896  0.00  0.00    -0.054 C 
ATOM     25  H   LIG d   1       3.800  -1.301  -2.428  0.00  0.00     0.024 H 
ATOM     26  H   LIG d   1       3.414  -2.961  -2.942  0.00  0.00     0.024 H 
ATOM     27  H   LIG d   1       5.033  -2.578  -2.309  0.00  0.00     0.024 H 
ENDBRANCH   1  24
BRANCH   6  28
ATOM     28  C   LIG d   1       6.707  -1.582  -2.864  0.00  0.00    -0.058 C 
ATOM     29  H   LIG d   1       7.589  -0.947  -2.774  0.00  0.00     0.024 H 
ATOM     30  H   LIG d   1       5.942  -1.242  -2.166  0.00  0.00     0.024 H 
ATOM     31  H   LIG d   1       6.976  -2.613  -2.633  0.00  0.00     0.024 H 
ENDBRANCH   6  28
BRANCH   6  32
ATOM     32  C   LIG d   1       6.367  -0.094  -4.853  0.00  0.00    -0.058 C 
ATOM     33  H   LIG d   1       6.463   0.613  -4.029  0.00  0.00     0.024 H 
ATOM     34  H   LIG d   1       7.272  -0.070  -5.460  0.00  0.00     0.024 H 
ATOM     35  H   LIG d   1       5.509   0.177  -5.468  0.00  0.00     0.024 H 
ENDBRANCH   6  32
BRANCH   4  36
ATOM     36  C   LIG d   1       8.226  -2.898  -4.600  0.00  0.00     0.310 C 
ATOM     37  O   LIG d   1       9.174  -2.166  -4.759  0.00  0.00    -0.251 OA
BRANCH  36  38
ATOM     38  O   LIG d   1       8.367  -4.037  -3.904  0.00  0.00    -0.468 OA
BRANCH  38  39
ATOM     39  C   LIG d   1       9.493  -4.116  -2.990  0.00  0.00     0.082 C 
ATOM     40  H   LIG d   1       9.253  -3.579  -2.072  0.00  0.00     0.066 H 
ATOM     41  H   LIG d   1       9.699  -5.160  -2.757  0.00  0.00     0.066 H 
ATOM     42  H   LIG d   1      10.369  -3.666  -3.455  0.00  0.00     0.066 H 
ENDBRANCH  38  39
ENDBRANCH  36  38
ENDBRANCH   4  36
TORSDOF 9
ENDMDL
MODEL 4
REMARK VINA RESULT:      -4.5      2.602      5.864
REMARK  9 active torsions:
REMARK  status: ('A' for Active; 'I' for Inactive)
REMARK    1  A    between atoms: C_1  and  C_2 
REMARK    2  A    between atoms: C_2  and  C_8 
REMARK    3  A    between atoms: N_3  and  N_4 
REMARK       I    between atoms: N_4  and  C_5 
REMARK       I    between atoms: C_5  and  N_7 
REMARK    4  A    between atoms: C_8  and  C_20 
REMARK    5  A    between atoms: C_11  and  C_16 
REMARK    6  A    between atoms: C_13  and  C_14 
REMARK    7  A    between atoms: C_13  and  C_15 
REMARK    8  A    between atoms: C_16  and  O_18 
REMARK    9  A    between atoms: O_18  and  C_19 
ROOT
ATOM      1  C   LIG d   1       4.804  -0.734  -4.322  0.00  0.00     0.013 C 
ATOM      2  C   LIG d   1       4.400   0.166  -3.136  0.00  0.00    -0.041 C 
ATOM      3  C   LIG d   1       5.498   1.258  -3.097  0.00  0.00    -0.039 C 
ATOM      4  C   LIG d   1       6.781   0.465  -3.451  0.00  0.00     0.062 C 
ATOM      5  H   LIG d   1       7.163  -0.058  -2.575  0.00  0.00     0.042 H 
ATOM      6  C   LIG d   1       6.318  -0.544  -4.522  0.00  0.00    -0.011 C 
ATOM      7  H   LIG d   1       3.422   0.614  -3.314  0.00  0.00     0.027 H 
ATOM      8  H   LIG d   1       4.394  -0.406  -2.209  0.00  0.00     0.027 H 
ATOM      9  H   LIG d   1       5.575   1.692  -2.100  0.00  0.00     0.027 H 
ATOM     10  H   LIG d   1       5.303   2.029  -3.842  0.00  0.00     0.027 H 
ENDROOT
BRANCH   1  11
ATOM     11  C   LIG d   1       4.503  -2.176  -4.002  0.00  0.00     0.040 C 
ATOM     12  N   LIG d   1       4.635  -3.072  -4.906  0.00  0.00    -0.188 NA
BRANCH  11  13
ATOM     13  C   LIG d   1       4.049  -2.561  -2.619  0.00  0.00    -0.024 C 
ATOM     14  H   LIG d   1       4.625  -2.004  -1.879  0.00  0.00     0.029 H 
ATOM     15  H   LIG d   1       2.990  -2.328  -2.505  0.00  0.00     0.029 H 
ATOM     16  H   LIG d   1       4.203  -3.630  -2.470  0.00  0.00     0.029 H 
ENDBRANCH  11  13
BRANCH  12  17
ATOM     17  N   LIG d   1       4.356  -4.413  -4.608  0.00  0.00    -0.191 N 
ATOM     18  C   LIG d   1       4.631  -5.376  -5.511  0.00  0.00     0.317 C 
ATOM     19  O   LIG d   1       4.389  -6.539  -5.253  0.00  0.00    -0.251 OA
ATOM     20  N   LIG d   1       5.174  -5.048  -6.701  0.00  0.00    -0.312 N 
ATOM     21  H   LIG d   1       5.367  -4.120  -6.907  0.00  0.00     0.146 HD
ATOM     22  H   LIG d   1       5.372  -5.740  -7.350  0.00  0.00     0.146 HD
ATOM     23  H   LIG d   1       3.966  -4.649  -3.752  0.00  0.00     0.179 HD
ENDBRANCH  12  17
ENDBRANCH   1  11
BRANCH   1  24
ATOM     24  C   LIG d   1       4.051  -0.309  -5.584  0.00  0.00    -0.054 C 
ATOM     25  H   LIG d   1       4.092  -1.112  -6.319  0.00  0.00     0.024 H 
ATOM     26  H   LIG d   1       3.012  -0.096  -5.334  0.00  0.00     0.024 H 
ATOM     27  H   LIG d   1       4.515   0.586  -5.999  0.00  0.00     0.024 H 
ENDBRANCH   1  24
BRANCH   6  28
ATOM     28  C   LIG d   1       6.597   0.011  -5.921  0.00  0.00    -0.058 C 
ATOM     29  H   LIG d   1       6.277  -0.714  -6.670  0.00  0.00     0.024 H 
ATOM     30  H   LIG d   1       6.048   0.943  -6.059  0.00  0.00     0.024 H 
ATOM     31  H   LIG d   1       7.665   0.199  -6.030  0.00  0.00     0.024 H 
ENDBRANCH   6  28
BRANCH   6  32
ATOM     32  C   LIG d   1       7.045  -1.878  -4.334  0.00  0.00    -0.058 C 
ATOM     33  H   LIG d   1       6.370  -2.697  -4.584  0.00  0.00     0.024 H 
ATOM     34  H   LIG d   1       7.916  -1.912  -4.988  0.00  0.00     0.024 H 
ATOM     35  H   LIG d   1       7.365  -1.973  -3.297  0.00  0.00     0.024 H 
ENDBRANCH   6  32
BRANCH   4  36
ATOM     36  C   LIG d   1       7.832   1.387  -4.015  0.00  0.00     0.310 C 
ATOM     37  O   LIG d   1       7.536   2.511  -4.345  0.00  0.00    -0.251 OA
BRANCH  36  38
ATOM     38  O   LIG d   1       9.096   0.957  -4.154  0.00  0.00    -0.468 OA
BRANCH  38  39
ATOM     39  C   LIG d   1      10.083   1.937  -4.571  0.00  0.00     0.082 C 
ATOM     40  H   LIG d   1      10.988   1.424  -4.897  0.00  0.00     0.066 H 
ATOM     41  H   LIG d   1       9.683   2.528  -5.394  0.00  0.00     0.066 H 
ATOM     42  H   LIG d   1      10.320   2.593  -3.734  0.00  0.00     0.066 H 
ENDBRANCH  38  39
ENDBRANCH  36  38
ENDBRANCH   4  36
TORSDOF 9
ENDMDL
MODEL 5
REMARK VINA RESULT:      -4.5      1.283      2.212
REMARK  9 active torsions:
REMARK  status: ('A' for Active; 'I' for Inactive)
REMARK    1  A    between atoms: C_1  and  C_2 
REMARK    2  A    between atoms: C_2  and  C_8 
REMARK    3  A    between atoms: N_3  and  N_4 
REMARK       I    between atoms: N_4  and  C_5 
REMARK       I    between atoms: C_5  and  N_7 
REMARK    4  A    between atoms: C_8  and  C_20 
REMARK    5  A    between atoms: C_11  and  C_16 
REMARK    6  A    between atoms: C_13  and  C_14 
REMARK    7  A    between atoms: C_13  and  C_15 
REMARK    8  A    between atoms: C_16  and  O_18 
REMARK    9  A    between atoms: O_18  and  C_19 
ROOT
ATOM      1  C   LIG d   1       6.293  -1.305  -3.530  0.00  0.00     0.013 C 
ATOM      2  C   LIG d   1       5.083  -1.679  -2.649  0.00  0.00    -0.041 C 
ATOM      3  C   LIG d   1       4.345  -2.771  -3.462  0.00  0.00    -0.039 C 
ATOM      4  C   LIG d   1       4.493  -2.270  -4.920  0.00  0.00     0.062 C 
ATOM      5  H   LIG d   1       3.753  -1.500  -5.138  0.00  0.00     0.042 H 
ATOM      6  C   LIG d   1       5.917  -1.680  -4.974  0.00  0.00    -0.011 C 
ATOM      7  H   LIG d   1       5.419  -2.078  -1.691  0.00  0.00     0.027 H 
ATOM      8  H   LIG d   1       4.440  -0.813  -2.496  0.00  0.00     0.027 H 
ATOM      9  H   LIG d   1       3.294  -2.821  -3.175  0.00  0.00     0.027 H 
ATOM     10  H   LIG d   1       4.828  -3.740  -3.336  0.00  0.00     0.027 H 
ENDROOT
BRANCH   1  11
ATOM     11  C   LIG d   1       6.562   0.176  -3.436  0.00  0.00     0.040 C 
ATOM     12  N   LIG d   1       7.687   0.647  -3.821  0.00  0.00    -0.188 NA
BRANCH  11  13
ATOM     13  C   LIG d   1       5.505   1.100  -2.889  0.00  0.00    -0.024 C 
ATOM     14  H   LIG d   1       5.280   0.824  -1.858  0.00  0.00     0.029 H 
ATOM     15  H   LIG d   1       5.869   2.127  -2.919  0.00  0.00     0.029 H 
ATOM     16  H   LIG d   1       4.602   1.016  -3.492  0.00  0.00     0.029 H 
ENDBRANCH  11  13
BRANCH  12  17
ATOM     17  N   LIG d   1       7.937   2.023  -3.734  0.00  0.00    -0.191 N 
ATOM     18  C   LIG d   1       9.206   2.476  -3.681  0.00  0.00     0.317 C 
ATOM     19  O   LIG d   1       9.423   3.670  -3.605  0.00  0.00    -0.251 OA
ATOM     20  N   LIG d   1      10.234   1.605  -3.714  0.00  0.00    -0.312 N 
ATOM     21  H   LIG d   1      10.061   0.652  -3.774  0.00  0.00     0.146 HD
ATOM     22  H   LIG d   1      11.147   1.930  -3.676  0.00  0.00     0.146 HD
ATOM     23  H   LIG d   1       7.198   2.650  -3.711  0.00  0.00     0.179 HD
ENDBRANCH  12  17
ENDBRANCH   1  11
BRANCH   1  24
ATOM     24  C   LIG d   1       7.528  -2.091  -3.089  0.00  0.00    -0.054 C 
ATOM     25  H   LIG d   1       7.764  -1.847  -2.053  0.00  0.00     0.024 H 
ATOM     26  H   LIG d   1       7.329  -3.159  -3.174  0.00  0.00     0.024 H 
ATOM     27  H   LIG d   1       8.373  -1.828  -3.725  0.00  0.00     0.024 H 
ENDBRANCH   1  24
BRANCH   6  28
ATOM     28  C   LIG d   1       6.896  -2.723  -5.517  0.00  0.00    -0.058 C 
ATOM     29  H   LIG d   1       7.919  -2.389  -5.338  0.00  0.00     0.024 H 
ATOM     30  H   LIG d   1       6.731  -3.675  -5.012  0.00  0.00     0.024 H 
ATOM     31  H   LIG d   1       6.737  -2.847  -6.588  0.00  0.00     0.024 H 
ENDBRANCH   6  28
BRANCH   6  32
ATOM     32  C   LIG d   1       5.934  -0.434  -5.863  0.00  0.00    -0.058 C 
ATOM     33  H   LIG d   1       6.461   0.370  -5.350  0.00  0.00     0.024 H 
ATOM     34  H   LIG d   1       6.444  -0.663  -6.799  0.00  0.00     0.024 H 
ATOM     35  H   LIG d   1       4.911  -0.123  -6.072  0.00  0.00     0.024 H 
ENDBRANCH   6  32
BRANCH   4  36
ATOM     36  C   LIG d   1       4.360  -3.418  -5.888  0.00  0.00     0.310 C 
ATOM     37  O   LIG d   1       4.326  -3.204  -7.077  0.00  0.00    -0.251 OA
BRANCH  36  38
ATOM     38  O   LIG d   1       4.275  -4.676  -5.430  0.00  0.00    -0.468 OA
BRANCH  38  39
ATOM     39  C   LIG d   1       4.520  -5.743  -6.383  0.00  0.00     0.082 C 
ATOM     40  H   LIG d   1       5.579  -5.758  -6.646  0.00  0.00     0.066 H 
ATOM     41  H   LIG d   1       4.243  -6.699  -5.939  0.00  0.00     0.066 H 
ATOM     42  H   LIG d   1       3.926  -5.572  -7.280  0.00  0.00     0.066 H 
ENDBRANCH  38  39
ENDBRANCH  36  38
ENDBRANCH   4  36
TORSDOF 9
ENDMDL
MODEL 6
REMARK VINA RESULT:      -4.5      4.552      6.008
REMARK  9 active torsions:
REMARK  status: ('A' for Active; 'I' for Inactive)
REMARK    1  A    between atoms: C_1  and  C_2 
REMARK    2  A    between atoms: C_2  and  C_8 
REMARK    3  A    between atoms: N_3  and  N_4 
REMARK       I    between atoms: N_4  and  C_5 
REMARK       I    between atoms: C_5  and  N_7 
REMARK    4  A    between atoms: C_8  and  C_20 
REMARK    5  A    between atoms: C_11  and  C_16 
REMARK    6  A    between atoms: C_13  and  C_14 
REMARK    7  A    between atoms: C_13  and  C_15 
REMARK    8  A    between atoms: C_16  and  O_18 
REMARK    9  A    between atoms: O_18  and  C_19 
ROOT
ATOM      1  C   LIG d   1       3.623   0.530  -9.225  0.00  0.00     0.013 C 
ATOM      2  C   LIG d   1       4.687   0.944 -10.263  0.00  0.00    -0.041 C 
ATOM      3  C   LIG d   1       4.268   0.197 -11.554  0.00  0.00    -0.039 C 
ATOM      4  C   LIG d   1       3.775  -1.168 -11.013  0.00  0.00     0.062 C 
ATOM      5  H   LIG d   1       4.618  -1.829 -10.813  0.00  0.00     0.042 H 
ATOM      6  C   LIG d   1       3.044  -0.813  -9.702  0.00  0.00    -0.011 C 
ATOM      7  H   LIG d   1       4.663   2.023 -10.422  0.00  0.00     0.027 H 
ATOM      8  H   LIG d   1       5.678   0.629  -9.940  0.00  0.00     0.027 H 
ATOM      9  H   LIG d   1       5.124   0.064 -12.216  0.00  0.00     0.027 H 
ATOM     10  H   LIG d   1       3.463   0.725 -12.063  0.00  0.00     0.027 H 
ENDROOT
BRANCH   1  11
ATOM     11  C   LIG d   1       4.262   0.364  -7.870  0.00  0.00     0.040 C 
ATOM     12  N   LIG d   1       3.544   0.432  -6.813  0.00  0.00    -0.188 NA
BRANCH  11  13
ATOM     13  C   LIG d   1       5.744   0.118  -7.761  0.00  0.00    -0.024 C 
ATOM     14  H   LIG d   1       6.177   0.060  -8.760  0.00  0.00     0.029 H 
ATOM     15  H   LIG d   1       6.209   0.937  -7.210  0.00  0.00     0.029 H 
ATOM     16  H   LIG d   1       5.919  -0.819  -7.234  0.00  0.00     0.029 H 
ENDBRANCH  11  13
BRANCH  12  17
ATOM     17  N   LIG d   1       4.138   0.277  -5.552  0.00  0.00    -0.191 N 
ATOM     18  C   LIG d   1       3.379  -0.044  -4.485  0.00  0.00     0.317 C 
ATOM     19  O   LIG d   1       3.894  -0.178  -3.391  0.00  0.00    -0.251 OA
ATOM     20  N   LIG d   1       2.050  -0.216  -4.630  0.00  0.00    -0.312 N 
ATOM     21  H   LIG d   1       1.639  -0.108  -5.502  0.00  0.00     0.146 HD
ATOM     22  H   LIG d   1       1.505  -0.447  -3.862  0.00  0.00     0.146 HD
ATOM     23  H   LIG d   1       5.094   0.400  -5.448  0.00  0.00     0.179 HD
ENDBRANCH  12  17
ENDBRANCH   1  11
BRANCH   1  24
ATOM     24  C   LIG d   1       2.516   1.584  -9.158  0.00  0.00    -0.054 C 
ATOM     25  H   LIG d   1       2.781   2.342  -8.422  0.00  0.00     0.024 H 
ATOM     26  H   LIG d   1       2.398   2.050 -10.136  0.00  0.00     0.024 H 
ATOM     27  H   LIG d   1       1.579   1.108  -8.868  0.00  0.00     0.024 H 
ENDBRANCH   1  24
BRANCH   6  28
ATOM     28  C   LIG d   1       1.542  -0.675  -9.960  0.00  0.00    -0.058 C 
ATOM     29  H   LIG d   1       1.370   0.110 -10.696  0.00  0.00     0.024 H 
ATOM     30  H   LIG d   1       1.149  -1.620 -10.337  0.00  0.00     0.024 H 
ATOM     31  H   LIG d   1       1.037  -0.418  -9.029  0.00  0.00     0.024 H 
ENDBRANCH   6  28
BRANCH   6  32
ATOM     32  C   LIG d   1       3.297  -1.897  -8.651  0.00  0.00    -0.058 C 
ATOM     33  H   LIG d   1       2.416  -2.002  -8.019  0.00  0.00     0.024 H 
ATOM     34  H   LIG d   1       3.502  -2.845  -9.150  0.00  0.00     0.024 H 
ATOM     35  H   LIG d   1       4.154  -1.616  -8.039  0.00  0.00     0.024 H 
ENDBRANCH   6  32
BRANCH   4  36
ATOM     36  C   LIG d   1       2.824  -1.810 -11.990  0.00  0.00     0.310 C 
ATOM     37  O   LIG d   1       2.413  -1.180 -12.936  0.00  0.00    -0.251 OA
BRANCH  36  38
ATOM     38  O   LIG d   1       2.429  -3.080 -11.807  0.00  0.00    -0.468 OA
BRANCH  38  39
ATOM     39  C   LIG d   1       3.470  -4.087 -11.718  0.00  0.00     0.082 C 
ATOM     40  H   LIG d   1       3.020  -5.080 -11.766  0.00  0.00     0.066 H 
ATOM     41  H   LIG d   1       4.167  -3.964 -12.547  0.00  0.00     0.066 H 
ATOM     42  H   LIG d   1       4.003  -3.976 -10.775  0.00  0.00     0.066 H 
ENDBRANCH  38  39
ENDBRANCH  36  38
ENDBRANCH   4  36
TORSDOF 9
ENDMDL
MODEL 7
REMARK VINA RESULT:      -4.4      6.400      8.935
REMARK  9 active torsions:
REMARK  status: ('A' for Active; 'I' for Inactive)
REMARK    1  A    between atoms: C_1  and  C_2 
REMARK    2  A    between atoms: C_2  and  C_8 
REMARK    3  A    between atoms: N_3  and  N_4 
REMARK       I    between atoms: N_4  and  C_5 
REMARK       I    between atoms: C_5  and  N_7 
REMARK    4  A    between atoms: C_8  and  C_20 
REMARK    5  A    between atoms: C_11  and  C_16 
REMARK    6  A    between atoms: C_13  and  C_14 
REMARK    7  A    between atoms: C_13  and  C_15 
REMARK    8  A    between atoms: C_16  and  O_18 
REMARK    9  A    between atoms: O_18  and  C_19 
ROOT
ATOM      1  C   LIG d   1       3.044  -1.526 -10.927  0.00  0.00     0.013 C 
ATOM      2  C   LIG d   1       3.443  -0.820 -12.239  0.00  0.00    -0.041 C 
ATOM      3  C   LIG d   1       4.296   0.387 -11.776  0.00  0.00    -0.039 C 
ATOM      4  C   LIG d   1       3.564   0.849 -10.492  0.00  0.00     0.062 C 
ATOM      5  H   LIG d   1       2.697   1.460 -10.743  0.00  0.00     0.042 H 
ATOM      6  C   LIG d   1       3.121  -0.464  -9.816  0.00  0.00    -0.011 C 
ATOM      7  H   LIG d   1       4.036  -1.488 -12.865  0.00  0.00     0.027 H 
ATOM      8  H   LIG d   1       2.557  -0.483 -12.775  0.00  0.00     0.027 H 
ATOM      9  H   LIG d   1       4.289   1.175 -12.530  0.00  0.00     0.027 H 
ATOM     10  H   LIG d   1       5.315   0.076 -11.550  0.00  0.00     0.027 H 
ENDROOT
BRANCH   1  11
ATOM     11  C   LIG d   1       1.638  -2.060 -11.034  0.00  0.00     0.040 C 
ATOM     12  N   LIG d   1       1.264  -3.031 -10.290  0.00  0.00    -0.188 NA
BRANCH  11  13
ATOM     13  C   LIG d   1       0.674  -1.448 -12.017  0.00  0.00    -0.024 C 
ATOM     14  H   LIG d   1      -0.174  -2.119 -12.159  0.00  0.00     0.029 H 
ATOM     15  H   LIG d   1       0.320  -0.491 -11.632  0.00  0.00     0.029 H 
ATOM     16  H   LIG d   1       1.177  -1.292 -12.971  0.00  0.00     0.029 H 
ENDBRANCH  11  13
BRANCH  12  17
ATOM     17  N   LIG d   1      -0.043  -3.526 -10.389  0.00  0.00    -0.191 N 
ATOM     18  C   LIG d   1      -0.278  -4.845 -10.234  0.00  0.00     0.317 C 
ATOM     19  O   LIG d   1      -1.413  -5.275 -10.321  0.00  0.00    -0.251 OA
ATOM     20  N   LIG d   1       0.744  -5.686  -9.983  0.00  0.00    -0.312 N 
ATOM     21  H   LIG d   1       1.649  -5.343  -9.914  0.00  0.00     0.146 HD
ATOM     22  H   LIG d   1       0.576  -6.635  -9.871  0.00  0.00     0.146 HD
ATOM     23  H   LIG d   1      -0.779  -2.921 -10.570  0.00  0.00     0.179 HD
ENDBRANCH  12  17
ENDBRANCH   1  11
BRANCH   1  24
ATOM     24  C   LIG d   1       4.017  -2.669 -10.628  0.00  0.00    -0.054 C 
ATOM     25  H   LIG d   1       5.030  -2.360 -10.883  0.00  0.00     0.024 H 
ATOM     26  H   LIG d   1       3.969  -2.920  -9.568  0.00  0.00     0.024 H 
ATOM     27  H   LIG d   1       3.743  -3.542 -11.220  0.00  0.00     0.024 H 
ENDBRANCH   1  24
BRANCH   6  28
ATOM     28  C   LIG d   1       4.145  -0.883  -8.760  0.00  0.00    -0.058 C 
ATOM     29  H   LIG d   1       5.151  -0.674  -9.126  0.00  0.00     0.024 H 
ATOM     30  H   LIG d   1       3.970  -0.324  -7.840  0.00  0.00     0.024 H 
ATOM     31  H   LIG d   1       4.045  -1.950  -8.560  0.00  0.00     0.024 H 
ENDBRANCH   6  28
BRANCH   6  32
ATOM     32  C   LIG d   1       1.746  -0.282  -9.168  0.00  0.00    -0.058 C 
ATOM     33  H   LIG d   1       1.709  -0.841  -8.233  0.00  0.00     0.024 H 
ATOM     34  H   LIG d   1       1.578   0.776  -8.966  0.00  0.00     0.024 H 
ATOM     35  H   LIG d   1       0.974  -0.650  -9.844  0.00  0.00     0.024 H 
ENDBRANCH   6  32
BRANCH   4  36
ATOM     36  C   LIG d   1       4.505   1.612  -9.595  0.00  0.00     0.310 C 
ATOM     37  O   LIG d   1       4.071   2.235  -8.654  0.00  0.00    -0.251 OA
BRANCH  36  38
ATOM     38  O   LIG d   1       5.824   1.605  -9.844  0.00  0.00    -0.468 OA
BRANCH  38  39
ATOM     39  C   LIG d   1       6.708   1.868  -8.723  0.00  0.00     0.082 C 
ATOM     40  H   LIG d   1       6.114   2.135  -7.848  0.00  0.00     0.066 H 
ATOM     41  H   LIG d   1       7.295   0.976  -8.506  0.00  0.00     0.066 H 
ATOM     42  H   LIG d   1       7.376   2.691  -8.973  0.00  0.00     0.066 H 
ENDBRANCH  38  39
ENDBRANCH  36  38
ENDBRANCH   4  36
TORSDOF 9
ENDMDL
MODEL 8
REMARK VINA RESULT:      -4.3      3.278      4.671
REMARK  9 active torsions:
REMARK  status: ('A' for Active; 'I' for Inactive)
REMARK    1  A    between atoms: C_1  and  C_2 
REMARK    2  A    between atoms: C_2  and  C_8 
REMARK    3  A    between atoms: N_3  and  N_4 
REMARK       I    between atoms: N_4  and  C_5 
REMARK       I    between atoms: C_5  and  N_7 
REMARK    4  A    between atoms: C_8  and  C_20 
REMARK    5  A    between atoms: C_11  and  C_16 
REMARK    6  A    between atoms: C_13  and  C_14 
REMARK    7  A    between atoms: C_13  and  C_15 
REMARK    8  A    between atoms: C_16  and  O_18 
REMARK    9  A    between atoms: O_18  and  C_19 
ROOT
ATOM      1  C   LIG d   1       5.277  -0.871  -6.754  0.00  0.00     0.013 C 
ATOM      2  C   LIG d   1       5.508  -2.331  -7.195  0.00  0.00    -0.041 C 
ATOM      3  C   LIG d   1       4.821  -2.421  -8.581  0.00  0.00    -0.039 C 
ATOM      4  C   LIG d   1       3.557  -1.547  -8.393  0.00  0.00     0.062 C 
ATOM      5  H   LIG d   1       2.774  -2.109  -7.884  0.00  0.00     0.042 H 
ATOM      6  C   LIG d   1       4.036  -0.373  -7.515  0.00  0.00    -0.011 C 
ATOM      7  H   LIG d   1       6.575  -2.537  -7.284  0.00  0.00     0.027 H 
ATOM      8  H   LIG d   1       5.044  -3.020  -6.491  0.00  0.00     0.027 H 
ATOM      9  H   LIG d   1       4.548  -3.452  -8.809  0.00  0.00     0.027 H 
ATOM     10  H   LIG d   1       5.465  -2.009  -9.358  0.00  0.00     0.027 H 
ENDROOT
BRANCH   1  11
ATOM     11  C   LIG d   1       5.028  -0.814  -5.268  0.00  0.00     0.040 C 
ATOM     12  N   LIG d   1       5.267   0.263  -4.620  0.00  0.00    -0.188 NA
BRANCH  11  13
ATOM     13  C   LIG d   1       4.496  -2.025  -4.547  0.00  0.00    -0.024 C 
ATOM     14  H   LIG d   1       3.414  -1.939  -4.441  0.00  0.00     0.029 H 
ATOM     15  H   LIG d   1       4.734  -2.923  -5.119  0.00  0.00     0.029 H 
ATOM     16  H   LIG d   1       4.954  -2.091  -3.560  0.00  0.00     0.029 H 
ENDBRANCH  11  13
BRANCH  12  17
ATOM     17  N   LIG d   1       5.034   0.316  -3.239  0.00  0.00    -0.191 N 
ATOM     18  C   LIG d   1       4.160   1.212  -2.737  0.00  0.00     0.317 C 
ATOM     19  O   LIG d   1       3.958   1.258  -1.538  0.00  0.00    -0.251 OA
ATOM     20  N   LIG d   1       3.512   2.057  -3.563  0.00  0.00    -0.312 N 
ATOM     21  H   LIG d   1       3.673   2.020  -4.519  0.00  0.00     0.146 HD
ATOM     22  H   LIG d   1       2.883   2.701  -3.202  0.00  0.00     0.146 HD
ATOM     23  H   LIG d   1       5.500  -0.292  -2.645  0.00  0.00     0.179 HD
ENDBRANCH  12  17
ENDBRANCH   1  11
BRANCH   1  24
ATOM     24  C   LIG d   1       6.492  -0.014  -7.114  0.00  0.00    -0.054 C 
ATOM     25  H   LIG d   1       6.158   0.916  -7.573  0.00  0.00     0.024 H 
ATOM     26  H   LIG d   1       7.061   0.208  -6.211  0.00  0.00     0.024 H 
ATOM     27  H   LIG d   1       7.124  -0.559  -7.816  0.00  0.00     0.024 H 
ENDBRANCH   1  24
BRANCH   6  28
ATOM     28  C   LIG d   1       4.406   0.823  -8.395  0.00  0.00    -0.058 C 
ATOM     29  H   LIG d   1       4.950   1.558  -7.800  0.00  0.00     0.024 H 
ATOM     30  H   LIG d   1       5.033   0.488  -9.221  0.00  0.00     0.024 H 
ATOM     31  H   LIG d   1       3.497   1.277  -8.790  0.00  0.00     0.024 H 
ENDBRANCH   6  28
BRANCH   6  32
ATOM     32  C   LIG d   1       2.937   0.025  -6.526  0.00  0.00    -0.058 C 
ATOM     33  H   LIG d   1       2.605   1.040  -6.742  0.00  0.00     0.024 H 
ATOM     34  H   LIG d   1       2.096  -0.662  -6.624  0.00  0.00     0.024 H 
ATOM     35  H   LIG d   1       3.329  -0.023  -5.510  0.00  0.00     0.024 H 
ENDBRANCH   6  32
BRANCH   4  36
ATOM     36  C   LIG d   1       3.062  -1.042  -9.725  0.00  0.00     0.310 C 
ATOM     37  O   LIG d   1       3.806  -1.021 -10.677  0.00  0.00    -0.251 OA
BRANCH  36  38
ATOM     38  O   LIG d   1       1.797  -0.611  -9.851  0.00  0.00    -0.468 OA
BRANCH  38  39
ATOM     39  C   LIG d   1       1.088  -0.993 -11.059  0.00  0.00     0.082 C 
ATOM     40  H   LIG d   1       0.689  -0.100 -11.542  0.00  0.00     0.066 H 
ATOM     41  H   LIG d   1       1.773  -1.498 -11.738  0.00  0.00     0.066 H 
ATOM     42  H   LIG d   1       0.269  -1.664 -10.802  0.00  0.00     0.066 H 
ENDBRANCH  38  39
ENDBRANCH  36  38
ENDBRANCH   4  36
TORSDOF 9
ENDMDL
MODEL 9
REMARK VINA RESULT:      -4.2      3.275      4.924
REMARK  9 active torsions:
REMARK  status: ('A' for Active; 'I' for Inactive)
REMARK    1  A    between atoms: C_1  and  C_2 
REMARK    2  A    between atoms: C_2  and  C_8 
REMARK    3  A    between atoms: N_3  and  N_4 
REMARK       I    between atoms: N_4  and  C_5 
REMARK       I    between atoms: C_5  and  N_7 
REMARK    4  A    between atoms: C_8  and  C_20 
REMARK    5  A    between atoms: C_11  and  C_16 
REMARK    6  A    between atoms: C_13  and  C_14 
REMARK    7  A    between atoms: C_13  and  C_15 
REMARK    8  A    between atoms: C_16  and  O_18 
REMARK    9  A    between atoms: O_18  and  C_19 
ROOT
ATOM      1  C   LIG d   1       6.263  -2.569  -5.204  0.00  0.00     0.013 C 
ATOM      2  C   LIG d   1       5.453  -3.818  -4.799  0.00  0.00    -0.041 C 
ATOM      3  C   LIG d   1       4.262  -3.250  -3.987  0.00  0.00    -0.039 C 
ATOM      4  C   LIG d   1       4.912  -2.092  -3.191  0.00  0.00     0.062 C 
ATOM      5  H   LIG d   1       5.428  -2.474  -2.311  0.00  0.00     0.042 H 
ATOM      6  C   LIG d   1       5.919  -1.471  -4.181  0.00  0.00    -0.011 C 
ATOM      7  H   LIG d   1       5.095  -4.343  -5.685  0.00  0.00     0.027 H 
ATOM      8  H   LIG d   1       6.058  -4.481  -4.182  0.00  0.00     0.027 H 
ATOM      9  H   LIG d   1       3.861  -4.006  -3.311  0.00  0.00     0.027 H 
ATOM     10  H   LIG d   1       3.485  -2.874  -4.652  0.00  0.00     0.027 H 
ENDROOT
BRANCH   1  11
ATOM     11  C   LIG d   1       7.739  -2.873  -5.158  0.00  0.00     0.040 C 
ATOM     12  N   LIG d   1       8.184  -3.757  -4.346  0.00  0.00    -0.188 NA
BRANCH  11  13
ATOM     13  C   LIG d   1       8.688  -2.138  -6.067  0.00  0.00    -0.024 C 
ATOM     14  H   LIG d   1       8.139  -1.385  -6.633  0.00  0.00     0.029 H 
ATOM     15  H   LIG d   1       9.461  -1.652  -5.471  0.00  0.00     0.029 H 
ATOM     16  H   LIG d   1       9.151  -2.843  -6.756  0.00  0.00     0.029 H 
ENDBRANCH  11  13
BRANCH  12  17
ATOM     17  N   LIG d   1       9.556  -4.040  -4.304  0.00  0.00    -0.191 N 
ATOM     18  C   LIG d   1      10.206  -4.047  -3.123  0.00  0.00     0.317 C 
ATOM     19  O   LIG d   1      11.397  -4.292  -3.086  0.00  0.00    -0.251 OA
ATOM     20  N   LIG d   1       9.537  -3.783  -1.984  0.00  0.00    -0.312 N 
ATOM     21  H   LIG d   1       8.587  -3.586  -2.013  0.00  0.00     0.146 HD
ATOM     22  H   LIG d   1      10.005  -3.788  -1.134  0.00  0.00     0.146 HD
ATOM     23  H   LIG d   1      10.037  -4.230  -5.124  0.00  0.00     0.179 HD
ENDBRANCH  12  17
ENDBRANCH   1  11
BRANCH   1  24
ATOM     24  C   LIG d   1       5.865  -2.118  -6.611  0.00  0.00    -0.054 C 
ATOM     25  H   LIG d   1       6.575  -1.373  -6.968  0.00  0.00     0.024 H 
ATOM     26  H   LIG d   1       5.868  -2.976  -7.282  0.00  0.00     0.024 H 
ATOM     27  H   LIG d   1       4.865  -1.682  -6.583  0.00  0.00     0.024 H 
ENDBRANCH   1  24
BRANCH   6  28
ATOM     28  C   LIG d   1       5.287  -0.273  -4.891  0.00  0.00    -0.058 C 
ATOM     29  H   LIG d   1       5.639  -0.233  -5.922  0.00  0.00     0.024 H 
ATOM     30  H   LIG d   1       4.201  -0.375  -4.882  0.00  0.00     0.024 H 
ATOM     31  H   LIG d   1       5.569   0.645  -4.374  0.00  0.00     0.024 H 
ENDBRANCH   6  28
BRANCH   6  32
ATOM     32  C   LIG d   1       7.183  -1.032  -3.437  0.00  0.00    -0.058 C 
ATOM     33  H   LIG d   1       6.903  -0.445  -2.563  0.00  0.00     0.024 H 
ATOM     34  H   LIG d   1       7.742  -1.913  -3.120  0.00  0.00     0.024 H 
ATOM     35  H   LIG d   1       7.802  -0.428  -4.099  0.00  0.00     0.024 H 
ENDBRANCH   6  32
BRANCH   4  36
ATOM     36  C   LIG d   1       3.871  -1.077  -2.792  0.00  0.00     0.310 C 
ATOM     37  O   LIG d   1       2.764  -1.125  -3.274  0.00  0.00    -0.251 OA
BRANCH  36  38
ATOM     38  O   LIG d   1       4.177  -0.115  -1.906  0.00  0.00    -0.468 OA
BRANCH  38  39
ATOM     39  C   LIG d   1       3.714   1.228  -2.206  0.00  0.00     0.082 C 
ATOM     40  H   LIG d   1       2.625   1.234  -2.254  0.00  0.00     0.066 H 
ATOM     41  H   LIG d   1       4.048   1.910  -1.425  0.00  0.00     0.066 H 
ATOM     42  H   LIG d   1       4.121   1.546  -3.165  0.00  0.00     0.066 H 
ENDBRANCH  38  39
ENDBRANCH  36  38
ENDBRANCH   4  36
TORSDOF 9
ENDMDL
MODEL 10
REMARK VINA RESULT:      -4.2      3.379      6.150
REMARK  9 active torsions:
REMARK  status: ('A' for Active; 'I' for Inactive)
REMARK    1  A    between atoms: C_1  and  C_2 
REMARK    2  A    between atoms: C_2  and  C_8 
REMARK    3  A    between atoms: N_3  and  N_4 
REMARK       I    between atoms: N_4  and  C_5 
REMARK       I    between atoms: C_5  and  N_7 
REMARK    4  A    between atoms: C_8  and  C_20 
REMARK    5  A    between atoms: C_11  and  C_16 
REMARK    6  A    between atoms: C_13  and  C_14 
REMARK    7  A    between atoms: C_13  and  C_15 
REMARK    8  A    between atoms: C_16  and  O_18 
REMARK    9  A    between atoms: O_18  and  C_19 
ROOT
ATOM      1  C   LIG d   1       6.210  -2.492  -5.446  0.00  0.00     0.013 C 
ATOM      2  C   LIG d   1       6.167  -1.448  -6.581  0.00  0.00    -0.041 C 
ATOM      3  C   LIG d   1       6.270  -0.087  -5.848  0.00  0.00    -0.039 C 
ATOM      4  C   LIG d   1       5.419  -0.320  -4.574  0.00  0.00     0.062 C 
ATOM      5  H   LIG d   1       4.358  -0.207  -4.796  0.00  0.00     0.042 H 
ATOM      6  C   LIG d   1       5.735  -1.775  -4.171  0.00  0.00    -0.011 C 
ATOM      7  H   LIG d   1       7.014  -1.583  -7.255  0.00  0.00     0.027 H 
ATOM      8  H   LIG d   1       5.229  -1.519  -7.129  0.00  0.00     0.027 H 
ATOM      9  H   LIG d   1       5.844   0.712  -6.456  0.00  0.00     0.027 H 
ATOM     10  H   LIG d   1       7.305   0.134  -5.586  0.00  0.00     0.027 H 
ENDROOT
BRANCH   1  11
ATOM     11  C   LIG d   1       5.288  -3.641  -5.766  0.00  0.00     0.040 C 
ATOM     12  N   LIG d   1       5.348  -4.719  -5.080  0.00  0.00    -0.188 NA
BRANCH  11  13
ATOM     13  C   LIG d   1       4.296  -3.518  -6.894  0.00  0.00    -0.024 C 
ATOM     14  H   LIG d   1       3.408  -4.107  -6.662  0.00  0.00     0.029 H 
ATOM     15  H   LIG d   1       4.016  -2.472  -7.020  0.00  0.00     0.029 H 
ATOM     16  H   LIG d   1       4.746  -3.887  -7.815  0.00  0.00     0.029 H 
ENDBRANCH  11  13
BRANCH  12  17
ATOM     17  N   LIG d   1       4.489  -5.786  -5.378  0.00  0.00    -0.191 N 
ATOM     18  C   LIG d   1       4.991  -7.025  -5.554  0.00  0.00     0.317 C 
ATOM     19  O   LIG d   1       4.247  -7.952  -5.813  0.00  0.00    -0.251 OA
ATOM     20  N   LIG d   1       6.318  -7.237  -5.444  0.00  0.00    -0.312 N 
ATOM     21  H   LIG d   1       6.912  -6.498  -5.238  0.00  0.00     0.146 HD
ATOM     22  H   LIG d   1       6.679  -8.128  -5.570  0.00  0.00     0.146 HD
ATOM     23  H   LIG d   1       3.535  -5.634  -5.457  0.00  0.00     0.179 HD
ENDBRANCH  12  17
ENDBRANCH   1  11
BRANCH   1  24
ATOM     24  C   LIG d   1       7.639  -3.004  -5.257  0.00  0.00    -0.054 C 
ATOM     25  H   LIG d   1       8.110  -3.135  -6.231  0.00  0.00     0.024 H 
ATOM     26  H   LIG d   1       8.210  -2.284  -4.671  0.00  0.00     0.024 H 
ATOM     27  H   LIG d   1       7.616  -3.960  -4.734  0.00  0.00     0.024 H 
ENDBRANCH   1  24
BRANCH   6  28
ATOM     28  C   LIG d   1       6.839  -1.798  -3.113  0.00  0.00    -0.058 C 
ATOM     29  H   LIG d   1       7.051  -0.780  -2.785  0.00  0.00     0.024 H 
ATOM     30  H   LIG d   1       6.514  -2.394  -2.260  0.00  0.00     0.024 H 
ATOM     31  H   LIG d   1       7.741  -2.238  -3.540  0.00  0.00     0.024 H 
ENDBRANCH   6  28
BRANCH   6  32
ATOM     32  C   LIG d   1       4.474  -2.452  -3.626  0.00  0.00    -0.058 C 
ATOM     33  H   LIG d   1       4.365  -3.436  -4.081  0.00  0.00     0.024 H 
ATOM     34  H   LIG d   1       4.558  -2.559  -2.544  0.00  0.00     0.024 H 
ATOM     35  H   LIG d   1       3.603  -1.842  -3.864  0.00  0.00     0.024 H 
ENDBRANCH   6  32
BRANCH   4  36
ATOM     36  C   LIG d   1       5.834   0.632  -3.482  0.00  0.00     0.310 C 
ATOM     37  O   LIG d   1       6.755   1.394  -3.661  0.00  0.00    -0.251 OA
BRANCH  36  38
ATOM     38  O   LIG d   1       5.183   0.630  -2.308  0.00  0.00    -0.468 OA
BRANCH  38  39
ATOM     39  C   LIG d   1       3.806   1.090  -2.316  0.00  0.00     0.082 C 
ATOM     40  H   LIG d   1       3.743   2.053  -1.808  0.00  0.00     0.066 H 
ATOM     41  H   LIG d   1       3.466   1.199  -3.345  0.00  0.00     0.066 H 
ATOM     42  H   LIG d   1       3.178   0.365  -1.800  0.00  0.00     0.066 H 
ENDBRANCH  38  39
ENDBRANCH  36  38
ENDBRANCH   4  36
TORSDOF 9
ENDMDL
