MODEL 1
REMARK VINA RESULT:      -5.9      0.000      0.000
REMARK  6 active torsions:
REMARK  status: ('A' for Active; 'I' for Inactive)
REMARK    1  A    between atoms: C_1  and  C_2 
REMARK    2  A    between atoms: C_20  and  C_28 
REMARK    3  A    between atoms: C_23  and  N_65 
REMARK    4  A    between atoms: C_26  and  N_65 
REMARK    5  A    between atoms: C_27  and  N_65 
REMARK    6  A    between atoms: C_30  and  N_67 
ROOT
ATOM      1  C   LIG d   1       6.019  -0.027  -3.687  0.00  0.00    -0.020 C 
ATOM      2  H   LIG d   1       6.344   0.722  -2.928  0.00  0.00     0.085 H 
ATOM      3  C   LIG d   1       4.634   0.324  -4.183  0.00  0.00     0.013 C 
ATOM      4  H   LIG d   1       4.598   1.413  -4.399  0.00  0.00     0.036 H 
ATOM      5  C   LIG d   1       3.297  -0.058  -3.559  0.00  0.00    -0.044 C 
ATOM      6  C   LIG d   1       2.418   0.402  -4.804  0.00  0.00    -0.049 C 
ATOM      7  C   LIG d   1       3.110  -0.446  -5.886  0.00  0.00    -0.027 C 
ATOM      8  H   LIG d   1       2.767  -1.472  -5.693  0.00  0.00     0.031 H 
ATOM      9  C   LIG d   1       4.590  -0.463  -5.520  0.00  0.00     0.022 C 
ATOM     10  C   LIG d   1       4.818  -1.982  -5.627  0.00  0.00    -0.042 C 
ATOM     11  C   LIG d   1       4.238  -2.370  -7.024  0.00  0.00    -0.048 C 
ATOM     12  C   LIG d   1       4.073  -1.158  -7.935  0.00  0.00    -0.029 C 
ATOM     13  H   LIG d   1       5.012  -0.605  -7.988  0.00  0.00     0.031 H 
ATOM     14  C   LIG d   1       2.965  -0.227  -7.350  0.00  0.00    -0.030 C 
ATOM     15  H   LIG d   1       1.985  -0.606  -7.668  0.00  0.00     0.031 H 
ATOM     16  C   LIG d   1       3.166   1.129  -7.978  0.00  0.00    -0.031 C 
ATOM     17  C   LIG d   1       2.890   0.906  -9.455  0.00  0.00    -0.084 C 
ATOM     18  C   LIG d   1       3.083  -0.247 -10.025  0.00  0.00    -0.062 C 
ATOM     19  C   LIG d   1       3.680  -1.474  -9.370  0.00  0.00    -0.008 C 
ATOM     20  C   LIG d   1       2.653  -2.599  -9.449  0.00  0.00    -0.039 C 
ATOM     21  C   LIG d   1       2.235  -2.829 -10.902  0.00  0.00    -0.009 C 
ATOM     22  C   LIG d   1       1.651  -1.569 -11.528  0.00  0.00    -0.018 C 
ATOM     23  H   LIG d   1       0.750  -1.281 -10.986  0.00  0.00     0.085 H 
ATOM     24  C   LIG d   1       2.661  -0.416 -11.478  0.00  0.00     0.012 C 
ATOM     25  C   LIG d   1       5.838   0.111  -6.122  0.00  0.00    -0.025 C 
ATOM     26  H   LIG d   1       3.219  -1.126  -3.376  0.00  0.00     0.027 H 
ATOM     27  H   LIG d   1       3.082   0.531  -2.671  0.00  0.00     0.027 H 
ATOM     28  H   LIG d   1       2.527   1.467  -4.998  0.00  0.00     0.027 H 
ATOM     29  H   LIG d   1       1.374   0.119  -4.681  0.00  0.00     0.027 H 
ATOM     30  H   LIG d   1       5.876  -2.242  -5.591  0.00  0.00     0.027 H 
ATOM     31  H   LIG d   1       4.275  -2.515  -4.840  0.00  0.00     0.027 H 
ATOM     32  H   LIG d   1       4.913  -3.091  -7.494  0.00  0.00     0.027 H 
ATOM     33  H   LIG d   1       3.268  -2.855  -6.883  0.00  0.00     0.027 H 
ATOM     34  H   LIG d   1       4.188   1.469  -7.834  0.00  0.00     0.031 H 
ATOM     35  H   LIG d   1       2.463   1.848  -7.563  0.00  0.00     0.031 H 
ATOM     36  H   LIG d   1       2.492   1.722 -10.036  0.00  0.00     0.057 H 
ATOM     37  H   LIG d   1       3.086  -3.520  -9.046  0.00  0.00     0.028 H 
ATOM     38  H   LIG d   1       1.775  -2.335  -8.854  0.00  0.00     0.028 H 
ATOM     39  H   LIG d   1       3.083  -3.173 -11.491  0.00  0.00     0.032 H 
ATOM     40  H   LIG d   1       1.469  -3.614 -10.923  0.00  0.00     0.032 H 
ATOM     41  H   LIG d   1       3.518  -0.636 -12.109  0.00  0.00     0.036 H 
ATOM     42  H   LIG d   1       2.179   0.503 -11.823  0.00  0.00     0.036 H 
ATOM     43  H   LIG d   1       5.648   1.096  -6.557  0.00  0.00     0.082 H 
ATOM     44  H   LIG d   1       6.251  -0.560  -6.887  0.00  0.00     0.082 H 
ATOM     45  N   LIG d   1       6.786   0.247  -4.957  0.00  0.00     0.236 N 
ATOM     46  H   LIG d   1       7.140   1.210  -4.928  0.00  0.00     0.203 HD
ENDROOT
BRANCH  22  47
ATOM     47  N   LIG d   1       1.283  -1.865 -12.931  0.00  0.00     0.233 N 
ATOM     48  H   LIG d   1       1.427  -1.021 -13.498  0.00  0.00     0.203 HD
BRANCH  47  49
ATOM     49  C   LIG d   1       2.136  -2.950 -13.459  0.00  0.00    -0.043 C 
ATOM     50  H   LIG d   1       2.718  -2.598 -14.312  0.00  0.00     0.078 H 
ATOM     51  H   LIG d   1       2.810  -3.285 -12.672  0.00  0.00     0.078 H 
ATOM     52  H   LIG d   1       1.500  -3.779 -13.771  0.00  0.00     0.078 H 
ENDBRANCH  47  49
BRANCH  47  53
ATOM     53  C   LIG d   1      -0.140  -2.258 -13.007  0.00  0.00    -0.043 C 
ATOM     54  H   LIG d   1      -0.202  -3.291 -13.351  0.00  0.00     0.078 H 
ATOM     55  H   LIG d   1      -0.582  -2.179 -12.014  0.00  0.00     0.078 H 
ATOM     56  H   LIG d   1      -0.680  -1.612 -13.698  0.00  0.00     0.078 H 
ENDBRANCH  47  53
ENDBRANCH  22  47
BRANCH  19  57
ATOM     57  C   LIG d   1       4.950  -1.883 -10.126  0.00  0.00    -0.056 C 
ATOM     58  H   LIG d   1       5.638  -1.038 -10.163  0.00  0.00     0.024 H 
ATOM     59  H   LIG d   1       5.427  -2.718  -9.612  0.00  0.00     0.024 H 
ATOM     60  H   LIG d   1       4.688  -2.183 -11.141  0.00  0.00     0.024 H 
ENDBRANCH  19  57
BRANCH   1  61
ATOM     61  C   LIG d   1       6.168  -1.415  -3.079  0.00  0.00    -0.021 C 
ATOM     62  H   LIG d   1       5.238  -1.968  -3.205  0.00  0.00     0.028 H 
ATOM     63  H   LIG d   1       6.977  -1.945  -3.580  0.00  0.00     0.028 H 
ATOM     64  H   LIG d   1       6.396  -1.323  -2.017  0.00  0.00     0.028 H 
ENDBRANCH   1  61
BRANCH  45  65
ATOM     65  C   LIG d   1       7.952  -0.673  -5.095  0.00  0.00    -0.043 C 
ATOM     66  H   LIG d   1       8.464  -0.521  -6.046  0.00  0.00     0.078 H 
ATOM     67  H   LIG d   1       8.645  -0.484  -4.276  0.00  0.00     0.078 H 
ATOM     68  H   LIG d   1       7.592  -1.701  -5.036  0.00  0.00     0.078 H 
ENDBRANCH  45  65
TORSDOF 6
ENDMDL
MODEL 2
REMARK VINA RESULT:      -5.2      2.825      7.289
REMARK  6 active torsions:
REMARK  status: ('A' for Active; 'I' for Inactive)
REMARK    1  A    between atoms: C_1  and  C_2 
REMARK    2  A    between atoms: C_20  and  C_28 
REMARK    3  A    between atoms: C_23  and  N_65 
REMARK    4  A    between atoms: C_26  and  N_65 
REMARK    5  A    between atoms: C_27  and  N_65 
REMARK    6  A    between atoms: C_30  and  N_67 
ROOT
ATOM      1  C   LIG d   1       2.631   0.418  -8.459  0.00  0.00    -0.020 C 
ATOM      2  H   LIG d   1       1.553   0.479  -8.736  0.00  0.00     0.085 H 
ATOM      3  C   LIG d   1       2.760  -0.020  -7.017  0.00  0.00     0.013 C 
ATOM      4  H   LIG d   1       2.072  -0.874  -6.842  0.00  0.00     0.036 H 
ATOM      5  C   LIG d   1       2.720   0.857  -5.772  0.00  0.00    -0.044 C 
ATOM      6  C   LIG d   1       3.222  -0.280  -4.777  0.00  0.00    -0.049 C 
ATOM      7  C   LIG d   1       4.529  -0.645  -5.503  0.00  0.00    -0.027 C 
ATOM      8  H   LIG d   1       5.204   0.198  -5.294  0.00  0.00     0.031 H 
ATOM      9  C   LIG d   1       4.226  -0.530  -6.993  0.00  0.00     0.022 C 
ATOM     10  C   LIG d   1       5.438   0.331  -7.391  0.00  0.00    -0.042 C 
ATOM     11  C   LIG d   1       6.668  -0.416  -6.784  0.00  0.00    -0.048 C 
ATOM     12  C   LIG d   1       6.344  -1.863  -6.428  0.00  0.00    -0.029 C 
ATOM     13  H   LIG d   1       5.906  -2.367  -7.291  0.00  0.00     0.031 H 
ATOM     14  C   LIG d   1       5.316  -1.881  -5.252  0.00  0.00    -0.030 C 
ATOM     15  H   LIG d   1       5.864  -1.765  -4.308  0.00  0.00     0.031 H 
ATOM     16  C   LIG d   1       4.680  -3.248  -5.258  0.00  0.00    -0.031 C 
ATOM     17  C   LIG d   1       5.819  -4.196  -4.927  0.00  0.00    -0.084 C 
ATOM     18  C   LIG d   1       7.055  -3.917  -5.223  0.00  0.00    -0.062 C 
ATOM     19  C   LIG d   1       7.533  -2.707  -5.996  0.00  0.00    -0.008 C 
ATOM     20  C   LIG d   1       8.496  -1.928  -5.105  0.00  0.00    -0.039 C 
ATOM     21  C   LIG d   1       9.632  -2.837  -4.637  0.00  0.00    -0.009 C 
ATOM     22  C   LIG d   1       9.110  -4.048  -3.875  0.00  0.00    -0.018 C 
ATOM     23  H   LIG d   1       8.589  -3.713  -2.978  0.00  0.00     0.085 H 
ATOM     24  C   LIG d   1       8.145  -4.866  -4.744  0.00  0.00     0.012 C 
ATOM     25  C   LIG d   1       4.110  -1.502  -8.129  0.00  0.00    -0.025 C 
ATOM     26  H   LIG d   1       3.419   1.686  -5.830  0.00  0.00     0.027 H 
ATOM     27  H   LIG d   1       1.709   1.182  -5.539  0.00  0.00     0.027 H 
ATOM     28  H   LIG d   1       2.531  -1.121  -4.749  0.00  0.00     0.027 H 
ATOM     29  H   LIG d   1       3.414   0.118  -3.782  0.00  0.00     0.027 H 
ATOM     30  H   LIG d   1       5.556   0.399  -8.472  0.00  0.00     0.027 H 
ATOM     31  H   LIG d   1       5.365   1.333  -6.959  0.00  0.00     0.027 H 
ATOM     32  H   LIG d   1       7.484  -0.393  -7.512  0.00  0.00     0.027 H 
ATOM     33  H   LIG d   1       6.999   0.115  -5.888  0.00  0.00     0.027 H 
ATOM     34  H   LIG d   1       4.273  -3.476  -6.238  0.00  0.00     0.031 H 
ATOM     35  H   LIG d   1       3.902  -3.307  -4.499  0.00  0.00     0.031 H 
ATOM     36  H   LIG d   1       5.596  -5.112  -4.405  0.00  0.00     0.057 H 
ATOM     37  H   LIG d   1       8.913  -1.085  -5.665  0.00  0.00     0.028 H 
ATOM     38  H   LIG d   1       7.958  -1.540  -4.237  0.00  0.00     0.028 H 
ATOM     39  H   LIG d   1      10.230  -3.167  -5.485  0.00  0.00     0.032 H 
ATOM     40  H   LIG d   1      10.285  -2.262  -3.969  0.00  0.00     0.032 H 
ATOM     41  H   LIG d   1       8.674  -5.306  -5.585  0.00  0.00     0.036 H 
ATOM     42  H   LIG d   1       7.695  -5.658  -4.139  0.00  0.00     0.036 H 
ATOM     43  H   LIG d   1       3.652  -2.439  -7.801  0.00  0.00     0.082 H 
ATOM     44  H   LIG d   1       5.093  -1.704  -8.575  0.00  0.00     0.082 H 
ATOM     45  N   LIG d   1       3.203  -0.814  -9.118  0.00  0.00     0.236 N 
ATOM     46  H   LIG d   1       2.432  -1.448  -9.357  0.00  0.00     0.203 HD
ENDROOT
BRANCH  22  47
ATOM     47  N   LIG d   1      10.262  -4.884  -3.467  0.00  0.00     0.233 N 
ATOM     48  H   LIG d   1      10.413  -5.611  -4.175  0.00  0.00     0.203 HD
BRANCH  47  49
ATOM     49  C   LIG d   1      11.479  -4.052  -3.366  0.00  0.00    -0.043 C 
ATOM     50  H   LIG d   1      11.233  -3.059  -2.988  0.00  0.00     0.078 H 
ATOM     51  H   LIG d   1      12.183  -4.535  -2.689  0.00  0.00     0.078 H 
ATOM     52  H   LIG d   1      11.929  -3.962  -4.355  0.00  0.00     0.078 H 
ENDBRANCH  47  49
BRANCH  47  53
ATOM     53  C   LIG d   1       9.982  -5.529  -2.167  0.00  0.00    -0.043 C 
ATOM     54  H   LIG d   1       9.755  -6.582  -2.337  0.00  0.00     0.078 H 
ATOM     55  H   LIG d   1      10.865  -5.446  -1.533  0.00  0.00     0.078 H 
ATOM     56  H   LIG d   1       9.136  -5.049  -1.676  0.00  0.00     0.078 H 
ENDBRANCH  47  53
ENDBRANCH  22  47
BRANCH  19  57
ATOM     57  C   LIG d   1       8.264  -3.171  -7.261  0.00  0.00    -0.056 C 
ATOM     58  H   LIG d   1       7.802  -4.086  -7.633  0.00  0.00     0.024 H 
ATOM     59  H   LIG d   1       8.200  -2.395  -8.024  0.00  0.00     0.024 H 
ATOM     60  H   LIG d   1       9.311  -3.363  -7.025  0.00  0.00     0.024 H 
ENDBRANCH  19  57
BRANCH   1  61
ATOM     61  C   LIG d   1       3.286   1.748  -8.804  0.00  0.00    -0.021 C 
ATOM     62  H   LIG d   1       4.211   1.855  -8.238  0.00  0.00     0.028 H 
ATOM     63  H   LIG d   1       3.510   1.777  -9.871  0.00  0.00     0.028 H 
ATOM     64  H   LIG d   1       2.608   2.563  -8.552  0.00  0.00     0.028 H 
ENDBRANCH   1  61
BRANCH  45  65
ATOM     65  C   LIG d   1       3.929  -0.470 -10.374  0.00  0.00    -0.043 C 
ATOM     66  H   LIG d   1       4.815  -1.093 -10.501  0.00  0.00     0.078 H 
ATOM     67  H   LIG d   1       3.257  -0.620 -11.218  0.00  0.00     0.078 H 
ATOM     68  H   LIG d   1       4.226   0.578 -10.328  0.00  0.00     0.078 H 
ENDBRANCH  45  65
TORSDOF 6
ENDMDL
MODEL 3
REMARK VINA RESULT:      -5.2      4.431      7.155
REMARK  6 active torsions:
REMARK  status: ('A' for Active; 'I' for Inactive)
REMARK    1  A    between atoms: C_1  and  C_2 
REMARK    2  A    between atoms: C_20  and  C_28 
REMARK    3  A    between atoms: C_23  and  N_65 
REMARK    4  A    between atoms: C_26  and  N_65 
REMARK    5  A    between atoms: C_27  and  N_65 
REMARK    6  A    between atoms: C_30  and  N_67 
ROOT
ATOM      1  C   LIG d   1       3.461  -1.573  -3.450  0.00  0.00    -0.020 C 
ATOM      2  H   LIG d   1       2.417  -1.941  -3.583  0.00  0.00     0.085 H 
ATOM      3  C   LIG d   1       4.297  -1.975  -4.645  0.00  0.00     0.013 C 
ATOM      4  H   LIG d   1       3.724  -1.754  -5.570  0.00  0.00     0.036 H 
ATOM      5  C   LIG d   1       5.027  -3.294  -4.869  0.00  0.00    -0.044 C 
ATOM      6  C   LIG d   1       5.859  -2.787  -6.128  0.00  0.00    -0.049 C 
ATOM      7  C   LIG d   1       6.523  -1.563  -5.475  0.00  0.00    -0.027 C 
ATOM      8  H   LIG d   1       7.290  -1.987  -4.812  0.00  0.00     0.031 H 
ATOM      9  C   LIG d   1       5.481  -0.979  -4.527  0.00  0.00     0.022 C 
ATOM     10  C   LIG d   1       6.374  -0.855  -3.279  0.00  0.00    -0.042 C 
ATOM     11  C   LIG d   1       7.648  -0.103  -3.779  0.00  0.00    -0.048 C 
ATOM     12  C   LIG d   1       7.412   0.607  -5.108  0.00  0.00    -0.029 C 
ATOM     13  H   LIG d   1       6.528   1.243  -5.035  0.00  0.00     0.031 H 
ATOM     14  C   LIG d   1       7.182  -0.460  -6.224  0.00  0.00    -0.030 C 
ATOM     15  H   LIG d   1       8.161  -0.811  -6.579  0.00  0.00     0.031 H 
ATOM     16  C   LIG d   1       6.500   0.250  -7.365  0.00  0.00    -0.031 C 
ATOM     17  C   LIG d   1       7.528   1.256  -7.853  0.00  0.00    -0.084 C 
ATOM     18  C   LIG d   1       8.433   1.754  -7.063  0.00  0.00    -0.062 C 
ATOM     19  C   LIG d   1       8.548   1.505  -5.574  0.00  0.00    -0.008 C 
ATOM     20  C   LIG d   1       9.916   0.887  -5.303  0.00  0.00    -0.039 C 
ATOM     21  C   LIG d   1      11.020   1.789  -5.855  0.00  0.00    -0.009 C 
ATOM     22  C   LIG d   1      10.861   2.025  -7.351  0.00  0.00    -0.018 C 
ATOM     23  H   LIG d   1      10.944   1.074  -7.878  0.00  0.00     0.085 H 
ATOM     24  C   LIG d   1       9.500   2.658  -7.664  0.00  0.00     0.012 C 
ATOM     25  C   LIG d   1       4.669   0.282  -4.491  0.00  0.00    -0.025 C 
ATOM     26  H   LIG d   1       5.670  -3.555  -4.034  0.00  0.00     0.027 H 
ATOM     27  H   LIG d   1       4.342  -4.096  -5.132  0.00  0.00     0.027 H 
ATOM     28  H   LIG d   1       5.205  -2.498  -6.950  0.00  0.00     0.027 H 
ATOM     29  H   LIG d   1       6.597  -3.524  -6.441  0.00  0.00     0.027 H 
ATOM     30  H   LIG d   1       5.899  -0.272  -2.490  0.00  0.00     0.027 H 
ATOM     31  H   LIG d   1       6.653  -1.842  -2.898  0.00  0.00     0.027 H 
ATOM     32  H   LIG d   1       7.942   0.628  -3.021  0.00  0.00     0.027 H 
ATOM     33  H   LIG d   1       8.464  -0.823  -3.890  0.00  0.00     0.027 H 
ATOM     34  H   LIG d   1       5.607   0.762  -7.017  0.00  0.00     0.031 H 
ATOM     35  H   LIG d   1       6.251  -0.455  -8.156  0.00  0.00     0.031 H 
ATOM     36  H   LIG d   1       7.523   1.538  -8.893  0.00  0.00     0.057 H 
ATOM     37  H   LIG d   1      10.055   0.761  -4.225  0.00  0.00     0.028 H 
ATOM     38  H   LIG d   1       9.975  -0.095  -5.780  0.00  0.00     0.028 H 
ATOM     39  H   LIG d   1      11.028   2.743  -5.332  0.00  0.00     0.032 H 
ATOM     40  H   LIG d   1      11.987   1.301  -5.681  0.00  0.00     0.032 H 
ATOM     41  H   LIG d   1       9.443   3.659  -7.243  0.00  0.00     0.036 H 
ATOM     42  H   LIG d   1       9.363   2.708  -8.747  0.00  0.00     0.036 H 
ATOM     43  H   LIG d   1       4.361   0.582  -5.496  0.00  0.00     0.082 H 
ATOM     44  H   LIG d   1       5.229   1.098  -4.014  0.00  0.00     0.082 H 
ATOM     45  N   LIG d   1       3.453  -0.081  -3.676  0.00  0.00     0.236 N 
ATOM     46  H   LIG d   1       2.611   0.167  -4.208  0.00  0.00     0.203 HD
ENDROOT
BRANCH  22  47
ATOM     47  N   LIG d   1      11.955   2.913  -7.809  0.00  0.00     0.233 N 
ATOM     48  H   LIG d   1      12.701   2.339  -8.217  0.00  0.00     0.203 HD
BRANCH  47  49
ATOM     49  C   LIG d   1      11.450   3.847  -8.837  0.00  0.00    -0.043 C 
ATOM     50  H   LIG d   1      10.649   3.384  -9.415  0.00  0.00     0.078 H 
ATOM     51  H   LIG d   1      11.072   4.744  -8.346  0.00  0.00     0.078 H 
ATOM     52  H   LIG d   1      12.270   4.115  -9.504  0.00  0.00     0.078 H 
ENDBRANCH  47  49
BRANCH  47  53
ATOM     53  C   LIG d   1      12.502   3.671  -6.663  0.00  0.00    -0.043 C 
ATOM     54  H   LIG d   1      13.370   4.239  -6.999  0.00  0.00     0.078 H 
ATOM     55  H   LIG d   1      11.738   4.357  -6.296  0.00  0.00     0.078 H 
ATOM     56  H   LIG d   1      12.798   2.993  -5.863  0.00  0.00     0.078 H 
ENDBRANCH  47  53
ENDBRANCH  22  47
BRANCH  19  57
ATOM     57  C   LIG d   1       8.429   2.839  -4.828  0.00  0.00    -0.056 C 
ATOM     58  H   LIG d   1       7.390   3.006  -4.547  0.00  0.00     0.024 H 
ATOM     59  H   LIG d   1       9.049   2.811  -3.931  0.00  0.00     0.024 H 
ATOM     60  H   LIG d   1       8.766   3.649  -5.476  0.00  0.00     0.024 H 
ENDBRANCH  19  57
BRANCH   1  61
ATOM     61  C   LIG d   1       3.967  -2.061  -2.100  0.00  0.00    -0.021 C 
ATOM     62  H   LIG d   1       3.176  -2.612  -1.592  0.00  0.00     0.028 H 
ATOM     63  H   LIG d   1       4.826  -2.716  -2.249  0.00  0.00     0.028 H 
ATOM     64  H   LIG d   1       4.263  -1.206  -1.492  0.00  0.00     0.028 H 
ENDBRANCH   1  61
BRANCH  45  65
ATOM     65  C   LIG d   1       3.423   0.663  -2.383  0.00  0.00    -0.043 C 
ATOM     66  H   LIG d   1       4.003   1.584  -2.445  0.00  0.00     0.078 H 
ATOM     67  H   LIG d   1       2.387   0.903  -2.143  0.00  0.00     0.078 H 
ATOM     68  H   LIG d   1       3.838   0.023  -1.604  0.00  0.00     0.078 H 
ENDBRANCH  45  65
TORSDOF 6
ENDMDL
MODEL 4
REMARK VINA RESULT:      -5.2      2.099      3.651
REMARK  6 active torsions:
REMARK  status: ('A' for Active; 'I' for Inactive)
REMARK    1  A    between atoms: C_1  and  C_2 
REMARK    2  A    between atoms: C_20  and  C_28 
REMARK    3  A    between atoms: C_23  and  N_65 
REMARK    4  A    between atoms: C_26  and  N_65 
REMARK    5  A    between atoms: C_27  and  N_65 
REMARK    6  A    between atoms: C_30  and  N_67 
ROOT
ATOM      1  C   LIG d   1       5.347  -0.512  -2.705  0.00  0.00    -0.020 C 
ATOM      2  H   LIG d   1       5.308  -0.628  -1.596  0.00  0.00     0.085 H 
ATOM      3  C   LIG d   1       5.907  -1.771  -3.327  0.00  0.00     0.013 C 
ATOM      4  H   LIG d   1       5.414  -2.650  -2.858  0.00  0.00     0.036 H 
ATOM      5  C   LIG d   1       7.372  -2.133  -3.537  0.00  0.00    -0.044 C 
ATOM      6  C   LIG d   1       7.079  -3.384  -4.478  0.00  0.00    -0.049 C 
ATOM      7  C   LIG d   1       6.234  -2.664  -5.543  0.00  0.00    -0.027 C 
ATOM      8  H   LIG d   1       6.960  -2.073  -6.118  0.00  0.00     0.031 H 
ATOM      9  C   LIG d   1       5.408  -1.626  -4.789  0.00  0.00     0.022 C 
ATOM     10  C   LIG d   1       5.722  -0.414  -5.684  0.00  0.00    -0.042 C 
ATOM     11  C   LIG d   1       5.427  -0.908  -7.136  0.00  0.00    -0.048 C 
ATOM     12  C   LIG d   1       4.561  -2.163  -7.151  0.00  0.00    -0.029 C 
ATOM     13  H   LIG d   1       3.664  -2.000  -6.551  0.00  0.00     0.031 H 
ATOM     14  C   LIG d   1       5.372  -3.350  -6.542  0.00  0.00    -0.030 C 
ATOM     15  H   LIG d   1       6.012  -3.776  -7.326  0.00  0.00     0.031 H 
ATOM     16  C   LIG d   1       4.366  -4.399  -6.141  0.00  0.00    -0.031 C 
ATOM     17  C   LIG d   1       3.748  -4.850  -7.454  0.00  0.00    -0.084 C 
ATOM     18  C   LIG d   1       3.675  -4.063  -8.487  0.00  0.00    -0.062 C 
ATOM     19  C   LIG d   1       4.084  -2.606  -8.525  0.00  0.00    -0.008 C 
ATOM     20  C   LIG d   1       5.168  -2.447  -9.587  0.00  0.00    -0.039 C 
ATOM     21  C   LIG d   1       4.667  -2.973 -10.933  0.00  0.00    -0.009 C 
ATOM     22  C   LIG d   1       4.255  -4.437 -10.849  0.00  0.00    -0.018 C 
ATOM     23  H   LIG d   1       5.122  -5.041 -10.581  0.00  0.00     0.085 H 
ATOM     24  C   LIG d   1       3.156  -4.636  -9.798  0.00  0.00     0.012 C 
ATOM     25  C   LIG d   1       3.951  -1.453  -4.480  0.00  0.00    -0.025 C 
ATOM     26  H   LIG d   1       7.919  -1.351  -4.056  0.00  0.00     0.027 H 
ATOM     27  H   LIG d   1       7.853  -2.429  -2.608  0.00  0.00     0.027 H 
ATOM     28  H   LIG d   1       6.505  -4.149  -3.959  0.00  0.00     0.027 H 
ATOM     29  H   LIG d   1       7.998  -3.787  -4.901  0.00  0.00     0.027 H 
ATOM     30  H   LIG d   1       5.084   0.440  -5.458  0.00  0.00     0.027 H 
ATOM     31  H   LIG d   1       6.775  -0.127  -5.598  0.00  0.00     0.027 H 
ATOM     32  H   LIG d   1       4.919  -0.107  -7.681  0.00  0.00     0.027 H 
ATOM     33  H   LIG d   1       6.375  -1.113  -7.640  0.00  0.00     0.027 H 
ATOM     34  H   LIG d   1       3.605  -3.972  -5.494  0.00  0.00     0.031 H 
ATOM     35  H   LIG d   1       4.861  -5.232  -5.648  0.00  0.00     0.031 H 
ATOM     36  H   LIG d   1       3.388  -5.862  -7.536  0.00  0.00     0.057 H 
ATOM     37  H   LIG d   1       5.432  -1.390  -9.687  0.00  0.00     0.028 H 
ATOM     38  H   LIG d   1       6.059  -3.004  -9.287  0.00  0.00     0.028 H 
ATOM     39  H   LIG d   1       3.829  -2.376 -11.287  0.00  0.00     0.032 H 
ATOM     40  H   LIG d   1       5.479  -2.883 -11.665  0.00  0.00     0.032 H 
ATOM     41  H   LIG d   1       2.242  -4.135 -10.107  0.00  0.00     0.036 H 
ATOM     42  H   LIG d   1       2.962  -5.705  -9.674  0.00  0.00     0.036 H 
ATOM     43  H   LIG d   1       3.472  -2.416  -4.285  0.00  0.00     0.082 H 
ATOM     44  H   LIG d   1       3.433  -0.938  -5.299  0.00  0.00     0.082 H 
ATOM     45  N   LIG d   1       3.934  -0.616  -3.225  0.00  0.00     0.236 N 
ATOM     46  H   LIG d   1       3.357  -1.089  -2.519  0.00  0.00     0.203 HD
ENDROOT
BRANCH  22  47
ATOM     47  N   LIG d   1       3.772  -4.870 -12.181  0.00  0.00     0.233 N 
ATOM     48  H   LIG d   1       4.538  -5.340 -12.675  0.00  0.00     0.203 HD
BRANCH  47  49
ATOM     49  C   LIG d   1       2.647  -5.816 -12.027  0.00  0.00    -0.043 C 
ATOM     50  H   LIG d   1       1.841  -5.362 -11.450  0.00  0.00     0.078 H 
ATOM     51  H   LIG d   1       2.278  -6.090 -13.015  0.00  0.00     0.078 H 
ATOM     52  H   LIG d   1       3.004  -6.708 -11.513  0.00  0.00     0.078 H 
ENDBRANCH  47  49
BRANCH  47  53
ATOM     53  C   LIG d   1       3.340  -3.695 -12.967  0.00  0.00    -0.043 C 
ATOM     54  H   LIG d   1       3.160  -2.862 -12.287  0.00  0.00     0.078 H 
ATOM     55  H   LIG d   1       4.132  -3.427 -13.667  0.00  0.00     0.078 H 
ATOM     56  H   LIG d   1       2.427  -3.918 -13.518  0.00  0.00     0.078 H 
ENDBRANCH  47  53
ENDBRANCH  22  47
BRANCH  19  57
ATOM     57  C   LIG d   1       2.868  -1.750  -8.899  0.00  0.00    -0.056 C 
ATOM     58  H   LIG d   1       3.125  -0.695  -8.808  0.00  0.00     0.024 H 
ATOM     59  H   LIG d   1       2.573  -1.965  -9.926  0.00  0.00     0.024 H 
ATOM     60  H   LIG d   1       2.041  -1.982  -8.227  0.00  0.00     0.024 H 
ENDBRANCH  19  57
BRANCH   1  61
ATOM     61  C   LIG d   1       6.103   0.771  -3.022  0.00  0.00    -0.021 C 
ATOM     62  H   LIG d   1       6.704   0.626  -3.919  0.00  0.00     0.028 H 
ATOM     63  H   LIG d   1       5.392   1.579  -3.189  0.00  0.00     0.028 H 
ATOM     64  H   LIG d   1       6.753   1.025  -2.185  0.00  0.00     0.028 H 
ENDBRANCH   1  61
BRANCH  45  65
ATOM     65  C   LIG d   1       3.348   0.732  -3.478  0.00  0.00    -0.043 C 
ATOM     66  H   LIG d   1       2.263   0.716  -3.375  0.00  0.00     0.078 H 
ATOM     67  H   LIG d   1       3.770   1.436  -2.761  0.00  0.00     0.078 H 
ATOM     68  H   LIG d   1       3.613   1.041  -4.489  0.00  0.00     0.078 H 
ENDBRANCH  45  65
TORSDOF 6
ENDMDL
MODEL 5
REMARK VINA RESULT:      -5.2      2.130      4.259
REMARK  6 active torsions:
REMARK  status: ('A' for Active; 'I' for Inactive)
REMARK    1  A    between atoms: C_1  and  C_2 
REMARK    2  A    between atoms: C_20  and  C_28 
REMARK    3  A    between atoms: C_23  and  N_65 
REMARK    4  A    between atoms: C_26  and  N_65 
REMARK    5  A    between atoms: C_27  and  N_65 
REMARK    6  A    between atoms: C_30  and  N_67 
ROOT
ATOM      1  C   LIG d   1       4.623  -0.033  -7.230  0.00  0.00    -0.020 C 
ATOM      2  H   LIG d   1       5.492   0.389  -6.674  0.00  0.00     0.085 H 
ATOM      3  C   LIG d   1       4.424   0.733  -8.519  0.00  0.00     0.013 C 
ATOM      4  H   LIG d   1       5.412   0.864  -9.011  0.00  0.00     0.036 H 
ATOM      5  C   LIG d   1       3.642   2.025  -8.722  0.00  0.00    -0.044 C 
ATOM      6  C   LIG d   1       3.669   1.962 -10.313  0.00  0.00    -0.049 C 
ATOM      7  C   LIG d   1       3.043   0.568 -10.488  0.00  0.00    -0.027 C 
ATOM      8  H   LIG d   1       1.979   0.713 -10.254  0.00  0.00     0.031 H 
ATOM      9  C   LIG d   1       3.576  -0.277  -9.336  0.00  0.00     0.022 C 
ATOM     10  C   LIG d   1       2.232  -0.853  -8.855  0.00  0.00    -0.042 C 
ATOM     11  C   LIG d   1       1.563  -1.422 -10.146  0.00  0.00    -0.048 C 
ATOM     12  C   LIG d   1       2.567  -1.620 -11.276  0.00  0.00    -0.029 C 
ATOM     13  H   LIG d   1       3.411  -2.214 -10.921  0.00  0.00     0.031 H 
ATOM     14  C   LIG d   1       3.088  -0.225 -11.745  0.00  0.00    -0.030 C 
ATOM     15  H   LIG d   1       2.365   0.198 -12.455  0.00  0.00     0.031 H 
ATOM     16  C   LIG d   1       4.377  -0.473 -12.486  0.00  0.00    -0.031 C 
ATOM     17  C   LIG d   1       3.962  -1.278 -13.706  0.00  0.00    -0.084 C 
ATOM     18  C   LIG d   1       2.913  -2.047 -13.700  0.00  0.00    -0.062 C 
ATOM     19  C   LIG d   1       2.028  -2.333 -12.506  0.00  0.00    -0.008 C 
ATOM     20  C   LIG d   1       0.610  -1.889 -12.851  0.00  0.00    -0.039 C 
ATOM     21  C   LIG d   1       0.141  -2.576 -14.134  0.00  0.00    -0.009 C 
ATOM     22  C   LIG d   1       1.064  -2.273 -15.307  0.00  0.00    -0.018 C 
ATOM     23  H   LIG d   1       1.054  -1.201 -15.507  0.00  0.00     0.085 H 
ATOM     24  C   LIG d   1       2.499  -2.717 -15.003  0.00  0.00     0.012 C 
ATOM     25  C   LIG d   1       4.508  -1.447  -9.223  0.00  0.00    -0.025 C 
ATOM     26  H   LIG d   1       2.632   1.961  -8.328  0.00  0.00     0.027 H 
ATOM     27  H   LIG d   1       4.181   2.889  -8.341  0.00  0.00     0.027 H 
ATOM     28  H   LIG d   1       4.687   1.997 -10.697  0.00  0.00     0.027 H 
ATOM     29  H   LIG d   1       3.046   2.740 -10.752  0.00  0.00     0.027 H 
ATOM     30  H   LIG d   1       2.365  -1.659  -8.133  0.00  0.00     0.027 H 
ATOM     31  H   LIG d   1       1.602  -0.068  -8.427  0.00  0.00     0.027 H 
ATOM     32  H   LIG d   1       1.093  -2.380  -9.902  0.00  0.00     0.027 H 
ATOM     33  H   LIG d   1       0.778  -0.733 -10.471  0.00  0.00     0.027 H 
ATOM     34  H   LIG d   1       5.066  -1.048 -11.873  0.00  0.00     0.031 H 
ATOM     35  H   LIG d   1       4.830   0.469 -12.787  0.00  0.00     0.031 H 
ATOM     36  H   LIG d   1       4.540  -1.182 -14.611  0.00  0.00     0.057 H 
ATOM     37  H   LIG d   1      -0.066  -2.150 -12.032  0.00  0.00     0.028 H 
ATOM     38  H   LIG d   1       0.590  -0.805 -12.990  0.00  0.00     0.028 H 
ATOM     39  H   LIG d   1       0.076  -3.652 -13.987  0.00  0.00     0.032 H 
ATOM     40  H   LIG d   1      -0.863  -2.208 -14.378  0.00  0.00     0.032 H 
ATOM     41  H   LIG d   1       2.550  -3.800 -14.915  0.00  0.00     0.036 H 
ATOM     42  H   LIG d   1       3.161  -2.384 -15.807  0.00  0.00     0.036 H 
ATOM     43  H   LIG d   1       5.328  -1.369  -9.942  0.00  0.00     0.082 H 
ATOM     44  H   LIG d   1       3.972  -2.394  -9.370  0.00  0.00     0.082 H 
ATOM     45  N   LIG d   1       5.055  -1.353  -7.821  0.00  0.00     0.236 N 
ATOM     46  H   LIG d   1       6.081  -1.376  -7.862  0.00  0.00     0.203 HD
ENDROOT
BRANCH  22  47
ATOM     47  N   LIG d   1       0.554  -2.980 -16.505  0.00  0.00     0.233 N 
ATOM     48  H   LIG d   1       1.047  -2.627 -17.333  0.00  0.00     0.203 HD
BRANCH  47  49
ATOM     49  C   LIG d   1       0.803  -4.431 -16.379  0.00  0.00    -0.043 C 
ATOM     50  H   LIG d   1       0.238  -4.982 -17.132  0.00  0.00     0.078 H 
ATOM     51  H   LIG d   1       1.868  -4.621 -16.511  0.00  0.00     0.078 H 
ATOM     52  H   LIG d   1       0.496  -4.757 -15.385  0.00  0.00     0.078 H 
ENDBRANCH  47  49
BRANCH  47  53
ATOM     53  C   LIG d   1      -0.894  -2.727 -16.662  0.00  0.00    -0.043 C 
ATOM     54  H   LIG d   1      -1.371  -3.631 -17.041  0.00  0.00     0.078 H 
ATOM     55  H   LIG d   1      -1.316  -2.474 -15.689  0.00  0.00     0.078 H 
ATOM     56  H   LIG d   1      -1.066  -1.906 -17.358  0.00  0.00     0.078 H 
ENDBRANCH  47  53
ENDBRANCH  22  47
BRANCH  19  57
ATOM     57  C   LIG d   1       2.039  -3.839 -12.218  0.00  0.00    -0.056 C 
ATOM     58  H   LIG d   1       1.019  -4.185 -12.053  0.00  0.00     0.024 H 
ATOM     59  H   LIG d   1       2.470  -4.369 -13.068  0.00  0.00     0.024 H 
ATOM     60  H   LIG d   1       2.638  -4.034 -11.327  0.00  0.00     0.024 H 
ENDBRANCH  19  57
BRANCH   1  61
ATOM     61  C   LIG d   1       3.426  -0.060  -6.289  0.00  0.00    -0.021 C 
ATOM     62  H   LIG d   1       2.815   0.828  -6.454  0.00  0.00     0.028 H 
ATOM     63  H   LIG d   1       2.830  -0.951  -6.485  0.00  0.00     0.028 H 
ATOM     64  H   LIG d   1       3.776  -0.075  -5.257  0.00  0.00     0.028 H 
ENDBRANCH   1  61
BRANCH  45  65
ATOM     65  C   LIG d   1       4.598  -2.498  -6.981  0.00  0.00    -0.043 C 
ATOM     66  H   LIG d   1       5.085  -3.426  -7.281  0.00  0.00     0.078 H 
ATOM     67  H   LIG d   1       4.836  -2.284  -5.939  0.00  0.00     0.078 H 
ATOM     68  H   LIG d   1       3.519  -2.602  -7.093  0.00  0.00     0.078 H 
ENDBRANCH  45  65
TORSDOF 6
ENDMDL
MODEL 6
REMARK VINA RESULT:      -5.1      2.833      4.267
REMARK  6 active torsions:
REMARK  status: ('A' for Active; 'I' for Inactive)
REMARK    1  A    between atoms: C_1  and  C_2 
REMARK    2  A    between atoms: C_20  and  C_28 
REMARK    3  A    between atoms: C_23  and  N_65 
REMARK    4  A    between atoms: C_26  and  N_65 
REMARK    5  A    between atoms: C_27  and  N_65 
REMARK    6  A    between atoms: C_30  and  N_67 
ROOT
ATOM      1  C   LIG d   1       3.402  -0.534  -2.739  0.00  0.00    -0.020 C 
ATOM      2  H   LIG d   1       2.509  -0.799  -2.126  0.00  0.00     0.085 H 
ATOM      3  C   LIG d   1       3.733  -1.676  -3.673  0.00  0.00     0.013 C 
ATOM      4  H   LIG d   1       2.793  -2.031  -4.149  0.00  0.00     0.036 H 
ATOM      5  C   LIG d   1       4.581  -2.907  -3.374  0.00  0.00    -0.044 C 
ATOM      6  C   LIG d   1       4.677  -3.388  -4.889  0.00  0.00    -0.049 C 
ATOM      7  C   LIG d   1       5.257  -2.098  -5.494  0.00  0.00    -0.027 C 
ATOM      8  H   LIG d   1       6.304  -2.084  -5.160  0.00  0.00     0.031 H 
ATOM      9  C   LIG d   1       4.600  -0.949  -4.735  0.00  0.00     0.022 C 
ATOM     10  C   LIG d   1       5.877  -0.157  -4.401  0.00  0.00    -0.042 C 
ATOM     11  C   LIG d   1       6.622  -0.017  -5.766  0.00  0.00    -0.048 C 
ATOM     12  C   LIG d   1       5.703  -0.280  -6.953  0.00  0.00    -0.029 C 
ATOM     13  H   LIG d   1       4.810   0.343  -6.874  0.00  0.00     0.031 H 
ATOM     14  C   LIG d   1       5.278  -1.783  -6.947  0.00  0.00    -0.030 C 
ATOM     15  H   LIG d   1       6.072  -2.372  -7.424  0.00  0.00     0.031 H 
ATOM     16  C   LIG d   1       4.042  -1.885  -7.804  0.00  0.00    -0.031 C 
ATOM     17  C   LIG d   1       4.518  -1.516  -9.199  0.00  0.00    -0.084 C 
ATOM     18  C   LIG d   1       5.532  -0.723  -9.393  0.00  0.00    -0.062 C 
ATOM     19  C   LIG d   1       6.307   0.008  -8.319  0.00  0.00    -0.008 C 
ATOM     20  C   LIG d   1       7.765  -0.433  -8.406  0.00  0.00    -0.039 C 
ATOM     21  C   LIG d   1       8.305  -0.191  -9.815  0.00  0.00    -0.009 C 
ATOM     22  C   LIG d   1       7.490  -0.934 -10.867  0.00  0.00    -0.018 C 
ATOM     23  H   LIG d   1       7.560  -2.007 -10.686  0.00  0.00     0.085 H 
ATOM     24  C   LIG d   1       6.018  -0.508 -10.819  0.00  0.00     0.012 C 
ATOM     25  C   LIG d   1       3.614   0.126  -5.086  0.00  0.00    -0.025 C 
ATOM     26  H   LIG d   1       5.553  -2.646  -2.967  0.00  0.00     0.027 H 
ATOM     27  H   LIG d   1       4.050  -3.623  -2.754  0.00  0.00     0.027 H 
ATOM     28  H   LIG d   1       3.695  -3.618  -5.298  0.00  0.00     0.027 H 
ATOM     29  H   LIG d   1       5.364  -4.226  -4.998  0.00  0.00     0.027 H 
ATOM     30  H   LIG d   1       5.654   0.835  -4.009  0.00  0.00     0.027 H 
ATOM     31  H   LIG d   1       6.504  -0.708  -3.693  0.00  0.00     0.027 H 
ATOM     32  H   LIG d   1       7.031   0.995  -5.838  0.00  0.00     0.027 H 
ATOM     33  H   LIG d   1       7.458  -0.722  -5.788  0.00  0.00     0.027 H 
ATOM     34  H   LIG d   1       3.284  -1.183  -7.467  0.00  0.00     0.031 H 
ATOM     35  H   LIG d   1       3.653  -2.901  -7.791  0.00  0.00     0.031 H 
ATOM     36  H   LIG d   1       4.018  -1.951 -10.049  0.00  0.00     0.057 H 
ATOM     37  H   LIG d   1       8.363   0.134  -7.686  0.00  0.00     0.028 H 
ATOM     38  H   LIG d   1       7.840  -1.496  -8.163  0.00  0.00     0.028 H 
ATOM     39  H   LIG d   1       8.314   0.873 -10.042  0.00  0.00     0.032 H 
ATOM     40  H   LIG d   1       9.339  -0.554  -9.858  0.00  0.00     0.032 H 
ATOM     41  H   LIG d   1       5.916   0.534 -11.112  0.00  0.00     0.036 H 
ATOM     42  H   LIG d   1       5.436  -1.137 -11.499  0.00  0.00     0.036 H 
ATOM     43  H   LIG d   1       2.858  -0.245  -5.783  0.00  0.00     0.082 H 
ATOM     44  H   LIG d   1       4.122   1.000  -5.516  0.00  0.00     0.082 H 
ATOM     45  N   LIG d   1       2.963   0.477  -3.772  0.00  0.00     0.236 N 
ATOM     46  H   LIG d   1       1.944   0.417  -3.880  0.00  0.00     0.203 HD
ENDROOT
BRANCH  22  47
ATOM     47  N   LIG d   1       8.063  -0.643 -12.201  0.00  0.00     0.233 N 
ATOM     48  H   LIG d   1       8.230   0.366 -12.279  0.00  0.00     0.203 HD
BRANCH  47  49
ATOM     49  C   LIG d   1       9.347  -1.357 -12.367  0.00  0.00    -0.043 C 
ATOM     50  H   LIG d   1       9.393  -2.219 -11.701  0.00  0.00     0.078 H 
ATOM     51  H   LIG d   1       9.436  -1.690 -13.400  0.00  0.00     0.078 H 
ATOM     52  H   LIG d   1      10.163  -0.674 -12.133  0.00  0.00     0.078 H 
ENDBRANCH  47  49
BRANCH  47  53
ATOM     53  C   LIG d   1       7.116  -1.057 -13.258  0.00  0.00    -0.043 C 
ATOM     54  H   LIG d   1       6.099  -0.968 -12.875  0.00  0.00     0.078 H 
ATOM     55  H   LIG d   1       7.237  -0.399 -14.119  0.00  0.00     0.078 H 
ATOM     56  H   LIG d   1       7.303  -2.087 -13.558  0.00  0.00     0.078 H 
ENDBRANCH  47  53
ENDBRANCH  22  47
BRANCH  19  57
ATOM     57  C   LIG d   1       6.211   1.518  -8.566  0.00  0.00    -0.056 C 
ATOM     58  H   LIG d   1       5.578   1.705  -9.433  0.00  0.00     0.024 H 
ATOM     59  H   LIG d   1       5.780   2.004  -7.690  0.00  0.00     0.024 H 
ATOM     60  H   LIG d   1       7.208   1.920  -8.750  0.00  0.00     0.024 H 
ENDBRANCH  19  57
BRANCH   1  61
ATOM     61  C   LIG d   1       4.519  -0.111  -1.795  0.00  0.00    -0.021 C 
ATOM     62  H   LIG d   1       5.119   0.666  -2.267  0.00  0.00     0.028 H 
ATOM     63  H   LIG d   1       4.086   0.275  -0.872  0.00  0.00     0.028 H 
ATOM     64  H   LIG d   1       5.148  -0.972  -1.570  0.00  0.00     0.028 H 
ENDBRANCH   1  61
BRANCH  45  65
ATOM     65  C   LIG d   1       3.305   1.866  -3.350  0.00  0.00    -0.043 C 
ATOM     66  H   LIG d   1       3.587   1.900  -2.297  0.00  0.00     0.078 H 
ATOM     67  H   LIG d   1       4.135   2.222  -3.959  0.00  0.00     0.078 H 
ATOM     68  H   LIG d   1       2.435   2.503  -3.513  0.00  0.00     0.078 H 
ENDBRANCH  45  65
TORSDOF 6
ENDMDL
MODEL 7
REMARK VINA RESULT:      -5.1      1.462      7.376
REMARK  6 active torsions:
REMARK  status: ('A' for Active; 'I' for Inactive)
REMARK    1  A    between atoms: C_1  and  C_2 
REMARK    2  A    between atoms: C_20  and  C_28 
REMARK    3  A    between atoms: C_23  and  N_65 
REMARK    4  A    between atoms: C_26  and  N_65 
REMARK    5  A    between atoms: C_27  and  N_65 
REMARK    6  A    between atoms: C_30  and  N_67 
ROOT
ATOM      1  C   LIG d   1       2.772  -3.124 -13.740  0.00  0.00    -0.020 C 
ATOM      2  H   LIG d   1       3.035  -3.881 -14.515  0.00  0.00     0.085 H 
ATOM      3  C   LIG d   1       2.610  -3.805 -12.399  0.00  0.00     0.013 C 
ATOM      4  H   LIG d   1       3.459  -4.506 -12.252  0.00  0.00     0.036 H 
ATOM      5  C   LIG d   1       1.363  -4.481 -11.843  0.00  0.00    -0.044 C 
ATOM      6  C   LIG d   1       1.927  -4.629 -10.361  0.00  0.00    -0.049 C 
ATOM      7  C   LIG d   1       2.262  -3.149 -10.105  0.00  0.00    -0.027 C 
ATOM      8  H   LIG d   1       1.285  -2.667  -9.963  0.00  0.00     0.031 H 
ATOM      9  C   LIG d   1       2.769  -2.600 -11.434  0.00  0.00     0.022 C 
ATOM     10  C   LIG d   1       1.891  -1.336 -11.491  0.00  0.00    -0.042 C 
ATOM     11  C   LIG d   1       2.098  -0.651 -10.103  0.00  0.00    -0.048 C 
ATOM     12  C   LIG d   1       3.344  -1.162  -9.389  0.00  0.00    -0.029 C 
ATOM     13  H   LIG d   1       4.208  -1.082 -10.050  0.00  0.00     0.031 H 
ATOM     14  C   LIG d   1       3.133  -2.660  -9.004  0.00  0.00    -0.030 C 
ATOM     15  H   LIG d   1       2.569  -2.704  -8.063  0.00  0.00     0.031 H 
ATOM     16  C   LIG d   1       4.503  -3.238  -8.753  0.00  0.00    -0.031 C 
ATOM     17  C   LIG d   1       5.012  -2.486  -7.535  0.00  0.00    -0.084 C 
ATOM     18  C   LIG d   1       4.620  -1.277  -7.258  0.00  0.00    -0.062 C 
ATOM     19  C   LIG d   1       3.711  -0.420  -8.113  0.00  0.00    -0.008 C 
ATOM     20  C   LIG d   1       2.481  -0.062  -7.283  0.00  0.00    -0.039 C 
ATOM     21  C   LIG d   1       2.905   0.614  -5.979  0.00  0.00    -0.009 C 
ATOM     22  C   LIG d   1       3.828  -0.275  -5.155  0.00  0.00    -0.018 C 
ATOM     23  H   LIG d   1       3.297  -1.185  -4.876  0.00  0.00     0.085 H 
ATOM     24  C   LIG d   1       5.084  -0.646  -5.953  0.00  0.00     0.012 C 
ATOM     25  C   LIG d   1       4.094  -2.117 -11.945  0.00  0.00    -0.025 C 
ATOM     26  H   LIG d   1       0.492  -3.834 -11.886  0.00  0.00     0.027 H 
ATOM     27  H   LIG d   1       1.186  -5.447 -12.308  0.00  0.00     0.027 H 
ATOM     28  H   LIG d   1       2.818  -5.253 -10.333  0.00  0.00     0.027 H 
ATOM     29  H   LIG d   1       1.160  -4.990  -9.678  0.00  0.00     0.027 H 
ATOM     30  H   LIG d   1       2.205  -0.653 -12.280  0.00  0.00     0.027 H 
ATOM     31  H   LIG d   1       0.837  -1.599 -11.621  0.00  0.00     0.027 H 
ATOM     32  H   LIG d   1       2.181   0.429 -10.257  0.00  0.00     0.027 H 
ATOM     33  H   LIG d   1       1.218  -0.838  -9.481  0.00  0.00     0.027 H 
ATOM     34  H   LIG d   1       5.154  -3.060  -9.604  0.00  0.00     0.031 H 
ATOM     35  H   LIG d   1       4.434  -4.303  -8.541  0.00  0.00     0.031 H 
ATOM     36  H   LIG d   1       5.695  -2.984  -6.867  0.00  0.00     0.057 H 
ATOM     37  H   LIG d   1       1.839   0.616  -7.852  0.00  0.00     0.028 H 
ATOM     38  H   LIG d   1       1.917  -0.970  -7.057  0.00  0.00     0.028 H 
ATOM     39  H   LIG d   1       3.397   1.563  -6.185  0.00  0.00     0.032 H 
ATOM     40  H   LIG d   1       2.005   0.822  -5.388  0.00  0.00     0.032 H 
ATOM     41  H   LIG d   1       5.688   0.237  -6.141  0.00  0.00     0.036 H 
ATOM     42  H   LIG d   1       5.670  -1.376  -5.387  0.00  0.00     0.036 H 
ATOM     43  H   LIG d   1       4.916  -2.709 -11.533  0.00  0.00     0.082 H 
ATOM     44  H   LIG d   1       4.245  -1.056 -11.708  0.00  0.00     0.082 H 
ATOM     45  N   LIG d   1       4.018  -2.328 -13.437  0.00  0.00     0.236 N 
ATOM     46  H   LIG d   1       4.837  -2.869 -13.738  0.00  0.00     0.203 HD
ENDROOT
BRANCH  22  47
ATOM     47  N   LIG d   1       4.203   0.449  -3.919  0.00  0.00     0.233 N 
ATOM     48  H   LIG d   1       4.236   1.455  -4.121  0.00  0.00     0.203 HD
BRANCH  47  49
ATOM     49  C   LIG d   1       3.198   0.203  -2.864  0.00  0.00    -0.043 C 
ATOM     50  H   LIG d   1       2.465   1.011  -2.839  0.00  0.00     0.078 H 
ATOM     51  H   LIG d   1       2.693  -0.740  -3.070  0.00  0.00     0.078 H 
ATOM     52  H   LIG d   1       3.704   0.143  -1.901  0.00  0.00     0.078 H 
ENDBRANCH  47  49
BRANCH  47  53
ATOM     53  C   LIG d   1       5.536   0.006  -3.460  0.00  0.00    -0.043 C 
ATOM     54  H   LIG d   1       5.916  -0.745  -4.153  0.00  0.00     0.078 H 
ATOM     55  H   LIG d   1       6.210   0.863  -3.449  0.00  0.00     0.078 H 
ATOM     56  H   LIG d   1       5.474  -0.421  -2.459  0.00  0.00     0.078 H 
ENDBRANCH  47  53
ENDBRANCH  22  47
BRANCH  19  57
ATOM     57  C   LIG d   1       4.452   0.862  -8.512  0.00  0.00    -0.056 C 
ATOM     58  H   LIG d   1       3.733   1.608  -8.847  0.00  0.00     0.024 H 
ATOM     59  H   LIG d   1       5.002   1.247  -7.653  0.00  0.00     0.024 H 
ATOM     60  H   LIG d   1       5.150   0.640  -9.320  0.00  0.00     0.024 H 
ENDBRANCH  19  57
BRANCH   1  61
ATOM     61  C   LIG d   1       1.560  -2.344 -14.232  0.00  0.00    -0.021 C 
ATOM     62  H   LIG d   1       1.867  -1.654 -15.018  0.00  0.00     0.028 H 
ATOM     63  H   LIG d   1       0.819  -3.038 -14.628  0.00  0.00     0.028 H 
ATOM     64  H   LIG d   1       1.128  -1.783 -13.403  0.00  0.00     0.028 H 
ENDBRANCH   1  61
BRANCH  45  65
ATOM     65  C   LIG d   1       4.023  -1.029 -14.170  0.00  0.00    -0.043 C 
ATOM     66  H   LIG d   1       3.438  -1.092 -15.088  0.00  0.00     0.078 H 
ATOM     67  H   LIG d   1       3.600  -0.261 -13.523  0.00  0.00     0.078 H 
ATOM     68  H   LIG d   1       5.054  -0.771 -14.413  0.00  0.00     0.078 H 
ENDBRANCH  45  65
TORSDOF 6
ENDMDL
MODEL 8
REMARK VINA RESULT:      -5.1      1.551      7.818
REMARK  6 active torsions:
REMARK  status: ('A' for Active; 'I' for Inactive)
REMARK    1  A    between atoms: C_1  and  C_2 
REMARK    2  A    between atoms: C_20  and  C_28 
REMARK    3  A    between atoms: C_23  and  N_65 
REMARK    4  A    between atoms: C_26  and  N_65 
REMARK    5  A    between atoms: C_27  and  N_65 
REMARK    6  A    between atoms: C_30  and  N_67 
ROOT
ATOM      1  C   LIG d   1       0.605  -3.725 -14.407  0.00  0.00    -0.020 C 
ATOM      2  H   LIG d   1       0.515  -4.584 -15.111  0.00  0.00     0.085 H 
ATOM      3  C   LIG d   1       0.515  -4.225 -12.983  0.00  0.00     0.013 C 
ATOM      4  H   LIG d   1       1.162  -5.122 -12.879  0.00  0.00     0.036 H 
ATOM      5  C   LIG d   1      -0.744  -4.478 -12.162  0.00  0.00    -0.044 C 
ATOM      6  C   LIG d   1       0.020  -4.661 -10.777  0.00  0.00    -0.049 C 
ATOM      7  C   LIG d   1       0.773  -3.319 -10.763  0.00  0.00    -0.027 C 
ATOM      8  H   LIG d   1      -0.000  -2.572 -10.535  0.00  0.00     0.031 H 
ATOM      9  C   LIG d   1       1.158  -3.041 -12.212  0.00  0.00     0.022 C 
ATOM     10  C   LIG d   1       0.648  -1.590 -12.293  0.00  0.00    -0.042 C 
ATOM     11  C   LIG d   1       1.275  -0.883 -11.049  0.00  0.00    -0.048 C 
ATOM     12  C   LIG d   1       2.451  -1.665 -10.474  0.00  0.00    -0.029 C 
ATOM     13  H   LIG d   1       3.171  -1.884 -11.265  0.00  0.00     0.031 H 
ATOM     14  C   LIG d   1       1.926  -3.009  -9.877  0.00  0.00    -0.030 C 
ATOM     15  H   LIG d   1       1.550  -2.818  -8.863  0.00  0.00     0.031 H 
ATOM     16  C   LIG d   1       3.118  -3.926  -9.767  0.00  0.00    -0.031 C 
ATOM     17  C   LIG d   1       4.019  -3.254  -8.745  0.00  0.00    -0.084 C 
ATOM     18  C   LIG d   1       4.015  -1.965  -8.566  0.00  0.00    -0.062 C 
ATOM     19  C   LIG d   1       3.224  -0.958  -9.373  0.00  0.00    -0.008 C 
ATOM     20  C   LIG d   1       2.304  -0.205  -8.417  0.00  0.00    -0.039 C 
ATOM     21  C   LIG d   1       3.119   0.426  -7.288  0.00  0.00    -0.009 C 
ATOM     22  C   LIG d   1       3.909  -0.619  -6.510  0.00  0.00    -0.018 C 
ATOM     23  H   LIG d   1       3.217  -1.319  -6.041  0.00  0.00     0.085 H 
ATOM     24  C   LIG d   1       4.857  -1.390  -7.436  0.00  0.00     0.012 C 
ATOM     25  C   LIG d   1       2.448  -2.991 -12.975  0.00  0.00    -0.025 C 
ATOM     26  H   LIG d   1      -1.407  -3.618 -12.152  0.00  0.00     0.027 H 
ATOM     27  H   LIG d   1      -1.251  -5.389 -12.470  0.00  0.00     0.027 H 
ATOM     28  H   LIG d   1       0.705  -5.506 -10.807  0.00  0.00     0.027 H 
ATOM     29  H   LIG d   1      -0.679  -4.737  -9.945  0.00  0.00     0.027 H 
ATOM     30  H   LIG d   1       0.982  -1.087 -13.199  0.00  0.00     0.027 H 
ATOM     31  H   LIG d   1      -0.444  -1.555 -12.226  0.00  0.00     0.027 H 
ATOM     32  H   LIG d   1       1.611   0.114 -11.348  0.00  0.00     0.027 H 
ATOM     33  H   LIG d   1       0.505  -0.766 -10.282  0.00  0.00     0.027 H 
ATOM     34  H   LIG d   1       3.628  -4.007 -10.723  0.00  0.00     0.031 H 
ATOM     35  H   LIG d   1       2.810  -4.909  -9.416  0.00  0.00     0.031 H 
ATOM     36  H   LIG d   1       4.656  -3.870  -8.132  0.00  0.00     0.057 H 
ATOM     37  H   LIG d   1       1.771   0.579  -8.962  0.00  0.00     0.028 H 
ATOM     38  H   LIG d   1       1.571  -0.898  -7.995  0.00  0.00     0.028 H 
ATOM     39  H   LIG d   1       3.797   1.179  -7.684  0.00  0.00     0.032 H 
ATOM     40  H   LIG d   1       2.428   0.924  -6.598  0.00  0.00     0.032 H 
ATOM     41  H   LIG d   1       5.628  -0.729  -7.823  0.00  0.00     0.036 H 
ATOM     42  H   LIG d   1       5.322  -2.208  -6.879  0.00  0.00     0.036 H 
ATOM     43  H   LIG d   1       3.145  -3.756 -12.622  0.00  0.00     0.082 H 
ATOM     44  H   LIG d   1       2.913  -2.000 -12.899  0.00  0.00     0.082 H 
ATOM     45  N   LIG d   1       2.050  -3.289 -14.399  0.00  0.00     0.236 N 
ATOM     46  H   LIG d   1       2.629  -4.060 -14.751  0.00  0.00     0.203 HD
ENDROOT
BRANCH  22  47
ATOM     47  N   LIG d   1       4.679   0.066  -5.446  0.00  0.00     0.233 N 
ATOM     48  H   LIG d   1       4.655   1.078  -5.617  0.00  0.00     0.203 HD
BRANCH  47  49
ATOM     49  C   LIG d   1       4.075  -0.212  -4.126  0.00  0.00    -0.043 C 
ATOM     50  H   LIG d   1       3.089  -0.663  -4.244  0.00  0.00     0.078 H 
ATOM     51  H   LIG d   1       4.724  -0.893  -3.576  0.00  0.00     0.078 H 
ATOM     52  H   LIG d   1       3.981   0.724  -3.576  0.00  0.00     0.078 H 
ENDBRANCH  47  49
BRANCH  47  53
ATOM     53  C   LIG d   1       6.084  -0.393  -5.465  0.00  0.00    -0.043 C 
ATOM     54  H   LIG d   1       6.280  -0.890  -6.416  0.00  0.00     0.078 H 
ATOM     55  H   LIG d   1       6.740   0.472  -5.366  0.00  0.00     0.078 H 
ATOM     56  H   LIG d   1       6.271  -1.087  -4.647  0.00  0.00     0.078 H 
ENDBRANCH  47  53
ENDBRANCH  22  47
BRANCH  19  57
ATOM     57  C   LIG d   1       4.192   0.028 -10.038  0.00  0.00    -0.056 C 
ATOM     58  H   LIG d   1       4.659   0.650  -9.274  0.00  0.00     0.024 H 
ATOM     59  H   LIG d   1       4.962  -0.524 -10.577  0.00  0.00     0.024 H 
ATOM     60  H   LIG d   1       3.643   0.661 -10.736  0.00  0.00     0.024 H 
ENDBRANCH  19  57
BRANCH   1  61
ATOM     61  C   LIG d   1      -0.427  -2.677 -14.802  0.00  0.00    -0.021 C 
ATOM     62  H   LIG d   1       0.034  -1.690 -14.787  0.00  0.00     0.028 H 
ATOM     63  H   LIG d   1      -0.794  -2.891 -15.806  0.00  0.00     0.028 H 
ATOM     64  H   LIG d   1      -1.258  -2.703 -14.098  0.00  0.00     0.028 H 
ENDBRANCH   1  61
BRANCH  45  65
ATOM     65  C   LIG d   1       2.264  -2.106 -15.282  0.00  0.00    -0.043 C 
ATOM     66  H   LIG d   1       2.170  -2.377 -16.334  0.00  0.00     0.078 H 
ATOM     67  H   LIG d   1       1.522  -1.347 -15.035  0.00  0.00     0.078 H 
ATOM     68  H   LIG d   1       3.263  -1.711 -15.097  0.00  0.00     0.078 H 
ENDBRANCH  45  65
TORSDOF 6
ENDMDL
MODEL 9
REMARK VINA RESULT:      -5.0      9.096     12.087
REMARK  6 active torsions:
REMARK  status: ('A' for Active; 'I' for Inactive)
REMARK    1  A    between atoms: C_1  and  C_2 
REMARK    2  A    between atoms: C_20  and  C_28 
REMARK    3  A    between atoms: C_23  and  N_65 
REMARK    4  A    between atoms: C_26  and  N_65 
REMARK    5  A    between atoms: C_27  and  N_65 
REMARK    6  A    between atoms: C_30  and  N_67 
ROOT
ATOM      1  C   LIG d   1      12.211  10.381   0.658  0.00  0.00    -0.020 C 
ATOM      2  H   LIG d   1      12.437  11.463   0.805  0.00  0.00     0.085 H 
ATOM      3  C   LIG d   1      10.976  10.233  -0.203  0.00  0.00     0.013 C 
ATOM      4  H   LIG d   1      11.060  10.925  -1.068  0.00  0.00     0.036 H 
ATOM      5  C   LIG d   1       9.521  10.246   0.248  0.00  0.00    -0.044 C 
ATOM      6  C   LIG d   1       8.933   9.738  -1.142  0.00  0.00    -0.049 C 
ATOM      7  C   LIG d   1       9.759   8.446  -1.270  0.00  0.00    -0.027 C 
ATOM      8  H   LIG d   1       9.313   7.761  -0.535  0.00  0.00     0.031 H 
ATOM      9  C   LIG d   1      11.136   8.772  -0.701  0.00  0.00     0.022 C 
ATOM     10  C   LIG d   1      11.272   7.558   0.237  0.00  0.00    -0.042 C 
ATOM     11  C   LIG d   1      10.946   6.326  -0.665  0.00  0.00    -0.048 C 
ATOM     12  C   LIG d   1      11.046   6.657  -2.150  0.00  0.00    -0.029 C 
ATOM     13  H   LIG d   1      12.014   7.112  -2.363  0.00  0.00     0.031 H 
ATOM     14  C   LIG d   1       9.915   7.666  -2.526  0.00  0.00    -0.030 C 
ATOM     15  H   LIG d   1       8.990   7.102  -2.708  0.00  0.00     0.031 H 
ATOM     16  C   LIG d   1      10.329   8.314  -3.822  0.00  0.00    -0.031 C 
ATOM     17  C   LIG d   1      10.327   7.178  -4.831  0.00  0.00    -0.084 C 
ATOM     18  C   LIG d   1      10.544   5.944  -4.478  0.00  0.00    -0.062 C 
ATOM     19  C   LIG d   1      10.915   5.468  -3.090  0.00  0.00    -0.008 C 
ATOM     20  C   LIG d   1       9.846   4.484  -2.626  0.00  0.00    -0.039 C 
ATOM     21  C   LIG d   1       9.700   3.349  -3.639  0.00  0.00    -0.009 C 
ATOM     22  C   LIG d   1       9.339   3.870  -5.024  0.00  0.00    -0.018 C 
ATOM     23  H   LIG d   1       8.373   4.373  -4.980  0.00  0.00     0.085 H 
ATOM     24  C   LIG d   1      10.399   4.855  -5.532  0.00  0.00     0.012 C 
ATOM     25  C   LIG d   1      12.514   8.914  -1.276  0.00  0.00    -0.025 C 
ATOM     26  H   LIG d   1       9.333   9.541   1.053  0.00  0.00     0.027 H 
ATOM     27  H   LIG d   1       9.181  11.250   0.489  0.00  0.00     0.027 H 
ATOM     28  H   LIG d   1       9.153  10.436  -1.948  0.00  0.00     0.027 H 
ATOM     29  H   LIG d   1       7.867   9.527  -1.070  0.00  0.00     0.027 H 
ATOM     30  H   LIG d   1      12.281   7.457   0.633  0.00  0.00     0.027 H 
ATOM     31  H   LIG d   1      10.551   7.616   1.058  0.00  0.00     0.027 H 
ATOM     32  H   LIG d   1      11.646   5.521  -0.422  0.00  0.00     0.027 H 
ATOM     33  H   LIG d   1       9.935   5.976  -0.437  0.00  0.00     0.027 H 
ATOM     34  H   LIG d   1      11.325   8.739  -3.736  0.00  0.00     0.031 H 
ATOM     35  H   LIG d   1       9.612   9.080  -4.110  0.00  0.00     0.031 H 
ATOM     36  H   LIG d   1      10.107   7.401  -5.862  0.00  0.00     0.057 H 
ATOM     37  H   LIG d   1      10.126   4.069  -1.654  0.00  0.00     0.028 H 
ATOM     38  H   LIG d   1       8.890   5.005  -2.523  0.00  0.00     0.028 H 
ATOM     39  H   LIG d   1      10.619   2.768  -3.694  0.00  0.00     0.032 H 
ATOM     40  H   LIG d   1       8.899   2.681  -3.300  0.00  0.00     0.032 H 
ATOM     41  H   LIG d   1      11.344   4.343  -5.694  0.00  0.00     0.036 H 
ATOM     42  H   LIG d   1      10.059   5.302  -6.470  0.00  0.00     0.036 H 
ATOM     43  H   LIG d   1      12.482   9.375  -2.267  0.00  0.00     0.082 H 
ATOM     44  H   LIG d   1      13.018   7.940  -1.335  0.00  0.00     0.082 H 
ATOM     45  N   LIG d   1      13.227   9.831  -0.314  0.00  0.00     0.236 N 
ATOM     46  H   LIG d   1      13.636  10.611  -0.841  0.00  0.00     0.203 HD
ENDROOT
BRANCH  22  47
ATOM     47  N   LIG d   1       9.228   2.719  -5.949  0.00  0.00     0.233 N 
ATOM     48  H   LIG d   1       8.947   3.061  -6.875  0.00  0.00     0.203 HD
BRANCH  47  49
ATOM     49  C   LIG d   1      10.533   2.036  -6.065  0.00  0.00    -0.043 C 
ATOM     50  H   LIG d   1      11.349   2.756  -5.989  0.00  0.00     0.078 H 
ATOM     51  H   LIG d   1      10.621   1.301  -5.266  0.00  0.00     0.078 H 
ATOM     52  H   LIG d   1      10.584   1.532  -7.030  0.00  0.00     0.078 H 
ENDBRANCH  47  49
BRANCH  47  53
ATOM     53  C   LIG d   1       8.205   1.772  -5.455  0.00  0.00    -0.043 C 
ATOM     54  H   LIG d   1       7.472   1.602  -6.244  0.00  0.00     0.078 H 
ATOM     55  H   LIG d   1       8.690   0.829  -5.201  0.00  0.00     0.078 H 
ATOM     56  H   LIG d   1       7.705   2.173  -4.574  0.00  0.00     0.078 H 
ENDBRANCH  47  53
ENDBRANCH  22  47
BRANCH  19  57
ATOM     57  C   LIG d   1      12.275   4.762  -3.145  0.00  0.00    -0.056 C 
ATOM     58  H   LIG d   1      12.443   4.375  -4.150  0.00  0.00     0.024 H 
ATOM     59  H   LIG d   1      13.064   5.470  -2.892  0.00  0.00     0.024 H 
ATOM     60  H   LIG d   1      12.284   3.937  -2.432  0.00  0.00     0.024 H 
ENDBRANCH  19  57
BRANCH   1  61
ATOM     61  C   LIG d   1      12.142   9.720   2.027  0.00  0.00    -0.021 C 
ATOM     62  H   LIG d   1      11.276   9.059   2.068  0.00  0.00     0.028 H 
ATOM     63  H   LIG d   1      13.049   9.140   2.196  0.00  0.00     0.028 H 
ATOM     64  H   LIG d   1      12.051  10.487   2.796  0.00  0.00     0.028 H 
ENDBRANCH   1  61
BRANCH  45  65
ATOM     65  C   LIG d   1      14.329   9.121   0.397  0.00  0.00    -0.043 C 
ATOM     66  H   LIG d   1      14.716   9.720   1.221  0.00  0.00     0.078 H 
ATOM     67  H   LIG d   1      13.944   8.178   0.785  0.00  0.00     0.078 H 
ATOM     68  H   LIG d   1      15.130   8.921  -0.315  0.00  0.00     0.078 H 
ENDBRANCH  45  65
TORSDOF 6
ENDMDL
