MODEL 1
REMARK VINA RESULT:      -6.7      0.000      0.000
REMARK  7 active torsions:
REMARK  status: ('A' for Active; 'I' for Inactive)
REMARK    1  A    between atoms: C_1  and  C_2 
REMARK    2  A    between atoms: CA_3  and  C_26 
REMARK    3  A    between atoms: CA_7  and  N_11 
REMARK       I    between atoms: N_11  and  C_12 
REMARK    4  A    between atoms: C_12  and  CA_14 
REMARK    5  A    between atoms: CA_14  and  C_16 
REMARK    6  A    between atoms: CA_14  and  N_23 
REMARK    7  A    between atoms: C_19  and  O_22 
ROOT
ATOM      1  N   LIG d   1       6.408  -1.466  -6.140  0.00  0.00    -0.300 N 
ATOM      2  C   LIG d   1       7.333  -1.998  -5.318  0.00  0.00     0.235 C 
ATOM      3  O   LIG d   1       8.474  -2.146  -5.703  0.00  0.00    -0.274 OA
ATOM      4  H   LIG d   1       5.496  -1.347  -5.833  0.00  0.00     0.150 HD
ENDROOT
BRANCH   1   5
ATOM      5  CA  LIG d   1       6.781  -1.066  -7.500  0.00  0.00     0.128 C 
ATOM      6  C   LIG d   1       5.844  -1.581  -8.572  0.00  0.00     0.104 C 
ATOM      7  N   LIG d   1       5.219  -0.233  -8.538  0.00  0.00    -0.253 N 
ATOM      8  H   LIG d   1       6.322  -1.856  -9.513  0.00  0.00     0.064 H 
ATOM      9  S   LIG d   1       4.560  -2.752  -8.014  0.00  0.00    -0.131 SA
ATOM     10  CA  LIG d   1       3.932   0.115  -8.983  0.00  0.00     0.060 C 
ATOM     11  C   LIG d   1       6.263   0.286  -7.909  0.00  0.00     0.244 C 
ATOM     12  C   LIG d   1       3.014  -0.817  -9.194  0.00  0.00    -0.040 C 
ATOM     13  C   LIG d   1       3.157  -2.299  -9.059  0.00  0.00     0.018 C 
ATOM     14  H   LIG d   1       2.242  -2.706  -8.629  0.00  0.00     0.042 H 
ATOM     15  H   LIG d   1       3.307  -2.733 -10.048  0.00  0.00     0.042 H 
ATOM     16  O   LIG d   1       6.655   1.420  -7.732  0.00  0.00    -0.273 OA
ATOM     17  HA  LIG d   1       7.837  -1.224  -7.720  0.00  0.00     0.062 H 
BRANCH  10  18
ATOM     18  C   LIG d   1       3.601   1.529  -9.216  0.00  0.00     0.086 C 
ATOM     19  O   LIG d   1       3.206   2.226  -8.290  0.00  0.00    -0.543 OA
ATOM     20  OXT LIG d   1       3.721   2.010 -10.334  0.00  0.00    -0.543 OA
ENDBRANCH  10  18
BRANCH  12  21
ATOM     21  C   LIG d   1       1.656  -0.321  -9.618  0.00  0.00    -0.041 C 
ATOM     22  H   LIG d   1       1.756   0.656 -10.089  0.00  0.00     0.028 H 
ATOM     23  H   LIG d   1       1.218  -1.024 -10.327  0.00  0.00     0.028 H 
ATOM     24  H   LIG d   1       1.011  -0.239  -8.743  0.00  0.00     0.028 H 
ENDBRANCH  12  21
ENDBRANCH   1   5
BRANCH   2  25
ATOM     25  CA  LIG d   1       6.951  -2.409  -3.920  0.00  0.00     0.108 C 
ATOM     26  HA  LIG d   1       6.461  -3.382  -3.948  0.00  0.00     0.060 H 
BRANCH  25  27
ATOM     27  C   LIG d   1       6.007  -1.388  -3.336  0.00  0.00    -0.022 A 
ATOM     28  C   LIG d   1       6.385  -0.060  -3.265  0.00  0.00    -0.053 A 
ATOM     29  C   LIG d   1       5.520   0.878  -2.736  0.00  0.00    -0.020 A 
ATOM     30  H   LIG d   1       7.355   0.244  -3.629  0.00  0.00     0.062 H 
ATOM     31  C   LIG d   1       4.276   0.485  -2.264  0.00  0.00     0.117 A 
ATOM     32  H   LIG d   1       5.814   1.916  -2.686  0.00  0.00     0.065 H 
ATOM     33  C   LIG d   1       3.901  -0.850  -2.331  0.00  0.00    -0.020 A 
ATOM     34  C   LIG d   1       4.768  -1.783  -2.866  0.00  0.00    -0.053 A 
ATOM     35  H   LIG d   1       2.933  -1.158  -1.965  0.00  0.00     0.065 H 
ATOM     36  H   LIG d   1       4.477  -2.822  -2.918  0.00  0.00     0.062 H 
BRANCH  31  37
ATOM     37  O   LIG d   1       3.425   1.405  -1.739  0.00  0.00    -0.507 OA
ATOM     38  H   LIG d   1       2.805   1.778  -2.380  0.00  0.00     0.292 HD
ENDBRANCH  31  37
ENDBRANCH  25  27
BRANCH  25  39
ATOM     39  N   LIG d   1       8.158  -2.491  -3.086  0.00  0.00    -0.316 N 
ATOM     40  H1  LIG d   1       7.984  -2.129  -2.161  0.00  0.00     0.119 HD
ATOM     41  H2  LIG d   1       8.506  -3.437  -3.046  0.00  0.00     0.119 HD
ENDBRANCH  25  39
ENDBRANCH   2  25
TORSDOF 7
ENDMDL
MODEL 2
REMARK VINA RESULT:      -6.5      4.603      6.569
REMARK  7 active torsions:
REMARK  status: ('A' for Active; 'I' for Inactive)
REMARK    1  A    between atoms: C_1  and  C_2 
REMARK    2  A    between atoms: CA_3  and  C_26 
REMARK    3  A    between atoms: CA_7  and  N_11 
REMARK       I    between atoms: N_11  and  C_12 
REMARK    4  A    between atoms: C_12  and  CA_14 
REMARK    5  A    between atoms: CA_14  and  C_16 
REMARK    6  A    between atoms: CA_14  and  N_23 
REMARK    7  A    between atoms: C_19  and  O_22 
ROOT
ATOM      1  N   LIG d   1       6.334  -4.129  -5.004  0.00  0.00    -0.300 N 
ATOM      2  C   LIG d   1       6.723  -2.839  -5.032  0.00  0.00     0.235 C 
ATOM      3  O   LIG d   1       6.658  -2.208  -6.065  0.00  0.00    -0.274 OA
ATOM      4  H   LIG d   1       6.386  -4.633  -4.178  0.00  0.00     0.150 HD
ENDROOT
BRANCH   1   5
ATOM      5  CA  LIG d   1       5.831  -4.768  -6.223  0.00  0.00     0.128 C 
ATOM      6  C   LIG d   1       6.668  -5.937  -6.696  0.00  0.00     0.104 C 
ATOM      7  N   LIG d   1       5.658  -6.804  -6.037  0.00  0.00    -0.253 N 
ATOM      8  H   LIG d   1       6.748  -6.043  -7.778  0.00  0.00     0.064 H 
ATOM      9  S   LIG d   1       8.235  -6.211  -5.800  0.00  0.00    -0.131 SA
ATOM     10  CA  LIG d   1       5.826  -8.137  -5.624  0.00  0.00     0.060 C 
ATOM     11  C   LIG d   1       4.778  -5.815  -5.981  0.00  0.00     0.244 C 
ATOM     12  C   LIG d   1       7.037  -8.659  -5.500  0.00  0.00    -0.040 C 
ATOM     13  C   LIG d   1       8.354  -8.013  -5.789  0.00  0.00     0.018 C 
ATOM     14  H   LIG d   1       9.074  -8.321  -5.031  0.00  0.00     0.042 H 
ATOM     15  H   LIG d   1       8.704  -8.343  -6.766  0.00  0.00     0.042 H 
ATOM     16  O   LIG d   1       3.579  -5.770  -5.804  0.00  0.00    -0.273 OA
ATOM     17  HA  LIG d   1       5.579  -4.056  -7.009  0.00  0.00     0.062 H 
BRANCH  10  18
ATOM     18  C   LIG d   1       4.643  -8.961  -5.327  0.00  0.00     0.086 C 
ATOM     19  O   LIG d   1       4.107  -8.888  -4.229  0.00  0.00    -0.543 OA
ATOM     20  OXT LIG d   1       4.195  -9.718  -6.177  0.00  0.00    -0.543 OA
ENDBRANCH  10  18
BRANCH  12  21
ATOM     21  C   LIG d   1       7.095 -10.079  -4.999  0.00  0.00    -0.041 C 
ATOM     22  H   LIG d   1       7.112 -10.763  -5.847  0.00  0.00     0.028 H 
ATOM     23  H   LIG d   1       7.996 -10.218  -4.402  0.00  0.00     0.028 H 
ATOM     24  H   LIG d   1       6.217 -10.284  -4.385  0.00  0.00     0.028 H 
ENDBRANCH  12  21
ENDBRANCH   1   5
BRANCH   2  25
ATOM     25  CA  LIG d   1       7.240  -2.182  -3.779  0.00  0.00     0.108 C 
ATOM     26  HA  LIG d   1       7.436  -2.942  -3.023  0.00  0.00     0.060 H 
BRANCH  25  27
ATOM     27  C   LIG d   1       6.211  -1.211  -3.259  0.00  0.00    -0.022 A 
ATOM     28  C   LIG d   1       5.039  -1.683  -2.698  0.00  0.00    -0.053 A 
ATOM     29  C   LIG d   1       4.096  -0.796  -2.215  0.00  0.00    -0.020 A 
ATOM     30  H   LIG d   1       4.863  -2.747  -2.632  0.00  0.00     0.062 H 
ATOM     31  C   LIG d   1       4.321   0.570  -2.305  0.00  0.00     0.117 A 
ATOM     32  H   LIG d   1       3.183  -1.166  -1.772  0.00  0.00     0.065 H 
ATOM     33  C   LIG d   1       5.495   1.042  -2.875  0.00  0.00    -0.020 A 
ATOM     34  C   LIG d   1       6.437   0.150  -3.350  0.00  0.00    -0.053 A 
ATOM     35  H   LIG d   1       5.672   2.105  -2.945  0.00  0.00     0.065 H 
ATOM     36  H   LIG d   1       7.350   0.517  -3.794  0.00  0.00     0.062 H 
BRANCH  31  37
ATOM     37  O   LIG d   1       3.393   1.445  -1.836  0.00  0.00    -0.507 OA
ATOM     38  H   LIG d   1       2.707   1.036  -1.291  0.00  0.00     0.292 HD
ENDBRANCH  31  37
ENDBRANCH  25  27
BRANCH  25  39
ATOM     39  N   LIG d   1       8.484  -1.459  -4.082  0.00  0.00    -0.316 N 
ATOM     40  H1  LIG d   1       8.361  -0.465  -3.964  0.00  0.00     0.119 HD
ATOM     41  H2  LIG d   1       9.247  -1.800  -3.518  0.00  0.00     0.119 HD
ENDBRANCH  25  39
ENDBRANCH   2  25
TORSDOF 7
ENDMDL
MODEL 3
REMARK VINA RESULT:      -6.4      1.482      1.945
REMARK  7 active torsions:
REMARK  status: ('A' for Active; 'I' for Inactive)
REMARK    1  A    between atoms: C_1  and  C_2 
REMARK    2  A    between atoms: CA_3  and  C_26 
REMARK    3  A    between atoms: CA_7  and  N_11 
REMARK       I    between atoms: N_11  and  C_12 
REMARK    4  A    between atoms: C_12  and  CA_14 
REMARK    5  A    between atoms: CA_14  and  C_16 
REMARK    6  A    between atoms: CA_14  and  N_23 
REMARK    7  A    between atoms: C_19  and  O_22 
ROOT
ATOM      1  N   LIG d   1       6.554  -1.936  -6.184  0.00  0.00    -0.300 N 
ATOM      2  C   LIG d   1       6.681  -2.859  -5.211  0.00  0.00     0.235 C 
ATOM      3  O   LIG d   1       6.372  -4.013  -5.426  0.00  0.00    -0.274 OA
ATOM      4  H   LIG d   1       6.801  -1.014  -6.013  0.00  0.00     0.150 HD
ENDROOT
BRANCH   1   5
ATOM      5  CA  LIG d   1       6.043  -2.325  -7.501  0.00  0.00     0.128 C 
ATOM      6  C   LIG d   1       4.609  -1.910  -7.754  0.00  0.00     0.104 C 
ATOM      7  N   LIG d   1       5.175  -0.762  -8.508  0.00  0.00    -0.253 N 
ATOM      8  H   LIG d   1       4.018  -2.615  -8.338  0.00  0.00     0.064 H 
ATOM      9  S   LIG d   1       3.724  -1.193  -6.327  0.00  0.00    -0.131 SA
ATOM     10  CA  LIG d   1       4.532   0.448  -8.817  0.00  0.00     0.060 C 
ATOM     11  C   LIG d   1       6.361  -1.347  -8.599  0.00  0.00     0.244 C 
ATOM     12  C   LIG d   1       3.432   0.813  -8.175  0.00  0.00    -0.040 C 
ATOM     13  C   LIG d   1       2.690   0.061  -7.116  0.00  0.00     0.018 C 
ATOM     14  H   LIG d   1       2.339   0.765  -6.361  0.00  0.00     0.042 H 
ATOM     15  H   LIG d   1       1.830  -0.433  -7.568  0.00  0.00     0.042 H 
ATOM     16  O   LIG d   1       7.332  -1.165  -9.302  0.00  0.00    -0.273 OA
ATOM     17  HA  LIG d   1       6.256  -3.364  -7.755  0.00  0.00     0.062 H 
BRANCH  10  18
ATOM     18  C   LIG d   1       5.085   1.320  -9.866  0.00  0.00     0.086 C 
ATOM     19  O   LIG d   1       5.942   2.147  -9.584  0.00  0.00    -0.543 OA
ATOM     20  OXT LIG d   1       4.690   1.217 -11.019  0.00  0.00    -0.543 OA
ENDBRANCH  10  18
BRANCH  12  21
ATOM     21  C   LIG d   1       2.860   2.155  -8.553  0.00  0.00    -0.041 C 
ATOM     22  H   LIG d   1       2.637   2.167  -9.619  0.00  0.00     0.028 H 
ATOM     23  H   LIG d   1       1.946   2.333  -7.988  0.00  0.00     0.028 H 
ATOM     24  H   LIG d   1       3.586   2.936  -8.325  0.00  0.00     0.028 H 
ENDBRANCH  12  21
ENDBRANCH   1   5
BRANCH   2  25
ATOM     25  CA  LIG d   1       7.206  -2.460  -3.857  0.00  0.00     0.108 C 
ATOM     26  HA  LIG d   1       7.239  -3.334  -3.207  0.00  0.00     0.060 H 
BRANCH  25  27
ATOM     27  C   LIG d   1       6.299  -1.418  -3.253  0.00  0.00    -0.022 A 
ATOM     28  C   LIG d   1       5.137  -1.804  -2.611  0.00  0.00    -0.053 A 
ATOM     29  C   LIG d   1       4.307  -0.852  -2.051  0.00  0.00    -0.020 A 
ATOM     30  H   LIG d   1       4.882  -2.851  -2.542  0.00  0.00     0.062 H 
ATOM     31  C   LIG d   1       4.634   0.493  -2.145  0.00  0.00     0.117 A 
ATOM     32  H   LIG d   1       3.402  -1.155  -1.545  0.00  0.00     0.065 H 
ATOM     33  C   LIG d   1       5.797   0.878  -2.796  0.00  0.00    -0.020 A 
ATOM     34  C   LIG d   1       6.627  -0.078  -3.348  0.00  0.00    -0.053 A 
ATOM     35  H   LIG d   1       6.053   1.925  -2.869  0.00  0.00     0.065 H 
ATOM     36  H   LIG d   1       7.532   0.221  -3.855  0.00  0.00     0.062 H 
BRANCH  31  37
ATOM     37  O   LIG d   1       3.816   1.432  -1.600  0.00  0.00    -0.507 OA
ATOM     38  H   LIG d   1       3.432   2.041  -2.245  0.00  0.00     0.292 HD
ENDBRANCH  31  37
ENDBRANCH  25  27
BRANCH  25  39
ATOM     39  N   LIG d   1       8.559  -1.905  -4.001  0.00  0.00    -0.316 N 
ATOM     40  H1  LIG d   1       9.159  -2.542  -4.504  0.00  0.00     0.119 HD
ATOM     41  H2  LIG d   1       8.534  -1.001  -4.449  0.00  0.00     0.119 HD
ENDBRANCH  25  39
ENDBRANCH   2  25
TORSDOF 7
ENDMDL
MODEL 4
REMARK VINA RESULT:      -6.3      1.758      2.229
REMARK  7 active torsions:
REMARK  status: ('A' for Active; 'I' for Inactive)
REMARK    1  A    between atoms: C_1  and  C_2 
REMARK    2  A    between atoms: CA_3  and  C_26 
REMARK    3  A    between atoms: CA_7  and  N_11 
REMARK       I    between atoms: N_11  and  C_12 
REMARK    4  A    between atoms: C_12  and  CA_14 
REMARK    5  A    between atoms: CA_14  and  C_16 
REMARK    6  A    between atoms: CA_14  and  N_23 
REMARK    7  A    between atoms: C_19  and  O_22 
ROOT
ATOM      1  N   LIG d   1       7.127   0.847  -6.379  0.00  0.00    -0.300 N 
ATOM      2  C   LIG d   1       8.074   0.610  -5.450  0.00  0.00     0.235 C 
ATOM      3  O   LIG d   1       9.130   0.110  -5.776  0.00  0.00    -0.274 OA
ATOM      4  H   LIG d   1       6.282   1.248  -6.120  0.00  0.00     0.150 HD
ENDROOT
BRANCH   1   5
ATOM      5  CA  LIG d   1       7.373   0.500  -7.781  0.00  0.00     0.128 C 
ATOM      6  C   LIG d   1       6.466  -0.589  -8.315  0.00  0.00     0.104 C 
ATOM      7  N   LIG d   1       5.661   0.507  -8.912  0.00  0.00    -0.253 N 
ATOM      8  H   LIG d   1       6.932  -1.273  -9.024  0.00  0.00     0.064 H 
ATOM      9  S   LIG d   1       5.388  -1.402  -7.087  0.00  0.00    -0.131 SA
ATOM     10  CA  LIG d   1       4.318   0.445  -9.321  0.00  0.00     0.060 C 
ATOM     11  C   LIG d   1       6.651   1.376  -8.769  0.00  0.00     0.244 C 
ATOM     12  C   LIG d   1       3.531  -0.539  -8.911  0.00  0.00    -0.040 C 
ATOM     13  C   LIG d   1       3.886  -1.704  -8.045  0.00  0.00     0.018 C 
ATOM     14  H   LIG d   1       3.060  -1.905  -7.364  0.00  0.00     0.042 H 
ATOM     15  H   LIG d   1       4.048  -2.579  -8.675  0.00  0.00     0.042 H 
ATOM     16  O   LIG d   1       6.887   2.463  -9.252  0.00  0.00    -0.273 OA
ATOM     17  HA  LIG d   1       8.428   0.350  -8.008  0.00  0.00     0.062 H 
BRANCH  10  18
ATOM     18  C   LIG d   1       3.780   1.484 -10.214  0.00  0.00     0.086 C 
ATOM     19  O   LIG d   1       3.797   1.316 -11.427  0.00  0.00    -0.543 OA
ATOM     20  OXT LIG d   1       3.316   2.514  -9.746  0.00  0.00    -0.543 OA
ENDBRANCH  10  18
BRANCH  12  21
ATOM     21  C   LIG d   1       2.097  -0.473  -9.371  0.00  0.00    -0.041 C 
ATOM     22  H   LIG d   1       1.466  -0.143  -8.546  0.00  0.00     0.028 H 
ATOM     23  H   LIG d   1       2.013   0.233 -10.198  0.00  0.00     0.028 H 
ATOM     24  H   LIG d   1       1.776  -1.461  -9.702  0.00  0.00     0.028 H 
ENDBRANCH  12  21
ENDBRANCH   1   5
BRANCH   2  25
ATOM     25  CA  LIG d   1       7.821   0.968  -4.009  0.00  0.00     0.108 C 
ATOM     26  HA  LIG d   1       8.726   0.792  -3.427  0.00  0.00     0.060 H 
BRANCH  25  27
ATOM     27  C   LIG d   1       6.702   0.114  -3.468  0.00  0.00    -0.022 A 
ATOM     28  C   LIG d   1       6.752  -1.260  -3.609  0.00  0.00    -0.053 A 
ATOM     29  C   LIG d   1       5.731  -2.045  -3.109  0.00  0.00    -0.020 A 
ATOM     30  H   LIG d   1       7.593  -1.720  -4.106  0.00  0.00     0.062 H 
ATOM     31  C   LIG d   1       4.649  -1.451  -2.476  0.00  0.00     0.117 A 
ATOM     32  H   LIG d   1       5.773  -3.118  -3.216  0.00  0.00     0.065 H 
ATOM     33  C   LIG d   1       4.598  -0.071  -2.341  0.00  0.00    -0.020 A 
ATOM     34  C   LIG d   1       5.624   0.709  -2.837  0.00  0.00    -0.053 A 
ATOM     35  H   LIG d   1       3.756   0.393  -1.848  0.00  0.00     0.065 H 
ATOM     36  H   LIG d   1       5.585   1.782  -2.733  0.00  0.00     0.062 H 
BRANCH  31  37
ATOM     37  O   LIG d   1       3.640  -2.220  -1.988  0.00  0.00    -0.507 OA
ATOM     38  H   LIG d   1       2.845  -2.223  -2.539  0.00  0.00     0.292 HD
ENDBRANCH  31  37
ENDBRANCH  25  27
BRANCH  25  39
ATOM     39  N   LIG d   1       7.445   2.385  -3.915  0.00  0.00    -0.316 N 
ATOM     40  H1  LIG d   1       6.453   2.505  -4.052  0.00  0.00     0.119 HD
ATOM     41  H2  LIG d   1       7.740   2.780  -3.035  0.00  0.00     0.119 HD
ENDBRANCH  25  39
ENDBRANCH   2  25
TORSDOF 7
ENDMDL
MODEL 5
REMARK VINA RESULT:      -6.1      2.252      2.740
REMARK  7 active torsions:
REMARK  status: ('A' for Active; 'I' for Inactive)
REMARK    1  A    between atoms: C_1  and  C_2 
REMARK    2  A    between atoms: CA_3  and  C_26 
REMARK    3  A    between atoms: CA_7  and  N_11 
REMARK       I    between atoms: N_11  and  C_12 
REMARK    4  A    between atoms: C_12  and  CA_14 
REMARK    5  A    between atoms: CA_14  and  C_16 
REMARK    6  A    between atoms: CA_14  and  N_23 
REMARK    7  A    between atoms: C_19  and  O_22 
ROOT
ATOM      1  N   LIG d   1       5.047  -2.741  -6.841  0.00  0.00    -0.300 N 
ATOM      2  C   LIG d   1       4.951  -3.529  -5.752  0.00  0.00     0.235 C 
ATOM      3  O   LIG d   1       4.092  -4.384  -5.696  0.00  0.00    -0.274 OA
ATOM      4  H   LIG d   1       5.733  -2.058  -6.886  0.00  0.00     0.150 HD
ENDROOT
BRANCH   1   5
ATOM      5  CA  LIG d   1       4.113  -2.916  -7.956  0.00  0.00     0.128 C 
ATOM      6  C   LIG d   1       3.195  -1.733  -8.184  0.00  0.00     0.104 C 
ATOM      7  N   LIG d   1       4.135  -1.336  -9.264  0.00  0.00    -0.253 N 
ATOM      8  H   LIG d   1       2.185  -1.985  -8.506  0.00  0.00     0.064 H 
ATOM      9  S   LIG d   1       3.274  -0.410  -6.930  0.00  0.00    -0.131 SA
ATOM     10  CA  LIG d   1       4.284  -0.057  -9.828  0.00  0.00     0.060 C 
ATOM     11  C   LIG d   1       4.679  -2.543  -9.299  0.00  0.00     0.244 C 
ATOM     12  C   LIG d   1       3.805   1.014  -9.213  0.00  0.00    -0.040 C 
ATOM     13  C   LIG d   1       3.037   1.075  -7.931  0.00  0.00     0.018 C 
ATOM     14  H   LIG d   1       3.361   1.947  -7.364  0.00  0.00     0.042 H 
ATOM     15  H   LIG d   1       1.976   1.173  -8.158  0.00  0.00     0.042 H 
ATOM     16  O   LIG d   1       5.370  -3.127 -10.107  0.00  0.00    -0.273 OA
ATOM     17  HA  LIG d   1       3.601  -3.879  -7.941  0.00  0.00     0.062 H 
BRANCH  10  18
ATOM     18  C   LIG d   1       4.981   0.094 -11.115  0.00  0.00     0.086 C 
ATOM     19  O   LIG d   1       4.337   0.183 -12.153  0.00  0.00    -0.543 OA
ATOM     20  OXT LIG d   1       6.203   0.130 -11.150  0.00  0.00    -0.543 OA
ENDBRANCH  10  18
BRANCH  12  21
ATOM     21  C   LIG d   1       4.072   2.336  -9.885  0.00  0.00    -0.041 C 
ATOM     22  H   LIG d   1       3.988   2.219 -10.964  0.00  0.00     0.028 H 
ATOM     23  H   LIG d   1       3.345   3.072  -9.541  0.00  0.00     0.028 H 
ATOM     24  H   LIG d   1       5.077   2.674  -9.633  0.00  0.00     0.028 H 
ENDBRANCH  12  21
ENDBRANCH   1   5
BRANCH   2  25
ATOM     25  CA  LIG d   1       5.911  -3.349  -4.605  0.00  0.00     0.108 C 
ATOM     26  HA  LIG d   1       5.925  -4.254  -3.998  0.00  0.00     0.060 H 
BRANCH  25  27
ATOM     27  C   LIG d   1       5.470  -2.183  -3.759  0.00  0.00    -0.022 A 
ATOM     28  C   LIG d   1       6.251  -1.044  -3.693  0.00  0.00    -0.053 A 
ATOM     29  C   LIG d   1       5.847   0.029  -2.922  0.00  0.00    -0.020 A 
ATOM     30  H   LIG d   1       7.176  -0.992  -4.249  0.00  0.00     0.062 H 
ATOM     31  C   LIG d   1       4.661  -0.042  -2.204  0.00  0.00     0.117 A 
ATOM     32  H   LIG d   1       6.455   0.920  -2.875  0.00  0.00     0.065 H 
ATOM     33  C   LIG d   1       3.882  -1.188  -2.267  0.00  0.00    -0.020 A 
ATOM     34  C   LIG d   1       4.288  -2.256  -3.044  0.00  0.00    -0.053 A 
ATOM     35  H   LIG d   1       2.959  -1.245  -1.709  0.00  0.00     0.065 H 
ATOM     36  H   LIG d   1       3.683  -3.149  -3.093  0.00  0.00     0.062 H 
BRANCH  31  37
ATOM     37  O   LIG d   1       4.264   1.010  -1.441  0.00  0.00    -0.507 OA
ATOM     38  H   LIG d   1       3.474   1.459  -1.772  0.00  0.00     0.292 HD
ENDBRANCH  31  37
ENDBRANCH  25  27
BRANCH  25  39
ATOM     39  N   LIG d   1       7.259  -3.090  -5.131  0.00  0.00    -0.316 N 
ATOM     40  H1  LIG d   1       7.220  -2.800  -6.096  0.00  0.00     0.119 HD
ATOM     41  H2  LIG d   1       7.743  -2.409  -4.566  0.00  0.00     0.119 HD
ENDBRANCH  25  39
ENDBRANCH   2  25
TORSDOF 7
ENDMDL
MODEL 6
REMARK VINA RESULT:      -6.0      2.542      6.860
REMARK  7 active torsions:
REMARK  status: ('A' for Active; 'I' for Inactive)
REMARK    1  A    between atoms: C_1  and  C_2 
REMARK    2  A    between atoms: CA_3  and  C_26 
REMARK    3  A    between atoms: CA_7  and  N_11 
REMARK       I    between atoms: N_11  and  C_12 
REMARK    4  A    between atoms: C_12  and  CA_14 
REMARK    5  A    between atoms: CA_14  and  C_16 
REMARK    6  A    between atoms: CA_14  and  N_23 
REMARK    7  A    between atoms: C_19  and  O_22 
ROOT
ATOM      1  N   LIG d   1       5.975  -0.842  -7.410  0.00  0.00    -0.300 N 
ATOM      2  C   LIG d   1       5.684  -1.197  -8.676  0.00  0.00     0.235 C 
ATOM      3  O   LIG d   1       5.703  -2.367  -8.997  0.00  0.00    -0.274 OA
ATOM      4  H   LIG d   1       5.960   0.093  -7.153  0.00  0.00     0.150 HD
ENDROOT
BRANCH   1   5
ATOM      5  CA  LIG d   1       6.316  -1.868  -6.421  0.00  0.00     0.128 C 
ATOM      6  C   LIG d   1       6.808  -1.314  -5.101  0.00  0.00     0.104 C 
ATOM      7  N   LIG d   1       5.428  -1.541  -4.601  0.00  0.00    -0.253 N 
ATOM      8  H   LIG d   1       7.589  -1.898  -4.615  0.00  0.00     0.064 H 
ATOM      9  S   LIG d   1       7.078   0.491  -5.045  0.00  0.00    -0.131 SA
ATOM     10  CA  LIG d   1       4.819  -0.931  -3.490  0.00  0.00     0.060 C 
ATOM     11  C   LIG d   1       5.146  -2.353  -5.609  0.00  0.00     0.244 C 
ATOM     12  C   LIG d   1       5.330   0.168  -2.957  0.00  0.00    -0.040 C 
ATOM     13  C   LIG d   1       6.572   0.896  -3.359  0.00  0.00     0.018 C 
ATOM     14  H   LIG d   1       6.394   1.969  -3.285  0.00  0.00     0.042 H 
ATOM     15  H   LIG d   1       7.380   0.623  -2.680  0.00  0.00     0.042 H 
ATOM     16  O   LIG d   1       4.278  -3.177  -5.802  0.00  0.00    -0.273 OA
ATOM     17  HA  LIG d   1       6.938  -2.666  -6.827  0.00  0.00     0.062 H 
BRANCH  10  18
ATOM     18  C   LIG d   1       3.599  -1.521  -2.915  0.00  0.00     0.086 C 
ATOM     19  O   LIG d   1       3.671  -2.545  -2.248  0.00  0.00    -0.543 OA
ATOM     20  OXT LIG d   1       2.514  -0.989  -3.102  0.00  0.00    -0.543 OA
ENDBRANCH  10  18
BRANCH  12  21
ATOM     21  C   LIG d   1       4.562   0.761  -1.804  0.00  0.00    -0.041 C 
ATOM     22  H   LIG d   1       5.248   1.291  -1.144  0.00  0.00     0.028 H 
ATOM     23  H   LIG d   1       3.815   1.457  -2.185  0.00  0.00     0.028 H 
ATOM     24  H   LIG d   1       4.066  -0.036  -1.250  0.00  0.00     0.028 H 
ENDBRANCH  12  21
ENDBRANCH   1   5
BRANCH   2  25
ATOM     25  CA  LIG d   1       5.333  -0.142  -9.693  0.00  0.00     0.108 C 
ATOM     26  HA  LIG d   1       5.343   0.839  -9.217  0.00  0.00     0.060 H 
BRANCH  25  27
ATOM     27  C   LIG d   1       3.959  -0.417 -10.249  0.00  0.00    -0.022 A 
ATOM     28  C   LIG d   1       2.849  -0.298  -9.434  0.00  0.00    -0.053 A 
ATOM     29  C   LIG d   1       1.588  -0.543  -9.943  0.00  0.00    -0.020 A 
ATOM     30  H   LIG d   1       2.967  -0.009  -8.400  0.00  0.00     0.062 H 
ATOM     31  C   LIG d   1       1.438  -0.920 -11.269  0.00  0.00     0.117 A 
ATOM     32  H   LIG d   1       0.721  -0.446  -9.307  0.00  0.00     0.065 H 
ATOM     33  C   LIG d   1       2.554  -1.045 -12.084  0.00  0.00    -0.020 A 
ATOM     34  C   LIG d   1       3.813  -0.793 -11.572  0.00  0.00    -0.053 A 
ATOM     35  H   LIG d   1       2.439  -1.338 -13.117  0.00  0.00     0.065 H 
ATOM     36  H   LIG d   1       4.682  -0.890 -12.205  0.00  0.00     0.062 H 
BRANCH  31  37
ATOM     37  O   LIG d   1       0.199  -1.167 -11.771  0.00  0.00    -0.507 OA
ATOM     38  H   LIG d   1       0.063  -0.827 -12.666  0.00  0.00     0.292 HD
ENDBRANCH  31  37
ENDBRANCH  25  27
BRANCH  25  39
ATOM     39  N   LIG d   1       6.317  -0.169 -10.785  0.00  0.00    -0.316 N 
ATOM     40  H1  LIG d   1       5.968   0.317 -11.597  0.00  0.00     0.119 HD
ATOM     41  H2  LIG d   1       7.200   0.214 -10.484  0.00  0.00     0.119 HD
ENDBRANCH  25  39
ENDBRANCH   2  25
TORSDOF 7
ENDMDL
MODEL 7
REMARK VINA RESULT:      -5.8      2.338      6.229
REMARK  7 active torsions:
REMARK  status: ('A' for Active; 'I' for Inactive)
REMARK    1  A    between atoms: C_1  and  C_2 
REMARK    2  A    between atoms: CA_3  and  C_26 
REMARK    3  A    between atoms: CA_7  and  N_11 
REMARK       I    between atoms: N_11  and  C_12 
REMARK    4  A    between atoms: C_12  and  CA_14 
REMARK    5  A    between atoms: CA_14  and  C_16 
REMARK    6  A    between atoms: CA_14  and  N_23 
REMARK    7  A    between atoms: C_19  and  O_22 
ROOT
ATOM      1  N   LIG d   1       4.794  -2.999  -6.157  0.00  0.00    -0.300 N 
ATOM      2  C   LIG d   1       4.197  -3.983  -6.856  0.00  0.00     0.235 C 
ATOM      3  O   LIG d   1       3.777  -4.965  -6.283  0.00  0.00    -0.274 OA
ATOM      4  H   LIG d   1       5.130  -2.212  -6.615  0.00  0.00     0.150 HD
ENDROOT
BRANCH   1   5
ATOM      5  CA  LIG d   1       4.936  -3.116  -4.703  0.00  0.00     0.128 C 
ATOM      6  C   LIG d   1       6.229  -2.542  -4.161  0.00  0.00     0.104 C 
ATOM      7  N   LIG d   1       5.434  -1.338  -3.809  0.00  0.00    -0.253 N 
ATOM      8  H   LIG d   1       6.661  -3.085  -3.321  0.00  0.00     0.064 H 
ATOM      9  S   LIG d   1       7.445  -2.001  -5.410  0.00  0.00    -0.131 SA
ATOM     10  CA  LIG d   1       5.922  -0.042  -3.570  0.00  0.00     0.060 C 
ATOM     11  C   LIG d   1       4.292  -1.999  -3.928  0.00  0.00     0.244 C 
ATOM     12  C   LIG d   1       7.141   0.304  -3.954  0.00  0.00    -0.040 C 
ATOM     13  C   LIG d   1       8.174  -0.548  -4.621  0.00  0.00     0.018 C 
ATOM     14  H   LIG d   1       8.692   0.047  -5.373  0.00  0.00     0.042 H 
ATOM     15  H   LIG d   1       8.893  -0.883  -3.875  0.00  0.00     0.042 H 
ATOM     16  O   LIG d   1       3.158  -1.786  -3.554  0.00  0.00    -0.273 OA
ATOM     17  HA  LIG d   1       4.701  -4.112  -4.327  0.00  0.00     0.062 H 
BRANCH  10  18
ATOM     18  C   LIG d   1       5.068   0.942  -2.884  0.00  0.00     0.086 C 
ATOM     19  O   LIG d   1       4.304   1.646  -3.532  0.00  0.00    -0.543 OA
ATOM     20  OXT LIG d   1       5.121   1.057  -1.668  0.00  0.00    -0.543 OA
ENDBRANCH  10  18
BRANCH  12  21
ATOM     21  C   LIG d   1       7.536   1.735  -3.692  0.00  0.00    -0.041 C 
ATOM     22  H   LIG d   1       6.999   2.391  -4.376  0.00  0.00     0.028 H 
ATOM     23  H   LIG d   1       7.286   1.998  -2.665  0.00  0.00     0.028 H 
ATOM     24  H   LIG d   1       8.609   1.849  -3.846  0.00  0.00     0.028 H 
ENDBRANCH  12  21
ENDBRANCH   1   5
BRANCH   2  25
ATOM     25  CA  LIG d   1       4.050  -3.862  -8.351  0.00  0.00     0.108 C 
ATOM     26  HA  LIG d   1       4.894  -4.350  -8.840  0.00  0.00     0.060 H 
BRANCH  25  27
ATOM     27  C   LIG d   1       4.019  -2.405  -8.737  0.00  0.00    -0.022 A 
ATOM     28  C   LIG d   1       2.815  -1.728  -8.778  0.00  0.00    -0.053 A 
ATOM     29  C   LIG d   1       2.785  -0.391  -9.127  0.00  0.00    -0.020 A 
ATOM     30  H   LIG d   1       1.898  -2.243  -8.532  0.00  0.00     0.062 H 
ATOM     31  C   LIG d   1       3.963   0.268  -9.447  0.00  0.00     0.117 A 
ATOM     32  H   LIG d   1       1.845   0.139  -9.153  0.00  0.00     0.065 H 
ATOM     33  C   LIG d   1       5.170  -0.416  -9.412  0.00  0.00    -0.020 A 
ATOM     34  C   LIG d   1       5.195  -1.751  -9.057  0.00  0.00    -0.053 A 
ATOM     35  H   LIG d   1       6.088   0.095  -9.661  0.00  0.00     0.065 H 
ATOM     36  H   LIG d   1       6.134  -2.284  -9.030  0.00  0.00     0.062 H 
BRANCH  31  37
ATOM     37  O   LIG d   1       3.936   1.581  -9.795  0.00  0.00    -0.507 OA
ATOM     38  H   LIG d   1       3.100   2.024  -9.594  0.00  0.00     0.292 HD
ENDBRANCH  31  37
ENDBRANCH  25  27
BRANCH  25  39
ATOM     39  N   LIG d   1       2.799  -4.507  -8.773  0.00  0.00    -0.316 N 
ATOM     40  H1  LIG d   1       2.963  -5.458  -9.064  0.00  0.00     0.119 HD
ATOM     41  H2  LIG d   1       2.105  -4.465  -8.042  0.00  0.00     0.119 HD
ENDBRANCH  25  39
ENDBRANCH   2  25
TORSDOF 7
ENDMDL
MODEL 8
REMARK VINA RESULT:      -5.8      3.431      5.624
REMARK  7 active torsions:
REMARK  status: ('A' for Active; 'I' for Inactive)
REMARK    1  A    between atoms: C_1  and  C_2 
REMARK    2  A    between atoms: CA_3  and  C_26 
REMARK    3  A    between atoms: CA_7  and  N_11 
REMARK       I    between atoms: N_11  and  C_12 
REMARK    4  A    between atoms: C_12  and  CA_14 
REMARK    5  A    between atoms: CA_14  and  C_16 
REMARK    6  A    between atoms: CA_14  and  N_23 
REMARK    7  A    between atoms: C_19  and  O_22 
ROOT
ATOM      1  N   LIG d   1       9.021  -1.456  -5.031  0.00  0.00    -0.300 N 
ATOM      2  C   LIG d   1       9.964  -2.199  -5.643  0.00  0.00     0.235 C 
ATOM      3  O   LIG d   1       9.938  -2.340  -6.847  0.00  0.00    -0.274 OA
ATOM      4  H   LIG d   1       9.042  -1.343  -4.069  0.00  0.00     0.150 HD
ENDROOT
BRANCH   1   5
ATOM      5  CA  LIG d   1       7.963  -0.821  -5.822  0.00  0.00     0.128 C 
ATOM      6  C   LIG d   1       6.615  -1.501  -5.708  0.00  0.00     0.104 C 
ATOM      7  N   LIG d   1       6.272  -0.442  -4.724  0.00  0.00    -0.253 N 
ATOM      8  H   LIG d   1       6.020  -1.508  -6.621  0.00  0.00     0.064 H 
ATOM      9  S   LIG d   1       6.593  -3.077  -4.788  0.00  0.00    -0.131 SA
ATOM     10  CA  LIG d   1       5.263  -0.490  -3.746  0.00  0.00     0.060 C 
ATOM     11  C   LIG d   1       7.276   0.322  -5.126  0.00  0.00     0.244 C 
ATOM     12  C   LIG d   1       4.712  -1.644  -3.398  0.00  0.00    -0.040 C 
ATOM     13  C   LIG d   1       4.992  -3.004  -3.952  0.00  0.00     0.018 C 
ATOM     14  H   LIG d   1       4.978  -3.728  -3.139  0.00  0.00     0.042 H 
ATOM     15  H   LIG d   1       4.214  -3.261  -4.671  0.00  0.00     0.042 H 
ATOM     16  O   LIG d   1       7.541   1.498  -4.987  0.00  0.00    -0.273 OA
ATOM     17  HA  LIG d   1       8.265  -0.602  -6.846  0.00  0.00     0.062 H 
BRANCH  10  18
ATOM     18  C   LIG d   1       4.813   0.755  -3.104  0.00  0.00     0.086 C 
ATOM     19  O   LIG d   1       5.389   1.171  -2.106  0.00  0.00    -0.543 OA
ATOM     20  OXT LIG d   1       3.865   1.374  -3.565  0.00  0.00    -0.543 OA
ENDBRANCH  10  18
BRANCH  12  21
ATOM     21  C   LIG d   1       3.679  -1.578  -2.303  0.00  0.00    -0.041 C 
ATOM     22  H   LIG d   1       3.587  -0.551  -1.951  0.00  0.00     0.028 H 
ATOM     23  H   LIG d   1       2.719  -1.918  -2.689  0.00  0.00     0.028 H 
ATOM     24  H   LIG d   1       3.986  -2.219  -1.476  0.00  0.00     0.028 H 
ENDBRANCH  12  21
ENDBRANCH   1   5
BRANCH   2  25
ATOM     25  CA  LIG d   1      11.052  -2.852  -4.831  0.00  0.00     0.108 C 
ATOM     26  HA  LIG d   1      11.841  -3.204  -5.496  0.00  0.00     0.060 H 
BRANCH  25  27
ATOM     27  C   LIG d   1      10.479  -4.021  -4.070  0.00  0.00    -0.022 A 
ATOM     28  C   LIG d   1      10.325  -3.943  -2.698  0.00  0.00    -0.053 A 
ATOM     29  C   LIG d   1       9.795  -5.010  -1.999  0.00  0.00    -0.020 A 
ATOM     30  H   LIG d   1      10.616  -3.044  -2.174  0.00  0.00     0.062 H 
ATOM     31  C   LIG d   1       9.427  -6.165  -2.674  0.00  0.00     0.117 A 
ATOM     32  H   LIG d   1       9.671  -4.946  -0.929  0.00  0.00     0.065 H 
ATOM     33  C   LIG d   1       9.588  -6.243  -4.050  0.00  0.00    -0.020 A 
ATOM     34  C   LIG d   1      10.113  -5.171  -4.745  0.00  0.00    -0.053 A 
ATOM     35  H   LIG d   1       9.302  -7.142  -4.577  0.00  0.00     0.065 H 
ATOM     36  H   LIG d   1      10.239  -5.232  -5.815  0.00  0.00     0.062 H 
BRANCH  31  37
ATOM     37  O   LIG d   1       8.910  -7.218  -1.988  0.00  0.00    -0.507 OA
ATOM     38  H   LIG d   1       9.573  -7.751  -1.528  0.00  0.00     0.292 HD
ENDBRANCH  31  37
ENDBRANCH  25  27
BRANCH  25  39
ATOM     39  N   LIG d   1      11.608  -1.877  -3.882  0.00  0.00    -0.316 N 
ATOM     40  H1  LIG d   1      10.880  -1.471  -3.314  0.00  0.00     0.119 HD
ATOM     41  H2  LIG d   1      12.324  -2.297  -3.310  0.00  0.00     0.119 HD
ENDBRANCH  25  39
ENDBRANCH   2  25
TORSDOF 7
ENDMDL
MODEL 9
REMARK VINA RESULT:      -5.8      2.609      7.206
REMARK  7 active torsions:
REMARK  status: ('A' for Active; 'I' for Inactive)
REMARK    1  A    between atoms: C_1  and  C_2 
REMARK    2  A    between atoms: CA_3  and  C_26 
REMARK    3  A    between atoms: CA_7  and  N_11 
REMARK       I    between atoms: N_11  and  C_12 
REMARK    4  A    between atoms: C_12  and  CA_14 
REMARK    5  A    between atoms: CA_14  and  C_16 
REMARK    6  A    between atoms: CA_14  and  N_23 
REMARK    7  A    between atoms: C_19  and  O_22 
ROOT
ATOM      1  N   LIG d   1       3.648   0.944  -7.481  0.00  0.00    -0.300 N 
ATOM      2  C   LIG d   1       3.181   1.047  -8.741  0.00  0.00     0.235 C 
ATOM      3  O   LIG d   1       2.115   0.548  -9.035  0.00  0.00    -0.274 OA
ATOM      4  H   LIG d   1       4.500   1.342  -7.246  0.00  0.00     0.150 HD
ENDROOT
BRANCH   1   5
ATOM      5  CA  LIG d   1       2.867   0.229  -6.468  0.00  0.00     0.128 C 
ATOM      6  C   LIG d   1       3.541  -1.018  -5.937  0.00  0.00     0.104 C 
ATOM      7  N   LIG d   1       3.954  -0.186  -4.778  0.00  0.00    -0.253 N 
ATOM      8  H   LIG d   1       2.870  -1.846  -5.708  0.00  0.00     0.064 H 
ATOM      9  S   LIG d   1       5.081  -1.514  -6.782  0.00  0.00    -0.131 SA
ATOM     10  CA  LIG d   1       5.009  -0.442  -3.885  0.00  0.00     0.060 C 
ATOM     11  C   LIG d   1       3.057   0.745  -5.067  0.00  0.00     0.244 C 
ATOM     12  C   LIG d   1       5.957  -1.315  -4.190  0.00  0.00    -0.040 C 
ATOM     13  C   LIG d   1       6.068  -2.164  -5.416  0.00  0.00     0.018 C 
ATOM     14  H   LIG d   1       7.114  -2.214  -5.719  0.00  0.00     0.042 H 
ATOM     15  H   LIG d   1       5.718  -3.170  -5.183  0.00  0.00     0.042 H 
ATOM     16  O   LIG d   1       2.572   1.663  -4.441  0.00  0.00    -0.273 OA
ATOM     17  HA  LIG d   1       1.825   0.085  -6.751  0.00  0.00     0.062 H 
BRANCH  10  18
ATOM     18  C   LIG d   1       5.060   0.268  -2.597  0.00  0.00     0.086 C 
ATOM     19  O   LIG d   1       4.500  -0.204  -1.616  0.00  0.00    -0.543 OA
ATOM     20  OXT LIG d   1       5.662   1.329  -2.505  0.00  0.00    -0.543 OA
ENDBRANCH  10  18
BRANCH  12  21
ATOM     21  C   LIG d   1       7.065  -1.467  -3.180  0.00  0.00    -0.041 C 
ATOM     22  H   LIG d   1       6.702  -1.172  -2.196  0.00  0.00     0.028 H 
ATOM     23  H   LIG d   1       7.390  -2.507  -3.151  0.00  0.00     0.028 H 
ATOM     24  H   LIG d   1       7.904  -0.831  -3.464  0.00  0.00     0.028 H 
ENDBRANCH  12  21
ENDBRANCH   1   5
BRANCH   2  25
ATOM     25  CA  LIG d   1       3.983   1.781  -9.784  0.00  0.00     0.108 C 
ATOM     26  HA  LIG d   1       3.319   2.409 -10.378  0.00  0.00     0.060 H 
BRANCH  25  27
ATOM     27  C   LIG d   1       4.671   0.785 -10.683  0.00  0.00    -0.022 A 
ATOM     28  C   LIG d   1       5.917   0.293 -10.341  0.00  0.00    -0.053 A 
ATOM     29  C   LIG d   1       6.547  -0.624 -11.161  0.00  0.00    -0.020 A 
ATOM     30  H   LIG d   1       6.395   0.621  -9.431  0.00  0.00     0.062 H 
ATOM     31  C   LIG d   1       5.933  -1.041 -12.333  0.00  0.00     0.117 A 
ATOM     32  H   LIG d   1       7.517  -1.012 -10.890  0.00  0.00     0.065 H 
ATOM     33  C   LIG d   1       4.685  -0.541 -12.677  0.00  0.00    -0.020 A 
ATOM     34  C   LIG d   1       4.057   0.371 -11.851  0.00  0.00    -0.053 A 
ATOM     35  H   LIG d   1       4.206  -0.865 -13.589  0.00  0.00     0.065 H 
ATOM     36  H   LIG d   1       3.087   0.761 -12.118  0.00  0.00     0.062 H 
BRANCH  31  37
ATOM     37  O   LIG d   1       6.553  -1.939 -13.143  0.00  0.00    -0.507 OA
ATOM     38  H   LIG d   1       6.528  -2.849 -12.814  0.00  0.00     0.292 HD
ENDBRANCH  31  37
ENDBRANCH  25  27
BRANCH  25  39
ATOM     39  N   LIG d   1       4.992   2.621  -9.123  0.00  0.00    -0.316 N 
ATOM     40  H1  LIG d   1       5.512   3.159  -9.799  0.00  0.00     0.119 HD
ATOM     41  H2  LIG d   1       4.567   3.221  -8.432  0.00  0.00     0.119 HD
ENDBRANCH  25  39
ENDBRANCH   2  25
TORSDOF 7
ENDMDL
MODEL 10
REMARK VINA RESULT:      -5.5      3.598      5.314
REMARK  7 active torsions:
REMARK  status: ('A' for Active; 'I' for Inactive)
REMARK    1  A    between atoms: C_1  and  C_2 
REMARK    2  A    between atoms: CA_3  and  C_26 
REMARK    3  A    between atoms: CA_7  and  N_11 
REMARK       I    between atoms: N_11  and  C_12 
REMARK    4  A    between atoms: C_12  and  CA_14 
REMARK    5  A    between atoms: CA_14  and  C_16 
REMARK    6  A    between atoms: CA_14  and  N_23 
REMARK    7  A    between atoms: C_19  and  O_22 
ROOT
ATOM      1  N   LIG d   1       7.363   0.659  -6.887  0.00  0.00    -0.300 N 
ATOM      2  C   LIG d   1       8.641   0.505  -7.284  0.00  0.00     0.235 C 
ATOM      3  O   LIG d   1       9.031  -0.579  -7.665  0.00  0.00    -0.274 OA
ATOM      4  H   LIG d   1       7.050   1.525  -6.582  0.00  0.00     0.150 HD
ENDROOT
BRANCH   1   5
ATOM      5  CA  LIG d   1       6.444  -0.483  -6.914  0.00  0.00     0.128 C 
ATOM      6  C   LIG d   1       6.149  -1.069  -5.550  0.00  0.00     0.104 C 
ATOM      7  N   LIG d   1       4.890  -0.282  -5.590  0.00  0.00    -0.253 N 
ATOM      8  H   LIG d   1       6.028  -2.152  -5.526  0.00  0.00     0.064 H 
ATOM      9  S   LIG d   1       7.126  -0.394  -4.163  0.00  0.00    -0.131 SA
ATOM     10  CA  LIG d   1       4.094   0.100  -4.497  0.00  0.00     0.060 C 
ATOM     11  C   LIG d   1       4.989  -0.104  -6.900  0.00  0.00     0.244 C 
ATOM     12  C   LIG d   1       4.575   0.058  -3.263  0.00  0.00    -0.040 C 
ATOM     13  C   LIG d   1       5.924  -0.405  -2.814  0.00  0.00     0.018 C 
ATOM     14  H   LIG d   1       6.275   0.247  -2.015  0.00  0.00     0.042 H 
ATOM     15  H   LIG d   1       5.841  -1.422  -2.432  0.00  0.00     0.042 H 
ATOM     16  O   LIG d   1       4.204   0.235  -7.760  0.00  0.00    -0.273 OA
ATOM     17  HA  LIG d   1       6.704  -1.225  -7.669  0.00  0.00     0.062 H 
BRANCH  10  18
ATOM     18  C   LIG d   1       2.712   0.552  -4.725  0.00  0.00     0.086 C 
ATOM     19  O   LIG d   1       1.782  -0.233  -4.589  0.00  0.00    -0.543 OA
ATOM     20  OXT LIG d   1       2.492   1.711  -5.049  0.00  0.00    -0.543 OA
ENDBRANCH  10  18
BRANCH  12  21
ATOM     21  C   LIG d   1       3.649   0.541  -2.177  0.00  0.00    -0.041 C 
ATOM     22  H   LIG d   1       4.212   0.683  -1.255  0.00  0.00     0.028 H 
ATOM     23  H   LIG d   1       3.199   1.487  -2.477  0.00  0.00     0.028 H 
ATOM     24  H   LIG d   1       2.865  -0.199  -2.013  0.00  0.00     0.028 H 
ENDBRANCH  12  21
ENDBRANCH   1   5
BRANCH   2  25
ATOM     25  CA  LIG d   1       9.585   1.678  -7.257  0.00  0.00     0.108 C 
ATOM     26  HA  LIG d   1      10.494   1.426  -7.803  0.00  0.00     0.060 H 
BRANCH  25  27
ATOM     27  C   LIG d   1       9.933   2.010  -5.828  0.00  0.00    -0.022 A 
ATOM     28  C   LIG d   1      10.991   1.372  -5.209  0.00  0.00    -0.053 A 
ATOM     29  C   LIG d   1      11.316   1.678  -3.901  0.00  0.00    -0.020 A 
ATOM     30  H   LIG d   1      11.568   0.636  -5.751  0.00  0.00     0.062 H 
ATOM     31  C   LIG d   1      10.570   2.619  -3.206  0.00  0.00     0.117 A 
ATOM     32  H   LIG d   1      12.146   1.182  -3.421  0.00  0.00     0.065 H 
ATOM     33  C   LIG d   1       9.505   3.254  -3.827  0.00  0.00    -0.020 A 
ATOM     34  C   LIG d   1       9.188   2.948  -5.136  0.00  0.00    -0.053 A 
ATOM     35  H   LIG d   1       8.923   3.987  -3.287  0.00  0.00     0.065 H 
ATOM     36  H   LIG d   1       8.358   3.442  -5.620  0.00  0.00     0.062 H 
BRANCH  31  37
ATOM     37  O   LIG d   1      10.884   2.919  -1.918  0.00  0.00    -0.507 OA
ATOM     38  H   LIG d   1      10.366   2.430  -1.263  0.00  0.00     0.292 HD
ENDBRANCH  31  37
ENDBRANCH  25  27
BRANCH  25  39
ATOM     39  N   LIG d   1       8.940   2.840  -7.886  0.00  0.00    -0.316 N 
ATOM     40  H1  LIG d   1       8.556   2.596  -8.785  0.00  0.00     0.119 HD
ATOM     41  H2  LIG d   1       8.233   3.232  -7.283  0.00  0.00     0.119 HD
ENDBRANCH  25  39
ENDBRANCH   2  25
TORSDOF 7
ENDMDL
