MODEL 1
REMARK VINA RESULT:      -7.5      0.000      0.000
REMARK  6 active torsions:
REMARK  status: ('A' for Active; 'I' for Inactive)
REMARK    1  A    between atoms: C_1  and  C_2 
REMARK    2  A    between atoms: C_5  and  C_8 
REMARK    3  A    between atoms: C_8  and  C_9 
REMARK    4  A    between atoms: C_9  and  C_24 
REMARK    5  A    between atoms: N_15  and  C_18 
REMARK    6  A    between atoms: C_24  and  N_25 
ROOT
ATOM      1  C   LIG d   1       4.712  -2.400  -7.327  0.00  0.00     0.090 A 
ATOM      2  C   LIG d   1       4.569  -3.832  -6.847  0.00  0.00    -0.026 A 
ATOM      3  O   LIG d   1       4.589  -4.762  -7.625  0.00  0.00    -0.864 OA
ATOM      4  N   LIG d   1       4.416  -4.038  -5.525  0.00  0.00    -0.182 NA
ATOM      5  C   LIG d   1       4.394  -3.026  -4.650  0.00  0.00     0.336 A 
ATOM      6  O   LIG d   1       4.254  -3.301  -3.475  0.00  0.00    -0.250 OA
ATOM      7  N   LIG d   1       4.514  -1.734  -4.974  0.00  0.00    -0.192 N 
ATOM      8  C   LIG d   1       4.673  -1.330  -6.252  0.00  0.00     0.240 A 
ATOM      9  O   LIG d   1       4.781  -0.155  -6.531  0.00  0.00    -0.274 OA
ENDROOT
BRANCH   1  10
ATOM     10  C   LIG d   1       6.043  -2.279  -8.071  0.00  0.00    -0.008 C 
ATOM     11  H   LIG d   1       6.121  -1.279  -8.524  0.00  0.00     0.033 H 
ATOM     12  H   LIG d   1       6.094  -3.044  -8.860  0.00  0.00     0.033 H 
BRANCH  10  13
ATOM     13  C   LIG d   1       7.181  -2.480  -7.103  0.00  0.00    -0.046 A 
ATOM     14  C   LIG d   1       7.660  -3.753  -6.854  0.00  0.00    -0.058 A 
ATOM     15  C   LIG d   1       8.702  -3.938  -5.966  0.00  0.00    -0.059 A 
ATOM     16  H   LIG d   1       7.219  -4.603  -7.354  0.00  0.00     0.062 H 
ATOM     17  C   LIG d   1       9.267  -2.850  -5.326  0.00  0.00    -0.050 A 
ATOM     18  H   LIG d   1       9.076  -4.933  -5.771  0.00  0.00     0.062 H 
ATOM     19  C   LIG d   1       8.788  -1.577  -5.575  0.00  0.00    -0.059 A 
ATOM     20  C   LIG d   1       7.745  -1.392  -6.463  0.00  0.00    -0.058 A 
ATOM     21  H   LIG d   1       9.228  -0.727  -5.075  0.00  0.00     0.062 H 
ATOM     22  H   LIG d   1       7.370  -0.398  -6.657  0.00  0.00     0.062 H 
BRANCH  17  23
ATOM     23  C   LIG d   1      10.408  -3.051  -4.363  0.00  0.00    -0.040 C 
ATOM     24  H   LIG d   1      11.351  -3.131  -4.924  0.00  0.00     0.028 H 
ATOM     25  H   LIG d   1      10.244  -3.974  -3.788  0.00  0.00     0.028 H 
ATOM     26  H   LIG d   1      10.462  -2.195  -3.675  0.00  0.00     0.028 H 
ENDBRANCH  17  23
ENDBRANCH  10  13
ENDBRANCH   1  10
BRANCH   1  27
ATOM     27  C   LIG d   1       3.586  -2.117  -8.322  0.00  0.00     0.017 C 
ATOM     28  H   LIG d   1       3.257  -3.061  -8.781  0.00  0.00     0.044 H 
ATOM     29  H   LIG d   1       2.741  -1.650  -7.796  0.00  0.00     0.044 H 
BRANCH  27  30
ATOM     30  N   LIG d   1       4.074  -1.208  -9.368  0.00  0.00    -0.300 N 
ATOM     31  C   LIG d   1       3.328   0.060  -9.355  0.00  0.00     0.007 C 
ATOM     32  C   LIG d   1       4.003   1.017 -10.351  0.00  0.00     0.013 C 
ATOM     33  H   LIG d   1       2.286  -0.125  -9.653  0.00  0.00     0.043 H 
ATOM     34  H   LIG d   1       3.349   0.487  -8.342  0.00  0.00     0.043 H 
ATOM     35  C   LIG d   1       3.854   0.424 -11.756  0.00  0.00    -0.038 C 
ATOM     36  H   LIG d   1       3.565   2.027 -10.315  0.00  0.00     0.038 H 
ATOM     37  C   LIG d   1       5.470   1.086  -9.993  0.00  0.00     0.026 A 
ATOM     38  C   LIG d   1       4.574  -0.928 -11.765  0.00  0.00    -0.009 C 
ATOM     39  H   LIG d   1       4.311   1.088 -12.504  0.00  0.00     0.028 H 
ATOM     40  H   LIG d   1       2.791   0.275 -11.999  0.00  0.00     0.028 H 
ATOM     41  C   LIG d   1       4.013  -1.844 -10.688  0.00  0.00     0.003 C 
ATOM     42  H   LIG d   1       4.412  -1.437 -12.726  0.00  0.00     0.033 H 
ATOM     43  C   LIG d   1       6.065  -0.695 -11.590  0.00  0.00     0.030 C 
ATOM     44  H   LIG d   1       4.604  -2.773 -10.674  0.00  0.00     0.043 H 
ATOM     45  H   LIG d   1       2.968  -2.078 -10.934  0.00  0.00     0.043 H 
ATOM     46  N   LIG d   1       6.374   0.219 -10.506  0.00  0.00    -0.312 N 
ATOM     47  H   LIG d   1       6.562  -1.651 -11.371  0.00  0.00     0.050 H 
ATOM     48  H   LIG d   1       6.480  -0.268 -12.514  0.00  0.00     0.050 H 
ATOM     49  C   LIG d   1       7.648   0.221 -10.043  0.00  0.00     0.252 A 
ATOM     50  C   LIG d   1       8.084   1.213  -9.154  0.00  0.00     0.003 A 
ATOM     51  O   LIG d   1       8.424  -0.650 -10.404  0.00  0.00    -0.268 OA
ATOM     52  C   LIG d   1       7.191   2.140  -8.703  0.00  0.00    -0.055 A 
ATOM     53  H   LIG d   1       9.036   1.247  -8.850  0.00  0.00     0.067 H 
ATOM     54  C   LIG d   1       5.860   2.058  -9.127  0.00  0.00    -0.042 A 
ATOM     55  H   LIG d   1       7.492   2.862  -8.080  0.00  0.00     0.062 H 
ATOM     56  H   LIG d   1       5.193   2.721  -8.786  0.00  0.00     0.064 H 
ENDBRANCH  27  30
ENDBRANCH   1  27
BRANCH   7  57
ATOM     57  C   LIG d   1       4.474  -0.771  -3.956  0.00  0.00     0.045 A 
ATOM     58  C   LIG d   1       3.252  -0.321  -3.473  0.00  0.00    -0.040 A 
ATOM     59  C   LIG d   1       3.215   0.629  -2.470  0.00  0.00    -0.060 A 
ATOM     60  H   LIG d   1       2.332  -0.712  -3.881  0.00  0.00     0.064 H 
ATOM     61  C   LIG d   1       4.393   1.130  -1.947  0.00  0.00    -0.062 A 
ATOM     62  H   LIG d   1       2.266   0.978  -2.094  0.00  0.00     0.062 H 
ATOM     63  C   LIG d   1       5.610   0.683  -2.426  0.00  0.00    -0.060 A 
ATOM     64  H   LIG d   1       4.362   1.871  -1.162  0.00  0.00     0.062 H 
ATOM     65  C   LIG d   1       5.654  -0.269  -3.426  0.00  0.00    -0.040 A 
ATOM     66  H   LIG d   1       6.529   1.077  -2.016  0.00  0.00     0.062 H 
ATOM     67  H   LIG d   1       6.605  -0.621  -3.796  0.00  0.00     0.064 H 
ENDBRANCH   7  57
TORSDOF 6
ENDMDL
MODEL 2
REMARK VINA RESULT:      -7.5      2.184      6.562
REMARK  6 active torsions:
REMARK  status: ('A' for Active; 'I' for Inactive)
REMARK    1  A    between atoms: C_1  and  C_2 
REMARK    2  A    between atoms: C_5  and  C_8 
REMARK    3  A    between atoms: C_8  and  C_9 
REMARK    4  A    between atoms: C_9  and  C_24 
REMARK    5  A    between atoms: N_15  and  C_18 
REMARK    6  A    between atoms: C_24  and  N_25 
ROOT
ATOM      1  C   LIG d   1       3.702  -0.252  -7.092  0.00  0.00     0.090 A 
ATOM      2  C   LIG d   1       3.125   0.903  -7.888  0.00  0.00    -0.026 A 
ATOM      3  O   LIG d   1       3.013   2.008  -7.402  0.00  0.00    -0.864 OA
ATOM      4  N   LIG d   1       2.736   0.660  -9.154  0.00  0.00    -0.182 NA
ATOM      5  C   LIG d   1       2.852  -0.551  -9.709  0.00  0.00     0.336 A 
ATOM      6  O   LIG d   1       2.480  -0.683 -10.857  0.00  0.00    -0.250 OA
ATOM      7  N   LIG d   1       3.350  -1.629  -9.091  0.00  0.00    -0.192 N 
ATOM      8  C   LIG d   1       3.790  -1.582  -7.816  0.00  0.00     0.240 A 
ATOM      9  O   LIG d   1       4.238  -2.568  -7.270  0.00  0.00    -0.274 OA
ENDROOT
BRANCH   1  10
ATOM     10  C   LIG d   1       5.111   0.138  -6.642  0.00  0.00    -0.008 C 
ATOM     11  H   LIG d   1       5.446  -0.546  -5.848  0.00  0.00     0.033 H 
ATOM     12  H   LIG d   1       5.102   1.169  -6.257  0.00  0.00     0.033 H 
BRANCH  10  13
ATOM     13  C   LIG d   1       6.056   0.048  -7.812  0.00  0.00    -0.046 A 
ATOM     14  C   LIG d   1       6.176   1.110  -8.688  0.00  0.00    -0.058 A 
ATOM     15  C   LIG d   1       7.041   1.027  -9.762  0.00  0.00    -0.059 A 
ATOM     16  H   LIG d   1       5.591   2.006  -8.534  0.00  0.00     0.062 H 
ATOM     17  C   LIG d   1       7.789  -0.119  -9.961  0.00  0.00    -0.050 A 
ATOM     18  H   LIG d   1       7.134   1.857 -10.448  0.00  0.00     0.062 H 
ATOM     19  C   LIG d   1       7.671  -1.182  -9.085  0.00  0.00    -0.059 A 
ATOM     20  C   LIG d   1       6.804  -1.098  -8.011  0.00  0.00    -0.058 A 
ATOM     21  H   LIG d   1       8.254  -2.077  -9.239  0.00  0.00     0.062 H 
ATOM     22  H   LIG d   1       6.710  -1.929  -7.326  0.00  0.00     0.062 H 
BRANCH  17  23
ATOM     23  C   LIG d   1       8.739  -0.207 -11.127  0.00  0.00    -0.040 C 
ATOM     24  H   LIG d   1       9.169   0.786 -11.326  0.00  0.00     0.028 H 
ATOM     25  H   LIG d   1       8.194  -0.555 -12.017  0.00  0.00     0.028 H 
ATOM     26  H   LIG d   1       9.546  -0.916 -10.891  0.00  0.00     0.028 H 
ENDBRANCH  17  23
ENDBRANCH  10  13
ENDBRANCH   1  10
BRANCH   1  27
ATOM     27  C   LIG d   1       2.843  -0.446  -5.842  0.00  0.00     0.017 C 
ATOM     28  H   LIG d   1       2.085   0.350  -5.791  0.00  0.00     0.044 H 
ATOM     29  H   LIG d   1       2.344  -1.425  -5.888  0.00  0.00     0.044 H 
BRANCH  27  30
ATOM     30  N   LIG d   1       3.696  -0.387  -4.647  0.00  0.00    -0.300 N 
ATOM     31  C   LIG d   1       3.832  -1.715  -4.030  0.00  0.00     0.007 C 
ATOM     32  C   LIG d   1       4.868  -1.608  -2.899  0.00  0.00     0.013 C 
ATOM     33  H   LIG d   1       2.860  -2.033  -3.626  0.00  0.00     0.043 H 
ATOM     34  H   LIG d   1       4.169  -2.438  -4.787  0.00  0.00     0.043 H 
ATOM     35  C   LIG d   1       4.304  -0.671  -1.825  0.00  0.00    -0.038 C 
ATOM     36  H   LIG d   1       5.105  -2.590  -2.461  0.00  0.00     0.038 H 
ATOM     37  C   LIG d   1       6.121  -0.997  -3.485  0.00  0.00     0.026 A 
ATOM     38  C   LIG d   1       4.098   0.702  -2.473  0.00  0.00    -0.009 C 
ATOM     39  H   LIG d   1       5.010  -0.578  -0.987  0.00  0.00     0.028 H 
ATOM     40  H   LIG d   1       3.340  -1.049  -1.453  0.00  0.00     0.028 H 
ATOM     41  C   LIG d   1       3.184   0.594  -3.684  0.00  0.00     0.003 C 
ATOM     42  H   LIG d   1       3.604   1.384  -1.766  0.00  0.00     0.033 H 
ATOM     43  C   LIG d   1       5.453   1.286  -2.836  0.00  0.00     0.030 C 
ATOM     44  H   LIG d   1       3.121   1.582  -4.166  0.00  0.00     0.043 H 
ATOM     45  H   LIG d   1       2.185   0.287  -3.344  0.00  0.00     0.043 H 
ATOM     46  N   LIG d   1       6.311   0.342  -3.529  0.00  0.00    -0.312 N 
ATOM     47  H   LIG d   1       5.313   2.154  -3.495  0.00  0.00     0.050 H 
ATOM     48  H   LIG d   1       5.974   1.599  -1.920  0.00  0.00     0.050 H 
ATOM     49  C   LIG d   1       7.375   0.851  -4.197  0.00  0.00     0.252 A 
ATOM     50  C   LIG d   1       8.368   0.004  -4.710  0.00  0.00     0.003 A 
ATOM     51  O   LIG d   1       7.470   2.058  -4.355  0.00  0.00    -0.268 OA
ATOM     52  C   LIG d   1       8.218  -1.346  -4.589  0.00  0.00    -0.055 A 
ATOM     53  H   LIG d   1       9.180   0.378  -5.158  0.00  0.00     0.067 H 
ATOM     54  C   LIG d   1       7.063  -1.845  -3.975  0.00  0.00    -0.042 A 
ATOM     55  H   LIG d   1       8.925  -1.961  -4.937  0.00  0.00     0.062 H 
ATOM     56  H   LIG d   1       6.933  -2.833  -3.899  0.00  0.00     0.064 H 
ENDBRANCH  27  30
ENDBRANCH   1  27
BRANCH   7  57
ATOM     57  C   LIG d   1       3.416  -2.843  -9.790  0.00  0.00     0.045 A 
ATOM     58  C   LIG d   1       2.315  -3.688  -9.821  0.00  0.00    -0.040 A 
ATOM     59  C   LIG d   1       2.383  -4.884 -10.509  0.00  0.00    -0.060 A 
ATOM     60  H   LIG d   1       1.407  -3.412  -9.307  0.00  0.00     0.064 H 
ATOM     61  C   LIG d   1       3.546  -5.238 -11.168  0.00  0.00    -0.062 A 
ATOM     62  H   LIG d   1       1.527  -5.541 -10.534  0.00  0.00     0.062 H 
ATOM     63  C   LIG d   1       4.644  -4.399 -11.139  0.00  0.00    -0.060 A 
ATOM     64  H   LIG d   1       3.597  -6.173 -11.707  0.00  0.00     0.062 H 
ATOM     65  C   LIG d   1       4.580  -3.199 -10.456  0.00  0.00    -0.040 A 
ATOM     66  H   LIG d   1       5.551  -4.678 -11.655  0.00  0.00     0.062 H 
ATOM     67  H   LIG d   1       5.436  -2.542 -10.438  0.00  0.00     0.064 H 
ENDBRANCH   7  57
TORSDOF 6
ENDMDL
MODEL 3
REMARK VINA RESULT:      -7.3      1.895      2.961
REMARK  6 active torsions:
REMARK  status: ('A' for Active; 'I' for Inactive)
REMARK    1  A    between atoms: C_1  and  C_2 
REMARK    2  A    between atoms: C_5  and  C_8 
REMARK    3  A    between atoms: C_8  and  C_9 
REMARK    4  A    between atoms: C_9  and  C_24 
REMARK    5  A    between atoms: N_15  and  C_18 
REMARK    6  A    between atoms: C_24  and  N_25 
ROOT
ATOM      1  C   LIG d   1       6.349  -2.345  -7.175  0.00  0.00     0.090 A 
ATOM      2  C   LIG d   1       7.498  -3.224  -6.717  0.00  0.00    -0.026 A 
ATOM      3  O   LIG d   1       8.096  -3.935  -7.497  0.00  0.00    -0.864 OA
ATOM      4  N   LIG d   1       7.831  -3.191  -5.413  0.00  0.00    -0.182 NA
ATOM      5  C   LIG d   1       7.185  -2.413  -4.538  0.00  0.00     0.336 A 
ATOM      6  O   LIG d   1       7.552  -2.443  -3.380  0.00  0.00    -0.250 OA
ATOM      7  N   LIG d   1       6.165  -1.604  -4.844  0.00  0.00    -0.192 N 
ATOM      8  C   LIG d   1       5.686  -1.502  -6.102  0.00  0.00     0.240 A 
ATOM      9  O   LIG d   1       4.760  -0.764  -6.365  0.00  0.00    -0.274 OA
ENDROOT
BRANCH   1  10
ATOM     10  C   LIG d   1       6.874  -1.405  -8.262  0.00  0.00    -0.008 C 
ATOM     11  H   LIG d   1       6.028  -0.892  -8.744  0.00  0.00     0.033 H 
ATOM     12  H   LIG d   1       7.427  -1.987  -9.015  0.00  0.00     0.033 H 
BRANCH  10  13
ATOM     13  C   LIG d   1       7.793  -0.384  -7.643  0.00  0.00    -0.046 A 
ATOM     14  C   LIG d   1       7.297   0.843  -7.247  0.00  0.00    -0.058 A 
ATOM     15  C   LIG d   1       8.140   1.780  -6.680  0.00  0.00    -0.059 A 
ATOM     16  H   LIG d   1       6.249   1.071  -7.381  0.00  0.00     0.062 H 
ATOM     17  C   LIG d   1       9.481   1.489  -6.508  0.00  0.00    -0.050 A 
ATOM     18  H   LIG d   1       7.751   2.740  -6.371  0.00  0.00     0.062 H 
ATOM     19  C   LIG d   1       9.978   0.262  -6.903  0.00  0.00    -0.059 A 
ATOM     20  C   LIG d   1       9.134  -0.675  -7.471  0.00  0.00    -0.058 A 
ATOM     21  H   LIG d   1      11.025   0.034  -6.769  0.00  0.00     0.062 H 
ATOM     22  H   LIG d   1       9.522  -1.634  -7.781  0.00  0.00     0.062 H 
BRANCH  17  23
ATOM     23  C   LIG d   1      10.398   2.508  -5.882  0.00  0.00    -0.040 C 
ATOM     24  H   LIG d   1       9.802   3.250  -5.332  0.00  0.00     0.028 H 
ATOM     25  H   LIG d   1      10.976   3.013  -6.670  0.00  0.00     0.028 H 
ATOM     26  H   LIG d   1      11.087   2.004  -5.189  0.00  0.00     0.028 H 
ENDBRANCH  17  23
ENDBRANCH  10  13
ENDBRANCH   1  10
BRANCH   1  27
ATOM     27  C   LIG d   1       5.283  -3.244  -7.802  0.00  0.00     0.017 C 
ATOM     28  H   LIG d   1       5.756  -4.156  -8.195  0.00  0.00     0.044 H 
ATOM     29  H   LIG d   1       4.539  -3.516  -7.039  0.00  0.00     0.044 H 
BRANCH  27  30
ATOM     30  N   LIG d   1       4.618  -2.525  -8.898  0.00  0.00    -0.300 N 
ATOM     31  C   LIG d   1       3.159  -2.692  -8.830  0.00  0.00     0.007 C 
ATOM     32  C   LIG d   1       2.527  -1.779  -9.893  0.00  0.00     0.013 C 
ATOM     33  H   LIG d   1       2.900  -3.743  -9.029  0.00  0.00     0.043 H 
ATOM     34  H   LIG d   1       2.804  -2.411  -7.827  0.00  0.00     0.043 H 
ATOM     35  C   LIG d   1       2.972  -2.279 -11.273  0.00  0.00    -0.038 C 
ATOM     36  H   LIG d   1       1.428  -1.768  -9.829  0.00  0.00     0.038 H 
ATOM     37  C   LIG d   1       3.065  -0.383  -9.673  0.00  0.00     0.026 A 
ATOM     38  C   LIG d   1       4.498  -2.169 -11.333  0.00  0.00    -0.009 C 
ATOM     39  H   LIG d   1       2.528  -1.660 -12.067  0.00  0.00     0.028 H 
ATOM     40  H   LIG d   1       2.673  -3.328 -11.415  0.00  0.00     0.028 H 
ATOM     41  C   LIG d   1       5.140  -2.954 -10.200  0.00  0.00     0.003 C 
ATOM     42  H   LIG d   1       4.872  -2.606 -12.270  0.00  0.00     0.033 H 
ATOM     43  C   LIG d   1       4.890  -0.701 -11.298  0.00  0.00     0.030 C 
ATOM     44  H   LIG d   1       6.228  -2.790 -10.230  0.00  0.00     0.043 H 
ATOM     45  H   LIG d   1       4.926  -4.022 -10.346  0.00  0.00     0.043 H 
ATOM     46  N   LIG d   1       4.208   0.045 -10.257  0.00  0.00    -0.312 N 
ATOM     47  H   LIG d   1       5.971  -0.615 -11.116  0.00  0.00     0.050 H 
ATOM     48  H   LIG d   1       4.641  -0.233 -12.261  0.00  0.00     0.050 H 
ATOM     49  C   LIG d   1       4.732   1.247  -9.914  0.00  0.00     0.252 A 
ATOM     50  C   LIG d   1       4.024   2.122  -9.079  0.00  0.00     0.003 A 
ATOM     51  O   LIG d   1       5.831   1.570 -10.335  0.00  0.00    -0.268 OA
ATOM     52  C   LIG d   1       2.828   1.723  -8.558  0.00  0.00    -0.055 A 
ATOM     53  H   LIG d   1       4.384   3.030  -8.864  0.00  0.00     0.067 H 
ATOM     54  C   LIG d   1       2.356   0.440  -8.856  0.00  0.00    -0.042 A 
ATOM     55  H   LIG d   1       2.306   2.343  -7.973  0.00  0.00     0.062 H 
ATOM     56  H   LIG d   1       1.490   0.130  -8.463  0.00  0.00     0.064 H 
ENDBRANCH  27  30
ENDBRANCH   1  27
BRANCH   7  57
ATOM     57  C   LIG d   1       5.575  -0.838  -3.828  0.00  0.00     0.045 A 
ATOM     58  C   LIG d   1       6.064   0.429  -3.539  0.00  0.00    -0.040 A 
ATOM     59  C   LIG d   1       5.482   1.181  -2.537  0.00  0.00    -0.060 A 
ATOM     60  H   LIG d   1       6.898   0.826  -4.098  0.00  0.00     0.064 H 
ATOM     61  C   LIG d   1       4.414   0.672  -1.822  0.00  0.00    -0.062 A 
ATOM     62  H   LIG d   1       5.862   2.166  -2.313  0.00  0.00     0.062 H 
ATOM     63  C   LIG d   1       3.926  -0.589  -2.107  0.00  0.00    -0.060 A 
ATOM     64  H   LIG d   1       3.959   1.262  -1.039  0.00  0.00     0.062 H 
ATOM     65  C   LIG d   1       4.500  -1.344  -3.111  0.00  0.00    -0.040 A 
ATOM     66  H   LIG d   1       3.090  -0.984  -1.546  0.00  0.00     0.062 H 
ATOM     67  H   LIG d   1       4.115  -2.327  -3.336  0.00  0.00     0.064 H 
ENDBRANCH   7  57
TORSDOF 6
ENDMDL
MODEL 4
REMARK VINA RESULT:      -6.7      2.015      7.085
REMARK  6 active torsions:
REMARK  status: ('A' for Active; 'I' for Inactive)
REMARK    1  A    between atoms: C_1  and  C_2 
REMARK    2  A    between atoms: C_5  and  C_8 
REMARK    3  A    between atoms: C_8  and  C_9 
REMARK    4  A    between atoms: C_9  and  C_24 
REMARK    5  A    between atoms: N_15  and  C_18 
REMARK    6  A    between atoms: C_24  and  N_25 
ROOT
ATOM      1  C   LIG d   1       5.187  -0.095  -8.063  0.00  0.00     0.090 A 
ATOM      2  C   LIG d   1       4.207  -0.427  -6.954  0.00  0.00    -0.026 A 
ATOM      3  O   LIG d   1       3.768   0.436  -6.223  0.00  0.00    -0.864 OA
ATOM      4  N   LIG d   1       3.841  -1.714  -6.805  0.00  0.00    -0.182 NA
ATOM      5  C   LIG d   1       4.312  -2.680  -7.601  0.00  0.00     0.336 A 
ATOM      6  O   LIG d   1       3.928  -3.814  -7.399  0.00  0.00    -0.250 OA
ATOM      7  N   LIG d   1       5.175  -2.487  -8.605  0.00  0.00    -0.192 N 
ATOM      8  C   LIG d   1       5.658  -1.264  -8.908  0.00  0.00     0.240 A 
ATOM      9  O   LIG d   1       6.441  -1.105  -9.821  0.00  0.00    -0.274 OA
ENDROOT
BRANCH   1  10
ATOM     10  C   LIG d   1       4.527   0.927  -8.991  0.00  0.00    -0.008 C 
ATOM     11  H   LIG d   1       5.293   1.387  -9.634  0.00  0.00     0.033 H 
ATOM     12  H   LIG d   1       4.037   1.706  -8.389  0.00  0.00     0.033 H 
BRANCH  10  13
ATOM     13  C   LIG d   1       3.500   0.236  -9.850  0.00  0.00    -0.046 A 
ATOM     14  C   LIG d   1       2.253  -0.062  -9.334  0.00  0.00    -0.058 A 
ATOM     15  C   LIG d   1       1.312  -0.696 -10.122  0.00  0.00    -0.059 A 
ATOM     16  H   LIG d   1       2.015   0.202  -8.313  0.00  0.00     0.062 H 
ATOM     17  C   LIG d   1       1.616  -1.033 -11.428  0.00  0.00    -0.050 A 
ATOM     18  H   LIG d   1       0.337  -0.929  -9.717  0.00  0.00     0.062 H 
ATOM     19  C   LIG d   1       2.863  -0.735 -11.945  0.00  0.00    -0.059 A 
ATOM     20  C   LIG d   1       3.805  -0.101 -11.156  0.00  0.00    -0.058 A 
ATOM     21  H   LIG d   1       3.102  -0.999 -12.965  0.00  0.00     0.062 H 
ATOM     22  H   LIG d   1       4.780   0.131 -11.560  0.00  0.00     0.062 H 
BRANCH  17  23
ATOM     23  C   LIG d   1       0.587  -1.718 -12.289  0.00  0.00    -0.040 C 
ATOM     24  H   LIG d   1      -0.381  -1.728 -11.766  0.00  0.00     0.028 H 
ATOM     25  H   LIG d   1       0.906  -2.751 -12.489  0.00  0.00     0.028 H 
ATOM     26  H   LIG d   1       0.485  -1.175 -13.240  0.00  0.00     0.028 H 
ENDBRANCH  17  23
ENDBRANCH  10  13
ENDBRANCH   1  10
BRANCH   1  27
ATOM     27  C   LIG d   1       6.415   0.562  -7.432  0.00  0.00     0.017 C 
ATOM     28  H   LIG d   1       7.291   0.400  -8.078  0.00  0.00     0.044 H 
ATOM     29  H   LIG d   1       6.237   1.642  -7.322  0.00  0.00     0.044 H 
BRANCH  27  30
ATOM     30  N   LIG d   1       6.665  -0.030  -6.111  0.00  0.00    -0.300 N 
ATOM     31  C   LIG d   1       7.449   0.880  -5.264  0.00  0.00     0.007 C 
ATOM     32  C   LIG d   1       7.520   0.273  -3.854  0.00  0.00     0.013 C 
ATOM     33  H   LIG d   1       8.461   0.990  -5.682  0.00  0.00     0.043 H 
ATOM     34  H   LIG d   1       6.958   1.864  -5.231  0.00  0.00     0.043 H 
ATOM     35  C   LIG d   1       8.302  -1.042  -3.942  0.00  0.00    -0.038 C 
ATOM     36  H   LIG d   1       8.000   0.954  -3.134  0.00  0.00     0.038 H 
ATOM     37  C   LIG d   1       6.104  -0.019  -3.411  0.00  0.00     0.026 A 
ATOM     38  C   LIG d   1       7.527  -1.979  -4.873  0.00  0.00    -0.009 C 
ATOM     39  H   LIG d   1       8.391  -1.504  -2.948  0.00  0.00     0.028 H 
ATOM     40  H   LIG d   1       9.307  -0.864  -4.354  0.00  0.00     0.028 H 
ATOM     41  C   LIG d   1       7.322  -1.335  -6.236  0.00  0.00     0.003 C 
ATOM     42  H   LIG d   1       8.099  -2.902  -5.044  0.00  0.00     0.033 H 
ATOM     43  C   LIG d   1       6.207  -2.347  -4.217  0.00  0.00     0.030 C 
ATOM     44  H   LIG d   1       6.698  -2.003  -6.850  0.00  0.00     0.043 H 
ATOM     45  H   LIG d   1       8.303  -1.207  -6.715  0.00  0.00     0.043 H 
ATOM     46  N   LIG d   1       5.498  -1.198  -3.683  0.00  0.00    -0.312 N 
ATOM     47  H   LIG d   1       5.551  -2.828  -4.956  0.00  0.00     0.050 H 
ATOM     48  H   LIG d   1       6.392  -3.040  -3.384  0.00  0.00     0.050 H 
ATOM     49  C   LIG d   1       4.182  -1.360  -3.402  0.00  0.00     0.252 A 
ATOM     50  C   LIG d   1       3.477  -0.380  -2.690  0.00  0.00     0.003 A 
ATOM     51  O   LIG d   1       3.604  -2.370  -3.773  0.00  0.00    -0.268 OA
ATOM     52  C   LIG d   1       4.114   0.774  -2.340  0.00  0.00    -0.055 A 
ATOM     53  H   LIG d   1       2.520  -0.519  -2.437  0.00  0.00     0.067 H 
ATOM     54  C   LIG d   1       5.448   0.953  -2.725  0.00  0.00    -0.042 A 
ATOM     55  H   LIG d   1       3.628   1.476  -1.820  0.00  0.00     0.062 H 
ATOM     56  H   LIG d   1       5.918   1.804  -2.491  0.00  0.00     0.064 H 
ENDBRANCH  27  30
ENDBRANCH   1  27
BRANCH   7  57
ATOM     57  C   LIG d   1       5.590  -3.590  -9.366  0.00  0.00     0.045 A 
ATOM     58  C   LIG d   1       6.688  -4.339  -8.963  0.00  0.00    -0.040 A 
ATOM     59  C   LIG d   1       7.096  -5.424  -9.715  0.00  0.00    -0.060 A 
ATOM     60  H   LIG d   1       7.223  -4.073  -8.064  0.00  0.00     0.064 H 
ATOM     61  C   LIG d   1       6.410  -5.765 -10.866  0.00  0.00    -0.062 A 
ATOM     62  H   LIG d   1       7.948  -6.007  -9.402  0.00  0.00     0.062 H 
ATOM     63  C   LIG d   1       5.317  -5.021 -11.269  0.00  0.00    -0.060 A 
ATOM     64  H   LIG d   1       6.729  -6.615 -11.452  0.00  0.00     0.062 H 
ATOM     65  C   LIG d   1       4.902  -3.938 -10.520  0.00  0.00    -0.040 A 
ATOM     66  H   LIG d   1       4.783  -5.290 -12.169  0.00  0.00     0.062 H 
ATOM     67  H   LIG d   1       4.045  -3.360 -10.832  0.00  0.00     0.064 H 
ENDBRANCH   7  57
TORSDOF 6
ENDMDL
MODEL 5
REMARK VINA RESULT:      -6.6      1.915      3.740
REMARK  6 active torsions:
REMARK  status: ('A' for Active; 'I' for Inactive)
REMARK    1  A    between atoms: C_1  and  C_2 
REMARK    2  A    between atoms: C_5  and  C_8 
REMARK    3  A    between atoms: C_8  and  C_9 
REMARK    4  A    between atoms: C_9  and  C_24 
REMARK    5  A    between atoms: N_15  and  C_18 
REMARK    6  A    between atoms: C_24  and  N_25 
ROOT
ATOM      1  C   LIG d   1       4.729  -2.755  -7.108  0.00  0.00     0.090 A 
ATOM      2  C   LIG d   1       3.940  -1.958  -8.131  0.00  0.00    -0.026 A 
ATOM      3  O   LIG d   1       3.774  -2.373  -9.258  0.00  0.00    -0.864 OA
ATOM      4  N   LIG d   1       3.432  -0.773  -7.746  0.00  0.00    -0.182 NA
ATOM      5  C   LIG d   1       3.603  -0.299  -6.507  0.00  0.00     0.336 A 
ATOM      6  O   LIG d   1       3.109   0.778  -6.242  0.00  0.00    -0.250 OA
ATOM      7  N   LIG d   1       4.278  -0.926  -5.536  0.00  0.00    -0.192 N 
ATOM      8  C   LIG d   1       4.862  -2.127  -5.734  0.00  0.00     0.240 A 
ATOM      9  O   LIG d   1       5.471  -2.683  -4.844  0.00  0.00    -0.274 OA
ENDROOT
BRANCH   1  10
ATOM     10  C   LIG d   1       4.055  -4.119  -6.946  0.00  0.00    -0.008 C 
ATOM     11  H   LIG d   1       3.194  -4.186  -7.626  0.00  0.00     0.033 H 
ATOM     12  H   LIG d   1       3.712  -4.237  -5.907  0.00  0.00     0.033 H 
BRANCH  10  13
ATOM     13  C   LIG d   1       5.042  -5.209  -7.275  0.00  0.00    -0.046 A 
ATOM     14  C   LIG d   1       5.200  -5.627  -8.583  0.00  0.00    -0.058 A 
ATOM     15  C   LIG d   1       6.104  -6.627  -8.886  0.00  0.00    -0.059 A 
ATOM     16  H   LIG d   1       4.615  -5.171  -9.370  0.00  0.00     0.062 H 
ATOM     17  C   LIG d   1       6.852  -7.210  -7.880  0.00  0.00    -0.050 A 
ATOM     18  H   LIG d   1       6.226  -6.954  -9.909  0.00  0.00     0.062 H 
ATOM     19  C   LIG d   1       6.695  -6.793  -6.572  0.00  0.00    -0.059 A 
ATOM     20  C   LIG d   1       5.790  -5.792  -6.269  0.00  0.00    -0.058 A 
ATOM     21  H   LIG d   1       7.279  -7.248  -5.785  0.00  0.00     0.062 H 
ATOM     22  H   LIG d   1       5.666  -5.466  -5.247  0.00  0.00     0.062 H 
BRANCH  17  23
ATOM     23  C   LIG d   1       7.843  -8.296  -8.211  0.00  0.00    -0.040 C 
ATOM     24  H   LIG d   1       7.864  -8.454  -9.299  0.00  0.00     0.028 H 
ATOM     25  H   LIG d   1       7.545  -9.229  -7.710  0.00  0.00     0.028 H 
ATOM     26  H   LIG d   1       8.843  -7.997  -7.864  0.00  0.00     0.028 H 
ENDBRANCH  17  23
ENDBRANCH  10  13
ENDBRANCH   1  10
BRANCH   1  27
ATOM     27  C   LIG d   1       6.134  -2.985  -7.665  0.00  0.00     0.017 C 
ATOM     28  H   LIG d   1       6.826  -3.201  -6.837  0.00  0.00     0.044 H 
ATOM     29  H   LIG d   1       6.118  -3.837  -8.360  0.00  0.00     0.044 H 
BRANCH  27  30
ATOM     30  N   LIG d   1       6.584  -1.780  -8.376  0.00  0.00    -0.300 N 
ATOM     31  C   LIG d   1       7.260  -2.132  -9.634  0.00  0.00     0.007 C 
ATOM     32  C   LIG d   1       7.544  -0.829 -10.400  0.00  0.00     0.013 C 
ATOM     33  H   LIG d   1       8.202  -2.654  -9.410  0.00  0.00     0.043 H 
ATOM     34  H   LIG d   1       6.609  -2.789 -10.229  0.00  0.00     0.043 H 
ATOM     35  C   LIG d   1       8.534   0.000  -9.575  0.00  0.00    -0.038 C 
ATOM     36  H   LIG d   1       7.951  -1.021 -11.404  0.00  0.00     0.038 H 
ATOM     37  C   LIG d   1       6.239  -0.075 -10.515  0.00  0.00     0.026 A 
ATOM     38  C   LIG d   1       7.865   0.320  -8.235  0.00  0.00    -0.009 C 
ATOM     39  H   LIG d   1       8.778   0.938 -10.096  0.00  0.00     0.028 H 
ATOM     40  H   LIG d   1       9.458  -0.571  -9.396  0.00  0.00     0.028 H 
ATOM     41  C   LIG d   1       7.447  -0.958  -7.522  0.00  0.00     0.003 C 
ATOM     42  H   LIG d   1       8.575   0.833  -7.570  0.00  0.00     0.033 H 
ATOM     43  C   LIG d   1       6.684   1.243  -8.480  0.00  0.00     0.030 C 
ATOM     44  H   LIG d   1       6.904  -0.687  -6.604  0.00  0.00     0.043 H 
ATOM     45  H   LIG d   1       8.352  -1.526  -7.260  0.00  0.00     0.043 H 
ATOM     46  N   LIG d   1       5.828   0.796  -9.564  0.00  0.00    -0.312 N 
ATOM     47  H   LIG d   1       6.067   1.299  -7.571  0.00  0.00     0.050 H 
ATOM     48  H   LIG d   1       7.051   2.247  -8.738  0.00  0.00     0.050 H 
ATOM     49  C   LIG d   1       4.586   1.334  -9.633  0.00  0.00     0.252 A 
ATOM     50  C   LIG d   1       3.778   1.124 -10.759  0.00  0.00     0.003 A 
ATOM     51  O   LIG d   1       4.166   2.009  -8.705  0.00  0.00    -0.268 OA
ATOM     52  C   LIG d   1       4.228   0.313 -11.758  0.00  0.00    -0.055 A 
ATOM     53  H   LIG d   1       2.881   1.561 -10.835  0.00  0.00     0.067 H 
ATOM     54  C   LIG d   1       5.477  -0.303 -11.617  0.00  0.00    -0.042 A 
ATOM     55  H   LIG d   1       3.669   0.165 -12.574  0.00  0.00     0.062 H 
ATOM     56  H   LIG d   1       5.808  -0.915 -12.335  0.00  0.00     0.064 H 
ENDBRANCH  27  30
ENDBRANCH   1  27
BRANCH   7  57
ATOM     57  C   LIG d   1       4.381  -0.317  -4.277  0.00  0.00     0.045 A 
ATOM     58  C   LIG d   1       5.535   0.375  -3.933  0.00  0.00    -0.040 A 
ATOM     59  C   LIG d   1       5.635   0.973  -2.691  0.00  0.00    -0.060 A 
ATOM     60  H   LIG d   1       6.353   0.446  -4.634  0.00  0.00     0.064 H 
ATOM     61  C   LIG d   1       4.587   0.883  -1.793  0.00  0.00    -0.062 A 
ATOM     62  H   LIG d   1       6.531   1.512  -2.424  0.00  0.00     0.062 H 
ATOM     63  C   LIG d   1       3.438   0.194  -2.134  0.00  0.00    -0.060 A 
ATOM     64  H   LIG d   1       4.666   1.353  -0.824  0.00  0.00     0.062 H 
ATOM     65  C   LIG d   1       3.330  -0.402  -3.375  0.00  0.00    -0.040 A 
ATOM     66  H   LIG d   1       2.622   0.125  -1.430  0.00  0.00     0.062 H 
ATOM     67  H   LIG d   1       2.431  -0.936  -3.642  0.00  0.00     0.064 H 
ENDBRANCH   7  57
TORSDOF 6
ENDMDL
MODEL 6
REMARK VINA RESULT:      -6.6      2.161      5.696
REMARK  6 active torsions:
REMARK  status: ('A' for Active; 'I' for Inactive)
REMARK    1  A    between atoms: C_1  and  C_2 
REMARK    2  A    between atoms: C_5  and  C_8 
REMARK    3  A    between atoms: C_8  and  C_9 
REMARK    4  A    between atoms: C_9  and  C_24 
REMARK    5  A    between atoms: N_15  and  C_18 
REMARK    6  A    between atoms: C_24  and  N_25 
ROOT
ATOM      1  C   LIG d   1       4.986  -1.304  -7.700  0.00  0.00     0.090 A 
ATOM      2  C   LIG d   1       6.424  -1.755  -7.872  0.00  0.00    -0.026 A 
ATOM      3  O   LIG d   1       6.843  -2.124  -8.948  0.00  0.00    -0.864 OA
ATOM      4  N   LIG d   1       7.221  -1.735  -6.787  0.00  0.00    -0.182 NA
ATOM      5  C   LIG d   1       6.778  -1.330  -5.592  0.00  0.00     0.336 A 
ATOM      6  O   LIG d   1       7.565  -1.341  -4.666  0.00  0.00    -0.250 OA
ATOM      7  N   LIG d   1       5.532  -0.913  -5.341  0.00  0.00    -0.192 N 
ATOM      8  C   LIG d   1       4.587  -0.864  -6.304  0.00  0.00     0.240 A 
ATOM      9  O   LIG d   1       3.462  -0.484  -6.061  0.00  0.00    -0.274 OA
ENDROOT
BRANCH   1  10
ATOM     10  C   LIG d   1       4.736  -0.136  -8.656  0.00  0.00    -0.008 C 
ATOM     11  H   LIG d   1       5.658   0.085  -9.215  0.00  0.00     0.033 H 
ATOM     12  H   LIG d   1       4.435   0.752  -8.080  0.00  0.00     0.033 H 
BRANCH  10  13
ATOM     13  C   LIG d   1       3.639  -0.503  -9.622  0.00  0.00    -0.046 A 
ATOM     14  C   LIG d   1       2.317  -0.304  -9.275  0.00  0.00    -0.058 A 
ATOM     15  C   LIG d   1       1.311  -0.642 -10.160  0.00  0.00    -0.059 A 
ATOM     16  H   LIG d   1       2.068   0.114  -8.310  0.00  0.00     0.062 H 
ATOM     17  C   LIG d   1       1.628  -1.177 -11.395  0.00  0.00    -0.050 A 
ATOM     18  H   LIG d   1       0.276  -0.487  -9.888  0.00  0.00     0.062 H 
ATOM     19  C   LIG d   1       2.951  -1.375 -11.744  0.00  0.00    -0.059 A 
ATOM     20  C   LIG d   1       3.957  -1.038 -10.857  0.00  0.00    -0.058 A 
ATOM     21  H   LIG d   1       3.199  -1.793 -12.708  0.00  0.00     0.062 H 
ATOM     22  H   LIG d   1       4.991  -1.193 -11.128  0.00  0.00     0.062 H 
BRANCH  17  23
ATOM     23  C   LIG d   1       0.532  -1.538 -12.364  0.00  0.00    -0.040 C 
ATOM     24  H   LIG d   1       0.642  -2.589 -12.669  0.00  0.00     0.028 H 
ATOM     25  H   LIG d   1       0.599  -0.890 -13.251  0.00  0.00     0.028 H 
ATOM     26  H   LIG d   1      -0.446  -1.397 -11.881  0.00  0.00     0.028 H 
ENDBRANCH  17  23
ENDBRANCH  10  13
ENDBRANCH   1  10
BRANCH   1  27
ATOM     27  C   LIG d   1       4.071  -2.457  -8.115  0.00  0.00     0.017 C 
ATOM     28  H   LIG d   1       3.079  -2.321  -7.659  0.00  0.00     0.044 H 
ATOM     29  H   LIG d   1       3.973  -2.471  -9.210  0.00  0.00     0.044 H 
BRANCH  27  30
ATOM     30  N   LIG d   1       4.649  -3.729  -7.659  0.00  0.00    -0.300 N 
ATOM     31  C   LIG d   1       4.276  -4.831  -8.559  0.00  0.00     0.007 C 
ATOM     32  C   LIG d   1       5.052  -6.084  -8.122  0.00  0.00     0.013 C 
ATOM     33  H   LIG d   1       3.193  -5.011  -8.489  0.00  0.00     0.043 H 
ATOM     34  H   LIG d   1       4.537  -4.563  -9.594  0.00  0.00     0.043 H 
ATOM     35  C   LIG d   1       4.576  -6.472  -6.718  0.00  0.00    -0.038 C 
ATOM     36  H   LIG d   1       4.908  -6.924  -8.819  0.00  0.00     0.038 H 
ATOM     37  C   LIG d   1       6.518  -5.716  -8.066  0.00  0.00     0.026 A 
ATOM     38  C   LIG d   1       4.902  -5.305  -5.781  0.00  0.00    -0.009 C 
ATOM     39  H   LIG d   1       5.096  -7.376  -6.372  0.00  0.00     0.028 H 
ATOM     40  H   LIG d   1       3.490  -6.650  -6.717  0.00  0.00     0.028 H 
ATOM     41  C   LIG d   1       4.256  -4.019  -6.276  0.00  0.00     0.003 C 
ATOM     42  H   LIG d   1       4.491  -5.497  -4.779  0.00  0.00     0.033 H 
ATOM     43  C   LIG d   1       6.411  -5.172  -5.664  0.00  0.00     0.030 C 
ATOM     44  H   LIG d   1       4.574  -3.192  -5.624  0.00  0.00     0.043 H 
ATOM     45  H   LIG d   1       3.164  -4.131  -6.221  0.00  0.00     0.043 H 
ATOM     46  N   LIG d   1       7.086  -5.206  -6.949  0.00  0.00    -0.312 N 
ATOM     47  H   LIG d   1       6.658  -4.214  -5.184  0.00  0.00     0.050 H 
ATOM     48  H   LIG d   1       6.806  -6.000  -5.059  0.00  0.00     0.050 H 
ATOM     49  C   LIG d   1       8.362  -4.750  -6.988  0.00  0.00     0.252 A 
ATOM     50  C   LIG d   1       9.154  -4.943  -8.129  0.00  0.00     0.003 A 
ATOM     51  O   LIG d   1       8.825  -4.165  -6.022  0.00  0.00    -0.268 OA
ATOM     52  C   LIG d   1       8.605  -5.536  -9.227  0.00  0.00    -0.055 A 
ATOM     53  H   LIG d   1      10.111  -4.653  -8.143  0.00  0.00     0.067 H 
ATOM     54  C   LIG d   1       7.258  -5.913  -9.189  0.00  0.00    -0.042 A 
ATOM     55  H   LIG d   1       9.162  -5.693 -10.042  0.00  0.00     0.062 H 
ATOM     56  H   LIG d   1       6.840  -6.330  -9.996  0.00  0.00     0.064 H 
ENDBRANCH  27  30
ENDBRANCH   1  27
BRANCH   7  57
ATOM     57  C   LIG d   1       5.198  -0.513  -4.039  0.00  0.00     0.045 A 
ATOM     58  C   LIG d   1       4.670  -1.434  -3.143  0.00  0.00    -0.040 A 
ATOM     59  C   LIG d   1       4.341  -1.038  -1.861  0.00  0.00    -0.060 A 
ATOM     60  H   LIG d   1       4.516  -2.458  -3.449  0.00  0.00     0.064 H 
ATOM     61  C   LIG d   1       4.538   0.273  -1.470  0.00  0.00    -0.062 A 
ATOM     62  H   LIG d   1       3.931  -1.753  -1.165  0.00  0.00     0.062 H 
ATOM     63  C   LIG d   1       5.063   1.192  -2.359  0.00  0.00    -0.060 A 
ATOM     64  H   LIG d   1       4.281   0.581  -0.466  0.00  0.00     0.062 H 
ATOM     65  C   LIG d   1       5.399   0.801  -3.641  0.00  0.00    -0.040 A 
ATOM     66  H   LIG d   1       5.216   2.216  -2.051  0.00  0.00     0.062 H 
ATOM     67  H   LIG d   1       5.813   1.518  -4.334  0.00  0.00     0.064 H 
ENDBRANCH   7  57
TORSDOF 6
ENDMDL
MODEL 7
REMARK VINA RESULT:      -6.5      2.311      5.676
REMARK  6 active torsions:
REMARK  status: ('A' for Active; 'I' for Inactive)
REMARK    1  A    between atoms: C_1  and  C_2 
REMARK    2  A    between atoms: C_5  and  C_8 
REMARK    3  A    between atoms: C_8  and  C_9 
REMARK    4  A    between atoms: C_9  and  C_24 
REMARK    5  A    between atoms: N_15  and  C_18 
REMARK    6  A    between atoms: C_24  and  N_25 
ROOT
ATOM      1  C   LIG d   1       5.019  -2.478  -5.690  0.00  0.00     0.090 A 
ATOM      2  C   LIG d   1       4.261  -2.061  -4.444  0.00  0.00    -0.026 A 
ATOM      3  O   LIG d   1       4.307  -2.723  -3.429  0.00  0.00    -0.864 OA
ATOM      4  N   LIG d   1       3.531  -0.931  -4.502  0.00  0.00    -0.182 NA
ATOM      5  C   LIG d   1       3.469  -0.187  -5.612  0.00  0.00     0.336 A 
ATOM      6  O   LIG d   1       2.789   0.819  -5.578  0.00  0.00    -0.250 OA
ATOM      7  N   LIG d   1       4.102  -0.468  -6.757  0.00  0.00    -0.192 N 
ATOM      8  C   LIG d   1       4.881  -1.563  -6.892  0.00  0.00     0.240 A 
ATOM      9  O   LIG d   1       5.447  -1.805  -7.936  0.00  0.00    -0.274 OA
ENDROOT
BRANCH   1  10
ATOM     10  C   LIG d   1       6.504  -2.574  -5.334  0.00  0.00    -0.008 C 
ATOM     11  H   LIG d   1       7.047  -3.066  -6.154  0.00  0.00     0.033 H 
ATOM     12  H   LIG d   1       6.623  -3.161  -4.411  0.00  0.00     0.033 H 
BRANCH  10  13
ATOM     13  C   LIG d   1       7.061  -1.189  -5.123  0.00  0.00    -0.046 A 
ATOM     14  C   LIG d   1       6.901  -0.557  -3.904  0.00  0.00    -0.058 A 
ATOM     15  C   LIG d   1       7.410   0.713  -3.712  0.00  0.00    -0.059 A 
ATOM     16  H   LIG d   1       6.376  -1.056  -3.102  0.00  0.00     0.062 H 
ATOM     17  C   LIG d   1       8.081   1.351  -4.738  0.00  0.00    -0.050 A 
ATOM     18  H   LIG d   1       7.284   1.207  -2.759  0.00  0.00     0.062 H 
ATOM     19  C   LIG d   1       8.242   0.720  -5.957  0.00  0.00    -0.059 A 
ATOM     20  C   LIG d   1       7.732  -0.550  -6.150  0.00  0.00    -0.058 A 
ATOM     21  H   LIG d   1       8.765   1.218  -6.759  0.00  0.00     0.062 H 
ATOM     22  H   LIG d   1       7.856  -1.044  -7.102  0.00  0.00     0.062 H 
BRANCH  17  23
ATOM     23  C   LIG d   1       8.644   2.733  -4.526  0.00  0.00    -0.040 C 
ATOM     24  H   LIG d   1       9.554   2.668  -3.911  0.00  0.00     0.028 H 
ATOM     25  H   LIG d   1       7.898   3.357  -4.011  0.00  0.00     0.028 H 
ATOM     26  H   LIG d   1       8.889   3.183  -5.499  0.00  0.00     0.028 H 
ENDBRANCH  17  23
ENDBRANCH  10  13
ENDBRANCH   1  10
BRANCH   1  27
ATOM     27  C   LIG d   1       4.539  -3.872  -6.095  0.00  0.00     0.017 C 
ATOM     28  H   LIG d   1       3.900  -4.285  -5.301  0.00  0.00     0.044 H 
ATOM     29  H   LIG d   1       3.965  -3.805  -7.030  0.00  0.00     0.044 H 
BRANCH  27  30
ATOM     30  N   LIG d   1       5.699  -4.751  -6.296  0.00  0.00    -0.300 N 
ATOM     31  C   LIG d   1       5.872  -5.080  -7.719  0.00  0.00     0.007 C 
ATOM     32  C   LIG d   1       7.193  -5.851  -7.871  0.00  0.00     0.013 C 
ATOM     33  H   LIG d   1       5.029  -5.701  -8.057  0.00  0.00     0.043 H 
ATOM     34  H   LIG d   1       5.903  -4.152  -8.309  0.00  0.00     0.043 H 
ATOM     35  C   LIG d   1       7.058  -7.179  -7.117  0.00  0.00    -0.038 C 
ATOM     36  H   LIG d   1       7.445  -6.037  -8.926  0.00  0.00     0.038 H 
ATOM     37  C   LIG d   1       8.281  -5.022  -7.226  0.00  0.00     0.026 A 
ATOM     38  C   LIG d   1       6.814  -6.849  -5.641  0.00  0.00    -0.009 C 
ATOM     39  H   LIG d   1       7.979  -7.771  -7.213  0.00  0.00     0.028 H 
ATOM     40  H   LIG d   1       6.207  -7.758  -7.508  0.00  0.00     0.028 H 
ATOM     41  C   LIG d   1       5.586  -5.965  -5.482  0.00  0.00     0.003 C 
ATOM     42  H   LIG d   1       6.615  -7.770  -5.075  0.00  0.00     0.033 H 
ATOM     43  C   LIG d   1       8.060  -6.194  -5.069  0.00  0.00     0.030 C 
ATOM     44  H   LIG d   1       5.488  -5.688  -4.421  0.00  0.00     0.043 H 
ATOM     45  H   LIG d   1       4.700  -6.536  -5.795  0.00  0.00     0.043 H 
ATOM     46  N   LIG d   1       8.585  -5.136  -5.912  0.00  0.00    -0.312 N 
ATOM     47  H   LIG d   1       7.826  -5.754  -4.089  0.00  0.00     0.050 H 
ATOM     48  H   LIG d   1       8.851  -6.950  -4.953  0.00  0.00     0.050 H 
ATOM     49  C   LIG d   1       9.459  -4.270  -5.344  0.00  0.00     0.252 A 
ATOM     50  C   LIG d   1      10.173  -3.356  -6.132  0.00  0.00     0.003 A 
ATOM     51  O   LIG d   1       9.627  -4.284  -4.135  0.00  0.00    -0.268 OA
ATOM     52  C   LIG d   1       9.928  -3.301  -7.473  0.00  0.00    -0.055 A 
ATOM     53  H   LIG d   1      10.856  -2.751  -5.724  0.00  0.00     0.067 H 
ATOM     54  C   LIG d   1       8.953  -4.144  -8.017  0.00  0.00    -0.042 A 
ATOM     55  H   LIG d   1      10.441  -2.664  -8.049  0.00  0.00     0.062 H 
ATOM     56  H   LIG d   1       8.752  -4.098  -8.995  0.00  0.00     0.064 H 
ENDBRANCH  27  30
ENDBRANCH   1  27
BRANCH   7  57
ATOM     57  C   LIG d   1       3.952   0.399  -7.848  0.00  0.00     0.045 A 
ATOM     58  C   LIG d   1       4.983   1.261  -8.197  0.00  0.00    -0.040 A 
ATOM     59  C   LIG d   1       4.833   2.116  -9.272  0.00  0.00    -0.060 A 
ATOM     60  H   LIG d   1       5.902   1.263  -7.630  0.00  0.00     0.064 H 
ATOM     61  C   LIG d   1       3.657   2.113 -10.000  0.00  0.00    -0.062 A 
ATOM     62  H   LIG d   1       5.635   2.785  -9.545  0.00  0.00     0.062 H 
ATOM     63  C   LIG d   1       2.629   1.257  -9.653  0.00  0.00    -0.060 A 
ATOM     64  H   LIG d   1       3.541   2.781 -10.840  0.00  0.00     0.062 H 
ATOM     65  C   LIG d   1       2.775   0.396  -8.582  0.00  0.00    -0.040 A 
ATOM     66  H   LIG d   1       1.711   1.257 -10.223  0.00  0.00     0.062 H 
ATOM     67  H   LIG d   1       1.973  -0.275  -8.315  0.00  0.00     0.064 H 
ENDBRANCH   7  57
TORSDOF 6
ENDMDL
MODEL 8
REMARK VINA RESULT:      -6.4      3.560      6.267
REMARK  6 active torsions:
REMARK  status: ('A' for Active; 'I' for Inactive)
REMARK    1  A    between atoms: C_1  and  C_2 
REMARK    2  A    between atoms: C_5  and  C_8 
REMARK    3  A    between atoms: C_8  and  C_9 
REMARK    4  A    between atoms: C_9  and  C_24 
REMARK    5  A    between atoms: N_15  and  C_18 
REMARK    6  A    between atoms: C_24  and  N_25 
ROOT
ATOM      1  C   LIG d   1       8.110   0.355  -4.815  0.00  0.00     0.090 A 
ATOM      2  C   LIG d   1       9.405  -0.344  -5.183  0.00  0.00    -0.026 A 
ATOM      3  O   LIG d   1       9.427  -1.527  -5.450  0.00  0.00    -0.864 OA
ATOM      4  N   LIG d   1      10.532   0.392  -5.202  0.00  0.00    -0.182 NA
ATOM      5  C   LIG d   1      10.528   1.698  -4.912  0.00  0.00     0.336 A 
ATOM      6  O   LIG d   1      11.589   2.288  -4.955  0.00  0.00    -0.250 OA
ATOM      7  N   LIG d   1       9.440   2.403  -4.580  0.00  0.00    -0.192 N 
ATOM      8  C   LIG d   1       8.217   1.836  -4.505  0.00  0.00     0.240 A 
ATOM      9  O   LIG d   1       7.241   2.488  -4.202  0.00  0.00    -0.274 OA
ENDROOT
BRANCH   1  10
ATOM     10  C   LIG d   1       7.129   0.181  -5.976  0.00  0.00    -0.008 C 
ATOM     11  H   LIG d   1       6.236   0.800  -5.798  0.00  0.00     0.033 H 
ATOM     12  H   LIG d   1       6.833  -0.875  -6.052  0.00  0.00     0.033 H 
BRANCH  10  13
ATOM     13  C   LIG d   1       7.789   0.611  -7.260  0.00  0.00    -0.046 A 
ATOM     14  C   LIG d   1       8.278  -0.337  -8.138  0.00  0.00    -0.058 A 
ATOM     15  C   LIG d   1       8.885   0.057  -9.316  0.00  0.00    -0.059 A 
ATOM     16  H   LIG d   1       8.188  -1.388  -7.903  0.00  0.00     0.062 H 
ATOM     17  C   LIG d   1       9.001   1.401  -9.617  0.00  0.00    -0.050 A 
ATOM     18  H   LIG d   1       9.268  -0.685 -10.001  0.00  0.00     0.062 H 
ATOM     19  C   LIG d   1       8.511   2.351  -8.740  0.00  0.00    -0.059 A 
ATOM     20  C   LIG d   1       7.905   1.956  -7.562  0.00  0.00    -0.058 A 
ATOM     21  H   LIG d   1       8.602   3.401  -8.974  0.00  0.00     0.062 H 
ATOM     22  H   LIG d   1       7.523   2.698  -6.875  0.00  0.00     0.062 H 
BRANCH  17  23
ATOM     23  C   LIG d   1       9.655   1.831 -10.904  0.00  0.00    -0.040 C 
ATOM     24  H   LIG d   1      10.743   1.686 -10.829  0.00  0.00     0.028 H 
ATOM     25  H   LIG d   1       9.438   2.894 -11.088  0.00  0.00     0.028 H 
ATOM     26  H   LIG d   1       9.261   1.228 -11.735  0.00  0.00     0.028 H 
ENDBRANCH  17  23
ENDBRANCH  10  13
ENDBRANCH   1  10
BRANCH   1  27
ATOM     27  C   LIG d   1       7.522  -0.346  -3.590  0.00  0.00     0.017 C 
ATOM     28  H   LIG d   1       8.257  -1.058  -3.186  0.00  0.00     0.044 H 
ATOM     29  H   LIG d   1       7.277   0.402  -2.822  0.00  0.00     0.044 H 
BRANCH  27  30
ATOM     30  N   LIG d   1       6.302  -1.068  -3.976  0.00  0.00    -0.300 N 
ATOM     31  C   LIG d   1       5.160  -0.657  -3.146  0.00  0.00     0.007 C 
ATOM     32  C   LIG d   1       3.896  -1.318  -3.718  0.00  0.00     0.013 C 
ATOM     33  H   LIG d   1       5.324  -0.984  -2.109  0.00  0.00     0.043 H 
ATOM     34  H   LIG d   1       5.062   0.439  -3.173  0.00  0.00     0.043 H 
ATOM     35  C   LIG d   1       4.041  -2.836  -3.560  0.00  0.00    -0.038 C 
ATOM     36  H   LIG d   1       2.982  -0.969  -3.213  0.00  0.00     0.038 H 
ATOM     37  C   LIG d   1       3.827  -0.975  -5.188  0.00  0.00     0.026 A 
ATOM     38  C   LIG d   1       5.266  -3.269  -4.371  0.00  0.00    -0.009 C 
ATOM     39  H   LIG d   1       3.147  -3.349  -3.944  0.00  0.00     0.028 H 
ATOM     40  H   LIG d   1       4.189  -3.100  -2.502  0.00  0.00     0.028 H 
ATOM     41  C   LIG d   1       6.508  -2.519  -3.913  0.00  0.00     0.003 C 
ATOM     42  H   LIG d   1       5.468  -4.338  -4.211  0.00  0.00     0.033 H 
ATOM     43  C   LIG d   1       4.985  -3.049  -5.848  0.00  0.00     0.030 C 
ATOM     44  H   LIG d   1       7.348  -2.798  -4.566  0.00  0.00     0.043 H 
ATOM     45  H   LIG d   1       6.734  -2.812  -2.878  0.00  0.00     0.043 H 
ATOM     46  N   LIG d   1       4.424  -1.740  -6.131  0.00  0.00    -0.312 N 
ATOM     47  H   LIG d   1       5.921  -3.140  -6.417  0.00  0.00     0.050 H 
ATOM     48  H   LIG d   1       4.265  -3.802  -6.200  0.00  0.00     0.050 H 
ATOM     49  C   LIG d   1       4.467  -1.316  -7.418  0.00  0.00     0.252 A 
ATOM     50  C   LIG d   1       3.764  -0.170  -7.815  0.00  0.00     0.003 A 
ATOM     51  O   LIG d   1       5.124  -1.936  -8.239  0.00  0.00    -0.268 OA
ATOM     52  C   LIG d   1       3.089   0.555  -6.877  0.00  0.00    -0.055 A 
ATOM     53  H   LIG d   1       3.751   0.118  -8.773  0.00  0.00     0.067 H 
ATOM     54  C   LIG d   1       3.140   0.143  -5.541  0.00  0.00    -0.042 A 
ATOM     55  H   LIG d   1       2.572   1.366  -7.149  0.00  0.00     0.062 H 
ATOM     56  H   LIG d   1       2.666   0.679  -4.842  0.00  0.00     0.064 H 
ENDBRANCH  27  30
ENDBRANCH   1  27
BRANCH   7  57
ATOM     57  C   LIG d   1       9.576   3.770  -4.300  0.00  0.00     0.045 A 
ATOM     58  C   LIG d   1       9.811   4.193  -2.999  0.00  0.00    -0.040 A 
ATOM     59  C   LIG d   1       9.943   5.541  -2.725  0.00  0.00    -0.060 A 
ATOM     60  H   LIG d   1       9.891   3.470  -2.201  0.00  0.00     0.064 H 
ATOM     61  C   LIG d   1       9.842   6.468  -3.747  0.00  0.00    -0.062 A 
ATOM     62  H   LIG d   1      10.127   5.871  -1.714  0.00  0.00     0.062 H 
ATOM     63  C   LIG d   1       9.607   6.049  -5.043  0.00  0.00    -0.060 A 
ATOM     64  H   LIG d   1       9.946   7.521  -3.532  0.00  0.00     0.062 H 
ATOM     65  C   LIG d   1       9.478   4.702  -5.323  0.00  0.00    -0.040 A 
ATOM     66  H   LIG d   1       9.528   6.775  -5.839  0.00  0.00     0.062 H 
ATOM     67  H   LIG d   1       9.299   4.376  -6.336  0.00  0.00     0.064 H 
ENDBRANCH   7  57
TORSDOF 6
ENDMDL
MODEL 9
REMARK VINA RESULT:      -6.4      1.659      3.363
REMARK  6 active torsions:
REMARK  status: ('A' for Active; 'I' for Inactive)
REMARK    1  A    between atoms: C_1  and  C_2 
REMARK    2  A    between atoms: C_5  and  C_8 
REMARK    3  A    between atoms: C_8  and  C_9 
REMARK    4  A    between atoms: C_9  and  C_24 
REMARK    5  A    between atoms: N_15  and  C_18 
REMARK    6  A    between atoms: C_24  and  N_25 
ROOT
ATOM      1  C   LIG d   1       6.838  -0.699  -7.494  0.00  0.00     0.090 A 
ATOM      2  C   LIG d   1       6.427  -1.833  -8.414  0.00  0.00    -0.026 A 
ATOM      3  O   LIG d   1       6.958  -1.992  -9.492  0.00  0.00    -0.864 OA
ATOM      4  N   LIG d   1       5.448  -2.657  -7.994  0.00  0.00    -0.182 NA
ATOM      5  C   LIG d   1       4.851  -2.499  -6.808  0.00  0.00     0.336 A 
ATOM      6  O   LIG d   1       3.979  -3.289  -6.507  0.00  0.00    -0.250 OA
ATOM      7  N   LIG d   1       5.145  -1.535  -5.928  0.00  0.00    -0.192 N 
ATOM      8  C   LIG d   1       6.098  -0.611  -6.173  0.00  0.00     0.240 A 
ATOM      9  O   LIG d   1       6.353   0.258  -5.366  0.00  0.00    -0.274 OA
ENDROOT
BRANCH   1  10
ATOM     10  C   LIG d   1       8.331  -0.848  -7.194  0.00  0.00    -0.008 C 
ATOM     11  H   LIG d   1       8.687   0.042  -6.654  0.00  0.00     0.033 H 
ATOM     12  H   LIG d   1       8.887  -0.950  -8.138  0.00  0.00     0.033 H 
BRANCH  10  13
ATOM     13  C   LIG d   1       8.553  -2.073  -6.345  0.00  0.00    -0.046 A 
ATOM     14  C   LIG d   1       8.562  -1.967  -4.967  0.00  0.00    -0.058 A 
ATOM     15  C   LIG d   1       8.767  -3.091  -4.188  0.00  0.00    -0.059 A 
ATOM     16  H   LIG d   1       8.410  -1.006  -4.498  0.00  0.00     0.062 H 
ATOM     17  C   LIG d   1       8.963  -4.321  -4.788  0.00  0.00    -0.050 A 
ATOM     18  H   LIG d   1       8.775  -3.008  -3.111  0.00  0.00     0.062 H 
ATOM     19  C   LIG d   1       8.954  -4.428  -6.166  0.00  0.00    -0.059 A 
ATOM     20  C   LIG d   1       8.749  -3.304  -6.945  0.00  0.00    -0.058 A 
ATOM     21  H   LIG d   1       9.107  -5.388  -6.635  0.00  0.00     0.062 H 
ATOM     22  H   LIG d   1       8.743  -3.386  -8.022  0.00  0.00     0.062 H 
BRANCH  17  23
ATOM     23  C   LIG d   1       9.178  -5.547  -3.939  0.00  0.00    -0.040 C 
ATOM     24  H   LIG d   1       9.347  -5.245  -2.895  0.00  0.00     0.028 H 
ATOM     25  H   LIG d   1      10.056  -6.098  -4.308  0.00  0.00     0.028 H 
ATOM     26  H   LIG d   1       8.290  -6.193  -3.995  0.00  0.00     0.028 H 
ENDBRANCH  17  23
ENDBRANCH  10  13
ENDBRANCH   1  10
BRANCH   1  27
ATOM     27  C   LIG d   1       6.635   0.619  -8.242  0.00  0.00     0.017 C 
ATOM     28  H   LIG d   1       6.757   1.460  -7.543  0.00  0.00     0.044 H 
ATOM     29  H   LIG d   1       7.379   0.702  -9.047  0.00  0.00     0.044 H 
BRANCH  27  30
ATOM     30  N   LIG d   1       5.284   0.653  -8.819  0.00  0.00    -0.300 N 
ATOM     31  C   LIG d   1       5.209   1.612  -9.931  0.00  0.00     0.007 C 
ATOM     32  C   LIG d   1       3.828   1.466 -10.590  0.00  0.00     0.013 C 
ATOM     33  H   LIG d   1       5.339   2.633  -9.543  0.00  0.00     0.043 H 
ATOM     34  H   LIG d   1       6.004   1.392 -10.659  0.00  0.00     0.043 H 
ATOM     35  C   LIG d   1       2.766   1.883  -9.566  0.00  0.00    -0.038 C 
ATOM     36  H   LIG d   1       3.738   2.077 -11.502  0.00  0.00     0.038 H 
ATOM     37  C   LIG d   1       3.639   0.006 -10.935  0.00  0.00     0.026 A 
ATOM     38  C   LIG d   1       2.876   0.929  -8.373  0.00  0.00    -0.009 C 
ATOM     39  H   LIG d   1       1.760   1.808 -10.004  0.00  0.00     0.028 H 
ATOM     40  H   LIG d   1       2.943   2.915  -9.228  0.00  0.00     0.028 H 
ATOM     41  C   LIG d   1       4.282   0.953  -7.791  0.00  0.00     0.003 C 
ATOM     42  H   LIG d   1       2.197   1.248  -7.569  0.00  0.00     0.033 H 
ATOM     43  C   LIG d   1       2.471  -0.466  -8.817  0.00  0.00     0.030 C 
ATOM     44  H   LIG d   1       4.343   0.203  -6.989  0.00  0.00     0.043 H 
ATOM     45  H   LIG d   1       4.472   1.953  -7.374  0.00  0.00     0.043 H 
ATOM     46  N   LIG d   1       3.103  -0.874 -10.058  0.00  0.00    -0.312 N 
ATOM     47  H   LIG d   1       2.757  -1.195  -8.044  0.00  0.00     0.050 H 
ATOM     48  H   LIG d   1       1.383  -0.501  -8.971  0.00  0.00     0.050 H 
ATOM     49  C   LIG d   1       3.093  -2.197 -10.352  0.00  0.00     0.252 A 
ATOM     50  C   LIG d   1       3.486  -2.651 -11.618  0.00  0.00     0.003 A 
ATOM     51  O   LIG d   1       2.738  -3.002  -9.505  0.00  0.00    -0.268 OA
ATOM     52  C   LIG d   1       3.946  -1.751 -12.534  0.00  0.00    -0.055 A 
ATOM     53  H   LIG d   1       3.431  -3.621 -11.855  0.00  0.00     0.067 H 
ATOM     54  C   LIG d   1       4.033  -0.402 -12.170  0.00  0.00    -0.042 A 
ATOM     55  H   LIG d   1       4.216  -2.059 -13.446  0.00  0.00     0.062 H 
ATOM     56  H   LIG d   1       4.388   0.263 -12.828  0.00  0.00     0.064 H 
ENDBRANCH  27  30
ENDBRANCH   1  27
BRANCH   7  57
ATOM     57  C   LIG d   1       4.441  -1.483  -4.716  0.00  0.00     0.045 A 
ATOM     58  C   LIG d   1       4.833  -2.283  -3.651  0.00  0.00    -0.040 A 
ATOM     59  C   LIG d   1       4.137  -2.231  -2.458  0.00  0.00    -0.060 A 
ATOM     60  H   LIG d   1       5.680  -2.945  -3.754  0.00  0.00     0.064 H 
ATOM     61  C   LIG d   1       3.053  -1.383  -2.325  0.00  0.00    -0.062 A 
ATOM     62  H   LIG d   1       4.442  -2.851  -1.629  0.00  0.00     0.062 H 
ATOM     63  C   LIG d   1       2.661  -0.586  -3.385  0.00  0.00    -0.060 A 
ATOM     64  H   LIG d   1       2.511  -1.342  -1.392  0.00  0.00     0.062 H 
ATOM     65  C   LIG d   1       3.355  -0.630  -4.578  0.00  0.00    -0.040 A 
ATOM     66  H   LIG d   1       1.814   0.075  -3.278  0.00  0.00     0.062 H 
ATOM     67  H   LIG d   1       3.052  -0.004  -5.404  0.00  0.00     0.064 H 
ENDBRANCH   7  57
TORSDOF 6
ENDMDL
