MODEL 1
REMARK VINA RESULT:      -6.5      0.000      0.000
REMARK  8 active torsions:
REMARK  status: ('A' for Active; 'I' for Inactive)
REMARK    1  A    between atoms: C_4  and  C_7 
REMARK    2  A    between atoms: C_7  and  C_9 
REMARK    3  A    between atoms: C_7  and  N_16 
REMARK    4  A    between atoms: N_19  and  C_22 
REMARK    5  A    between atoms: C_22  and  C_23 
REMARK    6  A    between atoms: C_23  and  O_24 
REMARK    7  A    between atoms: O_24  and  C_25 
REMARK    8  A    between atoms: C_25  and  C_26 
ROOT
ATOM      1  N   LIG d   1       4.340  -2.314  -6.562  0.00  0.00     0.246 N 
ATOM      2  C   LIG d   1       4.630  -2.946  -7.857  0.00  0.00    -0.018 C 
ATOM      3  C   LIG d   1       3.441  -2.743  -8.799  0.00  0.00     0.039 C 
ATOM      4  N   LIG d   1       3.200  -1.305  -8.978  0.00  0.00    -0.290 N 
ATOM      5  C   LIG d   1       2.933  -0.655  -7.687  0.00  0.00     0.039 C 
ATOM      6  C   LIG d   1       4.126  -0.874  -6.754  0.00  0.00    -0.018 C 
ATOM      7  H   LIG d   1       5.520  -2.490  -8.292  0.00  0.00     0.083 H 
ATOM      8  H   LIG d   1       4.801  -4.011  -7.711  0.00  0.00     0.083 H 
ATOM      9  H   LIG d   1       3.662  -3.199  -9.765  0.00  0.00     0.048 H 
ATOM     10  H   LIG d   1       2.554  -3.211  -8.370  0.00  0.00     0.048 H 
ATOM     11  H   LIG d   1       2.783   0.413  -7.842  0.00  0.00     0.048 H 
ATOM     12  H   LIG d   1       2.038  -1.088  -7.240  0.00  0.00     0.048 H 
ATOM     13  H   LIG d   1       3.925  -0.405  -5.791  0.00  0.00     0.083 H 
ATOM     14  H   LIG d   1       5.019  -0.430  -7.195  0.00  0.00     0.083 H 
ATOM     15  H   LIG d   1       3.510  -2.728  -6.165  0.00  0.00     0.204 HD
ENDROOT
BRANCH   1  16
ATOM     16  C   LIG d   1       5.475  -2.523  -5.652  0.00  0.00     0.031 C 
ATOM     17  H   LIG d   1       6.349  -1.998  -6.034  0.00  0.00     0.096 H 
BRANCH  16  18
ATOM     18  C   LIG d   1       5.127  -1.992  -4.285  0.00  0.00     0.005 A 
ATOM     19  C   LIG d   1       5.792  -0.889  -3.782  0.00  0.00    -0.053 A 
ATOM     20  C   LIG d   1       5.472  -0.401  -2.529  0.00  0.00    -0.061 A 
ATOM     21  H   LIG d   1       6.561  -0.409  -4.369  0.00  0.00     0.062 H 
ATOM     22  C   LIG d   1       4.487  -1.016  -1.779  0.00  0.00    -0.062 A 
ATOM     23  H   LIG d   1       5.991   0.460  -2.137  0.00  0.00     0.062 H 
ATOM     24  C   LIG d   1       3.821  -2.118  -2.282  0.00  0.00    -0.061 A 
ATOM     25  H   LIG d   1       4.240  -0.637  -0.799  0.00  0.00     0.062 H 
ATOM     26  C   LIG d   1       4.142  -2.607  -3.534  0.00  0.00    -0.053 A 
ATOM     27  H   LIG d   1       3.052  -2.598  -1.696  0.00  0.00     0.062 H 
ATOM     28  H   LIG d   1       3.622  -3.468  -3.928  0.00  0.00     0.062 H 
ENDBRANCH  16  18
BRANCH  16  29
ATOM     29  C   LIG d   1       5.776  -3.997  -5.556  0.00  0.00     0.005 A 
ATOM     30  C   LIG d   1       4.746  -4.917  -5.605  0.00  0.00    -0.051 A 
ATOM     31  C   LIG d   1       5.023  -6.269  -5.522  0.00  0.00    -0.043 A 
ATOM     32  H   LIG d   1       3.726  -4.581  -5.710  0.00  0.00     0.062 H 
ATOM     33  C   LIG d   1       6.330  -6.701  -5.381  0.00  0.00     0.041 A 
ATOM     34  H   LIG d   1       4.219  -6.989  -5.565  0.00  0.00     0.063 H 
ATOM     35  C   LIG d   1       7.360  -5.778  -5.326  0.00  0.00    -0.043 A 
ATOM     36 CL   LIG d   1       6.678  -8.398  -5.271  0.00  0.00    -0.084 Cl
ATOM     37  C   LIG d   1       7.083  -4.427  -5.414  0.00  0.00    -0.051 A 
ATOM     38  H   LIG d   1       8.380  -6.114  -5.216  0.00  0.00     0.063 H 
ATOM     39  H   LIG d   1       7.887  -3.707  -5.372  0.00  0.00     0.062 H 
ENDBRANCH  16  29
ENDBRANCH   1  16
BRANCH   4  40
ATOM     40  C   LIG d   1       2.100  -1.069  -9.923  0.00  0.00     0.023 C 
ATOM     41  H   LIG d   1       1.665  -2.023 -10.220  0.00  0.00     0.045 H 
ATOM     42  H   LIG d   1       1.337  -0.455  -9.445  0.00  0.00     0.045 H 
BRANCH  40  43
ATOM     43  C   LIG d   1       2.636  -0.346 -11.159  0.00  0.00     0.061 C 
ATOM     44  H   LIG d   1       2.790  -1.066 -11.964  0.00  0.00     0.057 H 
ATOM     45  H   LIG d   1       1.916   0.407 -11.481  0.00  0.00     0.057 H 
BRANCH  43  46
ATOM     46  O   LIG d   1       3.877   0.286 -10.841  0.00  0.00    -0.373 OA
BRANCH  46  47
ATOM     47  C   LIG d   1       3.804   1.712 -10.773  0.00  0.00     0.087 C 
ATOM     48  H   LIG d   1       4.325   2.144 -11.626  0.00  0.00     0.062 H 
ATOM     49  H   LIG d   1       2.759   2.022 -10.790  0.00  0.00     0.062 H 
BRANCH  47  50
ATOM     50  C   LIG d   1       4.447   2.187  -9.496  0.00  0.00     0.067 C 
ATOM     51  O   LIG d   1       5.662   2.230  -9.405  0.00  0.00    -0.547 OA
ATOM     52  O   LIG d   1       3.752   2.531  -8.555  0.00  0.00    -0.547 OA
ENDBRANCH  47  50
ENDBRANCH  46  47
ENDBRANCH  43  46
ENDBRANCH  40  43
ENDBRANCH   4  40
TORSDOF 8
ENDMDL
MODEL 2
REMARK VINA RESULT:      -6.4      4.917      7.897
REMARK  8 active torsions:
REMARK  status: ('A' for Active; 'I' for Inactive)
REMARK    1  A    between atoms: C_4  and  C_7 
REMARK    2  A    between atoms: C_7  and  C_9 
REMARK    3  A    between atoms: C_7  and  N_16 
REMARK    4  A    between atoms: N_19  and  C_22 
REMARK    5  A    between atoms: C_22  and  C_23 
REMARK    6  A    between atoms: C_23  and  O_24 
REMARK    7  A    between atoms: O_24  and  C_25 
REMARK    8  A    between atoms: C_25  and  C_26 
ROOT
ATOM      1  N   LIG d   1       4.466  -2.693  -6.893  0.00  0.00     0.246 N 
ATOM      2  C   LIG d   1       5.053  -3.368  -5.727  0.00  0.00    -0.018 C 
ATOM      3  C   LIG d   1       4.559  -4.816  -5.675  0.00  0.00     0.039 C 
ATOM      4  N   LIG d   1       4.948  -5.508  -6.911  0.00  0.00    -0.290 N 
ATOM      5  C   LIG d   1       4.388  -4.829  -8.089  0.00  0.00     0.039 C 
ATOM      6  C   LIG d   1       4.884  -3.382  -8.121  0.00  0.00    -0.018 C 
ATOM      7  H   LIG d   1       6.140  -3.358  -5.811  0.00  0.00     0.083 H 
ATOM      8  H   LIG d   1       4.753  -2.849  -4.818  0.00  0.00     0.083 H 
ATOM      9  H   LIG d   1       5.006  -5.322  -4.818  0.00  0.00     0.048 H 
ATOM     10  H   LIG d   1       3.473  -4.826  -5.578  0.00  0.00     0.048 H 
ATOM     11  H   LIG d   1       4.710  -5.345  -8.994  0.00  0.00     0.048 H 
ATOM     12  H   LIG d   1       3.300  -4.840  -8.031  0.00  0.00     0.048 H 
ATOM     13  H   LIG d   1       4.458  -2.872  -8.986  0.00  0.00     0.083 H 
ATOM     14  H   LIG d   1       5.972  -3.371  -8.192  0.00  0.00     0.083 H 
ATOM     15  H   LIG d   1       3.460  -2.713  -6.822  0.00  0.00     0.204 HD
ENDROOT
BRANCH   1  16
ATOM     16  C   LIG d   1       4.927  -1.298  -6.933  0.00  0.00     0.031 C 
ATOM     17  H   LIG d   1       5.962  -1.267  -7.274  0.00  0.00     0.096 H 
BRANCH  16  18
ATOM     18  C   LIG d   1       4.061  -0.510  -7.883  0.00  0.00     0.005 A 
ATOM     19  C   LIG d   1       2.866  -1.040  -8.330  0.00  0.00    -0.053 A 
ATOM     20  C   LIG d   1       2.071  -0.316  -9.199  0.00  0.00    -0.061 A 
ATOM     21  H   LIG d   1       2.552  -2.019  -7.999  0.00  0.00     0.062 H 
ATOM     22  C   LIG d   1       2.473   0.938  -9.621  0.00  0.00    -0.062 A 
ATOM     23  H   LIG d   1       1.138  -0.730  -9.549  0.00  0.00     0.062 H 
ATOM     24  C   LIG d   1       3.668   1.468  -9.173  0.00  0.00    -0.061 A 
ATOM     25  H   LIG d   1       1.855   1.501 -10.304  0.00  0.00     0.062 H 
ATOM     26  C   LIG d   1       4.463   0.744  -8.305  0.00  0.00    -0.053 A 
ATOM     27  H   LIG d   1       3.982   2.448  -9.503  0.00  0.00     0.062 H 
ATOM     28  H   LIG d   1       5.397   1.158  -7.955  0.00  0.00     0.062 H 
ENDBRANCH  16  18
BRANCH  16  29
ATOM     29  C   LIG d   1       4.834  -0.699  -5.553  0.00  0.00     0.005 A 
ATOM     30  C   LIG d   1       5.985  -0.334  -4.880  0.00  0.00    -0.051 A 
ATOM     31  C   LIG d   1       5.900   0.220  -3.617  0.00  0.00    -0.043 A 
ATOM     32  H   LIG d   1       6.950  -0.481  -5.342  0.00  0.00     0.062 H 
ATOM     33  C   LIG d   1       4.664   0.401  -3.022  0.00  0.00     0.041 A 
ATOM     34  H   LIG d   1       6.799   0.509  -3.092  0.00  0.00     0.063 H 
ATOM     35  C   LIG d   1       3.513   0.031  -3.695  0.00  0.00    -0.043 A 
ATOM     36 CL   LIG d   1       4.557   1.092  -1.433  0.00  0.00    -0.084 Cl
ATOM     37  C   LIG d   1       3.598  -0.519  -4.961  0.00  0.00    -0.051 A 
ATOM     38  H   LIG d   1       2.548   0.173  -3.232  0.00  0.00     0.063 H 
ATOM     39  H   LIG d   1       2.700  -0.807  -5.486  0.00  0.00     0.062 H 
ENDBRANCH  16  29
ENDBRANCH   1  16
BRANCH   4  40
ATOM     40  C   LIG d   1       4.540  -6.920  -6.875  0.00  0.00     0.023 C 
ATOM     41  H   LIG d   1       3.454  -6.986  -6.938  0.00  0.00     0.045 H 
ATOM     42  H   LIG d   1       4.986  -7.447  -7.719  0.00  0.00     0.045 H 
BRANCH  40  43
ATOM     43  C   LIG d   1       5.016  -7.554  -5.568  0.00  0.00     0.061 C 
ATOM     44  H   LIG d   1       6.069  -7.824  -5.656  0.00  0.00     0.057 H 
ATOM     45  H   LIG d   1       4.892  -6.842  -4.751  0.00  0.00     0.057 H 
BRANCH  43  46
ATOM     46  O   LIG d   1       4.244  -8.727  -5.298  0.00  0.00    -0.373 OA
BRANCH  46  47
ATOM     47  C   LIG d   1       4.769  -9.539  -4.247  0.00  0.00     0.087 C 
ATOM     48  H   LIG d   1       5.411 -10.312  -4.670  0.00  0.00     0.062 H 
ATOM     49  H   LIG d   1       5.349  -8.919  -3.564  0.00  0.00     0.062 H 
BRANCH  47  50
ATOM     50  C   LIG d   1       3.633 -10.184  -3.496  0.00  0.00     0.067 C 
ATOM     51  O   LIG d   1       3.643 -11.386  -3.288  0.00  0.00    -0.547 OA
ATOM     52  O   LIG d   1       2.704  -9.504  -3.094  0.00  0.00    -0.547 OA
ENDBRANCH  47  50
ENDBRANCH  46  47
ENDBRANCH  43  46
ENDBRANCH  40  43
ENDBRANCH   4  40
TORSDOF 8
ENDMDL
MODEL 3
REMARK VINA RESULT:      -6.3      4.375      7.075
REMARK  8 active torsions:
REMARK  status: ('A' for Active; 'I' for Inactive)
REMARK    1  A    between atoms: C_4  and  C_7 
REMARK    2  A    between atoms: C_7  and  C_9 
REMARK    3  A    between atoms: C_7  and  N_16 
REMARK    4  A    between atoms: N_19  and  C_22 
REMARK    5  A    between atoms: C_22  and  C_23 
REMARK    6  A    between atoms: C_23  and  O_24 
REMARK    7  A    between atoms: O_24  and  C_25 
REMARK    8  A    between atoms: C_25  and  C_26 
ROOT
ATOM      1  N   LIG d   1       5.694  -2.090  -5.584  0.00  0.00     0.246 N 
ATOM      2  C   LIG d   1       5.526  -3.185  -6.550  0.00  0.00    -0.018 C 
ATOM      3  C   LIG d   1       6.842  -3.953  -6.684  0.00  0.00     0.039 C 
ATOM      4  N   LIG d   1       7.230  -4.490  -5.372  0.00  0.00    -0.290 N 
ATOM      5  C   LIG d   1       7.378  -3.408  -4.388  0.00  0.00     0.039 C 
ATOM      6  C   LIG d   1       6.057  -2.644  -4.273  0.00  0.00    -0.018 C 
ATOM      7  H   LIG d   1       4.745  -3.860  -6.201  0.00  0.00     0.083 H 
ATOM      8  H   LIG d   1       5.244  -2.773  -7.519  0.00  0.00     0.083 H 
ATOM      9  H   LIG d   1       6.713  -4.774  -7.390  0.00  0.00     0.048 H 
ATOM     10  H   LIG d   1       7.621  -3.280  -7.047  0.00  0.00     0.048 H 
ATOM     11  H   LIG d   1       7.640  -3.831  -3.419  0.00  0.00     0.048 H 
ATOM     12  H   LIG d   1       8.164  -2.726  -4.713  0.00  0.00     0.048 H 
ATOM     13  H   LIG d   1       6.169  -1.831  -3.554  0.00  0.00     0.083 H 
ATOM     14  H   LIG d   1       5.272  -3.322  -3.936  0.00  0.00     0.083 H 
ATOM     15  H   LIG d   1       6.425  -1.471  -5.902  0.00  0.00     0.204 HD
ENDROOT
BRANCH   1  16
ATOM     16  C   LIG d   1       4.435  -1.342  -5.468  0.00  0.00     0.031 C 
ATOM     17  H   LIG d   1       3.600  -2.040  -5.415  0.00  0.00     0.096 H 
BRANCH  16  18
ATOM     18  C   LIG d   1       4.465  -0.498  -4.220  0.00  0.00     0.005 A 
ATOM     19  C   LIG d   1       3.358  -0.447  -3.394  0.00  0.00    -0.053 A 
ATOM     20  C   LIG d   1       3.385   0.326  -2.248  0.00  0.00    -0.061 A 
ATOM     21  H   LIG d   1       2.472  -1.011  -3.644  0.00  0.00     0.062 H 
ATOM     22  C   LIG d   1       4.521   1.047  -1.928  0.00  0.00    -0.062 A 
ATOM     23  H   LIG d   1       2.521   0.367  -1.603  0.00  0.00     0.062 H 
ATOM     24  C   LIG d   1       5.628   0.995  -2.754  0.00  0.00    -0.061 A 
ATOM     25  H   LIG d   1       4.541   1.654  -1.036  0.00  0.00     0.062 H 
ATOM     26  C   LIG d   1       5.600   0.223  -3.900  0.00  0.00    -0.053 A 
ATOM     27  H   LIG d   1       6.515   1.559  -2.504  0.00  0.00     0.062 H 
ATOM     28  H   LIG d   1       6.466   0.183  -4.545  0.00  0.00     0.062 H 
ENDBRANCH  16  18
BRANCH  16  29
ATOM     29  C   LIG d   1       4.268  -0.451  -6.673  0.00  0.00     0.005 A 
ATOM     30  C   LIG d   1       3.009  -0.017  -7.041  0.00  0.00    -0.051 A 
ATOM     31  C   LIG d   1       2.856   0.804  -8.143  0.00  0.00    -0.043 A 
ATOM     32  H   LIG d   1       2.145  -0.317  -6.468  0.00  0.00     0.062 H 
ATOM     33  C   LIG d   1       3.962   1.184  -8.882  0.00  0.00     0.041 A 
ATOM     34  H   LIG d   1       1.872   1.147  -8.428  0.00  0.00     0.063 H 
ATOM     35  C   LIG d   1       5.222   0.745  -8.515  0.00  0.00    -0.043 A 
ATOM     36 CL   LIG d   1       3.770   2.211 -10.268  0.00  0.00    -0.084 Cl
ATOM     37  C   LIG d   1       5.375  -0.072  -7.410  0.00  0.00    -0.051 A 
ATOM     38  H   LIG d   1       6.085   1.041  -9.091  0.00  0.00     0.063 H 
ATOM     39  H   LIG d   1       6.358  -0.415  -7.124  0.00  0.00     0.062 H 
ENDBRANCH  16  29
ENDBRANCH   1  16
BRANCH   4  40
ATOM     40  C   LIG d   1       8.462  -5.284  -5.471  0.00  0.00     0.023 C 
ATOM     41  H   LIG d   1       9.150  -4.803  -6.165  0.00  0.00     0.045 H 
ATOM     42  H   LIG d   1       8.927  -5.353  -4.488  0.00  0.00     0.045 H 
BRANCH  40  43
ATOM     43  C   LIG d   1       8.125  -6.687  -5.976  0.00  0.00     0.061 C 
ATOM     44  H   LIG d   1       7.649  -6.617  -6.954  0.00  0.00     0.057 H 
ATOM     45  H   LIG d   1       9.040  -7.273  -6.059  0.00  0.00     0.057 H 
BRANCH  43  46
ATOM     46  O   LIG d   1       7.234  -7.324  -5.057  0.00  0.00    -0.373 OA
BRANCH  46  47
ATOM     47  C   LIG d   1       6.363  -8.283  -5.661  0.00  0.00     0.087 C 
ATOM     48  H   LIG d   1       6.456  -8.225  -6.745  0.00  0.00     0.062 H 
ATOM     49  H   LIG d   1       6.638  -9.283  -5.326  0.00  0.00     0.062 H 
BRANCH  47  50
ATOM     50  C   LIG d   1       4.941  -7.992  -5.260  0.00  0.00     0.067 C 
ATOM     51  O   LIG d   1       4.216  -8.897  -4.882  0.00  0.00    -0.547 OA
ATOM     52  O   LIG d   1       4.513  -6.851  -5.312  0.00  0.00    -0.547 OA
ENDBRANCH  47  50
ENDBRANCH  46  47
ENDBRANCH  43  46
ENDBRANCH  40  43
ENDBRANCH   4  40
TORSDOF 8
ENDMDL
MODEL 4
REMARK VINA RESULT:      -6.2      4.823      6.752
REMARK  8 active torsions:
REMARK  status: ('A' for Active; 'I' for Inactive)
REMARK    1  A    between atoms: C_4  and  C_7 
REMARK    2  A    between atoms: C_7  and  C_9 
REMARK    3  A    between atoms: C_7  and  N_16 
REMARK    4  A    between atoms: N_19  and  C_22 
REMARK    5  A    between atoms: C_22  and  C_23 
REMARK    6  A    between atoms: C_23  and  O_24 
REMARK    7  A    between atoms: O_24  and  C_25 
REMARK    8  A    between atoms: C_25  and  C_26 
ROOT
ATOM      1  N   LIG d   1       6.068   0.240  -5.890  0.00  0.00     0.246 N 
ATOM      2  C   LIG d   1       7.033   0.276  -6.997  0.00  0.00    -0.018 C 
ATOM      3  C   LIG d   1       7.835   1.578  -6.931  0.00  0.00     0.039 C 
ATOM      4  N   LIG d   1       8.538   1.652  -5.642  0.00  0.00    -0.290 N 
ATOM      5  C   LIG d   1       7.586   1.592  -4.524  0.00  0.00     0.039 C 
ATOM      6  C   LIG d   1       6.786   0.290  -4.610  0.00  0.00    -0.018 C 
ATOM      7  H   LIG d   1       7.711  -0.573  -6.916  0.00  0.00     0.083 H 
ATOM      8  H   LIG d   1       6.500   0.226  -7.946  0.00  0.00     0.083 H 
ATOM      9  H   LIG d   1       8.562   1.598  -7.744  0.00  0.00     0.048 H 
ATOM     10  H   LIG d   1       7.158   2.427  -7.026  0.00  0.00     0.048 H 
ATOM     11  H   LIG d   1       8.130   1.622  -3.580  0.00  0.00     0.048 H 
ATOM     12  H   LIG d   1       6.905   2.441  -4.580  0.00  0.00     0.048 H 
ATOM     13  H   LIG d   1       6.068   0.249  -3.789  0.00  0.00     0.083 H 
ATOM     14  H   LIG d   1       7.465  -0.560  -4.541  0.00  0.00     0.083 H 
ATOM     15  H   LIG d   1       5.447   1.032  -5.959  0.00  0.00     0.204 HD
ENDROOT
BRANCH   1  16
ATOM     16  C   LIG d   1       5.286  -1.002  -5.964  0.00  0.00     0.031 C 
ATOM     17  H   LIG d   1       5.955  -1.844  -6.139  0.00  0.00     0.096 H 
BRANCH  16  18
ATOM     18  C   LIG d   1       4.547  -1.209  -4.667  0.00  0.00     0.005 A 
ATOM     19  C   LIG d   1       4.799  -2.330  -3.899  0.00  0.00    -0.053 A 
ATOM     20  C   LIG d   1       4.122  -2.519  -2.709  0.00  0.00    -0.061 A 
ATOM     21  H   LIG d   1       5.525  -3.057  -4.229  0.00  0.00     0.062 H 
ATOM     22  C   LIG d   1       3.192  -1.586  -2.287  0.00  0.00    -0.062 A 
ATOM     23  H   LIG d   1       4.318  -3.394  -2.109  0.00  0.00     0.062 H 
ATOM     24  C   LIG d   1       2.941  -0.465  -3.055  0.00  0.00    -0.061 A 
ATOM     25  H   LIG d   1       2.661  -1.736  -1.359  0.00  0.00     0.062 H 
ATOM     26  C   LIG d   1       3.617  -0.276  -4.245  0.00  0.00    -0.053 A 
ATOM     27  H   LIG d   1       2.215   0.264  -2.725  0.00  0.00     0.062 H 
ATOM     28  H   LIG d   1       3.420   0.600  -4.846  0.00  0.00     0.062 H 
ENDBRANCH  16  18
BRANCH  16  29
ATOM     29  C   LIG d   1       4.295  -0.905  -7.097  0.00  0.00     0.005 A 
ATOM     30  C   LIG d   1       4.039  -2.010  -7.886  0.00  0.00    -0.051 A 
ATOM     31  C   LIG d   1       3.127  -1.923  -8.922  0.00  0.00    -0.043 A 
ATOM     32  H   LIG d   1       4.549  -2.942  -7.694  0.00  0.00     0.062 H 
ATOM     33  C   LIG d   1       2.478  -0.727  -9.174  0.00  0.00     0.041 A 
ATOM     34  H   LIG d   1       2.924  -2.787  -9.537  0.00  0.00     0.063 H 
ATOM     35  C   LIG d   1       2.740   0.380  -8.385  0.00  0.00    -0.043 A 
ATOM     36 CL   LIG d   1       1.338  -0.615 -10.477  0.00  0.00    -0.084 Cl
ATOM     37  C   LIG d   1       3.648   0.290  -7.347  0.00  0.00    -0.051 A 
ATOM     38  H   LIG d   1       2.233   1.313  -8.581  0.00  0.00     0.063 H 
ATOM     39  H   LIG d   1       3.851   1.154  -6.732  0.00  0.00     0.062 H 
ENDBRANCH  16  29
ENDBRANCH   1  16
BRANCH   4  40
ATOM     40  C   LIG d   1       9.366   2.863  -5.563  0.00  0.00     0.023 C 
ATOM     41  H   LIG d   1      10.310   2.692  -6.079  0.00  0.00     0.045 H 
ATOM     42  H   LIG d   1       8.840   3.693  -6.034  0.00  0.00     0.045 H 
BRANCH  40  43
ATOM     43  C   LIG d   1       9.640   3.198  -4.096  0.00  0.00     0.061 C 
ATOM     44  H   LIG d   1       8.901   2.702  -3.466  0.00  0.00     0.057 H 
ATOM     45  H   LIG d   1      10.638   2.854  -3.824  0.00  0.00     0.057 H 
BRANCH  43  46
ATOM     46  O   LIG d   1       9.555   4.612  -3.906  0.00  0.00    -0.373 OA
BRANCH  46  47
ATOM     47  C   LIG d   1      10.015   5.056  -2.628  0.00  0.00     0.087 C 
ATOM     48  H   LIG d   1       9.551   4.456  -1.846  0.00  0.00     0.062 H 
ATOM     49  H   LIG d   1      11.099   4.946  -2.574  0.00  0.00     0.062 H 
BRANCH  47  50
ATOM     50  C   LIG d   1       9.648   6.504  -2.437  0.00  0.00     0.067 C 
ATOM     51  O   LIG d   1       9.740   7.285  -3.369  0.00  0.00    -0.547 OA
ATOM     52  O   LIG d   1       9.256   6.896  -1.350  0.00  0.00    -0.547 OA
ENDBRANCH  47  50
ENDBRANCH  46  47
ENDBRANCH  43  46
ENDBRANCH  40  43
ENDBRANCH   4  40
TORSDOF 8
ENDMDL
MODEL 5
REMARK VINA RESULT:      -6.2      4.267      6.955
REMARK  8 active torsions:
REMARK  status: ('A' for Active; 'I' for Inactive)
REMARK    1  A    between atoms: C_4  and  C_7 
REMARK    2  A    between atoms: C_7  and  C_9 
REMARK    3  A    between atoms: C_7  and  N_16 
REMARK    4  A    between atoms: N_19  and  C_22 
REMARK    5  A    between atoms: C_22  and  C_23 
REMARK    6  A    between atoms: C_23  and  O_24 
REMARK    7  A    between atoms: O_24  and  C_25 
REMARK    8  A    between atoms: C_25  and  C_26 
ROOT
ATOM      1  N   LIG d   1       4.221  -2.032  -7.349  0.00  0.00     0.246 N 
ATOM      2  C   LIG d   1       4.868  -3.161  -6.667  0.00  0.00    -0.018 C 
ATOM      3  C   LIG d   1       4.045  -4.431  -6.893  0.00  0.00     0.039 C 
ATOM      4  N   LIG d   1       3.946  -4.699  -8.334  0.00  0.00    -0.290 N 
ATOM      5  C   LIG d   1       3.323  -3.566  -9.034  0.00  0.00     0.039 C 
ATOM      6  C   LIG d   1       4.152  -2.302  -8.791  0.00  0.00    -0.018 C 
ATOM      7  H   LIG d   1       5.871  -3.302  -7.070  0.00  0.00     0.083 H 
ATOM      8  H   LIG d   1       4.930  -2.953  -5.600  0.00  0.00     0.083 H 
ATOM      9  H   LIG d   1       4.533  -5.273  -6.399  0.00  0.00     0.048 H 
ATOM     10  H   LIG d   1       3.046  -4.296  -6.479  0.00  0.00     0.048 H 
ATOM     11  H   LIG d   1       3.284  -3.775 -10.103  0.00  0.00     0.048 H 
ATOM     12  H   LIG d   1       2.313  -3.416  -8.655  0.00  0.00     0.048 H 
ATOM     13  H   LIG d   1       3.684  -1.458  -9.298  0.00  0.00     0.083 H 
ATOM     14  H   LIG d   1       5.160  -2.448  -9.182  0.00  0.00     0.083 H 
ATOM     15  H   LIG d   1       3.288  -1.909  -6.985  0.00  0.00     0.204 HD
ENDROOT
BRANCH   1  16
ATOM     16  C   LIG d   1       5.002  -0.809  -7.118  0.00  0.00     0.031 C 
ATOM     17  H   LIG d   1       6.047  -0.991  -7.369  0.00  0.00     0.096 H 
BRANCH  16  18
ATOM     18  C   LIG d   1       4.465   0.302  -7.984  0.00  0.00     0.005 A 
ATOM     19  C   LIG d   1       5.336   1.145  -8.647  0.00  0.00    -0.053 A 
ATOM     20  C   LIG d   1       4.844   2.163  -9.442  0.00  0.00    -0.061 A 
ATOM     21  H   LIG d   1       6.402   1.007  -8.545  0.00  0.00     0.062 H 
ATOM     22  C   LIG d   1       3.478   2.337  -9.573  0.00  0.00    -0.062 A 
ATOM     23  H   LIG d   1       5.524   2.821  -9.960  0.00  0.00     0.062 H 
ATOM     24  C   LIG d   1       2.606   1.494  -8.911  0.00  0.00    -0.061 A 
ATOM     25  H   LIG d   1       3.093   3.135 -10.191  0.00  0.00     0.062 H 
ATOM     26  C   LIG d   1       3.099   0.477  -8.115  0.00  0.00    -0.053 A 
ATOM     27  H   LIG d   1       1.540   1.630  -9.013  0.00  0.00     0.062 H 
ATOM     28  H   LIG d   1       2.418  -0.182  -7.597  0.00  0.00     0.062 H 
ENDBRANCH  16  18
BRANCH  16  29
ATOM     29  C   LIG d   1       4.896  -0.412  -5.668  0.00  0.00     0.005 A 
ATOM     30  C   LIG d   1       6.041  -0.190  -4.927  0.00  0.00    -0.051 A 
ATOM     31  C   LIG d   1       5.944   0.179  -3.598  0.00  0.00    -0.043 A 
ATOM     32  H   LIG d   1       7.012  -0.303  -5.386  0.00  0.00     0.062 H 
ATOM     33  C   LIG d   1       4.700   0.317  -3.007  0.00  0.00     0.041 A 
ATOM     34  H   LIG d   1       6.839   0.356  -3.020  0.00  0.00     0.063 H 
ATOM     35  C   LIG d   1       3.555   0.090  -3.749  0.00  0.00    -0.043 A 
ATOM     36 CL   LIG d   1       4.578   0.775  -1.338  0.00  0.00    -0.084 Cl
ATOM     37  C   LIG d   1       3.652  -0.274  -5.079  0.00  0.00    -0.051 A 
ATOM     38  H   LIG d   1       2.584   0.199  -3.289  0.00  0.00     0.063 H 
ATOM     39  H   LIG d   1       2.758  -0.451  -5.658  0.00  0.00     0.062 H 
ENDBRANCH  16  29
ENDBRANCH   1  16
BRANCH   4  40
ATOM     40  C   LIG d   1       3.210  -5.944  -8.590  0.00  0.00     0.023 C 
ATOM     41  H   LIG d   1       2.472  -6.098  -7.804  0.00  0.00     0.045 H 
ATOM     42  H   LIG d   1       2.706  -5.875  -9.554  0.00  0.00     0.045 H 
BRANCH  40  43
ATOM     43  C   LIG d   1       4.188  -7.120  -8.609  0.00  0.00     0.061 C 
ATOM     44  H   LIG d   1       4.243  -7.531  -9.617  0.00  0.00     0.057 H 
ATOM     45  H   LIG d   1       5.177  -6.776  -8.303  0.00  0.00     0.057 H 
BRANCH  43  46
ATOM     46  O   LIG d   1       3.735  -8.131  -7.706  0.00  0.00    -0.373 OA
BRANCH  46  47
ATOM     47  C   LIG d   1       4.786  -8.792  -6.999  0.00  0.00     0.087 C 
ATOM     48  H   LIG d   1       4.607  -9.867  -7.004  0.00  0.00     0.062 H 
ATOM     49  H   LIG d   1       5.739  -8.581  -7.484  0.00  0.00     0.062 H 
BRANCH  47  50
ATOM     50  C   LIG d   1       4.825  -8.295  -5.577  0.00  0.00     0.067 C 
ATOM     51  O   LIG d   1       4.205  -8.883  -4.708  0.00  0.00    -0.547 OA
ATOM     52  O   LIG d   1       5.479  -7.304  -5.296  0.00  0.00    -0.547 OA
ENDBRANCH  47  50
ENDBRANCH  46  47
ENDBRANCH  43  46
ENDBRANCH  40  43
ENDBRANCH   4  40
TORSDOF 8
ENDMDL
MODEL 6
REMARK VINA RESULT:      -6.1      3.941      5.769
REMARK  8 active torsions:
REMARK  status: ('A' for Active; 'I' for Inactive)
REMARK    1  A    between atoms: C_4  and  C_7 
REMARK    2  A    between atoms: C_7  and  C_9 
REMARK    3  A    between atoms: C_7  and  N_16 
REMARK    4  A    between atoms: N_19  and  C_22 
REMARK    5  A    between atoms: C_22  and  C_23 
REMARK    6  A    between atoms: C_23  and  O_24 
REMARK    7  A    between atoms: O_24  and  C_25 
REMARK    8  A    between atoms: C_25  and  C_26 
ROOT
ATOM      1  N   LIG d   1       6.062   0.219  -6.049  0.00  0.00     0.246 N 
ATOM      2  C   LIG d   1       6.874   0.253  -7.273  0.00  0.00    -0.018 C 
ATOM      3  C   LIG d   1       7.703   1.538  -7.299  0.00  0.00     0.039 C 
ATOM      4  N   LIG d   1       8.570   1.584  -6.114  0.00  0.00    -0.290 N 
ATOM      5  C   LIG d   1       7.772   1.526  -4.880  0.00  0.00     0.039 C 
ATOM      6  C   LIG d   1       6.943   0.240  -4.874  0.00  0.00    -0.018 C 
ATOM      7  H   LIG d   1       7.541  -0.610  -7.290  0.00  0.00     0.083 H 
ATOM      8  H   LIG d   1       6.220   0.224  -8.143  0.00  0.00     0.083 H 
ATOM      9  H   LIG d   1       8.317   1.557  -8.200  0.00  0.00     0.048 H 
ATOM     10  H   LIG d   1       7.036   2.401  -7.295  0.00  0.00     0.048 H 
ATOM     11  H   LIG d   1       8.437   1.535  -4.016  0.00  0.00     0.048 H 
ATOM     12  H   LIG d   1       7.107   2.388  -4.837  0.00  0.00     0.048 H 
ATOM     13  H   LIG d   1       6.339   0.201  -3.966  0.00  0.00     0.083 H 
ATOM     14  H   LIG d   1       7.609  -0.623  -4.904  0.00  0.00     0.083 H 
ATOM     15  H   LIG d   1       5.453   1.023  -6.027  0.00  0.00     0.204 HD
ENDROOT
BRANCH   1  16
ATOM     16  C   LIG d   1       5.253  -1.008  -6.032  0.00  0.00     0.031 C 
ATOM     17  H   LIG d   1       5.904  -1.874  -6.151  0.00  0.00     0.096 H 
BRANCH  16  18
ATOM     18  C   LIG d   1       4.518  -1.108  -4.720  0.00  0.00     0.005 A 
ATOM     19  C   LIG d   1       4.641  -2.244  -3.943  0.00  0.00    -0.053 A 
ATOM     20  C   LIG d   1       3.968  -2.335  -2.739  0.00  0.00    -0.061 A 
ATOM     21  H   LIG d   1       5.264  -3.061  -4.277  0.00  0.00     0.062 H 
ATOM     22  C   LIG d   1       3.172  -1.288  -2.312  0.00  0.00    -0.062 A 
ATOM     23  H   LIG d   1       4.064  -3.223  -2.133  0.00  0.00     0.062 H 
ATOM     24  C   LIG d   1       3.050  -0.151  -3.089  0.00  0.00    -0.061 A 
ATOM     25  H   LIG d   1       2.643  -1.361  -1.374  0.00  0.00     0.062 H 
ATOM     26  C   LIG d   1       3.722  -0.061  -4.293  0.00  0.00    -0.053 A 
ATOM     27  H   LIG d   1       2.427   0.666  -2.755  0.00  0.00     0.062 H 
ATOM     28  H   LIG d   1       3.626   0.827  -4.900  0.00  0.00     0.062 H 
ENDBRANCH  16  18
BRANCH  16  29
ATOM     29  C   LIG d   1       4.258  -0.968  -7.164  0.00  0.00     0.005 A 
ATOM     30  C   LIG d   1       3.506   0.171  -7.382  0.00  0.00    -0.051 A 
ATOM     31  C   LIG d   1       2.597   0.209  -8.423  0.00  0.00    -0.043 A 
ATOM     32  H   LIG d   1       3.629   1.031  -6.741  0.00  0.00     0.062 H 
ATOM     33  C   LIG d   1       2.433  -0.895  -9.240  0.00  0.00     0.041 A 
ATOM     34  H   LIG d   1       2.012   1.101  -8.596  0.00  0.00     0.063 H 
ATOM     35  C   LIG d   1       3.184  -2.036  -9.017  0.00  0.00    -0.043 A 
ATOM     36 CL   LIG d   1       1.288  -0.849 -10.544  0.00  0.00    -0.084 Cl
ATOM     37  C   LIG d   1       4.096  -2.072  -7.979  0.00  0.00    -0.051 A 
ATOM     38  H   LIG d   1       3.057  -2.898  -9.655  0.00  0.00     0.063 H 
ATOM     39  H   LIG d   1       4.681  -2.963  -7.806  0.00  0.00     0.062 H 
ENDBRANCH  16  29
ENDBRANCH   1  16
BRANCH   4  40
ATOM     40  C   LIG d   1       9.425   2.779  -6.131  0.00  0.00     0.023 C 
ATOM     41  H   LIG d   1       8.905   3.604  -5.646  0.00  0.00     0.045 H 
ATOM     42  H   LIG d   1      10.352   2.569  -5.597  0.00  0.00     0.045 H 
BRANCH  40  43
ATOM     43  C   LIG d   1       9.744   3.156  -7.578  0.00  0.00     0.061 C 
ATOM     44  H   LIG d   1      10.778   2.894  -7.803  0.00  0.00     0.057 H 
ATOM     45  H   LIG d   1       9.078   2.615  -8.251  0.00  0.00     0.057 H 
BRANCH  43  46
ATOM     46  O   LIG d   1       9.559   4.563  -7.756  0.00  0.00    -0.373 OA
BRANCH  46  47
ATOM     47  C   LIG d   1      10.190   5.089  -8.925  0.00  0.00     0.087 C 
ATOM     48  H   LIG d   1      10.576   6.086  -8.712  0.00  0.00     0.062 H 
ATOM     49  H   LIG d   1      11.013   4.437  -9.218  0.00  0.00     0.062 H 
BRANCH  47  50
ATOM     50  C   LIG d   1       9.187   5.165 -10.046  0.00  0.00     0.067 C 
ATOM     51  O   LIG d   1       8.043   5.518  -9.817  0.00  0.00    -0.547 OA
ATOM     52  O   LIG d   1       9.520   4.877 -11.183  0.00  0.00    -0.547 OA
ENDBRANCH  47  50
ENDBRANCH  46  47
ENDBRANCH  43  46
ENDBRANCH  40  43
ENDBRANCH   4  40
TORSDOF 8
ENDMDL
MODEL 7
REMARK VINA RESULT:      -5.7      5.157      7.787
REMARK  8 active torsions:
REMARK  status: ('A' for Active; 'I' for Inactive)
REMARK    1  A    between atoms: C_4  and  C_7 
REMARK    2  A    between atoms: C_7  and  C_9 
REMARK    3  A    between atoms: C_7  and  N_16 
REMARK    4  A    between atoms: N_19  and  C_22 
REMARK    5  A    between atoms: C_22  and  C_23 
REMARK    6  A    between atoms: C_23  and  O_24 
REMARK    7  A    between atoms: O_24  and  C_25 
REMARK    8  A    between atoms: C_25  and  C_26 
ROOT
ATOM      1  N   LIG d   1       5.701  -2.165  -5.532  0.00  0.00     0.246 N 
ATOM      2  C   LIG d   1       5.481  -3.325  -6.407  0.00  0.00    -0.018 C 
ATOM      3  C   LIG d   1       6.783  -4.117  -6.538  0.00  0.00     0.039 C 
ATOM      4  N   LIG d   1       7.220  -4.562  -5.208  0.00  0.00    -0.290 N 
ATOM      5  C   LIG d   1       7.420  -3.413  -4.313  0.00  0.00     0.039 C 
ATOM      6  C   LIG d   1       6.112  -2.626  -4.199  0.00  0.00    -0.018 C 
ATOM      7  H   LIG d   1       4.709  -3.962  -5.978  0.00  0.00     0.083 H 
ATOM      8  H   LIG d   1       5.164  -2.981  -7.391  0.00  0.00     0.083 H 
ATOM      9  H   LIG d   1       6.617  -4.986  -7.176  0.00  0.00     0.048 H 
ATOM     10  H   LIG d   1       7.552  -3.483  -6.980  0.00  0.00     0.048 H 
ATOM     11  H   LIG d   1       7.718  -3.768  -3.326  0.00  0.00     0.048 H 
ATOM     12  H   LIG d   1       8.198  -2.768  -4.718  0.00  0.00     0.048 H 
ATOM     13  H   LIG d   1       6.262  -1.765  -3.547  0.00  0.00     0.083 H 
ATOM     14  H   LIG d   1       5.336  -3.268  -3.781  0.00  0.00     0.083 H 
ATOM     15  H   LIG d   1       6.424  -1.580  -5.923  0.00  0.00     0.204 HD
ENDROOT
BRANCH   1  16
ATOM     16  C   LIG d   1       4.455  -1.394  -5.420  0.00  0.00     0.031 C 
ATOM     17  H   LIG d   1       3.609  -2.078  -5.357  0.00  0.00     0.096 H 
BRANCH  16  18
ATOM     18  C   LIG d   1       4.503  -0.539  -4.180  0.00  0.00     0.005 A 
ATOM     19  C   LIG d   1       3.460  -0.576  -3.273  0.00  0.00    -0.053 A 
ATOM     20  C   LIG d   1       3.504   0.208  -2.135  0.00  0.00    -0.061 A 
ATOM     21  H   LIG d   1       2.611  -1.217  -3.455  0.00  0.00     0.062 H 
ATOM     22  C   LIG d   1       4.593   1.029  -1.904  0.00  0.00    -0.062 A 
ATOM     23  H   LIG d   1       2.690   0.179  -1.428  0.00  0.00     0.062 H 
ATOM     24  C   LIG d   1       5.636   1.065  -2.810  0.00  0.00    -0.061 A 
ATOM     25  H   LIG d   1       4.626   1.644  -1.017  0.00  0.00     0.062 H 
ATOM     26  C   LIG d   1       5.591   0.282  -3.948  0.00  0.00    -0.053 A 
ATOM     27  H   LIG d   1       6.487   1.706  -2.628  0.00  0.00     0.062 H 
ATOM     28  H   LIG d   1       6.407   0.311  -4.656  0.00  0.00     0.062 H 
ENDBRANCH  16  18
BRANCH  16  29
ATOM     29  C   LIG d   1       4.300  -0.512  -6.633  0.00  0.00     0.005 A 
ATOM     30  C   LIG d   1       3.051  -0.035  -6.983  0.00  0.00    -0.051 A 
ATOM     31  C   LIG d   1       2.909   0.778  -8.093  0.00  0.00    -0.043 A 
ATOM     32  H   LIG d   1       2.187  -0.295  -6.391  0.00  0.00     0.062 H 
ATOM     33  C   LIG d   1       4.015   1.106  -8.857  0.00  0.00     0.041 A 
ATOM     34  H   LIG d   1       1.933   1.154  -8.365  0.00  0.00     0.063 H 
ATOM     35  C   LIG d   1       5.263   0.623  -8.507  0.00  0.00    -0.043 A 
ATOM     36 CL   LIG d   1       3.836   2.122 -10.253  0.00  0.00    -0.084 Cl
ATOM     37  C   LIG d   1       5.406  -0.185  -7.395  0.00  0.00    -0.051 A 
ATOM     38  H   LIG d   1       6.127   0.879  -9.103  0.00  0.00     0.063 H 
ATOM     39  H   LIG d   1       6.380  -0.562  -7.122  0.00  0.00     0.062 H 
ENDBRANCH  16  29
ENDBRANCH   1  16
BRANCH   4  40
ATOM     40  C   LIG d   1       8.439  -5.377  -5.298  0.00  0.00     0.023 C 
ATOM     41  H   LIG d   1       8.174  -6.397  -5.576  0.00  0.00     0.045 H 
ATOM     42  H   LIG d   1       9.102  -4.955  -6.053  0.00  0.00     0.045 H 
BRANCH  40  43
ATOM     43  C   LIG d   1       9.148  -5.385  -3.943  0.00  0.00     0.061 C 
ATOM     44  H   LIG d   1       9.970  -4.669  -3.958  0.00  0.00     0.057 H 
ATOM     45  H   LIG d   1       8.441  -5.108  -3.160  0.00  0.00     0.057 H 
BRANCH  43  46
ATOM     46  O   LIG d   1       9.660  -6.693  -3.681  0.00  0.00    -0.373 OA
BRANCH  46  47
ATOM     47  C   LIG d   1       9.389  -7.171  -2.361  0.00  0.00     0.087 C 
ATOM     48  H   LIG d   1      10.328  -7.325  -1.830  0.00  0.00     0.062 H 
ATOM     49  H   LIG d   1       8.786  -6.437  -1.827  0.00  0.00     0.062 H 
BRANCH  47  50
ATOM     50  C   LIG d   1       8.637  -8.474  -2.444  0.00  0.00     0.067 C 
ATOM     51  O   LIG d   1       8.843  -9.350  -1.621  0.00  0.00    -0.547 OA
ATOM     52  O   LIG d   1       7.820  -8.652  -3.332  0.00  0.00    -0.547 OA
ENDBRANCH  47  50
ENDBRANCH  46  47
ENDBRANCH  43  46
ENDBRANCH  40  43
ENDBRANCH   4  40
TORSDOF 8
ENDMDL
MODEL 8
REMARK VINA RESULT:      -5.6      7.895     10.546
REMARK  8 active torsions:
REMARK  status: ('A' for Active; 'I' for Inactive)
REMARK    1  A    between atoms: C_4  and  C_7 
REMARK    2  A    between atoms: C_7  and  C_9 
REMARK    3  A    between atoms: C_7  and  N_16 
REMARK    4  A    between atoms: N_19  and  C_22 
REMARK    5  A    between atoms: C_22  and  C_23 
REMARK    6  A    between atoms: C_23  and  O_24 
REMARK    7  A    between atoms: O_24  and  C_25 
REMARK    8  A    between atoms: C_25  and  C_26 
ROOT
ATOM      1  N   LIG d   1       9.942   4.352  -4.424  0.00  0.00     0.246 N 
ATOM      2  C   LIG d   1       9.904   3.343  -3.356  0.00  0.00    -0.018 C 
ATOM      3  C   LIG d   1       8.784   2.340  -3.643  0.00  0.00     0.039 C 
ATOM      4  N   LIG d   1       9.027   1.696  -4.941  0.00  0.00    -0.290 N 
ATOM      5  C   LIG d   1       9.093   2.696  -6.016  0.00  0.00     0.039 C 
ATOM      6  C   LIG d   1      10.211   3.696  -5.710  0.00  0.00    -0.018 C 
ATOM      7  H   LIG d   1      10.859   2.820  -3.316  0.00  0.00     0.083 H 
ATOM      8  H   LIG d   1       9.718   3.833  -2.401  0.00  0.00     0.083 H 
ATOM      9  H   LIG d   1       8.765   1.583  -2.858  0.00  0.00     0.048 H 
ATOM     10  H   LIG d   1       7.827   2.862  -3.669  0.00  0.00     0.048 H 
ATOM     11  H   LIG d   1       9.300   2.198  -6.964  0.00  0.00     0.048 H 
ATOM     12  H   LIG d   1       8.142   3.223  -6.081  0.00  0.00     0.048 H 
ATOM     13  H   LIG d   1      10.252   4.447  -6.500  0.00  0.00     0.083 H 
ATOM     14  H   LIG d   1      11.165   3.171  -5.658  0.00  0.00     0.083 H 
ATOM     15  H   LIG d   1       9.054   4.828  -4.468  0.00  0.00     0.204 HD
ENDROOT
BRANCH   1  16
ATOM     16  C   LIG d   1      11.006   5.325  -4.140  0.00  0.00     0.031 C 
ATOM     17  H   LIG d   1      11.968   4.911  -4.442  0.00  0.00     0.096 H 
BRANCH  16  18
ATOM     18  C   LIG d   1      10.743   6.596  -4.906  0.00  0.00     0.005 A 
ATOM     19  C   LIG d   1       9.461   6.899  -5.323  0.00  0.00    -0.053 A 
ATOM     20  C   LIG d   1       9.219   8.066  -6.024  0.00  0.00    -0.061 A 
ATOM     21  H   LIG d   1       8.647   6.225  -5.099  0.00  0.00     0.062 H 
ATOM     22  C   LIG d   1      10.261   8.929  -6.309  0.00  0.00    -0.062 A 
ATOM     23  H   LIG d   1       8.218   8.302  -6.350  0.00  0.00     0.062 H 
ATOM     24  C   LIG d   1      11.544   8.626  -5.891  0.00  0.00    -0.061 A 
ATOM     25  H   LIG d   1      10.074   9.838  -6.860  0.00  0.00     0.062 H 
ATOM     26  C   LIG d   1      11.785   7.459  -5.191  0.00  0.00    -0.053 A 
ATOM     27  H   LIG d   1      12.358   9.300  -6.113  0.00  0.00     0.062 H 
ATOM     28  H   LIG d   1      12.787   7.222  -4.865  0.00  0.00     0.062 H 
ENDBRANCH  16  18
BRANCH  16  29
ATOM     29  C   LIG d   1      11.030   5.625  -2.663  0.00  0.00     0.005 A 
ATOM     30  C   LIG d   1      12.068   5.153  -1.880  0.00  0.00    -0.051 A 
ATOM     31  C   LIG d   1      12.093   5.432  -0.526  0.00  0.00    -0.043 A 
ATOM     32  H   LIG d   1      12.858   4.569  -2.325  0.00  0.00     0.062 H 
ATOM     33  C   LIG d   1      11.076   6.175   0.047  0.00  0.00     0.041 A 
ATOM     34  H   LIG d   1      12.905   5.067   0.085  0.00  0.00     0.063 H 
ATOM     35  C   LIG d   1      10.036   6.642  -0.737  0.00  0.00    -0.043 A 
ATOM     36 CL   LIG d   1      11.105   6.521   1.748  0.00  0.00    -0.084 Cl
ATOM     37  C   LIG d   1      10.013   6.367  -2.092  0.00  0.00    -0.051 A 
ATOM     38  H   LIG d   1       9.242   7.222  -0.291  0.00  0.00     0.063 H 
ATOM     39  H   LIG d   1       9.202   6.732  -2.703  0.00  0.00     0.062 H 
ENDBRANCH  16  29
ENDBRANCH   1  16
BRANCH   4  40
ATOM     40  C   LIG d   1       8.003   0.683  -5.227  0.00  0.00     0.023 C 
ATOM     41  H   LIG d   1       7.481   0.943  -6.147  0.00  0.00     0.045 H 
ATOM     42  H   LIG d   1       8.478  -0.291  -5.341  0.00  0.00     0.045 H 
BRANCH  40  43
ATOM     43  C   LIG d   1       7.002   0.630  -4.071  0.00  0.00     0.061 C 
ATOM     44  H   LIG d   1       7.253  -0.201  -3.411  0.00  0.00     0.057 H 
ATOM     45  H   LIG d   1       7.044   1.563  -3.510  0.00  0.00     0.057 H 
BRANCH  43  46
ATOM     46  O   LIG d   1       5.683   0.444  -4.590  0.00  0.00    -0.373 OA
BRANCH  46  47
ATOM     47  C   LIG d   1       4.743  -0.042  -3.630  0.00  0.00     0.087 C 
ATOM     48  H   LIG d   1       3.869  -0.439  -4.146  0.00  0.00     0.062 H 
ATOM     49  H   LIG d   1       5.205  -0.831  -3.037  0.00  0.00     0.062 H 
BRANCH  47  50
ATOM     50  C   LIG d   1       4.324   1.086  -2.724  0.00  0.00     0.067 C 
ATOM     51  O   LIG d   1       4.501   0.999  -1.520  0.00  0.00    -0.547 OA
ATOM     52  O   LIG d   1       3.809   2.087  -3.193  0.00  0.00    -0.547 OA
ENDBRANCH  47  50
ENDBRANCH  46  47
ENDBRANCH  43  46
ENDBRANCH  40  43
ENDBRANCH   4  40
TORSDOF 8
ENDMDL
MODEL 9
REMARK VINA RESULT:      -5.5      4.340      5.993
REMARK  8 active torsions:
REMARK  status: ('A' for Active; 'I' for Inactive)
REMARK    1  A    between atoms: C_4  and  C_7 
REMARK    2  A    between atoms: C_7  and  C_9 
REMARK    3  A    between atoms: C_7  and  N_16 
REMARK    4  A    between atoms: N_19  and  C_22 
REMARK    5  A    between atoms: C_22  and  C_23 
REMARK    6  A    between atoms: C_23  and  O_24 
REMARK    7  A    between atoms: O_24  and  C_25 
REMARK    8  A    between atoms: C_25  and  C_26 
ROOT
ATOM      1  N   LIG d   1       6.539   0.412  -5.994  0.00  0.00     0.246 N 
ATOM      2  C   LIG d   1       6.923   0.528  -7.408  0.00  0.00    -0.018 C 
ATOM      3  C   LIG d   1       7.703   1.827  -7.619  0.00  0.00     0.039 C 
ATOM      4  N   LIG d   1       8.900   1.821  -6.768  0.00  0.00    -0.290 N 
ATOM      5  C   LIG d   1       8.533   1.681  -5.351  0.00  0.00     0.039 C 
ATOM      6  C   LIG d   1       7.746   0.382  -5.158  0.00  0.00    -0.018 C 
ATOM      7  H   LIG d   1       7.548  -0.320  -7.685  0.00  0.00     0.083 H 
ATOM      8  H   LIG d   1       6.027   0.537  -8.028  0.00  0.00     0.083 H 
ATOM      9  H   LIG d   1       8.000   1.907  -8.665  0.00  0.00     0.048 H 
ATOM     10  H   LIG d   1       7.072   2.677  -7.355  0.00  0.00     0.048 H 
ATOM     11  H   LIG d   1       9.436   1.652  -4.742  0.00  0.00     0.048 H 
ATOM     12  H   LIG d   1       7.916   2.527  -5.050  0.00  0.00     0.048 H 
ATOM     13  H   LIG d   1       7.460   0.283  -4.111  0.00  0.00     0.083 H 
ATOM     14  H   LIG d   1       8.367  -0.466  -5.448  0.00  0.00     0.083 H 
ATOM     15  H   LIG d   1       5.969   1.204  -5.735  0.00  0.00     0.204 HD
ENDROOT
BRANCH   1  16
ATOM     16  C   LIG d   1       5.775  -0.827  -5.795  0.00  0.00     0.031 C 
ATOM     17  H   LIG d   1       6.433  -1.685  -5.928  0.00  0.00     0.096 H 
BRANCH  16  18
ATOM     18  C   LIG d   1       5.201  -0.845  -4.402  0.00  0.00     0.005 A 
ATOM     19  C   LIG d   1       4.698  -2.020  -3.876  0.00  0.00    -0.053 A 
ATOM     20  C   LIG d   1       4.173  -2.038  -2.598  0.00  0.00    -0.061 A 
ATOM     21  H   LIG d   1       4.715  -2.925  -4.465  0.00  0.00     0.062 H 
ATOM     22  C   LIG d   1       4.151  -0.878  -1.844  0.00  0.00    -0.062 A 
ATOM     23  H   LIG d   1       3.779  -2.955  -2.188  0.00  0.00     0.062 H 
ATOM     24  C   LIG d   1       4.655   0.297  -2.369  0.00  0.00    -0.061 A 
ATOM     25  H   LIG d   1       3.737  -0.890  -0.847  0.00  0.00     0.062 H 
ATOM     26  C   LIG d   1       5.179   0.314  -3.648  0.00  0.00    -0.053 A 
ATOM     27  H   LIG d   1       4.639   1.202  -1.780  0.00  0.00     0.062 H 
ATOM     28  H   LIG d   1       5.573   1.232  -4.058  0.00  0.00     0.062 H 
ENDBRANCH  16  18
BRANCH  16  29
ATOM     29  C   LIG d   1       4.654  -0.893  -6.801  0.00  0.00     0.005 A 
ATOM     30  C   LIG d   1       3.656   0.064  -6.787  0.00  0.00    -0.051 A 
ATOM     31  C   LIG d   1       2.631   0.007  -7.712  0.00  0.00    -0.043 A 
ATOM     32  H   LIG d   1       3.679   0.857  -6.054  0.00  0.00     0.062 H 
ATOM     33  C   LIG d   1       2.598  -1.013  -8.647  0.00  0.00     0.041 A 
ATOM     34  H   LIG d   1       1.853   0.756  -7.704  0.00  0.00     0.063 H 
ATOM     35  C   LIG d   1       3.595  -1.973  -8.657  0.00  0.00    -0.043 A 
ATOM     36 CL   LIG d   1       1.308  -1.089  -9.805  0.00  0.00    -0.084 Cl
ATOM     37  C   LIG d   1       4.623  -1.912  -7.734  0.00  0.00    -0.051 A 
ATOM     38  H   LIG d   1       3.570  -2.769  -9.386  0.00  0.00     0.063 H 
ATOM     39  H   LIG d   1       5.400  -2.661  -7.742  0.00  0.00     0.062 H 
ENDBRANCH  16  29
ENDBRANCH   1  16
BRANCH   4  40
ATOM     40  C   LIG d   1       9.707   3.029  -6.984  0.00  0.00     0.023 C 
ATOM     41  H   LIG d   1       9.517   3.742  -6.182  0.00  0.00     0.045 H 
ATOM     42  H   LIG d   1      10.764   2.763  -6.990  0.00  0.00     0.045 H 
BRANCH  40  43
ATOM     43  C   LIG d   1       9.332   3.660  -8.326  0.00  0.00     0.061 C 
ATOM     44  H   LIG d   1      10.094   3.417  -9.067  0.00  0.00     0.057 H 
ATOM     45  H   LIG d   1       8.369   3.269  -8.655  0.00  0.00     0.057 H 
BRANCH  43  46
ATOM     46  O   LIG d   1       9.246   5.079  -8.179  0.00  0.00    -0.373 OA
BRANCH  46  47
ATOM     47  C   LIG d   1      10.436   5.776  -8.553  0.00  0.00     0.087 C 
ATOM     48  H   LIG d   1      11.171   5.695  -7.754  0.00  0.00     0.062 H 
ATOM     49  H   LIG d   1      10.841   5.337  -9.465  0.00  0.00     0.062 H 
BRANCH  47  50
ATOM     50  C   LIG d   1      10.112   7.227  -8.795  0.00  0.00     0.067 C 
ATOM     51  O   LIG d   1       9.017   7.667  -8.490  0.00  0.00    -0.547 OA
ATOM     52  O   LIG d   1      10.947   7.963  -9.295  0.00  0.00    -0.547 OA
ENDBRANCH  47  50
ENDBRANCH  46  47
ENDBRANCH  43  46
ENDBRANCH  40  43
ENDBRANCH   4  40
TORSDOF 8
ENDMDL
MODEL 10
REMARK VINA RESULT:      -5.4      2.067      2.784
REMARK  8 active torsions:
REMARK  status: ('A' for Active; 'I' for Inactive)
REMARK    1  A    between atoms: C_4  and  C_7 
REMARK    2  A    between atoms: C_7  and  C_9 
REMARK    3  A    between atoms: C_7  and  N_16 
REMARK    4  A    between atoms: N_19  and  C_22 
REMARK    5  A    between atoms: C_22  and  C_23 
REMARK    6  A    between atoms: C_23  and  O_24 
REMARK    7  A    between atoms: O_24  and  C_25 
REMARK    8  A    between atoms: C_25  and  C_26 
ROOT
ATOM      1  N   LIG d   1       5.162  -1.293  -6.456  0.00  0.00     0.246 N 
ATOM      2  C   LIG d   1       5.855  -0.952  -7.707  0.00  0.00    -0.018 C 
ATOM      3  C   LIG d   1       4.837  -0.874  -8.847  0.00  0.00     0.039 C 
ATOM      4  N   LIG d   1       3.828   0.147  -8.531  0.00  0.00    -0.290 N 
ATOM      5  C   LIG d   1       3.144  -0.168  -7.269  0.00  0.00     0.039 C 
ATOM      6  C   LIG d   1       4.175  -0.252  -6.141  0.00  0.00    -0.018 C 
ATOM      7  H   LIG d   1       6.351   0.012  -7.595  0.00  0.00     0.083 H 
ATOM      8  H   LIG d   1       6.595  -1.718  -7.932  0.00  0.00     0.083 H 
ATOM      9  H   LIG d   1       5.349  -0.606  -9.772  0.00  0.00     0.048 H 
ATOM     10  H   LIG d   1       4.350  -1.842  -8.967  0.00  0.00     0.048 H 
ATOM     11  H   LIG d   1       2.420   0.614  -7.042  0.00  0.00     0.048 H 
ATOM     12  H   LIG d   1       2.630  -1.125  -7.363  0.00  0.00     0.048 H 
ATOM     13  H   LIG d   1       3.672  -0.500  -5.206  0.00  0.00     0.083 H 
ATOM     14  H   LIG d   1       4.681   0.708  -6.038  0.00  0.00     0.083 H 
ATOM     15  H   LIG d   1       4.693  -2.180  -6.563  0.00  0.00     0.204 HD
ENDROOT
BRANCH   1  16
ATOM     16  C   LIG d   1       6.141  -1.386  -5.364  0.00  0.00     0.031 C 
ATOM     17  H   LIG d   1       6.980  -0.721  -5.571  0.00  0.00     0.096 H 
BRANCH  16  18
ATOM     18  C   LIG d   1       5.488  -0.982  -4.068  0.00  0.00     0.005 A 
ATOM     19  C   LIG d   1       4.598  -1.837  -3.446  0.00  0.00    -0.053 A 
ATOM     20  C   LIG d   1       4.000  -1.468  -2.256  0.00  0.00    -0.061 A 
ATOM     21  H   LIG d   1       4.370  -2.795  -3.891  0.00  0.00     0.062 H 
ATOM     22  C   LIG d   1       4.293  -0.242  -1.687  0.00  0.00    -0.062 A 
ATOM     23  H   LIG d   1       3.304  -2.136  -1.771  0.00  0.00     0.062 H 
ATOM     24  C   LIG d   1       5.184   0.613  -2.308  0.00  0.00    -0.061 A 
ATOM     25  H   LIG d   1       3.823   0.048  -0.760  0.00  0.00     0.062 H 
ATOM     26  C   LIG d   1       5.781   0.244  -3.498  0.00  0.00    -0.053 A 
ATOM     27  H   LIG d   1       5.413   1.570  -1.863  0.00  0.00     0.062 H 
ATOM     28  H   LIG d   1       6.477   0.912  -3.984  0.00  0.00     0.062 H 
ENDBRANCH  16  18
BRANCH  16  29
ATOM     29  C   LIG d   1       6.640  -2.804  -5.256  0.00  0.00     0.005 A 
ATOM     30  C   LIG d   1       5.892  -3.841  -5.781  0.00  0.00    -0.051 A 
ATOM     31  C   LIG d   1       6.351  -5.141  -5.686  0.00  0.00    -0.043 A 
ATOM     32  H   LIG d   1       4.949  -3.635  -6.266  0.00  0.00     0.062 H 
ATOM     33  C   LIG d   1       7.555  -5.406  -5.058  0.00  0.00     0.041 A 
ATOM     34  H   LIG d   1       5.768  -5.951  -6.100  0.00  0.00     0.063 H 
ATOM     35  C   LIG d   1       8.300  -4.368  -4.528  0.00  0.00    -0.043 A 
ATOM     36 CL   LIG d   1       8.129  -7.039  -4.934  0.00  0.00    -0.084 Cl
ATOM     37  C   LIG d   1       7.843  -3.067  -4.628  0.00  0.00    -0.051 A 
ATOM     38  H   LIG d   1       9.240  -4.574  -4.038  0.00  0.00     0.063 H 
ATOM     39  H   LIG d   1       8.425  -2.257  -4.215  0.00  0.00     0.062 H 
ENDBRANCH  16  29
ENDBRANCH   1  16
BRANCH   4  40
ATOM     40  C   LIG d   1       2.864   0.292  -9.630  0.00  0.00     0.023 C 
ATOM     41  H   LIG d   1       2.514   1.324  -9.672  0.00  0.00     0.045 H 
ATOM     42  H   LIG d   1       3.347   0.034 -10.572  0.00  0.00     0.045 H 
BRANCH  40  43
ATOM     43  C   LIG d   1       1.676  -0.640  -9.392  0.00  0.00     0.061 C 
ATOM     44  H   LIG d   1       1.751  -1.079  -8.397  0.00  0.00     0.057 H 
ATOM     45  H   LIG d   1       0.747  -0.073  -9.468  0.00  0.00     0.057 H 
BRANCH  43  46
ATOM     46  O   LIG d   1       1.681  -1.679 -10.373  0.00  0.00    -0.373 OA
BRANCH  46  47
ATOM     47  C   LIG d   1       1.552  -1.211 -11.717  0.00  0.00     0.087 C 
ATOM     48  H   LIG d   1       0.560  -1.459 -12.095  0.00  0.00     0.062 H 
ATOM     49  H   LIG d   1       1.690  -0.130 -11.740  0.00  0.00     0.062 H 
BRANCH  47  50
ATOM     50  C   LIG d   1       2.598  -1.868 -12.580  0.00  0.00     0.067 C 
ATOM     51  O   LIG d   1       3.364  -2.684 -12.096  0.00  0.00    -0.547 OA
ATOM     52  O   LIG d   1       2.677  -1.586 -13.764  0.00  0.00    -0.547 OA
ENDBRANCH  47  50
ENDBRANCH  46  47
ENDBRANCH  43  46
ENDBRANCH  40  43
ENDBRANCH   4  40
TORSDOF 8
ENDMDL
