MODEL 1
REMARK VINA RESULT:      -6.1      0.000      0.000
REMARK  13 active torsions:
REMARK  status: ('A' for Active; 'I' for Inactive)
REMARK    1  A    between atoms: C_1  and  C_2 
REMARK    2  A    between atoms: C_5  and  S_8 
REMARK    3  A    between atoms: S_8  and  O_11 
REMARK    4  A    between atoms: O_11  and  C_12 
REMARK    5  A    between atoms: C_12  and  C_13 
REMARK    6  A    between atoms: C_13  and  C_14 
REMARK    7  A    between atoms: C_14  and  C_15 
REMARK    8  A    between atoms: C_15  and  C_16 
REMARK    9  A    between atoms: C_16  and  C_17 
REMARK   10  A    between atoms: C_17  and  O_18 
REMARK   11  A    between atoms: O_18  and  S_19 
REMARK   12  A    between atoms: S_19  and  C_22 
REMARK   13  A    between atoms: C_25  and  C_28 
ROOT
ATOM      1  C   LIG d   1       6.336  -1.185  -9.495  0.00  0.00    -0.051 C 
ATOM      2  H   LIG d   1       5.422  -0.702  -9.842  0.00  0.00     0.027 H 
ATOM      3  H   LIG d   1       7.063  -1.209 -10.307  0.00  0.00     0.027 H 
ENDROOT
BRANCH   1   4
ATOM      4  C   LIG d   1       6.913  -0.396  -8.318  0.00  0.00    -0.027 C 
ATOM      5  H   LIG d   1       7.994  -0.311  -8.433  0.00  0.00     0.029 H 
ATOM      6  H   LIG d   1       6.687  -0.916  -7.386  0.00  0.00     0.029 H 
BRANCH   4   7
ATOM      7  C   LIG d   1       6.293   1.001  -8.286  0.00  0.00     0.077 C 
ATOM      8  H   LIG d   1       6.380   1.460  -9.270  0.00  0.00     0.058 H 
ATOM      9  H   LIG d   1       6.815   1.615  -7.552  0.00  0.00     0.058 H 
BRANCH   7  10
ATOM     10  O   LIG d   1       4.913   0.903  -7.927  0.00  0.00    -0.234 OA
BRANCH  10  11
ATOM     11  S   LIG d   1       3.983   1.721  -8.811  0.00  0.00     0.112 S 
ATOM     12  O   LIG d   1       4.812   2.540  -9.624  0.00  0.00    -0.142 OA
ATOM     13  O   LIG d   1       2.982   2.261  -7.958  0.00  0.00    -0.142 OA
BRANCH  11  14
ATOM     14  C   LIG d   1       3.168   0.595  -9.895  0.00  0.00     0.117 A 
ATOM     15  C   LIG d   1       3.674   0.367 -11.160  0.00  0.00    -0.034 A 
ATOM     16  C   LIG d   1       3.037  -0.517 -12.010  0.00  0.00    -0.057 A 
ATOM     17  H   LIG d   1       4.569   0.878 -11.485  0.00  0.00     0.064 H 
ATOM     18  C   LIG d   1       1.892  -1.172 -11.594  0.00  0.00    -0.050 A 
ATOM     19  H   LIG d   1       3.432  -0.696 -12.999  0.00  0.00     0.062 H 
ATOM     20  C   LIG d   1       1.384  -0.939 -10.331  0.00  0.00    -0.057 A 
ATOM     21  C   LIG d   1       2.024  -0.059  -9.479  0.00  0.00    -0.034 A 
ATOM     22  H   LIG d   1       0.486  -1.447 -10.007  0.00  0.00     0.062 H 
ATOM     23  H   LIG d   1       1.629   0.120  -8.490  0.00  0.00     0.064 H 
BRANCH  18  24
ATOM     24  C   LIG d   1       1.197  -2.135 -12.522  0.00  0.00    -0.040 C 
ATOM     25  H   LIG d   1       0.122  -1.957 -12.491  0.00  0.00     0.028 H 
ATOM     26  H   LIG d   1       1.561  -1.989 -13.538  0.00  0.00     0.028 H 
ATOM     27  H   LIG d   1       1.404  -3.158 -12.205  0.00  0.00     0.028 H 
ENDBRANCH  18  24
ENDBRANCH  11  14
ENDBRANCH  10  11
ENDBRANCH   7  10
ENDBRANCH   4   7
ENDBRANCH   1   4
BRANCH   1  28
ATOM     28  C   LIG d   1       6.021  -2.613  -9.047  0.00  0.00    -0.051 C 
ATOM     29  H   LIG d   1       6.316  -3.313  -9.829  0.00  0.00     0.027 H 
ATOM     30  H   LIG d   1       6.571  -2.836  -8.132  0.00  0.00     0.027 H 
BRANCH  28  31
ATOM     31  C   LIG d   1       4.520  -2.744  -8.783  0.00  0.00    -0.027 C 
ATOM     32  H   LIG d   1       4.024  -1.805  -9.028  0.00  0.00     0.029 H 
ATOM     33  H   LIG d   1       4.110  -3.543  -9.402  0.00  0.00     0.029 H 
BRANCH  31  34
ATOM     34  C   LIG d   1       4.288  -3.073  -7.306  0.00  0.00     0.077 C 
ATOM     35  H   LIG d   1       3.732  -2.262  -6.837  0.00  0.00     0.058 H 
ATOM     36  H   LIG d   1       3.719  -4.000  -7.226  0.00  0.00     0.058 H 
BRANCH  34  37
ATOM     37  O   LIG d   1       5.548  -3.230  -6.650  0.00  0.00    -0.234 OA
BRANCH  37  38
ATOM     38  S   LIG d   1       5.445  -3.784  -5.237  0.00  0.00     0.112 S 
ATOM     39  O   LIG d   1       4.259  -4.566  -5.192  0.00  0.00    -0.142 OA
ATOM     40  O   LIG d   1       6.722  -4.318  -4.915  0.00  0.00    -0.142 OA
BRANCH  38  41
ATOM     41  C   LIG d   1       5.186  -2.414  -4.159  0.00  0.00     0.117 A 
ATOM     42  C   LIG d   1       4.248  -2.500  -3.147  0.00  0.00    -0.034 A 
ATOM     43  C   LIG d   1       4.048  -1.426  -2.298  0.00  0.00    -0.057 A 
ATOM     44  H   LIG d   1       3.673  -3.405  -3.017  0.00  0.00     0.064 H 
ATOM     45  C   LIG d   1       4.780  -0.265  -2.467  0.00  0.00    -0.050 A 
ATOM     46  H   LIG d   1       3.318  -1.494  -1.505  0.00  0.00     0.062 H 
ATOM     47  C   LIG d   1       5.714  -0.179  -3.482  0.00  0.00    -0.057 A 
ATOM     48  C   LIG d   1       5.916  -1.253  -4.329  0.00  0.00    -0.034 A 
ATOM     49  H   LIG d   1       6.285   0.727  -3.615  0.00  0.00     0.062 H 
ATOM     50  H   LIG d   1       6.647  -1.186  -5.121  0.00  0.00     0.064 H 
BRANCH  45  51
ATOM     51  C   LIG d   1       4.558   0.906  -1.545  0.00  0.00    -0.040 C 
ATOM     52  H   LIG d   1       5.520   1.288  -1.206  0.00  0.00     0.028 H 
ATOM     53  H   LIG d   1       4.022   1.690  -2.077  0.00  0.00     0.028 H 
ATOM     54  H   LIG d   1       3.972   0.584  -0.685  0.00  0.00     0.028 H 
ENDBRANCH  45  51
ENDBRANCH  38  41
ENDBRANCH  37  38
ENDBRANCH  34  37
ENDBRANCH  31  34
ENDBRANCH  28  31
ENDBRANCH   1  28
TORSDOF 13
ENDMDL
MODEL 2
REMARK VINA RESULT:      -6.1      2.816      6.679
REMARK  13 active torsions:
REMARK  status: ('A' for Active; 'I' for Inactive)
REMARK    1  A    between atoms: C_1  and  C_2 
REMARK    2  A    between atoms: C_5  and  S_8 
REMARK    3  A    between atoms: S_8  and  O_11 
REMARK    4  A    between atoms: O_11  and  C_12 
REMARK    5  A    between atoms: C_12  and  C_13 
REMARK    6  A    between atoms: C_13  and  C_14 
REMARK    7  A    between atoms: C_14  and  C_15 
REMARK    8  A    between atoms: C_15  and  C_16 
REMARK    9  A    between atoms: C_16  and  C_17 
REMARK   10  A    between atoms: C_17  and  O_18 
REMARK   11  A    between atoms: O_18  and  S_19 
REMARK   12  A    between atoms: S_19  and  C_22 
REMARK   13  A    between atoms: C_25  and  C_28 
ROOT
ATOM      1  C   LIG d   1       2.869   1.572  -7.468  0.00  0.00    -0.051 C 
ATOM      2  H   LIG d   1       2.056   2.212  -7.123  0.00  0.00     0.027 H 
ATOM      3  H   LIG d   1       3.814   2.109  -7.387  0.00  0.00     0.027 H 
ENDROOT
BRANCH   1   4
ATOM      4  C   LIG d   1       2.925   0.311  -6.603  0.00  0.00    -0.027 C 
ATOM      5  H   LIG d   1       3.965   0.065  -6.386  0.00  0.00     0.029 H 
ATOM      6  H   LIG d   1       2.459  -0.518  -7.137  0.00  0.00     0.029 H 
BRANCH   4   7
ATOM      7  C   LIG d   1       2.176   0.557  -5.292  0.00  0.00     0.077 C 
ATOM      8  H   LIG d   1       1.810  -0.391  -4.899  0.00  0.00     0.058 H 
ATOM      9  H   LIG d   1       1.334   1.224  -5.473  0.00  0.00     0.058 H 
BRANCH   7  10
ATOM     10  O   LIG d   1       3.061   1.156  -4.342  0.00  0.00    -0.234 OA
BRANCH  10  11
ATOM     11  S   LIG d   1       3.288   0.319  -3.092  0.00  0.00     0.112 S 
ATOM     12  O   LIG d   1       2.206  -0.600  -3.017  0.00  0.00    -0.142 OA
ATOM     13  O   LIG d   1       3.587   1.229  -2.043  0.00  0.00    -0.142 OA
BRANCH  11  14
ATOM     14  C   LIG d   1       4.743  -0.638  -3.361  0.00  0.00     0.117 A 
ATOM     15  C   LIG d   1       5.974  -0.014  -3.442  0.00  0.00    -0.034 A 
ATOM     16  C   LIG d   1       7.116  -0.764  -3.652  0.00  0.00    -0.057 A 
ATOM     17  H   LIG d   1       6.044   1.059  -3.340  0.00  0.00     0.064 H 
ATOM     18  C   LIG d   1       7.027  -2.138  -3.781  0.00  0.00    -0.050 A 
ATOM     19  H   LIG d   1       8.077  -0.278  -3.715  0.00  0.00     0.062 H 
ATOM     20  C   LIG d   1       5.794  -2.760  -3.705  0.00  0.00    -0.057 A 
ATOM     21  C   LIG d   1       4.653  -2.011  -3.491  0.00  0.00    -0.034 A 
ATOM     22  H   LIG d   1       5.723  -3.833  -3.811  0.00  0.00     0.062 H 
ATOM     23  H   LIG d   1       3.691  -2.497  -3.428  0.00  0.00     0.064 H 
BRANCH  18  24
ATOM     24  C   LIG d   1       8.272  -2.956  -4.010  0.00  0.00    -0.040 C 
ATOM     25  H   LIG d   1       8.986  -2.762  -3.211  0.00  0.00     0.028 H 
ATOM     26  H   LIG d   1       8.014  -4.015  -4.019  0.00  0.00     0.028 H 
ATOM     27  H   LIG d   1       8.714  -2.681  -4.968  0.00  0.00     0.028 H 
ENDBRANCH  18  24
ENDBRANCH  11  14
ENDBRANCH  10  11
ENDBRANCH   7  10
ENDBRANCH   4   7
ENDBRANCH   1   4
BRANCH   1  28
ATOM     28  C   LIG d   1       2.627   1.179  -8.926  0.00  0.00    -0.051 C 
ATOM     29  H   LIG d   1       2.944   0.148  -9.082  0.00  0.00     0.027 H 
ATOM     30  H   LIG d   1       1.565   1.272  -9.156  0.00  0.00     0.027 H 
BRANCH  28  31
ATOM     31  C   LIG d   1       3.430   2.105  -9.842  0.00  0.00    -0.027 C 
ATOM     32  H   LIG d   1       3.576   1.624 -10.809  0.00  0.00     0.029 H 
ATOM     33  H   LIG d   1       2.887   3.040  -9.980  0.00  0.00     0.029 H 
BRANCH  31  34
ATOM     34  C   LIG d   1       4.792   2.395  -9.206  0.00  0.00     0.077 C 
ATOM     35  H   LIG d   1       5.018   3.457  -9.301  0.00  0.00     0.058 H 
ATOM     36  H   LIG d   1       4.765   2.121  -8.151  0.00  0.00     0.058 H 
BRANCH  34  37
ATOM     37  O   LIG d   1       5.800   1.631  -9.870  0.00  0.00    -0.234 OA
BRANCH  37  38
ATOM     38  S   LIG d   1       6.688   0.828  -8.931  0.00  0.00     0.112 S 
ATOM     39  O   LIG d   1       7.871   0.518  -9.655  0.00  0.00    -0.142 OA
ATOM     40  O   LIG d   1       6.713   1.530  -7.695  0.00  0.00    -0.142 OA
BRANCH  38  41
ATOM     41  C   LIG d   1       5.870  -0.703  -8.624  0.00  0.00     0.117 A 
ATOM     42  C   LIG d   1       5.999  -1.320  -7.394  0.00  0.00    -0.034 A 
ATOM     43  C   LIG d   1       5.354  -2.520  -7.152  0.00  0.00    -0.057 A 
ATOM     44  H   LIG d   1       6.602  -0.866  -6.622  0.00  0.00     0.064 H 
ATOM     45  C   LIG d   1       4.587  -3.104  -8.143  0.00  0.00    -0.050 A 
ATOM     46  H   LIG d   1       5.452  -3.000  -6.190  0.00  0.00     0.062 H 
ATOM     47  C   LIG d   1       4.462  -2.489  -9.374  0.00  0.00    -0.057 A 
ATOM     48  C   LIG d   1       5.104  -1.288  -9.615  0.00  0.00    -0.034 A 
ATOM     49  H   LIG d   1       3.864  -2.945 -10.148  0.00  0.00     0.062 H 
ATOM     50  H   LIG d   1       5.006  -0.807 -10.577  0.00  0.00     0.064 H 
BRANCH  45  51
ATOM     51  C   LIG d   1       3.888  -4.413  -7.880  0.00  0.00    -0.040 C 
ATOM     52  H   LIG d   1       2.862  -4.356  -8.243  0.00  0.00     0.028 H 
ATOM     53  H   LIG d   1       4.413  -5.215  -8.397  0.00  0.00     0.028 H 
ATOM     54  H   LIG d   1       3.883  -4.613  -6.809  0.00  0.00     0.028 H 
ENDBRANCH  45  51
ENDBRANCH  38  41
ENDBRANCH  37  38
ENDBRANCH  34  37
ENDBRANCH  31  34
ENDBRANCH  28  31
ENDBRANCH   1  28
TORSDOF 13
ENDMDL
MODEL 3
REMARK VINA RESULT:      -5.9      2.527      3.564
REMARK  13 active torsions:
REMARK  status: ('A' for Active; 'I' for Inactive)
REMARK    1  A    between atoms: C_1  and  C_2 
REMARK    2  A    between atoms: C_5  and  S_8 
REMARK    3  A    between atoms: S_8  and  O_11 
REMARK    4  A    between atoms: O_11  and  C_12 
REMARK    5  A    between atoms: C_12  and  C_13 
REMARK    6  A    between atoms: C_13  and  C_14 
REMARK    7  A    between atoms: C_14  and  C_15 
REMARK    8  A    between atoms: C_15  and  C_16 
REMARK    9  A    between atoms: C_16  and  C_17 
REMARK   10  A    between atoms: C_17  and  O_18 
REMARK   11  A    between atoms: O_18  and  S_19 
REMARK   12  A    between atoms: S_19  and  C_22 
REMARK   13  A    between atoms: C_25  and  C_28 
ROOT
ATOM      1  C   LIG d   1       5.432  -3.411 -10.553  0.00  0.00    -0.051 C 
ATOM      2  H   LIG d   1       6.199  -4.174 -10.415  0.00  0.00     0.027 H 
ATOM      3  H   LIG d   1       5.901  -2.428 -10.590  0.00  0.00     0.027 H 
ENDROOT
BRANCH   1   4
ATOM      4  C   LIG d   1       4.687  -3.669 -11.864  0.00  0.00    -0.027 C 
ATOM      5  H   LIG d   1       5.105  -4.549 -12.353  0.00  0.00     0.029 H 
ATOM      6  H   LIG d   1       4.794  -2.804 -12.520  0.00  0.00     0.029 H 
BRANCH   4   7
ATOM      7  C   LIG d   1       3.205  -3.906 -11.571  0.00  0.00     0.077 C 
ATOM      8  H   LIG d   1       3.017  -3.762 -10.507  0.00  0.00     0.058 H 
ATOM      9  H   LIG d   1       2.936  -4.924 -11.852  0.00  0.00     0.058 H 
BRANCH   7  10
ATOM     10  O   LIG d   1       2.415  -2.981 -12.322  0.00  0.00    -0.234 OA
BRANCH  10  11
ATOM     11  S   LIG d   1       1.406  -2.207 -11.488  0.00  0.00     0.112 S 
ATOM     12  O   LIG d   1       1.083  -3.029 -10.375  0.00  0.00    -0.142 OA
ATOM     13  O   LIG d   1       0.419  -1.724 -12.389  0.00  0.00    -0.142 OA
BRANCH  11  14
ATOM     14  C   LIG d   1       2.236  -0.792 -10.844  0.00  0.00     0.117 A 
ATOM     15  C   LIG d   1       1.864  -0.271  -9.619  0.00  0.00    -0.034 A 
ATOM     16  C   LIG d   1       2.515   0.838  -9.113  0.00  0.00    -0.057 A 
ATOM     17  H   LIG d   1       1.065  -0.732  -9.056  0.00  0.00     0.064 H 
ATOM     18  C   LIG d   1       3.539   1.426  -9.833  0.00  0.00    -0.050 A 
ATOM     19  H   LIG d   1       2.225   1.244  -8.156  0.00  0.00     0.062 H 
ATOM     20  C   LIG d   1       3.906   0.908 -11.061  0.00  0.00    -0.057 A 
ATOM     21  C   LIG d   1       3.258  -0.204 -11.564  0.00  0.00    -0.034 A 
ATOM     22  H   LIG d   1       4.703   1.371 -11.626  0.00  0.00     0.062 H 
ATOM     23  H   LIG d   1       3.548  -0.611 -12.522  0.00  0.00     0.064 H 
BRANCH  18  24
ATOM     24  C   LIG d   1       4.249   2.636  -9.281  0.00  0.00    -0.040 C 
ATOM     25  H   LIG d   1       3.515   3.350  -8.910  0.00  0.00     0.028 H 
ATOM     26  H   LIG d   1       4.906   2.332  -8.466  0.00  0.00     0.028 H 
ATOM     27  H   LIG d   1       4.841   3.100 -10.071  0.00  0.00     0.028 H 
ENDBRANCH  18  24
ENDBRANCH  11  14
ENDBRANCH  10  11
ENDBRANCH   7  10
ENDBRANCH   4   7
ENDBRANCH   1   4
BRANCH   1  28
ATOM     28  C   LIG d   1       4.444  -3.463  -9.386  0.00  0.00    -0.051 C 
ATOM     29  H   LIG d   1       3.425  -3.432  -9.772  0.00  0.00     0.027 H 
ATOM     30  H   LIG d   1       4.593  -4.385  -8.825  0.00  0.00     0.027 H 
BRANCH  28  31
ATOM     31  C   LIG d   1       4.679  -2.263  -8.467  0.00  0.00    -0.027 C 
ATOM     32  H   LIG d   1       5.691  -1.887  -8.612  0.00  0.00     0.029 H 
ATOM     33  H   LIG d   1       3.962  -1.477  -8.704  0.00  0.00     0.029 H 
BRANCH  31  34
ATOM     34  C   LIG d   1       4.499  -2.695  -7.009  0.00  0.00     0.077 C 
ATOM     35  H   LIG d   1       4.251  -1.825  -6.401  0.00  0.00     0.058 H 
ATOM     36  H   LIG d   1       3.693  -3.426  -6.945  0.00  0.00     0.058 H 
BRANCH  34  37
ATOM     37  O   LIG d   1       5.712  -3.281  -6.533  0.00  0.00    -0.234 OA
BRANCH  37  38
ATOM     38  S   LIG d   1       5.625  -3.812  -5.110  0.00  0.00     0.112 S 
ATOM     39  O   LIG d   1       4.466  -4.634  -5.052  0.00  0.00    -0.142 OA
ATOM     40  O   LIG d   1       6.919  -4.297  -4.777  0.00  0.00    -0.142 OA
BRANCH  38  41
ATOM     41  C   LIG d   1       5.318  -2.433  -4.057  0.00  0.00     0.117 A 
ATOM     42  C   LIG d   1       6.185  -1.357  -4.057  0.00  0.00    -0.034 A 
ATOM     43  C   LIG d   1       5.941  -0.273  -3.233  0.00  0.00    -0.057 A 
ATOM     44  H   LIG d   1       7.051  -1.362  -4.702  0.00  0.00     0.064 H 
ATOM     45  C   LIG d   1       4.835  -0.270  -2.404  0.00  0.00    -0.050 A 
ATOM     46  H   LIG d   1       6.617   0.569  -3.237  0.00  0.00     0.062 H 
ATOM     47  C   LIG d   1       3.971  -1.348  -2.401  0.00  0.00    -0.057 A 
ATOM     48  C   LIG d   1       4.212  -2.430  -3.227  0.00  0.00    -0.034 A 
ATOM     49  H   LIG d   1       3.107  -1.346  -1.754  0.00  0.00     0.062 H 
ATOM     50  H   LIG d   1       3.536  -3.273  -3.224  0.00  0.00     0.064 H 
BRANCH  45  51
ATOM     51  C   LIG d   1       4.573   0.910  -1.504  0.00  0.00    -0.040 C 
ATOM     52  H   LIG d   1       4.042   1.681  -2.061  0.00  0.00     0.028 H 
ATOM     53  H   LIG d   1       3.966   0.592  -0.657  0.00  0.00     0.028 H 
ATOM     54  H   LIG d   1       5.520   1.309  -1.144  0.00  0.00     0.028 H 
ENDBRANCH  45  51
ENDBRANCH  38  41
ENDBRANCH  37  38
ENDBRANCH  34  37
ENDBRANCH  31  34
ENDBRANCH  28  31
ENDBRANCH   1  28
TORSDOF 13
ENDMDL
MODEL 4
REMARK VINA RESULT:      -5.8      1.689      4.310
REMARK  13 active torsions:
REMARK  status: ('A' for Active; 'I' for Inactive)
REMARK    1  A    between atoms: C_1  and  C_2 
REMARK    2  A    between atoms: C_5  and  S_8 
REMARK    3  A    between atoms: S_8  and  O_11 
REMARK    4  A    between atoms: O_11  and  C_12 
REMARK    5  A    between atoms: C_12  and  C_13 
REMARK    6  A    between atoms: C_13  and  C_14 
REMARK    7  A    between atoms: C_14  and  C_15 
REMARK    8  A    between atoms: C_15  and  C_16 
REMARK    9  A    between atoms: C_16  and  C_17 
REMARK   10  A    between atoms: C_17  and  O_18 
REMARK   11  A    between atoms: O_18  and  S_19 
REMARK   12  A    between atoms: S_19  and  C_22 
REMARK   13  A    between atoms: C_25  and  C_28 
ROOT
ATOM      1  C   LIG d   1       2.917  -0.187  -3.117  0.00  0.00    -0.051 C 
ATOM      2  H   LIG d   1       3.638   0.395  -2.544  0.00  0.00     0.027 H 
ATOM      3  H   LIG d   1       1.999  -0.299  -2.540  0.00  0.00     0.027 H 
ENDROOT
BRANCH   1   4
ATOM      4  C   LIG d   1       2.608   0.534  -4.430  0.00  0.00    -0.027 C 
ATOM      5  H   LIG d   1       2.785   1.604  -4.308  0.00  0.00     0.029 H 
ATOM      6  H   LIG d   1       1.565   0.367  -4.701  0.00  0.00     0.029 H 
BRANCH   4   7
ATOM      7  C   LIG d   1       3.514  -0.008  -5.537  0.00  0.00     0.077 C 
ATOM      8  H   LIG d   1       3.836  -1.017  -5.280  0.00  0.00     0.058 H 
ATOM      9  H   LIG d   1       4.387   0.637  -5.640  0.00  0.00     0.058 H 
BRANCH   7  10
ATOM     10  O   LIG d   1       2.796  -0.036  -6.772  0.00  0.00    -0.234 OA
BRANCH  10  11
ATOM     11  S   LIG d   1       3.407   0.828  -7.864  0.00  0.00     0.112 S 
ATOM     12  O   LIG d   1       4.817   0.721  -7.726  0.00  0.00    -0.142 OA
ATOM     13  O   LIG d   1       2.732   2.078  -7.820  0.00  0.00    -0.142 OA
BRANCH  11  14
ATOM     14  C   LIG d   1       2.995   0.087  -9.409  0.00  0.00     0.117 A 
ATOM     15  C   LIG d   1       1.805  -0.602  -9.548  0.00  0.00    -0.034 A 
ATOM     16  C   LIG d   1       1.481  -1.183 -10.760  0.00  0.00    -0.057 A 
ATOM     17  H   LIG d   1       1.127  -0.686  -8.711  0.00  0.00     0.064 H 
ATOM     18  C   LIG d   1       2.347  -1.074 -11.832  0.00  0.00    -0.050 A 
ATOM     19  H   LIG d   1       0.551  -1.721 -10.869  0.00  0.00     0.062 H 
ATOM     20  C   LIG d   1       3.539  -0.390 -11.690  0.00  0.00    -0.057 A 
ATOM     21  C   LIG d   1       3.861   0.195 -10.480  0.00  0.00    -0.034 A 
ATOM     22  H   LIG d   1       4.219  -0.309 -12.527  0.00  0.00     0.062 H 
ATOM     23  H   LIG d   1       4.791   0.734 -10.371  0.00  0.00     0.064 H 
BRANCH  18  24
ATOM     24  C   LIG d   1       1.994  -1.708 -13.153  0.00  0.00    -0.040 C 
ATOM     25  H   LIG d   1       2.325  -1.063 -13.966  0.00  0.00     0.028 H 
ATOM     26  H   LIG d   1       2.486  -2.677 -13.234  0.00  0.00     0.028 H 
ATOM     27  H   LIG d   1       0.913  -1.843 -13.213  0.00  0.00     0.028 H 
ENDBRANCH  18  24
ENDBRANCH  11  14
ENDBRANCH  10  11
ENDBRANCH   7  10
ENDBRANCH   4   7
ENDBRANCH   1   4
BRANCH   1  28
ATOM     28  C   LIG d   1       3.501  -1.569  -3.420  0.00  0.00    -0.051 C 
ATOM     29  H   LIG d   1       2.726  -2.325  -3.298  0.00  0.00     0.027 H 
ATOM     30  H   LIG d   1       3.872  -1.589  -4.445  0.00  0.00     0.027 H 
BRANCH  28  31
ATOM     31  C   LIG d   1       4.653  -1.856  -2.456  0.00  0.00    -0.027 C 
ATOM     32  H   LIG d   1       4.546  -1.237  -1.565  0.00  0.00     0.029 H 
ATOM     33  H   LIG d   1       4.635  -2.908  -2.170  0.00  0.00     0.029 H 
BRANCH  31  34
ATOM     34  C   LIG d   1       5.984  -1.537  -3.142  0.00  0.00     0.077 C 
ATOM     35  H   LIG d   1       5.858  -0.671  -3.792  0.00  0.00     0.058 H 
ATOM     36  H   LIG d   1       6.738  -1.318  -2.386  0.00  0.00     0.058 H 
BRANCH  34  37
ATOM     37  O   LIG d   1       6.401  -2.661  -3.919  0.00  0.00    -0.234 OA
BRANCH  37  38
ATOM     38  S   LIG d   1       6.965  -2.295  -5.284  0.00  0.00     0.112 S 
ATOM     39  O   LIG d   1       6.961  -0.875  -5.358  0.00  0.00    -0.142 OA
ATOM     40  O   LIG d   1       8.148  -3.064  -5.454  0.00  0.00    -0.142 OA
BRANCH  38  41
ATOM     41  C   LIG d   1       5.815  -2.865  -6.491  0.00  0.00     0.117 A 
ATOM     42  C   LIG d   1       4.834  -3.772  -6.137  0.00  0.00    -0.034 A 
ATOM     43  C   LIG d   1       3.929  -4.217  -7.084  0.00  0.00    -0.057 A 
ATOM     44  H   LIG d   1       4.773  -4.132  -5.120  0.00  0.00     0.064 H 
ATOM     45  C   LIG d   1       4.011  -3.760  -8.386  0.00  0.00    -0.050 A 
ATOM     46  H   LIG d   1       3.160  -4.922  -6.807  0.00  0.00     0.062 H 
ATOM     47  C   LIG d   1       4.996  -2.857  -8.741  0.00  0.00    -0.057 A 
ATOM     48  C   LIG d   1       5.898  -2.410  -7.794  0.00  0.00    -0.034 A 
ATOM     49  H   LIG d   1       5.060  -2.500  -9.758  0.00  0.00     0.062 H 
ATOM     50  H   LIG d   1       6.666  -1.703  -8.071  0.00  0.00     0.064 H 
BRANCH  45  51
ATOM     51  C   LIG d   1       3.028  -4.247  -9.419  0.00  0.00    -0.040 C 
ATOM     52  H   LIG d   1       3.325  -5.237  -9.765  0.00  0.00     0.028 H 
ATOM     53  H   LIG d   1       2.034  -4.300  -8.976  0.00  0.00     0.028 H 
ATOM     54  H   LIG d   1       3.015  -3.557 -10.261  0.00  0.00     0.028 H 
ENDBRANCH  45  51
ENDBRANCH  38  41
ENDBRANCH  37  38
ENDBRANCH  34  37
ENDBRANCH  31  34
ENDBRANCH  28  31
ENDBRANCH   1  28
TORSDOF 13
ENDMDL
MODEL 5
REMARK VINA RESULT:      -5.7      5.172      8.006
REMARK  13 active torsions:
REMARK  status: ('A' for Active; 'I' for Inactive)
REMARK    1  A    between atoms: C_1  and  C_2 
REMARK    2  A    between atoms: C_5  and  S_8 
REMARK    3  A    between atoms: S_8  and  O_11 
REMARK    4  A    between atoms: O_11  and  C_12 
REMARK    5  A    between atoms: C_12  and  C_13 
REMARK    6  A    between atoms: C_13  and  C_14 
REMARK    7  A    between atoms: C_14  and  C_15 
REMARK    8  A    between atoms: C_15  and  C_16 
REMARK    9  A    between atoms: C_16  and  C_17 
REMARK   10  A    between atoms: C_17  and  O_18 
REMARK   11  A    between atoms: O_18  and  S_19 
REMARK   12  A    between atoms: S_19  and  C_22 
REMARK   13  A    between atoms: C_25  and  C_28 
ROOT
ATOM      1  C   LIG d   1       4.638  -6.795  -7.809  0.00  0.00    -0.051 C 
ATOM      2  H   LIG d   1       3.619  -6.953  -7.454  0.00  0.00     0.027 H 
ATOM      3  H   LIG d   1       4.791  -7.355  -8.732  0.00  0.00     0.027 H 
ENDROOT
BRANCH   1   4
ATOM      4  C   LIG d   1       4.859  -5.305  -8.075  0.00  0.00    -0.027 C 
ATOM      5  H   LIG d   1       4.593  -5.076  -9.108  0.00  0.00     0.029 H 
ATOM      6  H   LIG d   1       5.908  -5.057  -7.906  0.00  0.00     0.029 H 
BRANCH   4   7
ATOM      7  C   LIG d   1       3.983  -4.482  -7.130  0.00  0.00     0.077 C 
ATOM      8  H   LIG d   1       3.524  -5.141  -6.393  0.00  0.00     0.058 H 
ATOM      9  H   LIG d   1       3.203  -3.978  -7.702  0.00  0.00     0.058 H 
BRANCH   7  10
ATOM     10  O   LIG d   1       4.786  -3.507  -6.461  0.00  0.00    -0.234 OA
BRANCH  10  11
ATOM     11  S   LIG d   1       5.218  -3.914  -5.060  0.00  0.00     0.112 S 
ATOM     12  O   LIG d   1       6.607  -4.203  -5.132  0.00  0.00    -0.142 OA
ATOM     13  O   LIG d   1       4.266  -4.864  -4.602  0.00  0.00    -0.142 OA
BRANCH  11  14
ATOM     14  C   LIG d   1       5.052  -2.495  -4.029  0.00  0.00     0.117 A 
ATOM     15  C   LIG d   1       4.010  -2.417  -3.125  0.00  0.00    -0.034 A 
ATOM     16  C   LIG d   1       3.879  -1.305  -2.315  0.00  0.00    -0.057 A 
ATOM     17  H   LIG d   1       3.297  -3.226  -3.050  0.00  0.00     0.064 H 
ATOM     18  C   LIG d   1       4.791  -0.270  -2.409  0.00  0.00    -0.050 A 
ATOM     19  H   LIG d   1       3.065  -1.243  -1.608  0.00  0.00     0.062 H 
ATOM     20  C   LIG d   1       5.830  -0.346  -3.318  0.00  0.00    -0.057 A 
ATOM     21  C   LIG d   1       5.963  -1.461  -4.125  0.00  0.00    -0.034 A 
ATOM     22  H   LIG d   1       6.540   0.464  -3.396  0.00  0.00     0.062 H 
ATOM     23  H   LIG d   1       6.777  -1.522  -4.831  0.00  0.00     0.064 H 
BRANCH  18  24
ATOM     24  C   LIG d   1       4.649   0.943  -1.527  0.00  0.00    -0.040 C 
ATOM     25  H   LIG d   1       4.158   1.741  -2.082  0.00  0.00     0.028 H 
ATOM     26  H   LIG d   1       4.051   0.688  -0.652  0.00  0.00     0.028 H 
ATOM     27  H   LIG d   1       5.637   1.277  -1.207  0.00  0.00     0.028 H 
ENDBRANCH  18  24
ENDBRANCH  11  14
ENDBRANCH  10  11
ENDBRANCH   7  10
ENDBRANCH   4   7
ENDBRANCH   1   4
BRANCH   1  28
ATOM     28  C   LIG d   1       5.629  -7.276  -6.748  0.00  0.00    -0.051 C 
ATOM     29  H   LIG d   1       6.583  -6.768  -6.885  0.00  0.00     0.027 H 
ATOM     30  H   LIG d   1       5.236  -7.052  -5.756  0.00  0.00     0.027 H 
BRANCH  28  31
ATOM     31  C   LIG d   1       5.830  -8.786  -6.887  0.00  0.00    -0.027 C 
ATOM     32  H   LIG d   1       5.989  -9.037  -7.936  0.00  0.00     0.029 H 
ATOM     33  H   LIG d   1       6.698  -9.093  -6.304  0.00  0.00     0.029 H 
BRANCH  31  34
ATOM     34  C   LIG d   1       4.586  -9.515  -6.372  0.00  0.00     0.077 C 
ATOM     35  H   LIG d   1       3.753  -9.336  -7.051  0.00  0.00     0.058 H 
ATOM     36  H   LIG d   1       4.789 -10.585  -6.318  0.00  0.00     0.058 H 
BRANCH  34  37
ATOM     37  O   LIG d   1       4.254  -9.029  -5.070  0.00  0.00    -0.234 OA
BRANCH  37  38
ATOM     38  S   LIG d   1       4.069 -10.123  -4.029  0.00  0.00     0.112 S 
ATOM     39  O   LIG d   1       2.999  -9.708  -3.189  0.00  0.00    -0.142 OA
ATOM     40  O   LIG d   1       4.048 -11.356  -4.735  0.00  0.00    -0.142 OA
BRANCH  38  41
ATOM     41  C   LIG d   1       5.518 -10.139  -3.027  0.00  0.00     0.117 A 
ATOM     42  C   LIG d   1       5.544 -10.884  -1.863  0.00  0.00    -0.034 A 
ATOM     43  C   LIG d   1       6.684 -10.901  -1.079  0.00  0.00    -0.057 A 
ATOM     44  H   LIG d   1       4.676 -11.455  -1.567  0.00  0.00     0.064 H 
ATOM     45  C   LIG d   1       7.793 -10.166  -1.455  0.00  0.00    -0.050 A 
ATOM     46  H   LIG d   1       6.706 -11.486  -0.171  0.00  0.00     0.062 H 
ATOM     47  C   LIG d   1       7.764  -9.418  -2.617  0.00  0.00    -0.057 A 
ATOM     48  C   LIG d   1       6.627  -9.404  -3.403  0.00  0.00    -0.034 A 
ATOM     49  H   LIG d   1       8.630  -8.844  -2.911  0.00  0.00     0.062 H 
ATOM     50  H   LIG d   1       6.605  -8.820  -4.311  0.00  0.00     0.064 H 
BRANCH  45  51
ATOM     51  C   LIG d   1       9.032 -10.181  -0.599  0.00  0.00    -0.040 C 
ATOM     52  H   LIG d   1       9.589 -11.100  -0.781  0.00  0.00     0.028 H 
ATOM     53  H   LIG d   1       9.655  -9.323  -0.847  0.00  0.00     0.028 H 
ATOM     54  H   LIG d   1       8.748 -10.131   0.452  0.00  0.00     0.028 H 
ENDBRANCH  45  51
ENDBRANCH  38  41
ENDBRANCH  37  38
ENDBRANCH  34  37
ENDBRANCH  31  34
ENDBRANCH  28  31
ENDBRANCH   1  28
TORSDOF 13
ENDMDL
MODEL 6
REMARK VINA RESULT:      -5.7      2.563      5.876
REMARK  13 active torsions:
REMARK  status: ('A' for Active; 'I' for Inactive)
REMARK    1  A    between atoms: C_1  and  C_2 
REMARK    2  A    between atoms: C_5  and  S_8 
REMARK    3  A    between atoms: S_8  and  O_11 
REMARK    4  A    between atoms: O_11  and  C_12 
REMARK    5  A    between atoms: C_12  and  C_13 
REMARK    6  A    between atoms: C_13  and  C_14 
REMARK    7  A    between atoms: C_14  and  C_15 
REMARK    8  A    between atoms: C_15  and  C_16 
REMARK    9  A    between atoms: C_16  and  C_17 
REMARK   10  A    between atoms: C_17  and  O_18 
REMARK   11  A    between atoms: O_18  and  S_19 
REMARK   12  A    between atoms: S_19  and  C_22 
REMARK   13  A    between atoms: C_25  and  C_28 
ROOT
ATOM      1  C   LIG d   1       7.513  -0.707  -7.611  0.00  0.00    -0.051 C 
ATOM      2  H   LIG d   1       8.425  -0.905  -7.048  0.00  0.00     0.027 H 
ATOM      3  H   LIG d   1       6.716  -1.359  -7.251  0.00  0.00     0.027 H 
ENDROOT
BRANCH   1   4
ATOM      4  C   LIG d   1       7.102   0.754  -7.417  0.00  0.00    -0.027 C 
ATOM      5  H   LIG d   1       6.230   0.803  -6.763  0.00  0.00     0.029 H 
ATOM      6  H   LIG d   1       6.856   1.194  -8.384  0.00  0.00     0.029 H 
BRANCH   4   7
ATOM      7  C   LIG d   1       8.258   1.530  -6.783  0.00  0.00     0.077 C 
ATOM      8  H   LIG d   1       8.591   2.309  -7.468  0.00  0.00     0.058 H 
ATOM      9  H   LIG d   1       9.084   0.849  -6.578  0.00  0.00     0.058 H 
BRANCH   7  10
ATOM     10  O   LIG d   1       7.819   2.125  -5.560  0.00  0.00    -0.234 OA
BRANCH  10  11
ATOM     11  S   LIG d   1       8.330   1.423  -4.311  0.00  0.00     0.112 S 
ATOM     12  O   LIG d   1       8.547   2.435  -3.337  0.00  0.00    -0.142 OA
ATOM     13  O   LIG d   1       9.360   0.540  -4.733  0.00  0.00    -0.142 OA
BRANCH  11  14
ATOM     14  C   LIG d   1       7.019   0.414  -3.705  0.00  0.00     0.117 A 
ATOM     15  C   LIG d   1       5.916   0.998  -3.111  0.00  0.00    -0.034 A 
ATOM     16  C   LIG d   1       4.887   0.207  -2.636  0.00  0.00    -0.057 A 
ATOM     17  H   LIG d   1       5.858   2.073  -3.018  0.00  0.00     0.064 H 
ATOM     18  C   LIG d   1       4.960  -1.168  -2.756  0.00  0.00    -0.050 A 
ATOM     19  H   LIG d   1       4.025   0.663  -2.172  0.00  0.00     0.062 H 
ATOM     20  C   LIG d   1       6.066  -1.752  -3.345  0.00  0.00    -0.057 A 
ATOM     21  C   LIG d   1       7.093  -0.961  -3.824  0.00  0.00    -0.034 A 
ATOM     22  H   LIG d   1       6.126  -2.827  -3.434  0.00  0.00     0.062 H 
ATOM     23  H   LIG d   1       7.955  -1.417  -4.288  0.00  0.00     0.064 H 
BRANCH  18  24
ATOM     24  C   LIG d   1       3.838  -2.031  -2.238  0.00  0.00    -0.040 C 
ATOM     25  H   LIG d   1       4.246  -2.811  -1.596  0.00  0.00     0.028 H 
ATOM     26  H   LIG d   1       3.142  -1.417  -1.666  0.00  0.00     0.028 H 
ATOM     27  H   LIG d   1       3.314  -2.488  -3.078  0.00  0.00     0.028 H 
ENDBRANCH  18  24
ENDBRANCH  11  14
ENDBRANCH  10  11
ENDBRANCH   7  10
ENDBRANCH   4   7
ENDBRANCH   1   4
BRANCH   1  28
ATOM     28  C   LIG d   1       7.760  -0.974  -9.097  0.00  0.00    -0.051 C 
ATOM     29  H   LIG d   1       7.114  -0.331  -9.694  0.00  0.00     0.027 H 
ATOM     30  H   LIG d   1       8.803  -0.764  -9.335  0.00  0.00     0.027 H 
BRANCH  28  31
ATOM     31  C   LIG d   1       7.452  -2.440  -9.408  0.00  0.00    -0.027 C 
ATOM     32  H   LIG d   1       6.669  -2.494 -10.165  0.00  0.00     0.029 H 
ATOM     33  H   LIG d   1       8.352  -2.930  -9.781  0.00  0.00     0.029 H 
BRANCH  31  34
ATOM     34  C   LIG d   1       6.979  -3.143  -8.133  0.00  0.00     0.077 C 
ATOM     35  H   LIG d   1       7.753  -3.827  -7.788  0.00  0.00     0.058 H 
ATOM     36  H   LIG d   1       6.779  -2.399  -7.362  0.00  0.00     0.058 H 
BRANCH  34  37
ATOM     37  O   LIG d   1       5.783  -3.875  -8.409  0.00  0.00    -0.234 OA
BRANCH  37  38
ATOM     38  S   LIG d   1       4.653  -3.606  -7.427  0.00  0.00     0.112 S 
ATOM     39  O   LIG d   1       3.577  -4.456  -7.802  0.00  0.00    -0.142 OA
ATOM     40  O   LIG d   1       5.228  -3.633  -6.127  0.00  0.00    -0.142 OA
BRANCH  38  41
ATOM     41  C   LIG d   1       4.107  -1.953  -7.701  0.00  0.00     0.117 A 
ATOM     42  C   LIG d   1       3.959  -1.088  -6.633  0.00  0.00    -0.034 A 
ATOM     43  C   LIG d   1       3.535   0.210  -6.849  0.00  0.00    -0.057 A 
ATOM     44  H   LIG d   1       4.176  -1.426  -5.631  0.00  0.00     0.064 H 
ATOM     45  C   LIG d   1       3.251   0.641  -8.132  0.00  0.00    -0.050 A 
ATOM     46  H   LIG d   1       3.423   0.887  -6.015  0.00  0.00     0.062 H 
ATOM     47  C   LIG d   1       3.396  -0.226  -9.199  0.00  0.00    -0.057 A 
ATOM     48  C   LIG d   1       3.823  -1.523  -8.984  0.00  0.00    -0.034 A 
ATOM     49  H   LIG d   1       3.175   0.110 -10.201  0.00  0.00     0.062 H 
ATOM     50  H   LIG d   1       3.936  -2.199  -9.818  0.00  0.00     0.064 H 
BRANCH  45  51
ATOM     51  C   LIG d   1       2.786   2.054  -8.366  0.00  0.00    -0.040 C 
ATOM     52  H   LIG d   1       2.018   2.061  -9.140  0.00  0.00     0.028 H 
ATOM     53  H   LIG d   1       2.374   2.459  -7.442  0.00  0.00     0.028 H 
ATOM     54  H   LIG d   1       3.629   2.666  -8.686  0.00  0.00     0.028 H 
ENDBRANCH  45  51
ENDBRANCH  38  41
ENDBRANCH  37  38
ENDBRANCH  34  37
ENDBRANCH  31  34
ENDBRANCH  28  31
ENDBRANCH   1  28
TORSDOF 13
ENDMDL
MODEL 7
REMARK VINA RESULT:      -5.7      1.320      7.513
REMARK  13 active torsions:
REMARK  status: ('A' for Active; 'I' for Inactive)
REMARK    1  A    between atoms: C_1  and  C_2 
REMARK    2  A    between atoms: C_5  and  S_8 
REMARK    3  A    between atoms: S_8  and  O_11 
REMARK    4  A    between atoms: O_11  and  C_12 
REMARK    5  A    between atoms: C_12  and  C_13 
REMARK    6  A    between atoms: C_13  and  C_14 
REMARK    7  A    between atoms: C_14  and  C_15 
REMARK    8  A    between atoms: C_15  and  C_16 
REMARK    9  A    between atoms: C_16  and  C_17 
REMARK   10  A    between atoms: C_17  and  O_18 
REMARK   11  A    between atoms: O_18  and  S_19 
REMARK   12  A    between atoms: S_19  and  C_22 
REMARK   13  A    between atoms: C_25  and  C_28 
ROOT
ATOM      1  C   LIG d   1       4.842  -3.965  -7.965  0.00  0.00    -0.051 C 
ATOM      2  H   LIG d   1       5.745  -4.293  -8.479  0.00  0.00     0.027 H 
ATOM      3  H   LIG d   1       3.991  -4.550  -8.315  0.00  0.00     0.027 H 
ENDROOT
BRANCH   1   4
ATOM      4  C   LIG d   1       5.012  -4.165  -6.458  0.00  0.00    -0.027 C 
ATOM      5  H   LIG d   1       4.394  -5.002  -6.130  0.00  0.00     0.029 H 
ATOM      6  H   LIG d   1       4.707  -3.260  -5.933  0.00  0.00     0.029 H 
BRANCH   4   7
ATOM      7  C   LIG d   1       6.479  -4.465  -6.146  0.00  0.00     0.077 C 
ATOM      8  H   LIG d   1       7.119  -3.846  -6.775  0.00  0.00     0.058 H 
ATOM      9  H   LIG d   1       6.686  -5.517  -6.342  0.00  0.00     0.058 H 
BRANCH   7  10
ATOM     10  O   LIG d   1       6.743  -4.178  -4.770  0.00  0.00    -0.234 OA
BRANCH  10  11
ATOM     11  S   LIG d   1       7.580  -2.927  -4.548  0.00  0.00     0.112 S 
ATOM     12  O   LIG d   1       7.914  -2.428  -5.836  0.00  0.00    -0.142 OA
ATOM     13  O   LIG d   1       8.568  -3.265  -3.584  0.00  0.00    -0.142 OA
BRANCH  11  14
ATOM     14  C   LIG d   1       6.534  -1.724  -3.797  0.00  0.00     0.117 A 
ATOM     15  C   LIG d   1       6.926  -0.400  -3.753  0.00  0.00    -0.034 A 
ATOM     16  C   LIG d   1       6.105   0.544  -3.165  0.00  0.00    -0.057 A 
ATOM     17  H   LIG d   1       7.873  -0.102  -4.178  0.00  0.00     0.064 H 
ATOM     18  C   LIG d   1       4.892   0.164  -2.622  0.00  0.00    -0.050 A 
ATOM     19  H   LIG d   1       6.410   1.579  -3.130  0.00  0.00     0.062 H 
ATOM     20  C   LIG d   1       4.503  -1.163  -2.662  0.00  0.00    -0.057 A 
ATOM     21  C   LIG d   1       5.322  -2.106  -3.254  0.00  0.00    -0.034 A 
ATOM     22  H   LIG d   1       3.557  -1.462  -2.234  0.00  0.00     0.062 H 
ATOM     23  H   LIG d   1       5.016  -3.141  -3.289  0.00  0.00     0.064 H 
BRANCH  18  24
ATOM     24  C   LIG d   1       3.997   1.193  -1.981  0.00  0.00    -0.040 C 
ATOM     25  H   LIG d   1       4.599   2.032  -1.633  0.00  0.00     0.028 H 
ATOM     26  H   LIG d   1       3.268   1.546  -2.711  0.00  0.00     0.028 H 
ATOM     27  H   LIG d   1       3.476   0.743  -1.135  0.00  0.00     0.028 H 
ENDBRANCH  18  24
ENDBRANCH  11  14
ENDBRANCH  10  11
ENDBRANCH   7  10
ENDBRANCH   4   7
ENDBRANCH   1   4
BRANCH   1  28
ATOM     28  C   LIG d   1       4.597  -2.483  -8.257  0.00  0.00    -0.051 C 
ATOM     29  H   LIG d   1       5.457  -2.070  -8.784  0.00  0.00     0.027 H 
ATOM     30  H   LIG d   1       3.706  -2.378  -8.877  0.00  0.00     0.027 H 
BRANCH  28  31
ATOM     31  C   LIG d   1       4.394  -1.732  -6.940  0.00  0.00    -0.027 C 
ATOM     32  H   LIG d   1       3.332  -1.699  -6.700  0.00  0.00     0.029 H 
ATOM     33  H   LIG d   1       4.932  -2.244  -6.142  0.00  0.00     0.029 H 
BRANCH  31  34
ATOM     34  C   LIG d   1       4.929  -0.304  -7.080  0.00  0.00     0.077 C 
ATOM     35  H   LIG d   1       5.593  -0.083  -6.245  0.00  0.00     0.058 H 
ATOM     36  H   LIG d   1       5.478  -0.213  -8.018  0.00  0.00     0.058 H 
BRANCH  34  37
ATOM     37  O   LIG d   1       3.836   0.616  -7.078  0.00  0.00    -0.234 OA
BRANCH  37  38
ATOM     38  S   LIG d   1       3.770   1.502  -8.313  0.00  0.00     0.112 S 
ATOM     39  O   LIG d   1       2.780   2.488  -8.054  0.00  0.00    -0.142 OA
ATOM     40  O   LIG d   1       5.111   1.838  -8.644  0.00  0.00    -0.142 OA
BRANCH  38  41
ATOM     41  C   LIG d   1       3.159   0.509  -9.634  0.00  0.00     0.117 A 
ATOM     42  C   LIG d   1       3.879   0.402 -10.809  0.00  0.00    -0.034 A 
ATOM     43  C   LIG d   1       3.401  -0.380 -11.844  0.00  0.00    -0.057 A 
ATOM     44  H   LIG d   1       4.816   0.929 -10.918  0.00  0.00     0.064 H 
ATOM     45  C   LIG d   1       2.199  -1.050 -11.706  0.00  0.00    -0.050 A 
ATOM     46  H   LIG d   1       3.966  -0.467 -12.760  0.00  0.00     0.062 H 
ATOM     47  C   LIG d   1       1.477  -0.940 -10.533  0.00  0.00    -0.057 A 
ATOM     48  C   LIG d   1       1.957  -0.160  -9.497  0.00  0.00    -0.034 A 
ATOM     49  H   LIG d   1       0.539  -1.463 -10.425  0.00  0.00     0.062 H 
ATOM     50  H   LIG d   1       1.393  -0.075  -8.580  0.00  0.00     0.064 H 
BRANCH  45  51
ATOM     51  C   LIG d   1       1.677  -1.900 -12.836  0.00  0.00    -0.040 C 
ATOM     52  H   LIG d   1       1.310  -1.257 -13.635  0.00  0.00     0.028 H 
ATOM     53  H   LIG d   1       2.480  -2.531 -13.216  0.00  0.00     0.028 H 
ATOM     54  H   LIG d   1       0.864  -2.527 -12.472  0.00  0.00     0.028 H 
ENDBRANCH  45  51
ENDBRANCH  38  41
ENDBRANCH  37  38
ENDBRANCH  34  37
ENDBRANCH  31  34
ENDBRANCH  28  31
ENDBRANCH   1  28
TORSDOF 13
ENDMDL
MODEL 8
REMARK VINA RESULT:      -5.7      1.432      1.981
REMARK  13 active torsions:
REMARK  status: ('A' for Active; 'I' for Inactive)
REMARK    1  A    between atoms: C_1  and  C_2 
REMARK    2  A    between atoms: C_5  and  S_8 
REMARK    3  A    between atoms: S_8  and  O_11 
REMARK    4  A    between atoms: O_11  and  C_12 
REMARK    5  A    between atoms: C_12  and  C_13 
REMARK    6  A    between atoms: C_13  and  C_14 
REMARK    7  A    between atoms: C_14  and  C_15 
REMARK    8  A    between atoms: C_15  and  C_16 
REMARK    9  A    between atoms: C_16  and  C_17 
REMARK   10  A    between atoms: C_17  and  O_18 
REMARK   11  A    between atoms: O_18  and  S_19 
REMARK   12  A    between atoms: S_19  and  C_22 
REMARK   13  A    between atoms: C_25  and  C_28 
ROOT
ATOM      1  C   LIG d   1       4.797  -2.523  -7.337  0.00  0.00    -0.051 C 
ATOM      2  H   LIG d   1       4.198  -2.648  -8.239  0.00  0.00     0.027 H 
ATOM      3  H   LIG d   1       5.846  -2.407  -7.610  0.00  0.00     0.027 H 
ENDROOT
BRANCH   1   4
ATOM      4  C   LIG d   1       4.327  -1.279  -6.582  0.00  0.00    -0.027 C 
ATOM      5  H   LIG d   1       4.342  -1.477  -5.509  0.00  0.00     0.029 H 
ATOM      6  H   LIG d   1       3.312  -1.027  -6.891  0.00  0.00     0.029 H 
BRANCH   4   7
ATOM      7  C   LIG d   1       5.261  -0.108  -6.896  0.00  0.00     0.077 C 
ATOM      8  H   LIG d   1       6.221  -0.267  -6.405  0.00  0.00     0.058 H 
ATOM      9  H   LIG d   1       4.817   0.819  -6.533  0.00  0.00     0.058 H 
BRANCH   7  10
ATOM     10  O   LIG d   1       5.457  -0.020  -8.309  0.00  0.00    -0.234 OA
BRANCH  10  11
ATOM     11  S   LIG d   1       4.602   1.041  -8.988  0.00  0.00     0.112 S 
ATOM     12  O   LIG d   1       5.458   1.742  -9.879  0.00  0.00    -0.142 OA
ATOM     13  O   LIG d   1       3.874   1.696  -7.958  0.00  0.00    -0.142 OA
BRANCH  11  14
ATOM     14  C   LIG d   1       3.418   0.198  -9.985  0.00  0.00     0.117 A 
ATOM     15  C   LIG d   1       3.729  -0.142 -11.287  0.00  0.00    -0.034 A 
ATOM     16  C   LIG d   1       2.802  -0.803 -12.069  0.00  0.00    -0.057 A 
ATOM     17  H   LIG d   1       4.699   0.108 -11.695  0.00  0.00     0.064 H 
ATOM     18  C   LIG d   1       1.562  -1.125 -11.548  0.00  0.00    -0.050 A 
ATOM     19  H   LIG d   1       3.045  -1.069 -13.087  0.00  0.00     0.062 H 
ATOM     20  C   LIG d   1       1.249  -0.779 -10.247  0.00  0.00    -0.057 A 
ATOM     21  C   LIG d   1       2.179  -0.122  -9.463  0.00  0.00    -0.034 A 
ATOM     22  H   LIG d   1       0.279  -1.026  -9.841  0.00  0.00     0.062 H 
ATOM     23  H   LIG d   1       1.936   0.144  -8.445  0.00  0.00     0.064 H 
BRANCH  18  24
ATOM     24  C   LIG d   1       0.550  -1.846 -12.401  0.00  0.00    -0.040 C 
ATOM     25  H   LIG d   1       0.704  -1.584 -13.447  0.00  0.00     0.028 H 
ATOM     26  H   LIG d   1       0.668  -2.922 -12.274  0.00  0.00     0.028 H 
ATOM     27  H   LIG d   1      -0.455  -1.552 -12.097  0.00  0.00     0.028 H 
ENDBRANCH  18  24
ENDBRANCH  11  14
ENDBRANCH  10  11
ENDBRANCH   7  10
ENDBRANCH   4   7
ENDBRANCH   1   4
BRANCH   1  28
ATOM     28  C   LIG d   1       4.635  -3.754  -6.442  0.00  0.00    -0.051 C 
ATOM     29  H   LIG d   1       4.778  -3.467  -5.400  0.00  0.00     0.027 H 
ATOM     30  H   LIG d   1       3.635  -4.168  -6.572  0.00  0.00     0.027 H 
BRANCH  28  31
ATOM     31  C   LIG d   1       5.676  -4.805  -6.830  0.00  0.00    -0.027 C 
ATOM     32  H   LIG d   1       5.353  -5.785  -6.478  0.00  0.00     0.029 H 
ATOM     33  H   LIG d   1       5.784  -4.827  -7.915  0.00  0.00     0.029 H 
BRANCH  31  34
ATOM     34  C   LIG d   1       7.021  -4.451  -6.190  0.00  0.00     0.077 C 
ATOM     35  H   LIG d   1       7.676  -5.322  -6.218  0.00  0.00     0.058 H 
ATOM     36  H   LIG d   1       7.480  -3.631  -6.742  0.00  0.00     0.058 H 
BRANCH  34  37
ATOM     37  O   LIG d   1       6.813  -4.054  -4.834  0.00  0.00    -0.234 OA
BRANCH  37  38
ATOM     38  S   LIG d   1       7.680  -2.885  -4.391  0.00  0.00     0.112 S 
ATOM     39  O   LIG d   1       8.509  -3.367  -3.342  0.00  0.00    -0.142 OA
ATOM     40  O   LIG d   1       8.212  -2.302  -5.574  0.00  0.00    -0.142 OA
BRANCH  38  41
ATOM     41  C   LIG d   1       6.609  -1.683  -3.676  0.00  0.00     0.117 A 
ATOM     42  C   LIG d   1       5.412  -2.076  -3.107  0.00  0.00    -0.034 A 
ATOM     43  C   LIG d   1       4.572  -1.133  -2.542  0.00  0.00    -0.057 A 
ATOM     44  H   LIG d   1       5.132  -3.119  -3.104  0.00  0.00     0.064 H 
ATOM     45  C   LIG d   1       4.928   0.203  -2.552  0.00  0.00    -0.050 A 
ATOM     46  H   LIG d   1       3.639  -1.440  -2.095  0.00  0.00     0.062 H 
ATOM     47  C   LIG d   1       6.123   0.596  -3.124  0.00  0.00    -0.057 A 
ATOM     48  C   LIG d   1       6.963  -0.347  -3.687  0.00  0.00    -0.034 A 
ATOM     49  H   LIG d   1       6.401   1.639  -3.132  0.00  0.00     0.062 H 
ATOM     50  H   LIG d   1       7.898  -0.040  -4.133  0.00  0.00     0.064 H 
BRANCH  45  51
ATOM     51  C   LIG d   1       4.012   1.230  -1.940  0.00  0.00    -0.040 C 
ATOM     52  H   LIG d   1       3.375   0.752  -1.196  0.00  0.00     0.028 H 
ATOM     53  H   LIG d   1       4.607   2.009  -1.462  0.00  0.00     0.028 H 
ATOM     54  H   LIG d   1       3.391   1.673  -2.718  0.00  0.00     0.028 H 
ENDBRANCH  45  51
ENDBRANCH  38  41
ENDBRANCH  37  38
ENDBRANCH  34  37
ENDBRANCH  31  34
ENDBRANCH  28  31
ENDBRANCH   1  28
TORSDOF 13
ENDMDL
MODEL 9
REMARK VINA RESULT:      -5.6      2.452      7.312
REMARK  13 active torsions:
REMARK  status: ('A' for Active; 'I' for Inactive)
REMARK    1  A    between atoms: C_1  and  C_2 
REMARK    2  A    between atoms: C_5  and  S_8 
REMARK    3  A    between atoms: S_8  and  O_11 
REMARK    4  A    between atoms: O_11  and  C_12 
REMARK    5  A    between atoms: C_12  and  C_13 
REMARK    6  A    between atoms: C_13  and  C_14 
REMARK    7  A    between atoms: C_14  and  C_15 
REMARK    8  A    between atoms: C_15  and  C_16 
REMARK    9  A    between atoms: C_16  and  C_17 
REMARK   10  A    between atoms: C_17  and  O_18 
REMARK   11  A    between atoms: O_18  and  S_19 
REMARK   12  A    between atoms: S_19  and  C_22 
REMARK   13  A    between atoms: C_25  and  C_28 
ROOT
ATOM      1  C   LIG d   1       6.135  -1.334  -8.994  0.00  0.00    -0.051 C 
ATOM      2  H   LIG d   1       5.873  -0.276  -9.010  0.00  0.00     0.027 H 
ATOM      3  H   LIG d   1       6.928  -1.501  -8.265  0.00  0.00     0.027 H 
ENDROOT
BRANCH   1   4
ATOM      4  C   LIG d   1       4.905  -2.157  -8.604  0.00  0.00    -0.027 C 
ATOM      5  H   LIG d   1       5.065  -3.201  -8.877  0.00  0.00     0.029 H 
ATOM      6  H   LIG d   1       4.030  -1.775  -9.129  0.00  0.00     0.029 H 
BRANCH   4   7
ATOM      7  C   LIG d   1       4.679  -2.055  -7.095  0.00  0.00     0.077 C 
ATOM      8  H   LIG d   1       3.864  -1.360  -6.896  0.00  0.00     0.058 H 
ATOM      9  H   LIG d   1       5.589  -1.695  -6.614  0.00  0.00     0.058 H 
BRANCH   7  10
ATOM     10  O   LIG d   1       4.345  -3.343  -6.574  0.00  0.00    -0.234 OA
BRANCH  10  11
ATOM     11  S   LIG d   1       5.111  -3.719  -5.313  0.00  0.00     0.112 S 
ATOM     12  O   LIG d   1       6.481  -3.804  -5.681  0.00  0.00    -0.142 OA
ATOM     13  O   LIG d   1       4.412  -4.807  -4.723  0.00  0.00    -0.142 OA
BRANCH  11  14
ATOM     14  C   LIG d   1       4.973  -2.365  -4.195  0.00  0.00     0.117 A 
ATOM     15  C   LIG d   1       6.069  -1.561  -3.946  0.00  0.00    -0.034 A 
ATOM     16  C   LIG d   1       5.961  -0.497  -3.069  0.00  0.00    -0.057 A 
ATOM     17  H   LIG d   1       7.010  -1.762  -4.438  0.00  0.00     0.064 H 
ATOM     18  C   LIG d   1       4.757  -0.239  -2.441  0.00  0.00    -0.050 A 
ATOM     19  H   LIG d   1       6.817   0.131  -2.875  0.00  0.00     0.062 H 
ATOM     20  C   LIG d   1       3.663  -1.047  -2.686  0.00  0.00    -0.057 A 
ATOM     21  C   LIG d   1       3.769  -2.107  -3.566  0.00  0.00    -0.034 A 
ATOM     22  H   LIG d   1       2.723  -0.849  -2.191  0.00  0.00     0.062 H 
ATOM     23  H   LIG d   1       2.913  -2.736  -3.760  0.00  0.00     0.064 H 
BRANCH  18  24
ATOM     24  C   LIG d   1       4.640   0.920  -1.485  0.00  0.00    -0.040 C 
ATOM     25  H   LIG d   1       5.592   1.447  -1.434  0.00  0.00     0.028 H 
ATOM     26  H   LIG d   1       3.865   1.602  -1.833  0.00  0.00     0.028 H 
ATOM     27  H   LIG d   1       4.377   0.547  -0.494  0.00  0.00     0.028 H 
ENDBRANCH  18  24
ENDBRANCH  11  14
ENDBRANCH  10  11
ENDBRANCH   7  10
ENDBRANCH   4   7
ENDBRANCH   1   4
BRANCH   1  28
ATOM     28  C   LIG d   1       6.616  -1.763 -10.381  0.00  0.00    -0.051 C 
ATOM     29  H   LIG d   1       6.539  -0.921 -11.069  0.00  0.00     0.027 H 
ATOM     30  H   LIG d   1       7.654  -2.090 -10.320  0.00  0.00     0.027 H 
BRANCH  28  31
ATOM     31  C   LIG d   1       5.748  -2.916 -10.887  0.00  0.00    -0.027 C 
ATOM     32  H   LIG d   1       6.305  -3.850 -10.817  0.00  0.00     0.029 H 
ATOM     33  H   LIG d   1       4.845  -2.986 -10.279  0.00  0.00     0.029 H 
BRANCH  31  34
ATOM     34  C   LIG d   1       5.360  -2.661 -12.346  0.00  0.00     0.077 C 
ATOM     35  H   LIG d   1       5.640  -1.645 -12.623  0.00  0.00     0.058 H 
ATOM     36  H   LIG d   1       5.881  -3.371 -12.988  0.00  0.00     0.058 H 
BRANCH  34  37
ATOM     37  O   LIG d   1       3.950  -2.827 -12.500  0.00  0.00    -0.234 OA
BRANCH  37  38
ATOM     38  S   LIG d   1       3.228  -1.575 -12.976  0.00  0.00     0.112 S 
ATOM     39  O   LIG d   1       4.076  -0.955 -13.934  0.00  0.00    -0.142 OA
ATOM     40  O   LIG d   1       1.894  -1.965 -13.279  0.00  0.00    -0.142 OA
BRANCH  38  41
ATOM     41  C   LIG d   1       3.131  -0.476 -11.602  0.00  0.00     0.117 A 
ATOM     42  C   LIG d   1       3.989   0.605 -11.521  0.00  0.00    -0.034 A 
ATOM     43  C   LIG d   1       3.910   1.470 -10.445  0.00  0.00    -0.057 A 
ATOM     44  H   LIG d   1       4.719   0.775 -12.298  0.00  0.00     0.064 H 
ATOM     45  C   LIG d   1       2.979   1.249  -9.447  0.00  0.00    -0.050 A 
ATOM     46  H   LIG d   1       4.578   2.316 -10.383  0.00  0.00     0.062 H 
ATOM     47  C   LIG d   1       2.124   0.166  -9.527  0.00  0.00    -0.057 A 
ATOM     48  C   LIG d   1       2.201  -0.697 -10.604  0.00  0.00    -0.034 A 
ATOM     49  H   LIG d   1       1.397  -0.006  -8.748  0.00  0.00     0.062 H 
ATOM     50  H   LIG d   1       1.532  -1.543 -10.667  0.00  0.00     0.064 H 
BRANCH  45  51
ATOM     51  C   LIG d   1       2.896   2.190  -8.273  0.00  0.00    -0.040 C 
ATOM     52  H   LIG d   1       1.860   2.490  -8.120  0.00  0.00     0.028 H 
ATOM     53  H   LIG d   1       3.265   1.688  -7.379  0.00  0.00     0.028 H 
ATOM     54  H   LIG d   1       3.503   3.072  -8.472  0.00  0.00     0.028 H 
ENDBRANCH  45  51
ENDBRANCH  38  41
ENDBRANCH  37  38
ENDBRANCH  34  37
ENDBRANCH  31  34
ENDBRANCH  28  31
ENDBRANCH   1  28
TORSDOF 13
ENDMDL
MODEL 10
REMARK VINA RESULT:      -5.6      0.913      7.495
REMARK  13 active torsions:
REMARK  status: ('A' for Active; 'I' for Inactive)
REMARK    1  A    between atoms: C_1  and  C_2 
REMARK    2  A    between atoms: C_5  and  S_8 
REMARK    3  A    between atoms: S_8  and  O_11 
REMARK    4  A    between atoms: O_11  and  C_12 
REMARK    5  A    between atoms: C_12  and  C_13 
REMARK    6  A    between atoms: C_13  and  C_14 
REMARK    7  A    between atoms: C_14  and  C_15 
REMARK    8  A    between atoms: C_15  and  C_16 
REMARK    9  A    between atoms: C_16  and  C_17 
REMARK   10  A    between atoms: C_17  and  O_18 
REMARK   11  A    between atoms: O_18  and  S_19 
REMARK   12  A    between atoms: S_19  and  C_22 
REMARK   13  A    between atoms: C_25  and  C_28 
ROOT
ATOM      1  C   LIG d   1       7.400  -2.958  -9.553  0.00  0.00    -0.051 C 
ATOM      2  H   LIG d   1       8.292  -2.491  -9.137  0.00  0.00     0.027 H 
ATOM      3  H   LIG d   1       7.670  -3.532 -10.440  0.00  0.00     0.027 H 
ENDROOT
BRANCH   1   4
ATOM      4  C   LIG d   1       6.781  -3.893  -8.512  0.00  0.00    -0.027 C 
ATOM      5  H   LIG d   1       7.352  -4.822  -8.473  0.00  0.00     0.029 H 
ATOM      6  H   LIG d   1       5.749  -4.111  -8.786  0.00  0.00     0.029 H 
BRANCH   4   7
ATOM      7  C   LIG d   1       6.812  -3.219  -7.139  0.00  0.00     0.077 C 
ATOM      8  H   LIG d   1       7.113  -2.178  -7.251  0.00  0.00     0.058 H 
ATOM      9  H   LIG d   1       7.525  -3.735  -6.495  0.00  0.00     0.058 H 
BRANCH   7  10
ATOM     10  O   LIG d   1       5.512  -3.278  -6.549  0.00  0.00    -0.234 OA
BRANCH  10  11
ATOM     11  S   LIG d   1       5.503  -3.796  -5.118  0.00  0.00     0.112 S 
ATOM     12  O   LIG d   1       6.819  -4.259  -4.846  0.00  0.00    -0.142 OA
ATOM     13  O   LIG d   1       4.361  -4.634  -4.996  0.00  0.00    -0.142 OA
BRANCH  11  14
ATOM     14  C   LIG d   1       5.228  -2.412  -4.063  0.00  0.00     0.117 A 
ATOM     15  C   LIG d   1       4.217  -2.452  -3.122  0.00  0.00    -0.034 A 
ATOM     16  C   LIG d   1       4.001  -1.367  -2.293  0.00  0.00    -0.057 A 
ATOM     17  H   LIG d   1       3.595  -3.331  -3.033  0.00  0.00     0.064 H 
ATOM     18  C   LIG d   1       4.798  -0.242  -2.405  0.00  0.00    -0.050 A 
ATOM     19  H   LIG d   1       3.211  -1.397  -1.558  0.00  0.00     0.062 H 
ATOM     20  C   LIG d   1       5.805  -0.202  -3.351  0.00  0.00    -0.057 A 
ATOM     21  C   LIG d   1       6.024  -1.288  -4.176  0.00  0.00    -0.034 A 
ATOM     22  H   LIG d   1       6.425   0.679  -3.442  0.00  0.00     0.062 H 
ATOM     23  H   LIG d   1       6.814  -1.258  -4.911  0.00  0.00     0.064 H 
BRANCH  18  24
ATOM     24  C   LIG d   1       4.562   0.941  -1.502  0.00  0.00    -0.040 C 
ATOM     25  H   LIG d   1       4.541   1.853  -2.097  0.00  0.00     0.028 H 
ATOM     26  H   LIG d   1       3.610   0.820  -0.986  0.00  0.00     0.028 H 
ATOM     27  H   LIG d   1       5.367   1.003  -0.769  0.00  0.00     0.028 H 
ENDBRANCH  18  24
ENDBRANCH  11  14
ENDBRANCH  10  11
ENDBRANCH   7  10
ENDBRANCH   4   7
ENDBRANCH   1   4
BRANCH   1  28
ATOM     28  C   LIG d   1       6.386  -1.877  -9.933  0.00  0.00    -0.051 C 
ATOM     29  H   LIG d   1       5.811  -2.206 -10.798  0.00  0.00     0.027 H 
ATOM     30  H   LIG d   1       5.714  -1.699  -9.094  0.00  0.00     0.027 H 
BRANCH  28  31
ATOM     31  C   LIG d   1       7.127  -0.583 -10.275  0.00  0.00    -0.027 C 
ATOM     32  H   LIG d   1       8.200  -0.773 -10.296  0.00  0.00     0.029 H 
ATOM     33  H   LIG d   1       6.803  -0.225 -11.252  0.00  0.00     0.029 H 
BRANCH  31  34
ATOM     34  C   LIG d   1       6.818   0.477  -9.215  0.00  0.00     0.077 C 
ATOM     35  H   LIG d   1       6.307   0.010  -8.373  0.00  0.00     0.058 H 
ATOM     36  H   LIG d   1       7.748   0.929  -8.872  0.00  0.00     0.058 H 
BRANCH  34  37
ATOM     37  O   LIG d   1       5.979   1.486  -9.781  0.00  0.00    -0.234 OA
BRANCH  37  38
ATOM     38  S   LIG d   1       4.626   1.620  -9.098  0.00  0.00     0.112 S 
ATOM     39  O   LIG d   1       4.764   1.049  -7.804  0.00  0.00    -0.142 OA
ATOM     40  O   LIG d   1       4.202   2.963  -9.297  0.00  0.00    -0.142 OA
BRANCH  38  41
ATOM     41  C   LIG d   1       3.493   0.599  -9.982  0.00  0.00     0.117 A 
ATOM     42  C   LIG d   1       3.760   0.245 -11.291  0.00  0.00    -0.034 A 
ATOM     43  C   LIG d   1       2.873  -0.560 -11.983  0.00  0.00    -0.057 A 
ATOM     44  H   LIG d   1       4.660   0.595 -11.773  0.00  0.00     0.064 H 
ATOM     45  C   LIG d   1       1.717  -1.004 -11.367  0.00  0.00    -0.050 A 
ATOM     46  H   LIG d   1       3.082  -0.840 -13.004  0.00  0.00     0.062 H 
ATOM     47  C   LIG d   1       1.449  -0.646 -10.059  0.00  0.00    -0.057 A 
ATOM     48  C   LIG d   1       2.337   0.156  -9.367  0.00  0.00    -0.034 A 
ATOM     49  H   LIG d   1       0.547  -0.992  -9.579  0.00  0.00     0.062 H 
ATOM     50  H   LIG d   1       2.128   0.435  -8.345  0.00  0.00     0.064 H 
BRANCH  45  51
ATOM     51  C   LIG d   1       0.749  -1.878 -12.123  0.00  0.00    -0.040 C 
ATOM     52  H   LIG d   1       0.748  -2.877 -11.690  0.00  0.00     0.028 H 
ATOM     53  H   LIG d   1      -0.252  -1.452 -12.057  0.00  0.00     0.028 H 
ATOM     54  H   LIG d   1       1.052  -1.935 -13.168  0.00  0.00     0.028 H 
ENDBRANCH  45  51
ENDBRANCH  38  41
ENDBRANCH  37  38
ENDBRANCH  34  37
ENDBRANCH  31  34
ENDBRANCH  28  31
ENDBRANCH   1  28
TORSDOF 13
ENDMDL
