MODEL 1
REMARK VINA RESULT:      -6.5      0.000      0.000
REMARK  16 active torsions:
REMARK  status: ('A' for Active; 'I' for Inactive)
REMARK    1  A    between atoms: C_1  and  C_2 
REMARK    2  A    between atoms: C_3  and  O_16 
REMARK    3  A    between atoms: O_16  and  C_17 
REMARK    4  A    between atoms: C_17  and  C_18 
REMARK    5  A    between atoms: C_18  and  O_20 
REMARK    6  A    between atoms: O_20  and  C_21 
REMARK    7  A    between atoms: C_25  and  C_53 
REMARK    8  A    between atoms: C_30  and  C_52 
REMARK    9  A    between atoms: C_41  and  C_43 
REMARK   10  A    between atoms: C_43  and  C_45 
REMARK   11  A    between atoms: C_43  and  C_46 
REMARK   12  A    between atoms: C_46  and  C_47 
REMARK   13  A    between atoms: C_47  and  C_48 
REMARK   14  A    between atoms: C_48  and  C_49 
REMARK   15  A    between atoms: C_49  and  C_50 
REMARK   16  A    between atoms: C_49  and  C_51 
ROOT
ATOM      1  C   LIG d   1      11.015   5.784  -9.740  0.00  0.00     0.107 C 
ATOM      2  H   LIG d   1      10.340   6.559  -9.375  0.00  0.00     0.074 H 
ATOM      3  C   LIG d   1      10.216   4.741 -10.524  0.00  0.00    -0.015 C 
ATOM      4  C   LIG d   1       9.101   4.176  -9.644  0.00  0.00    -0.040 C 
ATOM      5  C   LIG d   1       9.719   3.458  -8.440  0.00  0.00    -0.008 C 
ATOM      6  C   LIG d   1       8.622   2.902  -7.546  0.00  0.00    -0.029 C 
ATOM      7  H   LIG d   1       7.831   3.648  -7.471  0.00  0.00     0.031 H 
ATOM      8  C   LIG d   1       8.036   1.640  -8.173  0.00  0.00    -0.049 C 
ATOM      9  C   LIG d   1       6.974   0.995  -7.268  0.00  0.00    -0.047 C 
ATOM     10  C   LIG d   1       7.640   0.702  -5.937  0.00  0.00    -0.026 C 
ATOM     11  C   LIG d   1       8.023   2.069  -5.308  0.00  0.00    -0.032 C 
ATOM     12  H   LIG d   1       7.165   2.742  -5.309  0.00  0.00     0.031 H 
ATOM     13  C   LIG d   1       9.164   2.628  -6.137  0.00  0.00    -0.031 C 
ATOM     14  H   LIG d   1       9.991   1.919  -6.182  0.00  0.00     0.031 H 
ATOM     15  C   LIG d   1       9.617   3.962  -5.531  0.00  0.00    -0.031 C 
ATOM     16  C   LIG d   1      10.620   4.604  -6.443  0.00  0.00    -0.084 C 
ATOM     17  C   LIG d   1      10.651   4.391  -7.727  0.00  0.00    -0.064 C 
ATOM     18  C   LIG d   1      11.706   5.109  -8.551  0.00  0.00     0.006 C 
ATOM     19  C   LIG d   1       8.379   1.661  -3.874  0.00  0.00    -0.049 C 
ATOM     20  C   LIG d   1       7.272   0.630  -3.521  0.00  0.00    -0.049 C 
ATOM     21  C   LIG d   1       6.762   0.058  -4.867  0.00  0.00    -0.033 C 
ATOM     22  H   LIG d   1       5.718   0.329  -5.022  0.00  0.00     0.031 H 
ATOM     23  H   LIG d   1       9.780   5.208 -11.407  0.00  0.00     0.030 H 
ATOM     24  H   LIG d   1      10.881   3.933 -10.833  0.00  0.00     0.030 H 
ATOM     25  H   LIG d   1       8.466   4.989  -9.295  0.00  0.00     0.028 H 
ATOM     26  H   LIG d   1       8.504   3.470 -10.221  0.00  0.00     0.028 H 
ATOM     27  H   LIG d   1       7.580   1.897  -9.128  0.00  0.00     0.027 H 
ATOM     28  H   LIG d   1       8.839   0.923  -8.344  0.00  0.00     0.027 H 
ATOM     29  H   LIG d   1       6.142   1.685  -7.123  0.00  0.00     0.027 H 
ATOM     30  H   LIG d   1       6.616   0.069  -7.716  0.00  0.00     0.027 H 
ATOM     31  H   LIG d   1       8.756   4.620  -5.416  0.00  0.00     0.031 H 
ATOM     32  H   LIG d   1      10.072   3.782  -4.557  0.00  0.00     0.031 H 
ATOM     33  H   LIG d   1      11.345   5.282  -6.016  0.00  0.00     0.057 H 
ATOM     34  H   LIG d   1      12.440   4.389  -8.914  0.00  0.00     0.035 H 
ATOM     35  H   LIG d   1      12.202   5.862  -7.939  0.00  0.00     0.035 H 
ATOM     36  H   LIG d   1       9.364   1.198  -3.838  0.00  0.00     0.027 H 
ATOM     37  H   LIG d   1       8.331   2.522  -3.206  0.00  0.00     0.027 H 
ATOM     38  H   LIG d   1       7.688  -0.169  -2.908  0.00  0.00     0.027 H 
ATOM     39  H   LIG d   1       6.457   1.123  -2.991  0.00  0.00     0.027 H 
ENDROOT
BRANCH   1  40
ATOM     40  O   LIG d   1      12.000   6.372 -10.593  0.00  0.00    -0.459 OA
BRANCH  40  41
ATOM     41  C   LIG d   1      11.834   7.665 -10.912  0.00  0.00     0.345 C 
ATOM     42  O   LIG d   1      12.731   8.276 -11.441  0.00  0.00    -0.247 OA
BRANCH  41  43
ATOM     43  C   LIG d   1      10.529   8.354 -10.608  0.00  0.00     0.186 C 
ATOM     44  H   LIG d   1       9.797   7.618 -10.274  0.00  0.00     0.082 H 
ATOM     45  H   LIG d   1      10.161   8.848 -11.509  0.00  0.00     0.082 H 
BRANCH  43  46
ATOM     46  O   LIG d   1      10.730   9.326  -9.580  0.00  0.00    -0.480 OA
BRANCH  46  47
ATOM     47  C   LIG d   1      10.651   8.892  -8.297  0.00  0.00     0.128 A 
ATOM     48  C   LIG d   1      11.772   8.945  -7.484  0.00  0.00     0.034 A 
ATOM     49  C   LIG d   1      11.693   8.499  -6.174  0.00  0.00     0.146 A 
ATOM     50  C   LIG d   1      10.470   8.004  -5.684  0.00  0.00     0.021 A 
ATOM     51  O   LIG d   1      12.773   8.537  -5.364  0.00  0.00    -0.422 OA
ATOM     52  C   LIG d   1       9.349   7.958  -6.519  0.00  0.00    -0.047 A 
ATOM     53  C   LIG d   1      10.397   7.541  -4.296  0.00  0.00    -0.027 A 
ATOM     54  C   LIG d   1       9.445   8.397  -7.808  0.00  0.00    -0.019 A 
ATOM     55  H   LIG d   1       8.410   7.576  -6.146  0.00  0.00     0.063 H 
ATOM     56  H   LIG d   1       8.579   8.362  -8.452  0.00  0.00     0.065 H 
ATOM     57  C   LIG d   1      11.518   7.599  -3.536  0.00  0.00     0.041 A 
ATOM     58  C   LIG d   1       9.251   6.960  -3.500  0.00  0.00    -0.026 C 
ATOM     59  C   LIG d   1      12.710   8.114  -4.093  0.00  0.00     0.341 A 
ATOM     60  C   LIG d   1      11.231   7.071  -2.147  0.00  0.00    -0.020 C 
ATOM     61  O   LIG d   1      13.710   8.177  -3.398  0.00  0.00    -0.245 OA
ATOM     62  C   LIG d   1       9.913   6.288  -2.277  0.00  0.00    -0.045 C 
ATOM     63  H   LIG d   1      12.039   6.418  -1.815  0.00  0.00     0.032 H 
ATOM     64  H   LIG d   1      11.099   7.896  -1.448  0.00  0.00     0.032 H 
ATOM     65  H   LIG d   1       9.293   6.401  -1.388  0.00  0.00     0.027 H 
ATOM     66  H   LIG d   1      10.120   5.236  -2.476  0.00  0.00     0.027 H 
ATOM     67  H   LIG d   1       8.575   7.752  -3.176  0.00  0.00     0.031 H 
ATOM     68  H   LIG d   1       8.713   6.221  -4.093  0.00  0.00     0.031 H 
BRANCH  48  69
ATOM     69  C   LIG d   1      13.073   9.481  -8.023  0.00  0.00    -0.033 C 
ATOM     70  H   LIG d   1      13.743   8.651  -8.246  0.00  0.00     0.028 H 
ATOM     71  H   LIG d   1      12.883  10.050  -8.934  0.00  0.00     0.028 H 
ATOM     72  H   LIG d   1      13.534  10.132  -7.280  0.00  0.00     0.028 H 
ENDBRANCH  48  69
ENDBRANCH  46  47
ENDBRANCH  43  46
ENDBRANCH  41  43
ENDBRANCH  40  41
ENDBRANCH   1  40
BRANCH   5  73
ATOM     73  C   LIG d   1      10.535   2.273  -8.961  0.00  0.00    -0.056 C 
ATOM     74  H   LIG d   1      10.832   2.463  -9.993  0.00  0.00     0.024 H 
ATOM     75  H   LIG d   1      11.426   2.147  -8.345  0.00  0.00     0.024 H 
ATOM     76  H   LIG d   1       9.931   1.367  -8.917  0.00  0.00     0.024 H 
ENDBRANCH   5  73
BRANCH  10  77
ATOM     77  C   LIG d   1       8.894  -0.145  -6.159  0.00  0.00    -0.059 C 
ATOM     78  H   LIG d   1       8.639  -1.202  -6.070  0.00  0.00     0.024 H 
ATOM     79  H   LIG d   1       9.292   0.050  -7.155  0.00  0.00     0.024 H 
ATOM     80  H   LIG d   1       9.643   0.112  -5.411  0.00  0.00     0.024 H 
ENDBRANCH  10  77
BRANCH  21  81
ATOM     81  C   LIG d   1       6.926  -1.463  -4.892  0.00  0.00    -0.041 C 
ATOM     82  H   LIG d   1       7.961  -1.713  -5.127  0.00  0.00     0.030 H 
BRANCH  81  83
ATOM     83  C   LIG d   1       6.004  -2.057  -5.959  0.00  0.00    -0.062 C 
ATOM     84  H   LIG d   1       5.129  -2.495  -5.479  0.00  0.00     0.023 H 
ATOM     85  H   LIG d   1       5.688  -1.272  -6.644  0.00  0.00     0.023 H 
ATOM     86  H   LIG d   1       6.540  -2.829  -6.512  0.00  0.00     0.023 H 
ENDBRANCH  81  83
BRANCH  81  87
ATOM     87  C   LIG d   1       6.560  -2.038  -3.523  0.00  0.00    -0.050 C 
ATOM     88  H   LIG d   1       7.043  -3.007  -3.395  0.00  0.00     0.027 H 
ATOM     89  H   LIG d   1       6.896  -1.358  -2.740  0.00  0.00     0.027 H 
BRANCH  87  90
ATOM     90  C   LIG d   1       5.043  -2.210  -3.432  0.00  0.00    -0.053 C 
ATOM     91  H   LIG d   1       4.569  -1.714  -4.278  0.00  0.00     0.026 H 
ATOM     92  H   LIG d   1       4.795  -3.271  -3.448  0.00  0.00     0.026 H 
BRANCH  90  93
ATOM     93  C   LIG d   1       4.536  -1.589  -2.128  0.00  0.00    -0.051 C 
ATOM     94  H   LIG d   1       4.079  -2.362  -1.510  0.00  0.00     0.027 H 
ATOM     95  H   LIG d   1       5.372  -1.142  -1.590  0.00  0.00     0.027 H 
BRANCH  93  96
ATOM     96  C   LIG d   1       3.499  -0.510  -2.446  0.00  0.00    -0.047 C 
ATOM     97  H   LIG d   1       2.589  -0.703  -1.878  0.00  0.00     0.029 H 
BRANCH  96  98
ATOM     98  C   LIG d   1       4.057   0.862  -2.063  0.00  0.00    -0.063 C 
ATOM     99  H   LIG d   1       3.817   1.583  -2.845  0.00  0.00     0.023 H 
ATOM    100  H   LIG d   1       3.612   1.185  -1.123  0.00  0.00     0.023 H 
ATOM    101  H   LIG d   1       5.139   0.796  -1.950  0.00  0.00     0.023 H 
ENDBRANCH  96  98
BRANCH  96 102
ATOM    102  C   LIG d   1       3.181  -0.533  -3.941  0.00  0.00    -0.063 C 
ATOM    103  H   LIG d   1       4.108  -0.626  -4.509  0.00  0.00     0.023 H 
ATOM    104  H   LIG d   1       2.534  -1.381  -4.163  0.00  0.00     0.023 H 
ATOM    105  H   LIG d   1       2.676   0.391  -4.220  0.00  0.00     0.023 H 
ENDBRANCH  96 102
ENDBRANCH  93  96
ENDBRANCH  90  93
ENDBRANCH  87  90
ENDBRANCH  81  87
ENDBRANCH  21  81
TORSDOF 16
ENDMDL
MODEL 2
REMARK VINA RESULT:      -6.5      4.567      9.821
REMARK  16 active torsions:
REMARK  status: ('A' for Active; 'I' for Inactive)
REMARK    1  A    between atoms: C_1  and  C_2 
REMARK    2  A    between atoms: C_3  and  O_16 
REMARK    3  A    between atoms: O_16  and  C_17 
REMARK    4  A    between atoms: C_17  and  C_18 
REMARK    5  A    between atoms: C_18  and  O_20 
REMARK    6  A    between atoms: O_20  and  C_21 
REMARK    7  A    between atoms: C_25  and  C_53 
REMARK    8  A    between atoms: C_30  and  C_52 
REMARK    9  A    between atoms: C_41  and  C_43 
REMARK   10  A    between atoms: C_43  and  C_45 
REMARK   11  A    between atoms: C_43  and  C_46 
REMARK   12  A    between atoms: C_46  and  C_47 
REMARK   13  A    between atoms: C_47  and  C_48 
REMARK   14  A    between atoms: C_48  and  C_49 
REMARK   15  A    between atoms: C_49  and  C_50 
REMARK   16  A    between atoms: C_49  and  C_51 
ROOT
ATOM      1  C   LIG d   1       8.413  -1.829  -7.653  0.00  0.00     0.107 C 
ATOM      2  H   LIG d   1       7.416  -1.472  -7.911  0.00  0.00     0.074 H 
ATOM      3  C   LIG d   1       8.540  -1.929  -6.132  0.00  0.00    -0.015 C 
ATOM      4  C   LIG d   1       8.225  -0.573  -5.499  0.00  0.00    -0.040 C 
ATOM      5  C   LIG d   1       9.253   0.460  -5.970  0.00  0.00    -0.008 C 
ATOM      6  C   LIG d   1       8.945   1.817  -5.359  0.00  0.00    -0.029 C 
ATOM      7  H   LIG d   1       7.866   1.971  -5.393  0.00  0.00     0.031 H 
ATOM      8  C   LIG d   1       9.388   1.839  -3.899  0.00  0.00    -0.049 C 
ATOM      9  C   LIG d   1       9.168   3.219  -3.258  0.00  0.00    -0.047 C 
ATOM     10  C   LIG d   1       9.937   4.226  -4.091  0.00  0.00    -0.026 C 
ATOM     11  C   LIG d   1       9.277   4.253  -5.496  0.00  0.00    -0.032 C 
ATOM     12  H   LIG d   1       8.199   4.385  -5.408  0.00  0.00     0.031 H 
ATOM     13  C   LIG d   1       9.619   2.935  -6.166  0.00  0.00    -0.031 C 
ATOM     14  H   LIG d   1      10.698   2.784  -6.191  0.00  0.00     0.031 H 
ATOM     15  C   LIG d   1       9.030   2.925  -7.582  0.00  0.00    -0.031 C 
ATOM     16  C   LIG d   1       9.210   1.563  -8.183  0.00  0.00    -0.084 C 
ATOM     17  C   LIG d   1       9.292   0.476  -7.469  0.00  0.00    -0.064 C 
ATOM     18  C   LIG d   1       9.461  -0.849  -8.190  0.00  0.00     0.006 C 
ATOM     19  C   LIG d   1       9.918   5.501  -6.115  0.00  0.00    -0.049 C 
ATOM     20  C   LIG d   1       9.903   6.518  -4.942  0.00  0.00    -0.049 C 
ATOM     21  C   LIG d   1       9.857   5.682  -3.639  0.00  0.00    -0.033 C 
ATOM     22  H   LIG d   1       8.923   5.861  -3.107  0.00  0.00     0.031 H 
ATOM     23  H   LIG d   1       7.840  -2.676  -5.758  0.00  0.00     0.030 H 
ATOM     24  H   LIG d   1       9.557  -2.224  -5.873  0.00  0.00     0.030 H 
ATOM     25  H   LIG d   1       7.227  -0.255  -5.798  0.00  0.00     0.028 H 
ATOM     26  H   LIG d   1       8.268  -0.660  -4.413  0.00  0.00     0.028 H 
ATOM     27  H   LIG d   1       8.819   1.095  -3.344  0.00  0.00     0.027 H 
ATOM     28  H   LIG d   1      10.447   1.588  -3.846  0.00  0.00     0.027 H 
ATOM     29  H   LIG d   1       8.106   3.465  -3.264  0.00  0.00     0.027 H 
ATOM     30  H   LIG d   1       9.545   3.218  -2.236  0.00  0.00     0.027 H 
ATOM     31  H   LIG d   1       7.968   3.165  -7.536  0.00  0.00     0.031 H 
ATOM     32  H   LIG d   1       9.545   3.665  -8.195  0.00  0.00     0.031 H 
ATOM     33  H   LIG d   1       9.265   1.477  -9.258  0.00  0.00     0.057 H 
ATOM     34  H   LIG d   1      10.459  -1.243  -8.004  0.00  0.00     0.035 H 
ATOM     35  H   LIG d   1       9.315  -0.707  -9.261  0.00  0.00     0.035 H 
ATOM     36  H   LIG d   1      10.939   5.293  -6.433  0.00  0.00     0.027 H 
ATOM     37  H   LIG d   1       9.320   5.866  -6.951  0.00  0.00     0.027 H 
ATOM     38  H   LIG d   1      10.805   7.128  -4.965  0.00  0.00     0.027 H 
ATOM     39  H   LIG d   1       9.020   7.154  -5.010  0.00  0.00     0.027 H 
ENDROOT
BRANCH   1  40
ATOM     40  O   LIG d   1       8.622  -3.118  -8.235  0.00  0.00    -0.459 OA
BRANCH  40  41
ATOM     41  C   LIG d   1       7.531  -3.789  -8.636  0.00  0.00     0.345 C 
ATOM     42  O   LIG d   1       7.023  -3.536  -9.702  0.00  0.00    -0.247 OA
BRANCH  41  43
ATOM     43  C   LIG d   1       6.940  -4.859  -7.755  0.00  0.00     0.186 C 
ATOM     44  H   LIG d   1       7.481  -4.892  -6.809  0.00  0.00     0.082 H 
ATOM     45  H   LIG d   1       7.022  -5.826  -8.253  0.00  0.00     0.082 H 
BRANCH  43  46
ATOM     46  O   LIG d   1       5.563  -4.567  -7.507  0.00  0.00    -0.480 OA
BRANCH  46  47
ATOM     47  C   LIG d   1       5.291  -3.667  -6.529  0.00  0.00     0.128 A 
ATOM     48  C   LIG d   1       4.569  -2.523  -6.830  0.00  0.00     0.034 A 
ATOM     49  C   LIG d   1       4.293  -1.601  -5.832  0.00  0.00     0.146 A 
ATOM     50  C   LIG d   1       4.744  -1.844  -4.521  0.00  0.00     0.021 A 
ATOM     51  O   LIG d   1       3.594  -0.477  -6.102  0.00  0.00    -0.422 OA
ATOM     52  C   LIG d   1       5.472  -3.004  -4.235  0.00  0.00    -0.047 A 
ATOM     53  C   LIG d   1       4.441  -0.866  -3.473  0.00  0.00    -0.027 A 
ATOM     54  C   LIG d   1       5.739  -3.900  -5.231  0.00  0.00    -0.019 A 
ATOM     55  H   LIG d   1       5.822  -3.192  -3.231  0.00  0.00     0.063 H 
ATOM     56  H   LIG d   1       6.300  -4.795  -5.010  0.00  0.00     0.065 H 
ATOM     57  C   LIG d   1       3.742   0.246  -3.810  0.00  0.00     0.041 A 
ATOM     58  C   LIG d   1       4.790  -0.843  -2.003  0.00  0.00    -0.026 C 
ATOM     59  C   LIG d   1       3.315   0.420  -5.146  0.00  0.00     0.341 A 
ATOM     60  C   LIG d   1       3.543   1.121  -2.592  0.00  0.00    -0.020 C 
ATOM     61  O   LIG d   1       2.674   1.415  -5.437  0.00  0.00    -0.245 OA
ATOM     62  C   LIG d   1       4.571   0.621  -1.562  0.00  0.00    -0.045 C 
ATOM     63  H   LIG d   1       3.724   2.167  -2.843  0.00  0.00     0.032 H 
ATOM     64  H   LIG d   1       2.536   0.996  -2.196  0.00  0.00     0.032 H 
ATOM     65  H   LIG d   1       4.173   0.667  -0.548  0.00  0.00     0.027 H 
ATOM     66  H   LIG d   1       5.494   1.195  -1.644  0.00  0.00     0.027 H 
ATOM     67  H   LIG d   1       4.130  -1.509  -1.446  0.00  0.00     0.031 H 
ATOM     68  H   LIG d   1       5.831  -1.131  -1.855  0.00  0.00     0.031 H 
BRANCH  48  69
ATOM     69  C   LIG d   1       4.089  -2.279  -8.238  0.00  0.00    -0.033 C 
ATOM     70  H   LIG d   1       4.844  -1.715  -8.785  0.00  0.00     0.028 H 
ATOM     71  H   LIG d   1       3.919  -3.234  -8.734  0.00  0.00     0.028 H 
ATOM     72  H   LIG d   1       3.158  -1.713  -8.212  0.00  0.00     0.028 H 
ENDBRANCH  48  69
ENDBRANCH  46  47
ENDBRANCH  43  46
ENDBRANCH  41  43
ENDBRANCH  40  41
ENDBRANCH   1  40
BRANCH   5  73
ATOM     73  C   LIG d   1      10.629   0.026  -5.461  0.00  0.00    -0.056 C 
ATOM     74  H   LIG d   1      11.393   0.324  -6.180  0.00  0.00     0.024 H 
ATOM     75  H   LIG d   1      10.829   0.502  -4.501  0.00  0.00     0.024 H 
ATOM     76  H   LIG d   1      10.647  -1.058  -5.341  0.00  0.00     0.024 H 
ENDBRANCH   5  73
BRANCH  10  77
ATOM     77  C   LIG d   1      11.400   3.797  -4.205  0.00  0.00    -0.059 C 
ATOM     78  H   LIG d   1      11.705   3.818  -5.252  0.00  0.00     0.024 H 
ATOM     79  H   LIG d   1      12.026   4.482  -3.632  0.00  0.00     0.024 H 
ATOM     80  H   LIG d   1      11.515   2.787  -3.814  0.00  0.00     0.024 H 
ENDBRANCH  10  77
BRANCH  21  81
ATOM     81  C   LIG d   1      11.052   6.025  -2.748  0.00  0.00    -0.041 C 
ATOM     82  H   LIG d   1      11.850   5.302  -2.915  0.00  0.00     0.030 H 
BRANCH  81  83
ATOM     83  C   LIG d   1      10.623   5.980  -1.280  0.00  0.00    -0.062 C 
ATOM     84  H   LIG d   1       9.676   6.507  -1.162  0.00  0.00     0.023 H 
ATOM     85  H   LIG d   1      10.501   4.943  -0.969  0.00  0.00     0.023 H 
ATOM     86  H   LIG d   1      11.384   6.458  -0.664  0.00  0.00     0.023 H 
ENDBRANCH  81  83
BRANCH  81  87
ATOM     87  C   LIG d   1      11.556   7.429  -3.088  0.00  0.00    -0.050 C 
ATOM     88  H   LIG d   1      12.595   7.373  -3.415  0.00  0.00     0.027 H 
ATOM     89  H   LIG d   1      10.946   7.851  -3.887  0.00  0.00     0.027 H 
BRANCH  87  90
ATOM     90  C   LIG d   1      11.459   8.320  -1.848  0.00  0.00    -0.053 C 
ATOM     91  H   LIG d   1      10.996   7.762  -1.035  0.00  0.00     0.026 H 
ATOM     92  H   LIG d   1      12.458   8.637  -1.549  0.00  0.00     0.026 H 
BRANCH  90  93
ATOM     93  C   LIG d   1      10.609   9.552  -2.171  0.00  0.00    -0.051 C 
ATOM     94  H   LIG d   1      11.261  10.378  -2.458  0.00  0.00     0.027 H 
ATOM     95  H   LIG d   1       9.932   9.321  -2.993  0.00  0.00     0.027 H 
BRANCH  93  96
ATOM     96  C   LIG d   1       9.797   9.949  -0.936  0.00  0.00    -0.047 C 
ATOM     97  H   LIG d   1       9.465  10.982  -1.037  0.00  0.00     0.029 H 
BRANCH  96  98
ATOM     98  C   LIG d   1       8.579   9.032  -0.812  0.00  0.00    -0.063 C 
ATOM     99  H   LIG d   1       8.903   8.038  -0.501  0.00  0.00     0.023 H 
ATOM    100  H   LIG d   1       7.893   9.438  -0.069  0.00  0.00     0.023 H 
ATOM    101  H   LIG d   1       8.074   8.964  -1.775  0.00  0.00     0.023 H 
ENDBRANCH  96  98
BRANCH  96 102
ATOM    102  C   LIG d   1      10.668   9.813   0.313  0.00  0.00    -0.063 C 
ATOM    103  H   LIG d   1      11.716   9.744   0.020  0.00  0.00     0.023 H 
ATOM    104  H   LIG d   1      10.527  10.684   0.952  0.00  0.00     0.023 H 
ATOM    105  H   LIG d   1      10.385   8.912   0.858  0.00  0.00     0.023 H 
ENDBRANCH  96 102
ENDBRANCH  93  96
ENDBRANCH  90  93
ENDBRANCH  87  90
ENDBRANCH  81  87
ENDBRANCH  21  81
TORSDOF 16
ENDMDL
MODEL 3
REMARK VINA RESULT:      -6.4      4.471      8.979
REMARK  16 active torsions:
REMARK  status: ('A' for Active; 'I' for Inactive)
REMARK    1  A    between atoms: C_1  and  C_2 
REMARK    2  A    between atoms: C_3  and  O_16 
REMARK    3  A    between atoms: O_16  and  C_17 
REMARK    4  A    between atoms: C_17  and  C_18 
REMARK    5  A    between atoms: C_18  and  O_20 
REMARK    6  A    between atoms: O_20  and  C_21 
REMARK    7  A    between atoms: C_25  and  C_53 
REMARK    8  A    between atoms: C_30  and  C_52 
REMARK    9  A    between atoms: C_41  and  C_43 
REMARK   10  A    between atoms: C_43  and  C_45 
REMARK   11  A    between atoms: C_43  and  C_46 
REMARK   12  A    between atoms: C_46  and  C_47 
REMARK   13  A    between atoms: C_47  and  C_48 
REMARK   14  A    between atoms: C_48  and  C_49 
REMARK   15  A    between atoms: C_49  and  C_50 
REMARK   16  A    between atoms: C_49  and  C_51 
ROOT
ATOM      1  C   LIG d   1       6.835   0.045  -9.733  0.00  0.00     0.107 C 
ATOM      2  H   LIG d   1       6.964  -0.935  -9.272  0.00  0.00     0.074 H 
ATOM      3  C   LIG d   1       8.181   0.536 -10.269  0.00  0.00    -0.015 C 
ATOM      4  C   LIG d   1       9.211   0.554  -9.139  0.00  0.00    -0.040 C 
ATOM      5  C   LIG d   1       8.766   1.548  -8.061  0.00  0.00    -0.008 C 
ATOM      6  C   LIG d   1       9.772   1.567  -6.923  0.00  0.00    -0.029 C 
ATOM      7  H   LIG d   1      10.077   0.540  -6.717  0.00  0.00     0.031 H 
ATOM      8  C   LIG d   1      11.008   2.360  -7.339  0.00  0.00    -0.049 C 
ATOM      9  C   LIG d   1      12.025   2.475  -6.193  0.00  0.00    -0.047 C 
ATOM     10  C   LIG d   1      11.309   3.126  -5.024  0.00  0.00    -0.026 C 
ATOM     11  C   LIG d   1      10.197   2.144  -4.567  0.00  0.00    -0.032 C 
ATOM     12  H   LIG d   1      10.609   1.145  -4.417  0.00  0.00     0.031 H 
ATOM     13  C   LIG d   1       9.136   2.146  -5.653  0.00  0.00    -0.031 C 
ATOM     14  H   LIG d   1       8.778   3.159  -5.838  0.00  0.00     0.031 H 
ATOM     15  C   LIG d   1       7.986   1.225  -5.230  0.00  0.00    -0.031 C 
ATOM     16  C   LIG d   1       7.021   1.084  -6.371  0.00  0.00    -0.084 C 
ATOM     17  C   LIG d   1       7.373   1.212  -7.618  0.00  0.00    -0.064 C 
ATOM     18  C   LIG d   1       6.310   1.034  -8.689  0.00  0.00     0.006 C 
ATOM     19  C   LIG d   1       9.778   2.754  -3.224  0.00  0.00    -0.049 C 
ATOM     20  C   LIG d   1      11.135   3.154  -2.586  0.00  0.00    -0.049 C 
ATOM     21  C   LIG d   1      12.133   3.337  -3.757  0.00  0.00    -0.033 C 
ATOM     22  H   LIG d   1      12.928   2.594  -3.696  0.00  0.00     0.031 H 
ATOM     23  H   LIG d   1       8.522  -0.133 -11.060  0.00  0.00     0.030 H 
ATOM     24  H   LIG d   1       8.065   1.543 -10.671  0.00  0.00     0.030 H 
ATOM     25  H   LIG d   1       9.291  -0.442  -8.704  0.00  0.00     0.028 H 
ATOM     26  H   LIG d   1      10.180   0.856  -9.535  0.00  0.00     0.028 H 
ATOM     27  H   LIG d   1      11.481   1.863  -8.186  0.00  0.00     0.027 H 
ATOM     28  H   LIG d   1      10.700   3.361  -7.642  0.00  0.00     0.027 H 
ATOM     29  H   LIG d   1      12.375   1.482  -5.908  0.00  0.00     0.027 H 
ATOM     30  H   LIG d   1      12.867   3.093  -6.503  0.00  0.00     0.027 H 
ATOM     31  H   LIG d   1       8.382   0.245  -4.966  0.00  0.00     0.031 H 
ATOM     32  H   LIG d   1       7.473   1.655  -4.370  0.00  0.00     0.031 H 
ATOM     33  H   LIG d   1       5.989   0.858  -6.148  0.00  0.00     0.057 H 
ATOM     34  H   LIG d   1       6.105   1.994  -9.163  0.00  0.00     0.035 H 
ATOM     35  H   LIG d   1       5.397   0.644  -8.239  0.00  0.00     0.035 H 
ATOM     36  H   LIG d   1       9.149   3.630  -3.379  0.00  0.00     0.027 H 
ATOM     37  H   LIG d   1       9.265   2.013  -2.609  0.00  0.00     0.027 H 
ATOM     38  H   LIG d   1      11.029   4.089  -2.036  0.00  0.00     0.027 H 
ATOM     39  H   LIG d   1      11.482   2.365  -1.918  0.00  0.00     0.027 H 
ENDROOT
BRANCH   1  40
ATOM     40  O   LIG d   1       5.900  -0.054 -10.809  0.00  0.00    -0.459 OA
BRANCH  40  41
ATOM     41  C   LIG d   1       5.150  -1.166 -10.865  0.00  0.00     0.345 C 
ATOM     42  O   LIG d   1       5.653  -2.218 -11.177  0.00  0.00    -0.247 OA
BRANCH  41  43
ATOM     43  C   LIG d   1       3.681  -1.100 -10.537  0.00  0.00     0.186 C 
ATOM     44  H   LIG d   1       3.100  -1.416 -11.403  0.00  0.00     0.082 H 
ATOM     45  H   LIG d   1       3.413  -0.076 -10.275  0.00  0.00     0.082 H 
BRANCH  43  46
ATOM     46  O   LIG d   1       3.399  -1.963  -9.433  0.00  0.00    -0.480 OA
BRANCH  46  47
ATOM     47  C   LIG d   1       3.556  -1.446  -8.189  0.00  0.00     0.128 A 
ATOM     48  C   LIG d   1       4.474  -2.014  -7.320  0.00  0.00     0.034 A 
ATOM     49  C   LIG d   1       4.632  -1.487  -6.047  0.00  0.00     0.146 A 
ATOM     50  C   LIG d   1       3.863  -0.375  -5.657  0.00  0.00     0.021 A 
ATOM     51  O   LIG d   1       5.517  -2.026  -5.181  0.00  0.00    -0.422 OA
ATOM     52  C   LIG d   1       2.941   0.185  -6.548  0.00  0.00    -0.047 A 
ATOM     53  C   LIG d   1       4.042   0.177  -4.312  0.00  0.00    -0.027 A 
ATOM     54  C   LIG d   1       2.794  -0.348  -7.796  0.00  0.00    -0.019 A 
ATOM     55  H   LIG d   1       2.346   1.037  -6.250  0.00  0.00     0.063 H 
ATOM     56  H   LIG d   1       2.083   0.085  -8.484  0.00  0.00     0.065 H 
ATOM     57  C   LIG d   1       4.942  -0.414  -3.487  0.00  0.00     0.041 A 
ATOM     58  C   LIG d   1       3.370   1.336  -3.614  0.00  0.00    -0.026 C 
ATOM     59  C   LIG d   1       5.686  -1.524  -3.949  0.00  0.00     0.341 A 
ATOM     60  C   LIG d   1       4.970   0.301  -2.153  0.00  0.00    -0.020 C 
ATOM     61  O   LIG d   1       6.503  -2.039  -3.206  0.00  0.00    -0.245 OA
ATOM     62  C   LIG d   1       3.675   1.131  -2.114  0.00  0.00    -0.045 C 
ATOM     63  H   LIG d   1       4.992  -0.421  -1.337  0.00  0.00     0.032 H 
ATOM     64  H   LIG d   1       5.832   0.964  -2.096  0.00  0.00     0.032 H 
ATOM     65  H   LIG d   1       3.831   2.087  -1.614  0.00  0.00     0.027 H 
ATOM     66  H   LIG d   1       2.881   0.564  -1.628  0.00  0.00     0.027 H 
ATOM     67  H   LIG d   1       3.790   2.281  -3.959  0.00  0.00     0.031 H 
ATOM     68  H   LIG d   1       2.294   1.312  -3.788  0.00  0.00     0.031 H 
BRANCH  48  69
ATOM     69  C   LIG d   1       5.293  -3.201  -7.754  0.00  0.00    -0.033 C 
ATOM     70  H   LIG d   1       4.911  -3.579  -8.702  0.00  0.00     0.028 H 
ATOM     71  H   LIG d   1       6.334  -2.899  -7.876  0.00  0.00     0.028 H 
ATOM     72  H   LIG d   1       5.230  -3.983  -6.997  0.00  0.00     0.028 H 
ENDBRANCH  48  69
ENDBRANCH  46  47
ENDBRANCH  43  46
ENDBRANCH  41  43
ENDBRANCH  40  41
ENDBRANCH   1  40
BRANCH   5  73
ATOM     73  C   LIG d   1       8.745   2.945  -8.684  0.00  0.00    -0.056 C 
ATOM     74  H   LIG d   1       8.295   2.894  -9.676  0.00  0.00     0.024 H 
ATOM     75  H   LIG d   1       8.158   3.614  -8.054  0.00  0.00     0.024 H 
ATOM     76  H   LIG d   1       9.764   3.323  -8.766  0.00  0.00     0.024 H 
ENDBRANCH   5  73
BRANCH  10  77
ATOM     77  C   LIG d   1      10.690   4.452  -5.468  0.00  0.00    -0.059 C 
ATOM     78  H   LIG d   1      11.285   4.878  -6.277  0.00  0.00     0.024 H 
ATOM     79  H   LIG d   1       9.672   4.279  -5.818  0.00  0.00     0.024 H 
ATOM     80  H   LIG d   1      10.672   5.144  -4.627  0.00  0.00     0.024 H 
ENDBRANCH  10  77
BRANCH  21  81
ATOM     81  C   LIG d   1      12.721   4.749  -3.737  0.00  0.00    -0.041 C 
ATOM     82  H   LIG d   1      12.078   5.419  -4.308  0.00  0.00     0.030 H 
BRANCH  81  83
ATOM     83  C   LIG d   1      14.118   4.728  -4.360  0.00  0.00    -0.062 C 
ATOM     84  H   LIG d   1      14.350   5.714  -4.763  0.00  0.00     0.023 H 
ATOM     85  H   LIG d   1      14.852   4.465  -3.599  0.00  0.00     0.023 H 
ATOM     86  H   LIG d   1      14.146   3.992  -5.163  0.00  0.00     0.023 H 
ENDBRANCH  81  83
BRANCH  81  87
ATOM     87  C   LIG d   1      12.815   5.242  -2.291  0.00  0.00    -0.050 C 
ATOM     88  H   LIG d   1      12.094   4.702  -1.676  0.00  0.00     0.027 H 
ATOM     89  H   LIG d   1      13.821   5.064  -1.911  0.00  0.00     0.027 H 
BRANCH  87  90
ATOM     90  C   LIG d   1      12.508   6.739  -2.242  0.00  0.00    -0.053 C 
ATOM     91  H   LIG d   1      13.396   7.282  -1.921  0.00  0.00     0.026 H 
ATOM     92  H   LIG d   1      12.210   7.082  -3.233  0.00  0.00     0.026 H 
BRANCH  90  93
ATOM     93  C   LIG d   1      11.369   6.994  -1.252  0.00  0.00    -0.051 C 
ATOM     94  H   LIG d   1      11.074   6.053  -0.787  0.00  0.00     0.027 H 
ATOM     95  H   LIG d   1      11.705   7.689  -0.483  0.00  0.00     0.027 H 
BRANCH  93  96
ATOM     96  C   LIG d   1      10.172   7.593  -1.994  0.00  0.00    -0.047 C 
ATOM     97  H   LIG d   1      10.527   8.310  -2.735  0.00  0.00     0.029 H 
BRANCH  96  98
ATOM     98  C   LIG d   1       9.397   6.477  -2.696  0.00  0.00    -0.063 C 
ATOM     99  H   LIG d   1       8.485   6.887  -3.131  0.00  0.00     0.023 H 
ATOM    100  H   LIG d   1      10.013   6.047  -3.485  0.00  0.00     0.023 H 
ATOM    101  H   LIG d   1       9.138   5.703  -1.974  0.00  0.00     0.023 H 
ENDBRANCH  96  98
BRANCH  96 102
ATOM    102  C   LIG d   1       9.257   8.303  -0.996  0.00  0.00    -0.063 C 
ATOM    103  H   LIG d   1       8.966   7.605  -0.210  0.00  0.00     0.023 H 
ATOM    104  H   LIG d   1       9.784   9.148  -0.554  0.00  0.00     0.023 H 
ATOM    105  H   LIG d   1       8.365   8.660  -1.511  0.00  0.00     0.023 H 
ENDBRANCH  96 102
ENDBRANCH  93  96
ENDBRANCH  90  93
ENDBRANCH  87  90
ENDBRANCH  81  87
ENDBRANCH  21  81
TORSDOF 16
ENDMDL
MODEL 4
REMARK VINA RESULT:      -6.3      1.585      2.590
REMARK  16 active torsions:
REMARK  status: ('A' for Active; 'I' for Inactive)
REMARK    1  A    between atoms: C_1  and  C_2 
REMARK    2  A    between atoms: C_3  and  O_16 
REMARK    3  A    between atoms: O_16  and  C_17 
REMARK    4  A    between atoms: C_17  and  C_18 
REMARK    5  A    between atoms: C_18  and  O_20 
REMARK    6  A    between atoms: O_20  and  C_21 
REMARK    7  A    between atoms: C_25  and  C_53 
REMARK    8  A    between atoms: C_30  and  C_52 
REMARK    9  A    between atoms: C_41  and  C_43 
REMARK   10  A    between atoms: C_43  and  C_45 
REMARK   11  A    between atoms: C_43  and  C_46 
REMARK   12  A    between atoms: C_46  and  C_47 
REMARK   13  A    between atoms: C_47  and  C_48 
REMARK   14  A    between atoms: C_48  and  C_49 
REMARK   15  A    between atoms: C_49  and  C_50 
REMARK   16  A    between atoms: C_49  and  C_51 
ROOT
ATOM      1  C   LIG d   1      10.717   4.575  -9.678  0.00  0.00     0.107 C 
ATOM      2  H   LIG d   1      10.632   3.985 -10.590  0.00  0.00     0.074 H 
ATOM      3  C   LIG d   1      11.588   3.828  -8.666  0.00  0.00    -0.015 C 
ATOM      4  C   LIG d   1      11.002   2.439  -8.409  0.00  0.00    -0.040 C 
ATOM      5  C   LIG d   1       9.610   2.581  -7.786  0.00  0.00    -0.008 C 
ATOM      6  C   LIG d   1       9.009   1.208  -7.536  0.00  0.00    -0.029 C 
ATOM      7  H   LIG d   1       9.230   0.576  -8.397  0.00  0.00     0.031 H 
ATOM      8  C   LIG d   1       9.648   0.581  -6.301  0.00  0.00    -0.049 C 
ATOM      9  C   LIG d   1       9.017  -0.779  -5.961  0.00  0.00    -0.047 C 
ATOM     10  C   LIG d   1       7.531  -0.545  -5.765  0.00  0.00    -0.026 C 
ATOM     11  C   LIG d   1       6.956  -0.092  -7.134  0.00  0.00    -0.032 C 
ATOM     12  H   LIG d   1       7.262  -0.780  -7.922  0.00  0.00     0.031 H 
ATOM     13  C   LIG d   1       7.485   1.308  -7.389  0.00  0.00    -0.031 C 
ATOM     14  H   LIG d   1       7.228   1.973  -6.564  0.00  0.00     0.031 H 
ATOM     15  C   LIG d   1       6.909   1.827  -8.712  0.00  0.00    -0.031 C 
ATOM     16  C   LIG d   1       7.562   3.133  -9.057  0.00  0.00    -0.084 C 
ATOM     17  C   LIG d   1       8.760   3.454  -8.660  0.00  0.00    -0.064 C 
ATOM     18  C   LIG d   1       9.323   4.800  -9.084  0.00  0.00     0.006 C 
ATOM     19  C   LIG d   1       5.447  -0.200  -6.887  0.00  0.00    -0.049 C 
ATOM     20  C   LIG d   1       5.318  -1.530  -6.097  0.00  0.00    -0.049 C 
ATOM     21  C   LIG d   1       6.691  -1.772  -5.421  0.00  0.00    -0.033 C 
ATOM     22  H   LIG d   1       7.157  -2.672  -5.822  0.00  0.00     0.031 H 
ATOM     23  H   LIG d   1      12.598   3.728  -9.062  0.00  0.00     0.030 H 
ATOM     24  H   LIG d   1      11.619   4.389  -7.731  0.00  0.00     0.030 H 
ATOM     25  H   LIG d   1      10.925   1.896  -9.350  0.00  0.00     0.028 H 
ATOM     26  H   LIG d   1      11.652   1.891  -7.726  0.00  0.00     0.028 H 
ATOM     27  H   LIG d   1      10.713   0.443  -6.483  0.00  0.00     0.027 H 
ATOM     28  H   LIG d   1       9.517   1.254  -5.454  0.00  0.00     0.027 H 
ATOM     29  H   LIG d   1       9.178  -1.478  -6.783  0.00  0.00     0.027 H 
ATOM     30  H   LIG d   1       9.455  -1.173  -5.045  0.00  0.00     0.027 H 
ATOM     31  H   LIG d   1       7.103   1.103  -9.502  0.00  0.00     0.031 H 
ATOM     32  H   LIG d   1       5.834   1.974  -8.608  0.00  0.00     0.031 H 
ATOM     33  H   LIG d   1       7.018   3.834  -9.672  0.00  0.00     0.057 H 
ATOM     34  H   LIG d   1       9.395   5.456  -8.217  0.00  0.00     0.035 H 
ATOM     35  H   LIG d   1       8.673   5.251  -9.833  0.00  0.00     0.035 H 
ATOM     36  H   LIG d   1       5.093   0.640  -6.290  0.00  0.00     0.027 H 
ATOM     37  H   LIG d   1       4.906  -0.258  -7.833  0.00  0.00     0.027 H 
ATOM     38  H   LIG d   1       4.539  -1.442  -5.341  0.00  0.00     0.027 H 
ATOM     39  H   LIG d   1       5.087  -2.349  -6.779  0.00  0.00     0.027 H 
ENDROOT
BRANCH   1  40
ATOM     40  O   LIG d   1      11.315   5.838  -9.981  0.00  0.00    -0.459 OA
BRANCH  40  41
ATOM     41  C   LIG d   1      10.520   6.918  -9.922  0.00  0.00     0.345 C 
ATOM     42  O   LIG d   1       9.573   7.013 -10.664  0.00  0.00    -0.247 OA
BRANCH  41  43
ATOM     43  C   LIG d   1      10.812   8.013  -8.928  0.00  0.00     0.186 C 
ATOM     44  H   LIG d   1      11.118   8.914  -9.458  0.00  0.00     0.082 H 
ATOM     45  H   LIG d   1      11.614   7.694  -8.261  0.00  0.00     0.082 H 
BRANCH  43  46
ATOM     46  O   LIG d   1       9.637   8.286  -8.162  0.00  0.00    -0.480 OA
BRANCH  46  47
ATOM     47  C   LIG d   1       9.722   8.114  -6.819  0.00  0.00     0.128 A 
ATOM     48  C   LIG d   1       9.820   9.220  -5.989  0.00  0.00     0.034 A 
ATOM     49  C   LIG d   1       9.911   9.043  -4.617  0.00  0.00     0.146 A 
ATOM     50  C   LIG d   1       9.894   7.742  -4.083  0.00  0.00     0.021 A 
ATOM     51  O   LIG d   1      10.011  10.106  -3.788  0.00  0.00    -0.422 OA
ATOM     52  C   LIG d   1       9.795   6.637  -4.936  0.00  0.00    -0.047 A 
ATOM     53  C   LIG d   1       9.985   7.568  -2.631  0.00  0.00    -0.027 A 
ATOM     54  C   LIG d   1       9.711   6.827  -6.285  0.00  0.00    -0.019 A 
ATOM     55  H   LIG d   1       9.786   5.636  -4.528  0.00  0.00     0.063 H 
ATOM     56  H   LIG d   1       9.634   5.975  -6.943  0.00  0.00     0.065 H 
ATOM     57  C   LIG d   1      10.090   8.674  -1.854  0.00  0.00     0.041 A 
ATOM     58  C   LIG d   1      10.001   6.321  -1.777  0.00  0.00    -0.026 C 
ATOM     59  C   LIG d   1      10.093   9.951  -2.459  0.00  0.00     0.341 A 
ATOM     60  C   LIG d   1      10.176   8.277  -0.396  0.00  0.00    -0.020 C 
ATOM     61  O   LIG d   1      10.173  10.941  -1.752  0.00  0.00    -0.245 OA
ATOM     62  C   LIG d   1      10.541   6.782  -0.406  0.00  0.00    -0.045 C 
ATOM     63  H   LIG d   1      10.946   8.860   0.111  0.00  0.00     0.032 H 
ATOM     64  H   LIG d   1       9.213   8.416   0.092  0.00  0.00     0.032 H 
ATOM     65  H   LIG d   1      10.049   6.248   0.407  0.00  0.00     0.027 H 
ATOM     66  H   LIG d   1      11.623   6.660  -0.352  0.00  0.00     0.027 H 
ATOM     67  H   LIG d   1       8.991   5.922  -1.671  0.00  0.00     0.031 H 
ATOM     68  H   LIG d   1      10.662   5.572  -2.212  0.00  0.00     0.031 H 
BRANCH  48  69
ATOM     69  C   LIG d   1       9.832  10.607  -6.575  0.00  0.00    -0.033 C 
ATOM     70  H   LIG d   1      10.439  10.613  -7.481  0.00  0.00     0.028 H 
ATOM     71  H   LIG d   1       8.813  10.908  -6.819  0.00  0.00     0.028 H 
ATOM     72  H   LIG d   1      10.252  11.305  -5.851  0.00  0.00     0.028 H 
ENDBRANCH  48  69
ENDBRANCH  46  47
ENDBRANCH  43  46
ENDBRANCH  41  43
ENDBRANCH  40  41
ENDBRANCH   1  40
BRANCH   5  73
ATOM     73  C   LIG d   1       9.766   3.272  -6.429  0.00  0.00    -0.056 C 
ATOM     74  H   LIG d   1      10.823   3.452  -6.232  0.00  0.00     0.024 H 
ATOM     75  H   LIG d   1       9.232   4.223  -6.442  0.00  0.00     0.024 H 
ATOM     76  H   LIG d   1       9.353   2.634  -5.647  0.00  0.00     0.024 H 
ENDBRANCH   5  73
BRANCH  10  77
ATOM     77  C   LIG d   1       7.311   0.545  -4.715  0.00  0.00    -0.059 C 
ATOM     78  H   LIG d   1       8.175   1.211  -4.696  0.00  0.00     0.024 H 
ATOM     79  H   LIG d   1       6.418   1.117  -4.966  0.00  0.00     0.024 H 
ATOM     80  H   LIG d   1       7.185   0.086  -3.735  0.00  0.00     0.024 H 
ENDBRANCH  10  77
BRANCH  21  81
ATOM     81  C   LIG d   1       6.521  -1.890  -3.906  0.00  0.00    -0.041 C 
ATOM     82  H   LIG d   1       6.629  -0.906  -3.450  0.00  0.00     0.030 H 
BRANCH  81  83
ATOM     83  C   LIG d   1       7.590  -2.831  -3.345  0.00  0.00    -0.062 C 
ATOM     84  H   LIG d   1       7.193  -3.355  -2.475  0.00  0.00     0.023 H 
ATOM     85  H   LIG d   1       7.872  -3.557  -4.108  0.00  0.00     0.023 H 
ATOM     86  H   LIG d   1       8.466  -2.252  -3.052  0.00  0.00     0.023 H 
ENDBRANCH  81  83
BRANCH  81  87
ATOM     87  C   LIG d   1       5.133  -2.450  -3.590  0.00  0.00    -0.050 C 
ATOM     88  H   LIG d   1       4.466  -2.265  -4.433  0.00  0.00     0.027 H 
ATOM     89  H   LIG d   1       5.205  -3.524  -3.413  0.00  0.00     0.027 H 
BRANCH  87  90
ATOM     90  C   LIG d   1       4.579  -1.763  -2.341  0.00  0.00    -0.053 C 
ATOM     91  H   LIG d   1       4.493  -2.491  -1.534  0.00  0.00     0.026 H 
ATOM     92  H   LIG d   1       5.252  -0.962  -2.037  0.00  0.00     0.026 H 
BRANCH  90  93
ATOM     93  C   LIG d   1       3.198  -1.179  -2.650  0.00  0.00    -0.051 C 
ATOM     94  H   LIG d   1       2.898  -1.469  -3.657  0.00  0.00     0.027 H 
ATOM     95  H   LIG d   1       2.473  -1.561  -1.932  0.00  0.00     0.027 H 
BRANCH  93  96
ATOM     96  C   LIG d   1       3.257   0.347  -2.554  0.00  0.00    -0.047 C 
ATOM     97  H   LIG d   1       2.388   0.710  -2.006  0.00  0.00     0.029 H 
BRANCH  96  98
ATOM     98  C   LIG d   1       4.533   0.762  -1.820  0.00  0.00    -0.063 C 
ATOM     99  H   LIG d   1       4.855   1.741  -2.177  0.00  0.00     0.023 H 
ATOM    100  H   LIG d   1       4.335   0.814  -0.749  0.00  0.00     0.023 H 
ATOM    101  H   LIG d   1       5.318   0.030  -2.010  0.00  0.00     0.023 H 
ENDBRANCH  96  98
BRANCH  96 102
ATOM    102  C   LIG d   1       3.259   0.947  -3.961  0.00  0.00    -0.063 C 
ATOM    103  H   LIG d   1       2.337   1.507  -4.118  0.00  0.00     0.023 H 
ATOM    104  H   LIG d   1       4.113   1.615  -4.071  0.00  0.00     0.023 H 
ATOM    105  H   LIG d   1       3.327   0.146  -4.697  0.00  0.00     0.023 H 
ENDBRANCH  96 102
ENDBRANCH  93  96
ENDBRANCH  90  93
ENDBRANCH  87  90
ENDBRANCH  81  87
ENDBRANCH  21  81
TORSDOF 16
ENDMDL
MODEL 5
REMARK VINA RESULT:      -6.3      4.492      9.030
REMARK  16 active torsions:
REMARK  status: ('A' for Active; 'I' for Inactive)
REMARK    1  A    between atoms: C_1  and  C_2 
REMARK    2  A    between atoms: C_3  and  O_16 
REMARK    3  A    between atoms: O_16  and  C_17 
REMARK    4  A    between atoms: C_17  and  C_18 
REMARK    5  A    between atoms: C_18  and  O_20 
REMARK    6  A    between atoms: O_20  and  C_21 
REMARK    7  A    between atoms: C_25  and  C_53 
REMARK    8  A    between atoms: C_30  and  C_52 
REMARK    9  A    between atoms: C_41  and  C_43 
REMARK   10  A    between atoms: C_43  and  C_45 
REMARK   11  A    between atoms: C_43  and  C_46 
REMARK   12  A    between atoms: C_46  and  C_47 
REMARK   13  A    between atoms: C_47  and  C_48 
REMARK   14  A    between atoms: C_48  and  C_49 
REMARK   15  A    between atoms: C_49  and  C_50 
REMARK   16  A    between atoms: C_49  and  C_51 
ROOT
ATOM      1  C   LIG d   1       7.238  -0.207 -10.379  0.00  0.00     0.107 C 
ATOM      2  H   LIG d   1       7.393  -1.193  -9.940  0.00  0.00     0.074 H 
ATOM      3  C   LIG d   1       8.590   0.406 -10.745  0.00  0.00    -0.015 C 
ATOM      4  C   LIG d   1       9.487   0.454  -9.507  0.00  0.00    -0.040 C 
ATOM      5  C   LIG d   1       8.850   1.365  -8.452  0.00  0.00    -0.008 C 
ATOM      6  C   LIG d   1       9.723   1.411  -7.210  0.00  0.00    -0.029 C 
ATOM      7  H   LIG d   1      10.084   0.402  -7.006  0.00  0.00     0.031 H 
ATOM      8  C   LIG d   1      10.929   2.313  -7.459  0.00  0.00    -0.049 C 
ATOM      9  C   LIG d   1      11.803   2.455  -6.203  0.00  0.00    -0.047 C 
ATOM     10  C   LIG d   1      10.916   2.999  -5.100  0.00  0.00    -0.026 C 
ATOM     11  C   LIG d   1       9.843   1.917  -4.803  0.00  0.00    -0.032 C 
ATOM     12  H   LIG d   1      10.314   0.948  -4.642  0.00  0.00     0.031 H 
ATOM     13  C   LIG d   1       8.909   1.886  -5.999  0.00  0.00    -0.031 C 
ATOM     14  H   LIG d   1       8.493   2.876  -6.188  0.00  0.00     0.031 H 
ATOM     15  C   LIG d   1       7.797   0.864  -5.739  0.00  0.00    -0.031 C 
ATOM     16  C   LIG d   1       6.975   0.699  -6.983  0.00  0.00    -0.084 C 
ATOM     17  C   LIG d   1       7.449   0.906  -8.179  0.00  0.00    -0.064 C 
ATOM     18  C   LIG d   1       6.525   0.695  -9.366  0.00  0.00     0.006 C 
ATOM     19  C   LIG d   1       9.234   2.436  -3.495  0.00  0.00    -0.049 C 
ATOM     20  C   LIG d   1      10.478   2.911  -2.696  0.00  0.00    -0.049 C 
ATOM     21  C   LIG d   1      11.578   3.218  -3.742  0.00  0.00    -0.033 C 
ATOM     22  H   LIG d   1      12.419   2.535  -3.619  0.00  0.00     0.031 H 
ATOM     23  H   LIG d   1       9.067  -0.200 -11.515  0.00  0.00     0.030 H 
ATOM     24  H   LIG d   1       8.439   1.418 -11.123  0.00  0.00     0.030 H 
ATOM     25  H   LIG d   1       9.599  -0.550  -9.100  0.00  0.00     0.028 H 
ATOM     26  H   LIG d   1      10.467   0.845  -9.782  0.00  0.00     0.028 H 
ATOM     27  H   LIG d   1      11.529   1.889  -8.263  0.00  0.00     0.027 H 
ATOM     28  H   LIG d   1      10.577   3.300  -7.759  0.00  0.00     0.027 H 
ATOM     29  H   LIG d   1      12.199   1.480  -5.914  0.00  0.00     0.027 H 
ATOM     30  H   LIG d   1      12.622   3.147  -6.396  0.00  0.00     0.027 H 
ATOM     31  H   LIG d   1       8.239  -0.094  -5.466  0.00  0.00     0.031 H 
ATOM     32  H   LIG d   1       7.161   1.217  -4.927  0.00  0.00     0.031 H 
ATOM     33  H   LIG d   1       5.947   0.386  -6.884  0.00  0.00     0.057 H 
ATOM     34  H   LIG d   1       6.297   1.655  -9.828  0.00  0.00     0.035 H 
ATOM     35  H   LIG d   1       5.603   0.217  -9.035  0.00  0.00     0.035 H 
ATOM     36  H   LIG d   1       8.558   3.269  -3.688  0.00  0.00     0.027 H 
ATOM     37  H   LIG d   1       8.718   1.634  -2.966  0.00  0.00     0.027 H 
ATOM     38  H   LIG d   1      10.238   3.810  -2.130  0.00  0.00     0.027 H 
ATOM     39  H   LIG d   1      10.812   2.122  -2.021  0.00  0.00     0.027 H 
ENDROOT
BRANCH   1  40
ATOM     40  O   LIG d   1       6.435  -0.330 -11.555  0.00  0.00    -0.459 OA
BRANCH  40  41
ATOM     41  C   LIG d   1       5.118  -0.519 -11.377  0.00  0.00     0.345 C 
ATOM     42  O   LIG d   1       4.333   0.322 -11.741  0.00  0.00    -0.247 OA
BRANCH  41  43
ATOM     43  C   LIG d   1       4.621  -1.782 -10.723  0.00  0.00     0.186 C 
ATOM     44  H   LIG d   1       5.402  -2.191 -10.081  0.00  0.00     0.082 H 
ATOM     45  H   LIG d   1       4.363  -2.512 -11.491  0.00  0.00     0.082 H 
BRANCH  43  46
ATOM     46  O   LIG d   1       3.464  -1.489  -9.938  0.00  0.00    -0.480 OA
BRANCH  46  47
ATOM     47  C   LIG d   1       3.630  -1.430  -8.592  0.00  0.00     0.128 A 
ATOM     48  C   LIG d   1       3.262  -0.285  -7.904  0.00  0.00     0.034 A 
ATOM     49  C   LIG d   1       3.435  -0.223  -6.530  0.00  0.00     0.146 A 
ATOM     50  C   LIG d   1       3.975  -1.330  -5.850  0.00  0.00     0.021 A 
ATOM     51  O   LIG d   1       3.088   0.884  -5.838  0.00  0.00    -0.422 OA
ATOM     52  C   LIG d   1       4.341  -2.478  -6.560  0.00  0.00    -0.047 A 
ATOM     53  C   LIG d   1       4.148  -1.256  -4.396  0.00  0.00    -0.027 A 
ATOM     54  C   LIG d   1       4.169  -2.521  -7.914  0.00  0.00    -0.019 A 
ATOM     55  H   LIG d   1       4.760  -3.328  -6.041  0.00  0.00     0.063 H 
ATOM     56  H   LIG d   1       4.451  -3.407  -8.463  0.00  0.00     0.065 H 
ATOM     57  C   LIG d   1       3.786  -0.113  -3.761  0.00  0.00     0.041 A 
ATOM     58  C   LIG d   1       4.698  -2.256  -3.408  0.00  0.00    -0.026 C 
ATOM     59  C   LIG d   1       3.243   0.956  -4.508  0.00  0.00     0.341 A 
ATOM     60  C   LIG d   1       4.049  -0.241  -2.276  0.00  0.00    -0.020 C 
ATOM     61  O   LIG d   1       2.906   1.973  -3.927  0.00  0.00    -0.245 OA
ATOM     62  C   LIG d   1       5.010  -1.435  -2.137  0.00  0.00    -0.045 C 
ATOM     63  H   LIG d   1       4.506   0.671  -1.893  0.00  0.00     0.032 H 
ATOM     64  H   LIG d   1       3.123  -0.453  -1.744  0.00  0.00     0.032 H 
ATOM     65  H   LIG d   1       4.799  -2.013  -1.238  0.00  0.00     0.027 H 
ATOM     66  H   LIG d   1       6.043  -1.087  -2.143  0.00  0.00     0.027 H 
ATOM     67  H   LIG d   1       3.953  -3.022  -3.189  0.00  0.00     0.031 H 
ATOM     68  H   LIG d   1       5.609  -2.713  -3.796  0.00  0.00     0.031 H 
BRANCH  48  69
ATOM     69  C   LIG d   1       2.681   0.891  -8.646  0.00  0.00    -0.033 C 
ATOM     70  H   LIG d   1       2.922   1.811  -8.115  0.00  0.00     0.028 H 
ATOM     71  H   LIG d   1       3.103   0.930  -9.651  0.00  0.00     0.028 H 
ATOM     72  H   LIG d   1       1.599   0.781  -8.712  0.00  0.00     0.028 H 
ENDBRANCH  48  69
ENDBRANCH  46  47
ENDBRANCH  43  46
ENDBRANCH  41  43
ENDBRANCH  40  41
ENDBRANCH   1  40
BRANCH   5  73
ATOM     73  C   LIG d   1       8.785   2.782  -9.026  0.00  0.00    -0.056 C 
ATOM     74  H   LIG d   1       9.153   3.491  -8.284  0.00  0.00     0.024 H 
ATOM     75  H   LIG d   1       9.405   2.840  -9.921  0.00  0.00     0.024 H 
ATOM     76  H   LIG d   1       7.753   3.024  -9.281  0.00  0.00     0.024 H 
ENDBRANCH   5  73
BRANCH  10  77
ATOM     77  C   LIG d   1      10.245   4.293  -5.564  0.00  0.00    -0.059 C 
ATOM     78  H   LIG d   1      10.877   5.143  -5.305  0.00  0.00     0.024 H 
ATOM     79  H   LIG d   1      10.103   4.261  -6.645  0.00  0.00     0.024 H 
ATOM     80  H   LIG d   1       9.277   4.397  -5.074  0.00  0.00     0.024 H 
ENDBRANCH  10  77
BRANCH  21  81
ATOM     81  C   LIG d   1      12.046   4.668  -3.608  0.00  0.00    -0.041 C 
ATOM     82  H   LIG d   1      11.483   5.297  -4.298  0.00  0.00     0.030 H 
BRANCH  81  83
ATOM     83  C   LIG d   1      13.537   4.755  -3.942  0.00  0.00    -0.062 C 
ATOM     84  H   LIG d   1      13.703   5.561  -4.658  0.00  0.00     0.023 H 
ATOM     85  H   LIG d   1      14.102   4.957  -3.032  0.00  0.00     0.023 H 
ATOM     86  H   LIG d   1      13.868   3.811  -4.374  0.00  0.00     0.023 H 
ENDBRANCH  81  83
BRANCH  81  87
ATOM     87  C   LIG d   1      11.816   5.148  -2.174  0.00  0.00    -0.050 C 
ATOM     88  H   LIG d   1      11.307   4.368  -1.607  0.00  0.00     0.027 H 
ATOM     89  H   LIG d   1      12.775   5.371  -1.707  0.00  0.00     0.027 H 
BRANCH  87  90
ATOM     90  C   LIG d   1      10.952   6.410  -2.192  0.00  0.00    -0.053 C 
ATOM     91  H   LIG d   1      11.577   7.276  -2.407  0.00  0.00     0.026 H 
ATOM     92  H   LIG d   1      10.185   6.315  -2.961  0.00  0.00     0.026 H 
BRANCH  90  93
ATOM     93  C   LIG d   1      10.283   6.590  -0.827  0.00  0.00    -0.051 C 
ATOM     94  H   LIG d   1       9.678   7.497  -0.835  0.00  0.00     0.027 H 
ATOM     95  H   LIG d   1       9.645   5.731  -0.619  0.00  0.00     0.027 H 
BRANCH  93  96
ATOM     96  C   LIG d   1      11.358   6.702   0.257  0.00  0.00    -0.047 C 
ATOM     97  H   LIG d   1      12.326   6.432  -0.164  0.00  0.00     0.029 H 
BRANCH  96  98
ATOM     98  C   LIG d   1      11.410   8.140   0.776  0.00  0.00    -0.063 C 
ATOM     99  H   LIG d   1      11.913   8.159   1.743  0.00  0.00     0.023 H 
ATOM    100  H   LIG d   1      11.960   8.761   0.069  0.00  0.00     0.023 H 
ATOM    101  H   LIG d   1      10.397   8.525   0.886  0.00  0.00     0.023 H 
ENDBRANCH  96  98
BRANCH  96 102
ATOM    102  C   LIG d   1      11.020   5.755   1.409  0.00  0.00    -0.063 C 
ATOM    103  H   LIG d   1      10.062   6.039   1.844  0.00  0.00     0.023 H 
ATOM    104  H   LIG d   1      10.960   4.733   1.034  0.00  0.00     0.023 H 
ATOM    105  H   LIG d   1      11.797   5.817   2.170  0.00  0.00     0.023 H 
ENDBRANCH  96 102
ENDBRANCH  93  96
ENDBRANCH  90  93
ENDBRANCH  87  90
ENDBRANCH  81  87
ENDBRANCH  21  81
TORSDOF 16
ENDMDL
MODEL 6
REMARK VINA RESULT:      -6.2      4.199      8.121
REMARK  16 active torsions:
REMARK  status: ('A' for Active; 'I' for Inactive)
REMARK    1  A    between atoms: C_1  and  C_2 
REMARK    2  A    between atoms: C_3  and  O_16 
REMARK    3  A    between atoms: O_16  and  C_17 
REMARK    4  A    between atoms: C_17  and  C_18 
REMARK    5  A    between atoms: C_18  and  O_20 
REMARK    6  A    between atoms: O_20  and  C_21 
REMARK    7  A    between atoms: C_25  and  C_53 
REMARK    8  A    between atoms: C_30  and  C_52 
REMARK    9  A    between atoms: C_41  and  C_43 
REMARK   10  A    between atoms: C_43  and  C_45 
REMARK   11  A    between atoms: C_43  and  C_46 
REMARK   12  A    between atoms: C_46  and  C_47 
REMARK   13  A    between atoms: C_47  and  C_48 
REMARK   14  A    between atoms: C_48  and  C_49 
REMARK   15  A    between atoms: C_49  and  C_50 
REMARK   16  A    between atoms: C_49  and  C_51 
ROOT
ATOM      1  C   LIG d   1      11.425  12.357  -2.036  0.00  0.00     0.107 C 
ATOM      2  H   LIG d   1      11.070  11.709  -1.235  0.00  0.00     0.074 H 
ATOM      3  C   LIG d   1      10.291  12.600  -3.034  0.00  0.00    -0.015 C 
ATOM      4  C   LIG d   1       9.767  11.262  -3.555  0.00  0.00    -0.040 C 
ATOM      5  C   LIG d   1      10.884  10.538  -4.313  0.00  0.00    -0.008 C 
ATOM      6  C   LIG d   1      10.383   9.199  -4.826  0.00  0.00    -0.029 C 
ATOM      7  H   LIG d   1       9.778   8.737  -4.045  0.00  0.00     0.031 H 
ATOM      8  C   LIG d   1       9.502   9.413  -6.053  0.00  0.00    -0.049 C 
ATOM      9  C   LIG d   1       9.033   8.080  -6.657  0.00  0.00    -0.047 C 
ATOM     10  C   LIG d   1      10.276   7.278  -6.993  0.00  0.00    -0.026 C 
ATOM     11  C   LIG d   1      10.989   6.959  -5.651  0.00  0.00    -0.032 C 
ATOM     12  H   LIG d   1      10.285   6.528  -4.940  0.00  0.00     0.031 H 
ATOM     13  C   LIG d   1      11.562   8.267  -5.137  0.00  0.00    -0.031 C 
ATOM     14  H   LIG d   1      12.214   8.721  -5.883  0.00  0.00     0.031 H 
ATOM     15  C   LIG d   1      12.321   8.002  -3.832  0.00  0.00    -0.031 C 
ATOM     16  C   LIG d   1      12.737   9.311  -3.228  0.00  0.00    -0.084 C 
ATOM     17  C   LIG d   1      12.091  10.424  -3.430  0.00  0.00    -0.064 C 
ATOM     18  C   LIG d   1      12.600  11.685  -2.753  0.00  0.00     0.006 C 
ATOM     19  C   LIG d   1      12.015   5.908  -6.088  0.00  0.00    -0.049 C 
ATOM     20  C   LIG d   1      11.206   5.019  -7.071  0.00  0.00    -0.049 C 
ATOM     21  C   LIG d   1      10.049   5.900  -7.606  0.00  0.00    -0.033 C 
ATOM     22  H   LIG d   1       9.088   5.498  -7.286  0.00  0.00     0.031 H 
ATOM     23  H   LIG d   1       9.482  13.139  -2.539  0.00  0.00     0.030 H 
ATOM     24  H   LIG d   1      10.664  13.195  -3.868  0.00  0.00     0.030 H 
ATOM     25  H   LIG d   1       9.439  10.648  -2.717  0.00  0.00     0.028 H 
ATOM     26  H   LIG d   1       8.926  11.437  -4.227  0.00  0.00     0.028 H 
ATOM     27  H   LIG d   1       8.631  10.000  -5.767  0.00  0.00     0.027 H 
ATOM     28  H   LIG d   1      10.069   9.962  -6.805  0.00  0.00     0.027 H 
ATOM     29  H   LIG d   1       8.426   7.537  -5.931  0.00  0.00     0.027 H 
ATOM     30  H   LIG d   1       8.454   8.265  -7.562  0.00  0.00     0.027 H 
ATOM     31  H   LIG d   1      11.673   7.470  -3.136  0.00  0.00     0.031 H 
ATOM     32  H   LIG d   1      13.205   7.400  -4.041  0.00  0.00     0.031 H 
ATOM     33  H   LIG d   1      13.607   9.330  -2.588  0.00  0.00     0.057 H 
ATOM     34  H   LIG d   1      13.008  12.363  -3.503  0.00  0.00     0.035 H 
ATOM     35  H   LIG d   1      13.373  11.428  -2.030  0.00  0.00     0.035 H 
ATOM     36  H   LIG d   1      12.857   6.378  -6.597  0.00  0.00     0.027 H 
ATOM     37  H   LIG d   1      12.357   5.325  -5.232  0.00  0.00     0.027 H 
ATOM     38  H   LIG d   1      11.842   4.696  -7.894  0.00  0.00     0.027 H 
ATOM     39  H   LIG d   1      10.804   4.152  -6.546  0.00  0.00     0.027 H 
ENDROOT
BRANCH   1  40
ATOM     40  O   LIG d   1      11.853  13.605  -1.486  0.00  0.00    -0.459 OA
BRANCH  40  41
ATOM     41  C   LIG d   1      11.893  13.698  -0.148  0.00  0.00     0.345 C 
ATOM     42  O   LIG d   1      12.907  14.054   0.403  0.00  0.00    -0.247 OA
BRANCH  41  43
ATOM     43  C   LIG d   1      10.672  13.358   0.668  0.00  0.00     0.186 C 
ATOM     44  H   LIG d   1       9.835  13.150   0.001  0.00  0.00     0.082 H 
ATOM     45  H   LIG d   1      10.420  14.200   1.313  0.00  0.00     0.082 H 
BRANCH  43  46
ATOM     46  O   LIG d   1      10.940  12.206   1.470  0.00  0.00    -0.480 OA
BRANCH  46  47
ATOM     47  C   LIG d   1      10.826  10.995   0.869  0.00  0.00     0.128 A 
ATOM     48  C   LIG d   1      11.871  10.088   0.948  0.00  0.00     0.034 A 
ATOM     49  C   LIG d   1      11.756   8.852   0.331  0.00  0.00     0.146 A 
ATOM     50  C   LIG d   1      10.575   8.531  -0.363  0.00  0.00     0.021 A 
ATOM     51  O   LIG d   1      12.763   7.953   0.391  0.00  0.00    -0.422 OA
ATOM     52  C   LIG d   1       9.530   9.459  -0.433  0.00  0.00    -0.047 A 
ATOM     53  C   LIG d   1      10.463   7.220  -1.007  0.00  0.00    -0.027 A 
ATOM     54  C   LIG d   1       9.661  10.674   0.177  0.00  0.00    -0.019 A 
ATOM     55  H   LIG d   1       8.623   9.217  -0.968  0.00  0.00     0.063 H 
ATOM     56  H   LIG d   1       8.854  11.390   0.123  0.00  0.00     0.065 H 
ATOM     57  C   LIG d   1      11.511   6.365  -0.915  0.00  0.00     0.041 A 
ATOM     58  C   LIG d   1       9.347   6.601  -1.815  0.00  0.00    -0.026 C 
ATOM     59  C   LIG d   1      12.664   6.752  -0.196  0.00  0.00     0.341 A 
ATOM     60  C   LIG d   1      11.195   5.078  -1.647  0.00  0.00    -0.020 C 
ATOM     61  O   LIG d   1      13.596   5.971  -0.106  0.00  0.00    -0.245 OA
ATOM     62  C   LIG d   1      10.000   5.414  -2.557  0.00  0.00    -0.045 C 
ATOM     63  H   LIG d   1      12.054   4.758  -2.238  0.00  0.00     0.032 H 
ATOM     64  H   LIG d   1      10.911   4.300  -0.941  0.00  0.00     0.032 H 
ATOM     65  H   LIG d   1       9.310   4.574  -2.633  0.00  0.00     0.027 H 
ATOM     66  H   LIG d   1      10.353   5.717  -3.542  0.00  0.00     0.027 H 
ATOM     67  H   LIG d   1       8.554   6.244  -1.156  0.00  0.00     0.031 H 
ATOM     68  H   LIG d   1       8.950   7.321  -2.530  0.00  0.00     0.031 H 
BRANCH  48  69
ATOM     69  C   LIG d   1      13.128  10.445   1.698  0.00  0.00    -0.033 C 
ATOM     70  H   LIG d   1      13.627  11.274   1.196  0.00  0.00     0.028 H 
ATOM     71  H   LIG d   1      12.872  10.739   2.717  0.00  0.00     0.028 H 
ATOM     72  H   LIG d   1      13.792   9.582   1.726  0.00  0.00     0.028 H 
ENDBRANCH  48  69
ENDBRANCH  46  47
ENDBRANCH  43  46
ENDBRANCH  41  43
ENDBRANCH  40  41
ENDBRANCH   1  40
BRANCH   5  73
ATOM     73  C   LIG d   1      11.261  11.388  -5.528  0.00  0.00    -0.056 C 
ATOM     74  H   LIG d   1      10.382  11.925  -5.883  0.00  0.00     0.024 H 
ATOM     75  H   LIG d   1      12.034  12.104  -5.245  0.00  0.00     0.024 H 
ATOM     76  H   LIG d   1      11.637  10.741  -6.322  0.00  0.00     0.024 H 
ENDBRANCH   5  73
BRANCH  10  77
ATOM     77  C   LIG d   1      11.197   8.103  -7.895  0.00  0.00    -0.059 C 
ATOM     78  H   LIG d   1      10.693   8.304  -8.841  0.00  0.00     0.024 H 
ATOM     79  H   LIG d   1      11.438   9.046  -7.404  0.00  0.00     0.024 H 
ATOM     80  H   LIG d   1      12.114   7.547  -8.083  0.00  0.00     0.024 H 
ENDBRANCH  10  77
BRANCH  21  81
ATOM     81  C   LIG d   1      10.110   5.982  -9.132  0.00  0.00    -0.041 C 
ATOM     82  H   LIG d   1      10.688   6.858  -9.427  0.00  0.00     0.030 H 
BRANCH  81  83
ATOM     83  C   LIG d   1       8.691   6.097  -9.693  0.00  0.00    -0.062 C 
ATOM     84  H   LIG d   1       7.994   5.591  -9.024  0.00  0.00     0.023 H 
ATOM     85  H   LIG d   1       8.417   7.148  -9.775  0.00  0.00     0.023 H 
ATOM     86  H   LIG d   1       8.651   5.632 -10.678  0.00  0.00     0.023 H 
ENDBRANCH  81  83
BRANCH  81  87
ATOM     87  C   LIG d   1      10.776   4.721  -9.686  0.00  0.00    -0.050 C 
ATOM     88  H   LIG d   1      11.471   4.996 -10.480  0.00  0.00     0.027 H 
ATOM     89  H   LIG d   1      11.318   4.215  -8.887  0.00  0.00     0.027 H 
BRANCH  87  90
ATOM     90  C   LIG d   1       9.705   3.784 -10.248  0.00  0.00    -0.053 C 
ATOM     91  H   LIG d   1       8.742   4.292 -10.249  0.00  0.00     0.026 H 
ATOM     92  H   LIG d   1       9.969   3.501 -11.267  0.00  0.00     0.026 H 
BRANCH  90  93
ATOM     93  C   LIG d   1       9.619   2.528  -9.378  0.00  0.00    -0.051 C 
ATOM     94  H   LIG d   1       9.501   1.651 -10.015  0.00  0.00     0.027 H 
ATOM     95  H   LIG d   1      10.532   2.429  -8.791  0.00  0.00     0.027 H 
BRANCH  93  96
ATOM     96  C   LIG d   1       8.418   2.640  -8.437  0.00  0.00    -0.047 C 
ATOM     97  H   LIG d   1       8.096   3.680  -8.382  0.00  0.00     0.029 H 
BRANCH  96  98
ATOM     98  C   LIG d   1       7.271   1.780  -8.970  0.00  0.00    -0.063 C 
ATOM     99  H   LIG d   1       6.832   2.261  -9.844  0.00  0.00     0.023 H 
ATOM    100  H   LIG d   1       7.654   0.799  -9.250  0.00  0.00     0.023 H 
ATOM    101  H   LIG d   1       6.511   1.666  -8.197  0.00  0.00     0.023 H 
ENDBRANCH  96  98
BRANCH  96 102
ATOM    102  C   LIG d   1       8.815   2.156  -7.042  0.00  0.00    -0.063 C 
ATOM    103  H   LIG d   1       9.212   1.142  -7.109  0.00  0.00     0.023 H 
ATOM    104  H   LIG d   1       9.576   2.818  -6.629  0.00  0.00     0.023 H 
ATOM    105  H   LIG d   1       7.940   2.160  -6.393  0.00  0.00     0.023 H 
ENDBRANCH  96 102
ENDBRANCH  93  96
ENDBRANCH  90  93
ENDBRANCH  87  90
ENDBRANCH  81  87
ENDBRANCH  21  81
TORSDOF 16
ENDMDL
MODEL 7
REMARK VINA RESULT:      -6.2      5.197      8.876
REMARK  16 active torsions:
REMARK  status: ('A' for Active; 'I' for Inactive)
REMARK    1  A    between atoms: C_1  and  C_2 
REMARK    2  A    between atoms: C_3  and  O_16 
REMARK    3  A    between atoms: O_16  and  C_17 
REMARK    4  A    between atoms: C_17  and  C_18 
REMARK    5  A    between atoms: C_18  and  O_20 
REMARK    6  A    between atoms: O_20  and  C_21 
REMARK    7  A    between atoms: C_25  and  C_53 
REMARK    8  A    between atoms: C_30  and  C_52 
REMARK    9  A    between atoms: C_41  and  C_43 
REMARK   10  A    between atoms: C_43  and  C_45 
REMARK   11  A    between atoms: C_43  and  C_46 
REMARK   12  A    between atoms: C_46  and  C_47 
REMARK   13  A    between atoms: C_47  and  C_48 
REMARK   14  A    between atoms: C_48  and  C_49 
REMARK   15  A    between atoms: C_49  and  C_50 
REMARK   16  A    between atoms: C_49  and  C_51 
ROOT
ATOM      1  C   LIG d   1      11.565  12.274  -2.018  0.00  0.00     0.107 C 
ATOM      2  H   LIG d   1      11.202  11.621  -1.224  0.00  0.00     0.074 H 
ATOM      3  C   LIG d   1      10.426  12.567  -2.997  0.00  0.00    -0.015 C 
ATOM      4  C   LIG d   1       9.860  11.253  -3.537  0.00  0.00    -0.040 C 
ATOM      5  C   LIG d   1      10.950  10.514  -4.321  0.00  0.00    -0.008 C 
ATOM      6  C   LIG d   1      10.406   9.198  -4.852  0.00  0.00    -0.029 C 
ATOM      7  H   LIG d   1       9.797   8.738  -4.073  0.00  0.00     0.031 H 
ATOM      8  C   LIG d   1       9.518   9.458  -6.065  0.00  0.00    -0.049 C 
ATOM      9  C   LIG d   1       9.005   8.150  -6.688  0.00  0.00    -0.047 C 
ATOM     10  C   LIG d   1      10.223   7.322  -7.053  0.00  0.00    -0.026 C 
ATOM     11  C   LIG d   1      10.942   6.959  -5.726  0.00  0.00    -0.032 C 
ATOM     12  H   LIG d   1      10.234   6.533  -5.014  0.00  0.00     0.031 H 
ATOM     13  C   LIG d   1      11.556   8.241  -5.194  0.00  0.00    -0.031 C 
ATOM     14  H   LIG d   1      12.212   8.691  -5.940  0.00  0.00     0.031 H 
ATOM     15  C   LIG d   1      12.322   7.931  -3.903  0.00  0.00    -0.031 C 
ATOM     16  C   LIG d   1      12.780   9.217  -3.280  0.00  0.00    -0.084 C 
ATOM     17  C   LIG d   1      12.162  10.350  -3.454  0.00  0.00    -0.064 C 
ATOM     18  C   LIG d   1      12.713  11.585  -2.761  0.00  0.00     0.006 C 
ATOM     19  C   LIG d   1      11.935   5.888  -6.194  0.00  0.00    -0.049 C 
ATOM     20  C   LIG d   1      11.090   5.040  -7.183  0.00  0.00    -0.049 C 
ATOM     21  C   LIG d   1       9.952   5.961  -7.688  0.00  0.00    -0.033 C 
ATOM     22  H   LIG d   1       8.984   5.580  -7.364  0.00  0.00     0.031 H 
ATOM     23  H   LIG d   1       9.638  13.118  -2.483  0.00  0.00     0.030 H 
ATOM     24  H   LIG d   1      10.806  13.167  -3.825  0.00  0.00     0.030 H 
ATOM     25  H   LIG d   1       9.526  10.632  -2.707  0.00  0.00     0.028 H 
ATOM     26  H   LIG d   1       9.018  11.463  -4.196  0.00  0.00     0.028 H 
ATOM     27  H   LIG d   1       8.666  10.063  -5.758  0.00  0.00     0.027 H 
ATOM     28  H   LIG d   1      10.091  10.006  -6.813  0.00  0.00     0.027 H 
ATOM     29  H   LIG d   1       8.393   7.610  -5.965  0.00  0.00     0.027 H 
ATOM     30  H   LIG d   1       8.422   8.367  -7.582  0.00  0.00     0.027 H 
ATOM     31  H   LIG d   1      11.668   7.404  -3.209  0.00  0.00     0.031 H 
ATOM     32  H   LIG d   1      13.187   7.310  -4.133  0.00  0.00     0.031 H 
ATOM     33  H   LIG d   1      13.657   9.200  -2.650  0.00  0.00     0.057 H 
ATOM     34  H   LIG d   1      13.131  12.266  -3.502  0.00  0.00     0.035 H 
ATOM     35  H   LIG d   1      13.487  11.294  -2.051  0.00  0.00     0.035 H 
ATOM     36  H   LIG d   1      12.783   6.345  -6.703  0.00  0.00     0.027 H 
ATOM     37  H   LIG d   1      12.270   5.281  -5.353  0.00  0.00     0.027 H 
ATOM     38  H   LIG d   1      11.708   4.715  -8.019  0.00  0.00     0.027 H 
ATOM     39  H   LIG d   1      10.671   4.174  -6.669  0.00  0.00     0.027 H 
ENDROOT
BRANCH   1  40
ATOM     40  O   LIG d   1      12.032  13.500  -1.450  0.00  0.00    -0.459 OA
BRANCH  40  41
ATOM     41  C   LIG d   1      12.024  13.593  -0.111  0.00  0.00     0.345 C 
ATOM     42  O   LIG d   1      13.032  13.894   0.480  0.00  0.00    -0.247 OA
BRANCH  41  43
ATOM     43  C   LIG d   1      10.754  13.320   0.654  0.00  0.00     0.186 C 
ATOM     44  H   LIG d   1       9.937  13.149  -0.046  0.00  0.00     0.082 H 
ATOM     45  H   LIG d   1      10.518  14.179   1.284  0.00  0.00     0.082 H 
BRANCH  43  46
ATOM     46  O   LIG d   1      10.930  12.163   1.473  0.00  0.00    -0.480 OA
BRANCH  46  47
ATOM     47  C   LIG d   1      10.821  10.955   0.866  0.00  0.00     0.128 A 
ATOM     48  C   LIG d   1      11.865  10.048   0.947  0.00  0.00     0.034 A 
ATOM     49  C   LIG d   1      11.755   8.815   0.323  0.00  0.00     0.146 A 
ATOM     50  C   LIG d   1      10.578   8.496  -0.379  0.00  0.00     0.021 A 
ATOM     51  O   LIG d   1      12.761   7.916   0.385  0.00  0.00    -0.422 OA
ATOM     52  C   LIG d   1       9.533   9.424  -0.451  0.00  0.00    -0.047 A 
ATOM     53  C   LIG d   1      10.470   7.187  -1.029  0.00  0.00    -0.027 A 
ATOM     54  C   LIG d   1       9.660  10.636   0.165  0.00  0.00    -0.019 A 
ATOM     55  H   LIG d   1       8.630   9.183  -0.992  0.00  0.00     0.063 H 
ATOM     56  H   LIG d   1       8.853  11.352   0.110  0.00  0.00     0.065 H 
ATOM     57  C   LIG d   1      11.519   6.333  -0.936  0.00  0.00     0.041 A 
ATOM     58  C   LIG d   1       9.359   6.572  -1.847  0.00  0.00    -0.026 C 
ATOM     59  C   LIG d   1      12.667   6.717  -0.208  0.00  0.00     0.341 A 
ATOM     60  C   LIG d   1      11.208   5.049  -1.675  0.00  0.00    -0.020 C 
ATOM     61  O   LIG d   1      13.598   5.936  -0.116  0.00  0.00    -0.245 OA
ATOM     62  C   LIG d   1      10.018   5.388  -2.590  0.00  0.00    -0.045 C 
ATOM     63  H   LIG d   1      12.070   4.732  -2.263  0.00  0.00     0.032 H 
ATOM     64  H   LIG d   1      10.919   4.268  -0.974  0.00  0.00     0.032 H 
ATOM     65  H   LIG d   1       9.328   4.548  -2.674  0.00  0.00     0.027 H 
ATOM     66  H   LIG d   1      10.376   5.697  -3.572  0.00  0.00     0.027 H 
ATOM     67  H   LIG d   1       8.563   6.211  -1.194  0.00  0.00     0.031 H 
ATOM     68  H   LIG d   1       8.967   7.295  -2.561  0.00  0.00     0.031 H 
BRANCH  48  69
ATOM     69  C   LIG d   1      13.118  10.402   1.706  0.00  0.00    -0.033 C 
ATOM     70  H   LIG d   1      13.083   9.946   2.696  0.00  0.00     0.028 H 
ATOM     71  H   LIG d   1      13.988  10.029   1.165  0.00  0.00     0.028 H 
ATOM     72  H   LIG d   1      13.189  11.484   1.806  0.00  0.00     0.028 H 
ENDBRANCH  48  69
ENDBRANCH  46  47
ENDBRANCH  43  46
ENDBRANCH  41  43
ENDBRANCH  40  41
ENDBRANCH   1  40
BRANCH   5  73
ATOM     73  C   LIG d   1      11.336  11.375  -5.525  0.00  0.00    -0.056 C 
ATOM     74  H   LIG d   1      12.411  11.553  -5.514  0.00  0.00     0.024 H 
ATOM     75  H   LIG d   1      11.063  10.857  -6.445  0.00  0.00     0.024 H 
ATOM     76  H   LIG d   1      10.809  12.328  -5.474  0.00  0.00     0.024 H 
ENDBRANCH   5  73
BRANCH  10  77
ATOM     77  C   LIG d   1      11.155   8.138  -7.950  0.00  0.00    -0.059 C 
ATOM     78  H   LIG d   1      11.504   7.514  -8.774  0.00  0.00     0.024 H 
ATOM     79  H   LIG d   1      10.617   8.998  -8.348  0.00  0.00     0.024 H 
ATOM     80  H   LIG d   1      12.010   8.482  -7.369  0.00  0.00     0.024 H 
ENDBRANCH  10  77
BRANCH  21  81
ATOM     81  C   LIG d   1       9.997   6.070  -9.213  0.00  0.00    -0.041 C 
ATOM     82  H   LIG d   1      10.408   7.040  -9.497  0.00  0.00     0.030 H 
BRANCH  81  83
ATOM     83  C   LIG d   1       8.581   5.933  -9.777  0.00  0.00    -0.062 C 
ATOM     84  H   LIG d   1       8.590   5.238 -10.617  0.00  0.00     0.023 H 
ATOM     85  H   LIG d   1       7.917   5.555  -9.000  0.00  0.00     0.023 H 
ATOM     86  H   LIG d   1       8.229   6.908 -10.115  0.00  0.00     0.023 H 
ENDBRANCH  81  83
BRANCH  81  87
ATOM     87  C   LIG d   1      10.881   4.957  -9.779  0.00  0.00    -0.050 C 
ATOM     88  H   LIG d   1      11.786   4.870  -9.177  0.00  0.00     0.027 H 
ATOM     89  H   LIG d   1      10.336   4.012  -9.754  0.00  0.00     0.027 H 
BRANCH  87  90
ATOM     90  C   LIG d   1      11.259   5.290 -11.223  0.00  0.00    -0.053 C 
ATOM     91  H   LIG d   1      11.952   4.538 -11.600  0.00  0.00     0.026 H 
ATOM     92  H   LIG d   1      10.362   5.300 -11.841  0.00  0.00     0.026 H 
BRANCH  90  93
ATOM     93  C   LIG d   1      11.926   6.667 -11.271  0.00  0.00    -0.051 C 
ATOM     94  H   LIG d   1      11.798   7.166 -10.310  0.00  0.00     0.027 H 
ATOM     95  H   LIG d   1      12.989   6.548 -11.479  0.00  0.00     0.027 H 
BRANCH  93  96
ATOM     96  C   LIG d   1      11.280   7.508 -12.374  0.00  0.00    -0.047 C 
ATOM     97  H   LIG d   1      12.046   7.829 -13.080  0.00  0.00     0.029 H 
BRANCH  96  98
ATOM     98  C   LIG d   1      10.232   6.669 -13.107  0.00  0.00    -0.063 C 
ATOM     99  H   LIG d   1       9.942   5.823 -12.482  0.00  0.00     0.023 H 
ATOM    100  H   LIG d   1       9.356   7.283 -13.315  0.00  0.00     0.023 H 
ATOM    101  H   LIG d   1      10.649   6.301 -14.044  0.00  0.00     0.023 H 
ENDBRANCH  96  98
BRANCH  96 102
ATOM    102  C   LIG d   1      10.611   8.735 -11.754  0.00  0.00    -0.063 C 
ATOM    103  H   LIG d   1      10.743   8.714 -10.672  0.00  0.00     0.023 H 
ATOM    104  H   LIG d   1      11.064   9.640 -12.158  0.00  0.00     0.023 H 
ATOM    105  H   LIG d   1       9.547   8.726 -11.989  0.00  0.00     0.023 H 
ENDBRANCH  96 102
ENDBRANCH  93  96
ENDBRANCH  90  93
ENDBRANCH  87  90
ENDBRANCH  81  87
ENDBRANCH  21  81
TORSDOF 16
ENDMDL
MODEL 8
REMARK VINA RESULT:      -6.2      4.349     10.778
REMARK  16 active torsions:
REMARK  status: ('A' for Active; 'I' for Inactive)
REMARK    1  A    between atoms: C_1  and  C_2 
REMARK    2  A    between atoms: C_3  and  O_16 
REMARK    3  A    between atoms: O_16  and  C_17 
REMARK    4  A    between atoms: C_17  and  C_18 
REMARK    5  A    between atoms: C_18  and  O_20 
REMARK    6  A    between atoms: O_20  and  C_21 
REMARK    7  A    between atoms: C_25  and  C_53 
REMARK    8  A    between atoms: C_30  and  C_52 
REMARK    9  A    between atoms: C_41  and  C_43 
REMARK   10  A    between atoms: C_43  and  C_45 
REMARK   11  A    between atoms: C_43  and  C_46 
REMARK   12  A    between atoms: C_46  and  C_47 
REMARK   13  A    between atoms: C_47  and  C_48 
REMARK   14  A    between atoms: C_48  and  C_49 
REMARK   15  A    between atoms: C_49  and  C_50 
REMARK   16  A    between atoms: C_49  and  C_51 
ROOT
ATOM      1  C   LIG d   1      12.319   3.464  -3.667  0.00  0.00     0.107 C 
ATOM      2  H   LIG d   1      11.790   2.938  -2.871  0.00  0.00     0.074 H 
ATOM      3  C   LIG d   1      13.599   4.084  -3.103  0.00  0.00    -0.015 C 
ATOM      4  C   LIG d   1      13.253   5.001  -1.929  0.00  0.00    -0.040 C 
ATOM      5  C   LIG d   1      12.374   6.154  -2.425  0.00  0.00    -0.008 C 
ATOM      6  C   LIG d   1      12.010   7.067  -1.267  0.00  0.00    -0.029 C 
ATOM      7  H   LIG d   1      11.771   6.446  -0.403  0.00  0.00     0.031 H 
ATOM      8  C   LIG d   1      13.203   7.948  -0.909  0.00  0.00    -0.049 C 
ATOM      9  C   LIG d   1      12.860   8.946   0.209  0.00  0.00    -0.047 C 
ATOM     10  C   LIG d   1      11.680   9.769  -0.274  0.00  0.00    -0.026 C 
ATOM     11  C   LIG d   1      10.478   8.799  -0.421  0.00  0.00    -0.032 C 
ATOM     12  H   LIG d   1      10.348   8.212   0.489  0.00  0.00     0.031 H 
ATOM     13  C   LIG d   1      10.775   7.909  -1.613  0.00  0.00    -0.031 C 
ATOM     14  H   LIG d   1      10.966   8.509  -2.503  0.00  0.00     0.031 H 
ATOM     15  C   LIG d   1       9.594   6.957  -1.835  0.00  0.00    -0.031 C 
ATOM     16  C   LIG d   1       9.954   5.960  -2.897  0.00  0.00    -0.084 C 
ATOM     17  C   LIG d   1      11.181   5.597  -3.142  0.00  0.00    -0.064 C 
ATOM     18  C   LIG d   1      11.423   4.568  -4.234  0.00  0.00     0.006 C 
ATOM     19  C   LIG d   1       9.310   9.777  -0.594  0.00  0.00    -0.049 C 
ATOM     20  C   LIG d   1       9.628  10.886   0.446  0.00  0.00    -0.049 C 
ATOM     21  C   LIG d   1      11.157  10.833   0.687  0.00  0.00    -0.033 C 
ATOM     22  H   LIG d   1      11.368  10.547   1.717  0.00  0.00     0.031 H 
ATOM     23  H   LIG d   1      14.265   3.293  -2.761  0.00  0.00     0.030 H 
ATOM     24  H   LIG d   1      14.094   4.663  -3.883  0.00  0.00     0.030 H 
ATOM     25  H   LIG d   1      12.714   4.434  -1.170  0.00  0.00     0.028 H 
ATOM     26  H   LIG d   1      14.171   5.402  -1.498  0.00  0.00     0.028 H 
ATOM     27  H   LIG d   1      14.026   7.316  -0.580  0.00  0.00     0.027 H 
ATOM     28  H   LIG d   1      13.513   8.502  -1.796  0.00  0.00     0.027 H 
ATOM     29  H   LIG d   1      12.590   8.407   1.117  0.00  0.00     0.027 H 
ATOM     30  H   LIG d   1      13.712   9.597   0.401  0.00  0.00     0.027 H 
ATOM     31  H   LIG d   1       9.368   6.434  -0.906  0.00  0.00     0.031 H 
ATOM     32  H   LIG d   1       8.721   7.528  -2.153  0.00  0.00     0.031 H 
ATOM     33  H   LIG d   1       9.160   5.516  -3.477  0.00  0.00     0.057 H 
ATOM     34  H   LIG d   1      11.917   5.043  -5.081  0.00  0.00     0.035 H 
ATOM     35  H   LIG d   1      10.472   4.142  -4.554  0.00  0.00     0.035 H 
ATOM     36  H   LIG d   1       9.296  10.186  -1.604  0.00  0.00     0.027 H 
ATOM     37  H   LIG d   1       8.362   9.290  -0.361  0.00  0.00     0.027 H 
ATOM     38  H   LIG d   1       9.345  11.861   0.051  0.00  0.00     0.027 H 
ATOM     39  H   LIG d   1       9.095  10.690   1.376  0.00  0.00     0.027 H 
ENDROOT
BRANCH   1  40
ATOM     40  O   LIG d   1      12.654   2.541  -4.706  0.00  0.00    -0.459 OA
BRANCH  40  41
ATOM     41  C   LIG d   1      12.359   1.249  -4.492  0.00  0.00     0.345 C 
ATOM     42  O   LIG d   1      12.825   0.673  -3.538  0.00  0.00    -0.247 OA
BRANCH  41  43
ATOM     43  C   LIG d   1      11.446   0.518  -5.442  0.00  0.00     0.186 C 
ATOM     44  H   LIG d   1      11.233  -0.477  -5.050  0.00  0.00     0.082 H 
ATOM     45  H   LIG d   1      11.931   0.429  -6.415  0.00  0.00     0.082 H 
BRANCH  43  46
ATOM     46  O   LIG d   1      10.224   1.245  -5.584  0.00  0.00    -0.480 OA
BRANCH  46  47
ATOM     47  C   LIG d   1       9.097   0.657  -5.108  0.00  0.00     0.128 A 
ATOM     48  C   LIG d   1       8.297   1.337  -4.205  0.00  0.00     0.034 A 
ATOM     49  C   LIG d   1       7.147   0.735  -3.716  0.00  0.00     0.146 A 
ATOM     50  C   LIG d   1       6.804  -0.558  -4.152  0.00  0.00     0.021 A 
ATOM     51  O   LIG d   1       6.353   1.375  -2.832  0.00  0.00    -0.422 OA
ATOM     52  C   LIG d   1       7.625  -1.230  -5.065  0.00  0.00    -0.047 A 
ATOM     53  C   LIG d   1       5.584  -1.183  -3.634  0.00  0.00    -0.027 A 
ATOM     54  C   LIG d   1       8.756  -0.625  -5.533  0.00  0.00    -0.019 A 
ATOM     55  H   LIG d   1       7.365  -2.224  -5.399  0.00  0.00     0.063 H 
ATOM     56  H   LIG d   1       9.388  -1.143  -6.238  0.00  0.00     0.065 H 
ATOM     57  C   LIG d   1       4.833  -0.490  -2.743  0.00  0.00     0.041 A 
ATOM     58  C   LIG d   1       4.968  -2.536  -3.901  0.00  0.00    -0.026 C 
ATOM     59  C   LIG d   1       5.235   0.809  -2.355  0.00  0.00     0.341 A 
ATOM     60  C   LIG d   1       3.629  -1.309  -2.332  0.00  0.00    -0.020 C 
ATOM     61  O   LIG d   1       4.546   1.430  -1.566  0.00  0.00    -0.245 OA
ATOM     62  C   LIG d   1       3.960  -2.752  -2.751  0.00  0.00    -0.045 C 
ATOM     63  H   LIG d   1       3.476  -1.244  -1.254  0.00  0.00     0.032 H 
ATOM     64  H   LIG d   1       2.740  -0.969  -2.861  0.00  0.00     0.032 H 
ATOM     65  H   LIG d   1       3.073  -3.278  -3.103  0.00  0.00     0.027 H 
ATOM     66  H   LIG d   1       4.425  -3.286  -1.922  0.00  0.00     0.027 H 
ATOM     67  H   LIG d   1       4.451  -2.535  -4.861  0.00  0.00     0.031 H 
ATOM     68  H   LIG d   1       5.734  -3.312  -3.884  0.00  0.00     0.031 H 
BRANCH  48  69
ATOM     69  C   LIG d   1       8.675   2.723  -3.751  0.00  0.00    -0.033 C 
ATOM     70  H   LIG d   1       7.783   3.250  -3.414  0.00  0.00     0.028 H 
ATOM     71  H   LIG d   1       9.388   2.653  -2.929  0.00  0.00     0.028 H 
ATOM     72  H   LIG d   1       9.129   3.266  -4.579  0.00  0.00     0.028 H 
ENDBRANCH  48  69
ENDBRANCH  46  47
ENDBRANCH  43  46
ENDBRANCH  41  43
ENDBRANCH  40  41
ENDBRANCH   1  40
BRANCH   5  73
ATOM     73  C   LIG d   1      13.190   6.976  -3.424  0.00  0.00    -0.056 C 
ATOM     74  H   LIG d   1      14.083   7.363  -2.933  0.00  0.00     0.024 H 
ATOM     75  H   LIG d   1      13.483   6.343  -4.262  0.00  0.00     0.024 H 
ATOM     76  H   LIG d   1      12.587   7.808  -3.789  0.00  0.00     0.024 H 
ENDBRANCH   5  73
BRANCH  10  77
ATOM     77  C   LIG d   1      12.010  10.407  -1.625  0.00  0.00    -0.059 C 
ATOM     78  H   LIG d   1      13.092  10.443  -1.755  0.00  0.00     0.024 H 
ATOM     79  H   LIG d   1      11.568   9.813  -2.425  0.00  0.00     0.024 H 
ATOM     80  H   LIG d   1      11.606  11.418  -1.658  0.00  0.00     0.024 H 
ENDBRANCH  10  77
BRANCH  21  81
ATOM     81  C   LIG d   1      11.790  12.189   0.371  0.00  0.00    -0.041 C 
ATOM     82  H   LIG d   1      12.338  12.125  -0.569  0.00  0.00     0.030 H 
BRANCH  81  83
ATOM     83  C   LIG d   1      12.753  12.576   1.496  0.00  0.00    -0.062 C 
ATOM     84  H   LIG d   1      13.588  13.141   1.081  0.00  0.00     0.023 H 
ATOM     85  H   LIG d   1      12.229  13.190   2.228  0.00  0.00     0.023 H 
ATOM     86  H   LIG d   1      13.129  11.674   1.979  0.00  0.00     0.023 H 
ENDBRANCH  81  83
BRANCH  81  87
ATOM     87  C   LIG d   1      10.693  13.249   0.252  0.00  0.00    -0.050 C 
ATOM     88  H   LIG d   1       9.718  12.762   0.233  0.00  0.00     0.027 H 
ATOM     89  H   LIG d   1      10.746  13.924   1.107  0.00  0.00     0.027 H 
BRANCH  87  90
ATOM     90  C   LIG d   1      10.891  14.044  -1.039  0.00  0.00    -0.053 C 
ATOM     91  H   LIG d   1      11.312  15.021  -0.804  0.00  0.00     0.026 H 
ATOM     92  H   LIG d   1      11.571  13.504  -1.698  0.00  0.00     0.026 H 
BRANCH  90  93
ATOM     93  C   LIG d   1       9.541  14.225  -1.738  0.00  0.00    -0.051 C 
ATOM     94  H   LIG d   1       8.766  13.710  -1.171  0.00  0.00     0.027 H 
ATOM     95  H   LIG d   1       9.302  15.287  -1.797  0.00  0.00     0.027 H 
BRANCH  93  96
ATOM     96  C   LIG d   1       9.615  13.639  -3.150  0.00  0.00    -0.047 C 
ATOM     97  H   LIG d   1       9.142  14.325  -3.852  0.00  0.00     0.029 H 
BRANCH  96  98
ATOM     98  C   LIG d   1      11.080  13.439  -3.542  0.00  0.00    -0.063 C 
ATOM     99  H   LIG d   1      11.132  12.932  -4.506  0.00  0.00     0.023 H 
ATOM    100  H   LIG d   1      11.572  14.408  -3.615  0.00  0.00     0.023 H 
ATOM    101  H   LIG d   1      11.580  12.833  -2.787  0.00  0.00     0.023 H 
ENDBRANCH  96  98
BRANCH  96 102
ATOM    102  C   LIG d   1       8.889  12.294  -3.182  0.00  0.00    -0.063 C 
ATOM    103  H   LIG d   1       7.873  12.438  -3.553  0.00  0.00     0.023 H 
ATOM    104  H   LIG d   1       9.422  11.608  -3.840  0.00  0.00     0.023 H 
ATOM    105  H   LIG d   1       8.851  11.877  -2.176  0.00  0.00     0.023 H 
ENDBRANCH  96 102
ENDBRANCH  93  96
ENDBRANCH  90  93
ENDBRANCH  87  90
ENDBRANCH  81  87
ENDBRANCH  21  81
TORSDOF 16
ENDMDL
MODEL 9
REMARK VINA RESULT:      -6.1      5.199      9.884
REMARK  16 active torsions:
REMARK  status: ('A' for Active; 'I' for Inactive)
REMARK    1  A    between atoms: C_1  and  C_2 
REMARK    2  A    between atoms: C_3  and  O_16 
REMARK    3  A    between atoms: O_16  and  C_17 
REMARK    4  A    between atoms: C_17  and  C_18 
REMARK    5  A    between atoms: C_18  and  O_20 
REMARK    6  A    between atoms: O_20  and  C_21 
REMARK    7  A    between atoms: C_25  and  C_53 
REMARK    8  A    between atoms: C_30  and  C_52 
REMARK    9  A    between atoms: C_41  and  C_43 
REMARK   10  A    between atoms: C_43  and  C_45 
REMARK   11  A    between atoms: C_43  and  C_46 
REMARK   12  A    between atoms: C_46  and  C_47 
REMARK   13  A    between atoms: C_47  and  C_48 
REMARK   14  A    between atoms: C_48  and  C_49 
REMARK   15  A    between atoms: C_49  and  C_50 
REMARK   16  A    between atoms: C_49  and  C_51 
ROOT
ATOM      1  C   LIG d   1       8.390  -2.878  -7.339  0.00  0.00     0.107 C 
ATOM      2  H   LIG d   1       7.892  -3.224  -6.433  0.00  0.00     0.074 H 
ATOM      3  C   LIG d   1       9.905  -2.898  -7.126  0.00  0.00    -0.015 C 
ATOM      4  C   LIG d   1      10.265  -2.052  -5.904  0.00  0.00    -0.040 C 
ATOM      5  C   LIG d   1       9.865  -0.595  -6.159  0.00  0.00    -0.008 C 
ATOM      6  C   LIG d   1      10.204   0.257  -4.947  0.00  0.00    -0.029 C 
ATOM      7  H   LIG d   1       9.936  -0.301  -4.049  0.00  0.00     0.031 H 
ATOM      8  C   LIG d   1      11.704   0.532  -4.912  0.00  0.00    -0.049 C 
ATOM      9  C   LIG d   1      12.087   1.456  -3.745  0.00  0.00    -0.047 C 
ATOM     10  C   LIG d   1      11.288   2.735  -3.908  0.00  0.00    -0.026 C 
ATOM     11  C   LIG d   1       9.791   2.361  -3.737  0.00  0.00    -0.032 C 
ATOM     12  H   LIG d   1       9.645   1.784  -2.823  0.00  0.00     0.031 H 
ATOM     13  C   LIG d   1       9.396   1.561  -4.964  0.00  0.00    -0.031 C 
ATOM     14  H   LIG d   1       9.606   2.124  -5.874  0.00  0.00     0.031 H 
ATOM     15  C   LIG d   1       7.908   1.204  -4.871  0.00  0.00    -0.031 C 
ATOM     16  C   LIG d   1       7.553   0.267  -5.988  0.00  0.00    -0.084 C 
ATOM     17  C   LIG d   1       8.416  -0.536  -6.542  0.00  0.00    -0.064 C 
ATOM     18  C   LIG d   1       7.938  -1.450  -7.657  0.00  0.00     0.006 C 
ATOM     19  C   LIG d   1       9.140   3.743  -3.604  0.00  0.00    -0.049 C 
ATOM     20  C   LIG d   1      10.131   4.507  -2.684  0.00  0.00    -0.049 C 
ATOM     21  C   LIG d   1      11.505   3.810  -2.846  0.00  0.00    -0.033 C 
ATOM     22  H   LIG d   1      11.811   3.354  -1.905  0.00  0.00     0.031 H 
ATOM     23  H   LIG d   1      10.236  -3.924  -6.967  0.00  0.00     0.030 H 
ATOM     24  H   LIG d   1      10.400  -2.491  -8.009  0.00  0.00     0.030 H 
ATOM     25  H   LIG d   1       9.733  -2.428  -5.032  0.00  0.00     0.028 H 
ATOM     26  H   LIG d   1      11.339  -2.108  -5.727  0.00  0.00     0.028 H 
ATOM     27  H   LIG d   1      12.236  -0.413  -4.806  0.00  0.00     0.027 H 
ATOM     28  H   LIG d   1      12.001   1.002  -5.850  0.00  0.00     0.027 H 
ATOM     29  H   LIG d   1      11.837   0.980  -2.797  0.00  0.00     0.027 H 
ATOM     30  H   LIG d   1      13.154   1.678  -3.781  0.00  0.00     0.027 H 
ATOM     31  H   LIG d   1       7.708   0.722  -3.915  0.00  0.00     0.031 H 
ATOM     32  H   LIG d   1       7.310   2.112  -4.954  0.00  0.00     0.031 H 
ATOM     33  H   LIG d   1       6.534   0.250  -6.342  0.00  0.00     0.057 H 
ATOM     34  H   LIG d   1       8.371  -1.130  -8.604  0.00  0.00     0.035 H 
ATOM     35  H   LIG d   1       6.850  -1.415  -7.719  0.00  0.00     0.035 H 
ATOM     36  H   LIG d   1       9.063   4.228  -4.576  0.00  0.00     0.027 H 
ATOM     37  H   LIG d   1       8.160   3.663  -3.133  0.00  0.00     0.027 H 
ATOM     38  H   LIG d   1      10.201   5.549  -2.994  0.00  0.00     0.027 H 
ATOM     39  H   LIG d   1       9.801   4.447  -1.646  0.00  0.00     0.027 H 
ENDROOT
BRANCH   1  40
ATOM     40  O   LIG d   1       8.050  -3.740  -8.428  0.00  0.00    -0.459 OA
BRANCH  40  41
ATOM     41  C   LIG d   1       7.841  -5.033  -8.138  0.00  0.00     0.345 C 
ATOM     42  O   LIG d   1       8.513  -5.887  -8.664  0.00  0.00    -0.247 OA
BRANCH  41  43
ATOM     43  C   LIG d   1       6.765  -5.420  -7.156  0.00  0.00     0.186 C 
ATOM     44  H   LIG d   1       7.129  -5.271  -6.139  0.00  0.00     0.082 H 
ATOM     45  H   LIG d   1       6.504  -6.469  -7.298  0.00  0.00     0.082 H 
BRANCH  43  46
ATOM     46  O   LIG d   1       5.609  -4.608  -7.371  0.00  0.00    -0.480 OA
BRANCH  46  47
ATOM     47  C   LIG d   1       5.320  -3.682  -6.422  0.00  0.00     0.128 A 
ATOM     48  C   LIG d   1       4.581  -2.560  -6.760  0.00  0.00     0.034 A 
ATOM     49  C   LIG d   1       4.289  -1.612  -5.791  0.00  0.00     0.146 A 
ATOM     50  C   LIG d   1       4.742  -1.806  -4.473  0.00  0.00     0.021 A 
ATOM     51  O   LIG d   1       3.573  -0.508  -6.097  0.00  0.00    -0.422 OA
ATOM     52  C   LIG d   1       5.488  -2.944  -4.150  0.00  0.00    -0.047 A 
ATOM     53  C   LIG d   1       4.423  -0.800  -3.457  0.00  0.00    -0.027 A 
ATOM     54  C   LIG d   1       5.770  -3.867  -5.117  0.00  0.00    -0.019 A 
ATOM     55  H   LIG d   1       5.839  -3.094  -3.140  0.00  0.00     0.063 H 
ATOM     56  H   LIG d   1       6.345  -4.746  -4.867  0.00  0.00     0.065 H 
ATOM     57  C   LIG d   1       3.706   0.289  -3.830  0.00  0.00     0.041 A 
ATOM     58  C   LIG d   1       4.769  -0.725  -1.988  0.00  0.00    -0.026 C 
ATOM     59  C   LIG d   1       3.278   0.415  -5.171  0.00  0.00     0.341 A 
ATOM     60  C   LIG d   1       3.492   1.200  -2.640  0.00  0.00    -0.020 C 
ATOM     61  O   LIG d   1       2.622   1.389  -5.493  0.00  0.00    -0.245 OA
ATOM     62  C   LIG d   1       4.525   0.748  -1.594  0.00  0.00    -0.045 C 
ATOM     63  H   LIG d   1       3.657   2.240  -2.925  0.00  0.00     0.032 H 
ATOM     64  H   LIG d   1       2.486   1.072  -2.241  0.00  0.00     0.032 H 
ATOM     65  H   LIG d   1       4.125   0.820  -0.583  0.00  0.00     0.027 H 
ATOM     66  H   LIG d   1       5.439   1.334  -1.693  0.00  0.00     0.027 H 
ATOM     67  H   LIG d   1       4.118  -1.383  -1.411  0.00  0.00     0.031 H 
ATOM     68  H   LIG d   1       5.814  -0.991  -1.830  0.00  0.00     0.031 H 
BRANCH  48  69
ATOM     69  C   LIG d   1       4.099  -2.368  -8.175  0.00  0.00    -0.033 C 
ATOM     70  H   LIG d   1       3.358  -1.570  -8.200  0.00  0.00     0.028 H 
ATOM     71  H   LIG d   1       4.943  -2.101  -8.812  0.00  0.00     0.028 H 
ATOM     72  H   LIG d   1       3.652  -3.294  -8.535  0.00  0.00     0.028 H 
ENDBRANCH  48  69
ENDBRANCH  46  47
ENDBRANCH  43  46
ENDBRANCH  41  43
ENDBRANCH  40  41
ENDBRANCH   1  40
BRANCH   5  73
ATOM     73  C   LIG d   1      10.691  -0.074  -7.336  0.00  0.00    -0.056 C 
ATOM     74  H   LIG d   1      11.015   0.946  -7.130  0.00  0.00     0.024 H 
ATOM     75  H   LIG d   1      11.566  -0.710  -7.476  0.00  0.00     0.024 H 
ATOM     76  H   LIG d   1      10.084  -0.087  -8.241  0.00  0.00     0.024 H 
ENDBRANCH   5  73
BRANCH  10  77
ATOM     77  C   LIG d   1      11.528   3.324  -5.299  0.00  0.00    -0.059 C 
ATOM     78  H   LIG d   1      12.296   4.096  -5.239  0.00  0.00     0.024 H 
ATOM     79  H   LIG d   1      11.857   2.535  -5.976  0.00  0.00     0.024 H 
ATOM     80  H   LIG d   1      10.603   3.761  -5.673  0.00  0.00     0.024 H 
ENDBRANCH  10  77
BRANCH  21  81
ATOM     81  C   LIG d   1      12.557   4.815  -3.317  0.00  0.00    -0.041 C 
ATOM     82  H   LIG d   1      12.676   4.737  -4.398  0.00  0.00     0.030 H 
BRANCH  81  83
ATOM     83  C   LIG d   1      13.892   4.514  -2.634  0.00  0.00    -0.062 C 
ATOM     84  H   LIG d   1      14.710   4.846  -3.273  0.00  0.00     0.023 H 
ATOM     85  H   LIG d   1      13.940   5.040  -1.681  0.00  0.00     0.023 H 
ATOM     86  H   LIG d   1      13.978   3.441  -2.463  0.00  0.00     0.023 H 
ENDBRANCH  81  83
BRANCH  81  87
ATOM     87  C   LIG d   1      12.107   6.232  -2.954  0.00  0.00    -0.050 C 
ATOM     88  H   LIG d   1      12.495   6.936  -3.691  0.00  0.00     0.027 H 
ATOM     89  H   LIG d   1      11.018   6.277  -2.947  0.00  0.00     0.027 H 
BRANCH  87  90
ATOM     90  C   LIG d   1      12.642   6.597  -1.569  0.00  0.00    -0.053 C 
ATOM     91  H   LIG d   1      12.367   5.820  -0.856  0.00  0.00     0.026 H 
ATOM     92  H   LIG d   1      13.727   6.686  -1.610  0.00  0.00     0.026 H 
BRANCH  90  93
ATOM     93  C   LIG d   1      12.039   7.933  -1.125  0.00  0.00    -0.051 C 
ATOM     94  H   LIG d   1      12.797   8.519  -0.605  0.00  0.00     0.027 H 
ATOM     95  H   LIG d   1      11.693   8.483  -2.000  0.00  0.00     0.027 H 
BRANCH  93  96
ATOM     96  C   LIG d   1      10.860   7.673  -0.186  0.00  0.00    -0.047 C 
ATOM     97  H   LIG d   1      10.867   8.409   0.618  0.00  0.00     0.029 H 
BRANCH  96  98
ATOM     98  C   LIG d   1       9.551   7.786  -0.968  0.00  0.00    -0.063 C 
ATOM     99  H   LIG d   1       9.574   7.100  -1.816  0.00  0.00     0.023 H 
ATOM    100  H   LIG d   1       8.715   7.530  -0.317  0.00  0.00     0.023 H 
ATOM    101  H   LIG d   1       9.430   8.807  -1.331  0.00  0.00     0.023 H 
ENDBRANCH  96  98
BRANCH  96 102
ATOM    102  C   LIG d   1      10.981   6.269   0.408  0.00  0.00    -0.063 C 
ATOM    103  H   LIG d   1      11.250   6.342   1.462  0.00  0.00     0.023 H 
ATOM    104  H   LIG d   1      10.027   5.750   0.312  0.00  0.00     0.023 H 
ATOM    105  H   LIG d   1      11.751   5.714  -0.126  0.00  0.00     0.023 H 
ENDBRANCH  96 102
ENDBRANCH  93  96
ENDBRANCH  90  93
ENDBRANCH  87  90
ENDBRANCH  81  87
ENDBRANCH  21  81
TORSDOF 16
ENDMDL
MODEL 10
REMARK VINA RESULT:      -6.1      4.294      9.437
REMARK  16 active torsions:
REMARK  status: ('A' for Active; 'I' for Inactive)
REMARK    1  A    between atoms: C_1  and  C_2 
REMARK    2  A    between atoms: C_3  and  O_16 
REMARK    3  A    between atoms: O_16  and  C_17 
REMARK    4  A    between atoms: C_17  and  C_18 
REMARK    5  A    between atoms: C_18  and  O_20 
REMARK    6  A    between atoms: O_20  and  C_21 
REMARK    7  A    between atoms: C_25  and  C_53 
REMARK    8  A    between atoms: C_30  and  C_52 
REMARK    9  A    between atoms: C_41  and  C_43 
REMARK   10  A    between atoms: C_43  and  C_45 
REMARK   11  A    between atoms: C_43  and  C_46 
REMARK   12  A    between atoms: C_46  and  C_47 
REMARK   13  A    between atoms: C_47  and  C_48 
REMARK   14  A    between atoms: C_48  and  C_49 
REMARK   15  A    between atoms: C_49  and  C_50 
REMARK   16  A    between atoms: C_49  and  C_51 
ROOT
ATOM      1  C   LIG d   1       7.409  -0.736  -8.989  0.00  0.00     0.107 C 
ATOM      2  H   LIG d   1       7.812  -1.559  -8.398  0.00  0.00     0.074 H 
ATOM      3  C   LIG d   1       8.557   0.017  -9.663  0.00  0.00    -0.015 C 
ATOM      4  C   LIG d   1       9.553   0.494  -8.605  0.00  0.00    -0.040 C 
ATOM      5  C   LIG d   1       8.858   1.482  -7.662  0.00  0.00    -0.008 C 
ATOM      6  C   LIG d   1       9.831   1.954  -6.595  0.00  0.00    -0.029 C 
ATOM      7  H   LIG d   1      10.414   1.096  -6.258  0.00  0.00     0.031 H 
ATOM      8  C   LIG d   1      10.790   2.983  -7.188  0.00  0.00    -0.049 C 
ATOM      9  C   LIG d   1      11.746   3.550  -6.127  0.00  0.00    -0.047 C 
ATOM     10  C   LIG d   1      10.889   4.152  -5.030  0.00  0.00    -0.026 C 
ATOM     11  C   LIG d   1      10.102   2.985  -4.375  0.00  0.00    -0.032 C 
ATOM     12  H   LIG d   1      10.779   2.174  -4.103  0.00  0.00     0.031 H 
ATOM     13  C   LIG d   1       9.072   2.526  -5.390  0.00  0.00    -0.031 C 
ATOM     14  H   LIG d   1       8.442   3.359  -5.702  0.00  0.00     0.031 H 
ATOM     15  C   LIG d   1       8.231   1.401  -4.777  0.00  0.00    -0.031 C 
ATOM     16  C   LIG d   1       7.332   0.824  -5.831  0.00  0.00    -0.084 C 
ATOM     17  C   LIG d   1       7.621   0.848  -7.100  0.00  0.00    -0.064 C 
ATOM     18  C   LIG d   1       6.638   0.220  -8.074  0.00  0.00     0.006 C 
ATOM     19  C   LIG d   1       9.543   3.656  -3.115  0.00  0.00    -0.049 C 
ATOM     20  C   LIG d   1      10.740   4.510  -2.616  0.00  0.00    -0.049 C 
ATOM     21  C   LIG d   1      11.634   4.776  -3.853  0.00  0.00    -0.033 C 
ATOM     22  H   LIG d   1      12.606   4.300  -3.727  0.00  0.00     0.031 H 
ATOM     23  H   LIG d   1       9.064  -0.646 -10.365  0.00  0.00     0.030 H 
ATOM     24  H   LIG d   1       8.159   0.878 -10.202  0.00  0.00     0.030 H 
ATOM     25  H   LIG d   1       9.914  -0.361  -8.034  0.00  0.00     0.028 H 
ATOM     26  H   LIG d   1      10.394   0.987  -9.093  0.00  0.00     0.028 H 
ATOM     27  H   LIG d   1      11.374   2.510  -7.977  0.00  0.00     0.027 H 
ATOM     28  H   LIG d   1      10.210   3.801  -7.617  0.00  0.00     0.027 H 
ATOM     29  H   LIG d   1      12.364   2.749  -5.719  0.00  0.00     0.027 H 
ATOM     30  H   LIG d   1      12.377   4.320  -6.570  0.00  0.00     0.027 H 
ATOM     31  H   LIG d   1       8.889   0.621  -4.394  0.00  0.00     0.031 H 
ATOM     32  H   LIG d   1       7.627   1.801  -3.962  0.00  0.00     0.031 H 
ATOM     33  H   LIG d   1       6.408   0.359  -5.522  0.00  0.00     0.057 H 
ATOM     34  H   LIG d   1       6.167   1.000  -8.673  0.00  0.00     0.035 H 
ATOM     35  H   LIG d   1       5.877  -0.332  -7.524  0.00  0.00     0.035 H 
ATOM     36  H   LIG d   1       8.692   4.291  -3.362  0.00  0.00     0.027 H 
ATOM     37  H   LIG d   1       9.265   2.908  -2.371  0.00  0.00     0.027 H 
ATOM     38  H   LIG d   1      10.382   5.452  -2.204  0.00  0.00     0.027 H 
ATOM     39  H   LIG d   1      11.302   3.961  -1.860  0.00  0.00     0.027 H 
ENDROOT
BRANCH   1  40
ATOM     40  O   LIG d   1       6.528  -1.255  -9.988  0.00  0.00    -0.459 OA
BRANCH  40  41
ATOM     41  C   LIG d   1       6.488  -2.589 -10.132  0.00  0.00     0.345 C 
ATOM     42  O   LIG d   1       6.726  -3.088 -11.205  0.00  0.00    -0.247 OA
BRANCH  41  43
ATOM     43  C   LIG d   1       6.146  -3.463  -8.953  0.00  0.00     0.186 C 
ATOM     44  H   LIG d   1       6.846  -3.268  -8.140  0.00  0.00     0.082 H 
ATOM     45  H   LIG d   1       6.215  -4.511  -9.246  0.00  0.00     0.082 H 
BRANCH  43  46
ATOM     46  O   LIG d   1       4.817  -3.176  -8.516  0.00  0.00    -0.480 OA
BRANCH  46  47
ATOM     47  C   LIG d   1       4.684  -2.500  -7.347  0.00  0.00     0.128 A 
ATOM     48  C   LIG d   1       3.918  -1.346  -7.304  0.00  0.00     0.034 A 
ATOM     49  C   LIG d   1       3.785  -0.653  -6.111  0.00  0.00     0.146 A 
ATOM     50  C   LIG d   1       4.424  -1.137  -4.954  0.00  0.00     0.021 A 
ATOM     51  O   LIG d   1       3.048   0.477  -6.046  0.00  0.00    -0.422 OA
ATOM     52  C   LIG d   1       5.193  -2.304  -5.016  0.00  0.00    -0.047 A 
ATOM     53  C   LIG d   1       4.271  -0.400  -3.697  0.00  0.00    -0.027 A 
ATOM     54  C   LIG d   1       5.318  -2.972  -6.200  0.00  0.00    -0.019 A 
ATOM     55  H   LIG d   1       5.687  -2.676  -4.130  0.00  0.00     0.063 H 
ATOM     56  H   LIG d   1       5.910  -3.873  -6.247  0.00  0.00     0.065 H 
ATOM     57  C   LIG d   1       3.523   0.732  -3.699  0.00  0.00     0.041 A 
ATOM     58  C   LIG d   1       4.830  -0.659  -2.318  0.00  0.00    -0.026 C 
ATOM     59  C   LIG d   1       2.905   1.155  -4.897  0.00  0.00     0.341 A 
ATOM     60  C   LIG d   1       3.498   1.338  -2.313  0.00  0.00    -0.020 C 
ATOM     61  O   LIG d   1       2.222   2.164  -4.887  0.00  0.00    -0.245 OA
ATOM     62  C   LIG d   1       4.668   0.679  -1.562  0.00  0.00    -0.045 C 
ATOM     63  H   LIG d   1       3.635   2.419  -2.370  0.00  0.00     0.032 H 
ATOM     64  H   LIG d   1       2.561   1.101  -1.812  0.00  0.00     0.032 H 
ATOM     65  H   LIG d   1       4.422   0.507  -0.514  0.00  0.00     0.027 H 
ATOM     66  H   LIG d   1       5.566   1.290  -1.655  0.00  0.00     0.027 H 
ATOM     67  H   LIG d   1       4.262  -1.445  -1.820  0.00  0.00     0.031 H 
ATOM     68  H   LIG d   1       5.883  -0.933  -2.380  0.00  0.00     0.031 H 
BRANCH  48  69
ATOM     69  C   LIG d   1       3.237  -0.842  -8.551  0.00  0.00    -0.033 C 
ATOM     70  H   LIG d   1       2.257  -0.442  -8.292  0.00  0.00     0.028 H 
ATOM     71  H   LIG d   1       3.843  -0.056  -9.003  0.00  0.00     0.028 H 
ATOM     72  H   LIG d   1       3.121  -1.662  -9.258  0.00  0.00     0.028 H 
ENDBRANCH  48  69
ENDBRANCH  46  47
ENDBRANCH  43  46
ENDBRANCH  41  43
ENDBRANCH  40  41
ENDBRANCH   1  40
BRANCH   5  73
ATOM     73  C   LIG d   1       8.439   2.704  -8.480  0.00  0.00    -0.056 C 
ATOM     74  H   LIG d   1       7.469   3.060  -8.131  0.00  0.00     0.024 H 
ATOM     75  H   LIG d   1       9.181   3.495  -8.358  0.00  0.00     0.024 H 
ATOM     76  H   LIG d   1       8.368   2.431  -9.533  0.00  0.00     0.024 H 
ENDBRANCH   5  73
BRANCH  10  77
ATOM     77  C   LIG d   1       9.918   5.170  -5.629  0.00  0.00    -0.059 C 
ATOM     78  H   LIG d   1       9.949   5.105  -6.717  0.00  0.00     0.024 H 
ATOM     79  H   LIG d   1       8.907   4.957  -5.281  0.00  0.00     0.024 H 
ATOM     80  H   LIG d   1      10.205   6.174  -5.316  0.00  0.00     0.024 H 
ENDBRANCH  10  77
BRANCH  21  81
ATOM     81  C   LIG d   1      11.802   6.281  -4.071  0.00  0.00    -0.041 C 
ATOM     82  H   LIG d   1      11.251   6.583  -4.962  0.00  0.00     0.030 H 
BRANCH  81  83
ATOM     83  C   LIG d   1      13.286   6.606  -4.255  0.00  0.00    -0.062 C 
ATOM     84  H   LIG d   1      13.800   6.510  -3.299  0.00  0.00     0.023 H 
ATOM     85  H   LIG d   1      13.723   5.914  -4.974  0.00  0.00     0.023 H 
ATOM     86  H   LIG d   1      13.391   7.627  -4.622  0.00  0.00     0.023 H 
ENDBRANCH  81  83
BRANCH  81  87
ATOM     87  C   LIG d   1      11.262   7.036  -2.855  0.00  0.00    -0.050 C 
ATOM     88  H   LIG d   1      10.840   6.325  -2.144  0.00  0.00     0.027 H 
ATOM     89  H   LIG d   1      12.073   7.588  -2.380  0.00  0.00     0.027 H 
BRANCH  87  90
ATOM     90  C   LIG d   1      10.174   8.013  -3.305  0.00  0.00    -0.053 C 
ATOM     91  H   LIG d   1       9.690   7.631  -4.203  0.00  0.00     0.026 H 
ATOM     92  H   LIG d   1       9.435   8.124  -2.512  0.00  0.00     0.026 H 
BRANCH  90  93
ATOM     93  C   LIG d   1      10.805   9.375  -3.606  0.00  0.00    -0.051 C 
ATOM     94  H   LIG d   1      10.603  10.060  -2.782  0.00  0.00     0.027 H 
ATOM     95  H   LIG d   1      11.883   9.258  -3.724  0.00  0.00     0.027 H 
BRANCH  93  96
ATOM     96  C   LIG d   1      10.209   9.939  -4.897  0.00  0.00    -0.047 C 
ATOM     97  H   LIG d   1      11.001  10.384  -5.499  0.00  0.00     0.029 H 
BRANCH  96  98
ATOM     98  C   LIG d   1       9.543   8.811  -5.686  0.00  0.00    -0.063 C 
ATOM     99  H   LIG d   1       9.962   7.853  -5.375  0.00  0.00     0.023 H 
ATOM    100  H   LIG d   1       8.470   8.817  -5.493  0.00  0.00     0.023 H 
ATOM    101  H   LIG d   1       9.721   8.955  -6.751  0.00  0.00     0.023 H 
ENDBRANCH  96  98
BRANCH  96 102
ATOM    102  C   LIG d   1       9.169  11.006  -4.555  0.00  0.00    -0.063 C 
ATOM    103  H   LIG d   1       9.560  11.991  -4.811  0.00  0.00     0.023 H 
ATOM    104  H   LIG d   1       8.256  10.820  -5.120  0.00  0.00     0.023 H 
ATOM    105  H   LIG d   1       8.949  10.970  -3.488  0.00  0.00     0.023 H 
ENDBRANCH  96 102
ENDBRANCH  93  96
ENDBRANCH  90  93
ENDBRANCH  87  90
ENDBRANCH  81  87
ENDBRANCH  21  81
TORSDOF 16
ENDMDL
