MODEL 1
REMARK VINA RESULT:      -6.4      0.000      0.000
REMARK  10 active torsions:
REMARK  status: ('A' for Active; 'I' for Inactive)
REMARK    1  A    between atoms: C_1  and  C_2 
REMARK    2  A    between atoms: C_2  and  N_3 
REMARK    3  A    between atoms: N_6  and  C_9 
REMARK    4  A    between atoms: C_9  and  C_10 
REMARK    5  A    between atoms: C_11  and  O_31 
REMARK    6  A    between atoms: C_19  and  C_21 
REMARK    7  A    between atoms: C_23  and  O_29 
REMARK    8  A    between atoms: C_26  and  O_27 
REMARK    9  A    between atoms: O_27  and  C_28 
REMARK   10  A    between atoms: O_29  and  C_30 
ROOT
ATOM      1  C   LIG d   1       8.148  -5.798  -5.057  0.00  0.00     0.081 A 
ATOM      2  C   LIG d   1       9.391  -5.606  -4.477  0.00  0.00     0.129 A 
ATOM      3  C   LIG d   1       9.710  -4.392  -3.875  0.00  0.00    -0.019 A 
ATOM      4  C   LIG d   1       8.801  -3.374  -3.850  0.00  0.00    -0.048 A 
ATOM      5  C   LIG d   1       7.537  -3.549  -4.432  0.00  0.00     0.019 A 
ATOM      6  C   LIG d   1       7.211  -4.775  -5.041  0.00  0.00     0.151 A 
ATOM      7  O   LIG d   1       5.998  -4.962  -5.606  0.00  0.00    -0.421 OA
ATOM      8  C   LIG d   1       5.071  -3.989  -5.605  0.00  0.00     0.345 A 
ATOM      9  O   LIG d   1       3.987  -4.184  -6.122  0.00  0.00    -0.244 OA
ATOM     10  C   LIG d   1       5.363  -2.695  -4.984  0.00  0.00     0.071 A 
ATOM     11  C   LIG d   1       6.591  -2.493  -4.412  0.00  0.00    -0.036 A 
ATOM     12  H   LIG d   1      10.682  -4.254  -3.426  0.00  0.00     0.065 H 
ATOM     13  H   LIG d   1       9.055  -2.435  -3.382  0.00  0.00     0.063 H 
ATOM     14  H   LIG d   1       6.833  -1.547  -3.952  0.00  0.00     0.063 H 
ENDROOT
BRANCH   1  15
ATOM     15  C   LIG d   1       7.813  -7.117  -5.705  0.00  0.00     0.001 C 
ATOM     16  H   LIG d   1       8.738  -7.687  -5.877  0.00  0.00     0.087 H 
ATOM     17  H   LIG d   1       7.310  -6.937  -6.666  0.00  0.00     0.087 H 
BRANCH  15  18
ATOM     18  N   LIG d   1       6.923  -7.884  -4.822  0.00  0.00     0.240 N 
ATOM     19  C   LIG d   1       5.775  -8.417  -5.567  0.00  0.00    -0.018 C 
ATOM     20  C   LIG d   1       4.833  -9.139  -4.600  0.00  0.00     0.039 C 
ATOM     21  H   LIG d   1       6.129  -9.125  -6.332  0.00  0.00     0.083 H 
ATOM     22  H   LIG d   1       5.236  -7.592  -6.054  0.00  0.00     0.083 H 
ATOM     23  N   LIG d   1       5.565 -10.219  -3.923  0.00  0.00    -0.293 N 
ATOM     24  H   LIG d   1       3.987  -9.565  -5.159  0.00  0.00     0.048 H 
ATOM     25  H   LIG d   1       4.457  -8.426  -3.852  0.00  0.00     0.048 H 
ATOM     26  C   LIG d   1       6.714  -9.684  -3.177  0.00  0.00     0.039 C 
ATOM     27  C   LIG d   1       7.655  -8.963  -4.145  0.00  0.00    -0.018 C 
ATOM     28  H   LIG d   1       6.359  -8.978  -2.413  0.00  0.00     0.048 H 
ATOM     29  H   LIG d   1       7.251 -10.512  -2.689  0.00  0.00     0.048 H 
ATOM     30  H   LIG d   1       8.032  -9.677  -4.892  0.00  0.00     0.083 H 
ATOM     31  H   LIG d   1       8.501  -8.537  -3.585  0.00  0.00     0.083 H 
ATOM     32  H   LIG d   1       6.540  -7.198  -4.052  0.00  0.00     0.204 HD
BRANCH  23  33
ATOM     33  C   LIG d   1       4.676 -10.985  -3.040  0.00  0.00    -0.004 C 
ATOM     34  H   LIG d   1       4.862 -10.699  -1.994  0.00  0.00     0.042 H 
ATOM     35  H   LIG d   1       4.871 -12.060  -3.166  0.00  0.00     0.042 H 
BRANCH  33  36
ATOM     36  C   LIG d   1       3.219 -10.686  -3.398  0.00  0.00    -0.052 C 
ATOM     37  H   LIG d   1       2.665 -11.630  -3.500  0.00  0.00     0.024 H 
ATOM     38  H   LIG d   1       3.181 -10.134  -4.348  0.00  0.00     0.024 H 
ATOM     39  H   LIG d   1       2.764 -10.077  -2.603  0.00  0.00     0.024 H 
ENDBRANCH  33  36
ENDBRANCH  23  33
ENDBRANCH  15  18
ENDBRANCH   1  15
BRANCH   2  40
ATOM     40  O   LIG d   1      10.305  -6.610  -4.495  0.00  0.00    -0.506 OA
ATOM     41  H   LIG d   1      10.451  -7.238  -3.604  0.00  0.00     0.292 HD
ENDBRANCH   2  40
BRANCH  10  42
ATOM     42  C   LIG d   1       4.346  -1.618  -4.980  0.00  0.00     0.034 A 
ATOM     43  C   LIG d   1       3.549  -1.409  -3.850  0.00  0.00     0.128 A 
ATOM     44  C   LIG d   1       2.600  -0.400  -3.852  0.00  0.00    -0.016 A 
ATOM     45  C   LIG d   1       2.440   0.400  -4.969  0.00  0.00    -0.017 A 
ATOM     46  H   LIG d   1       1.984  -0.237  -2.980  0.00  0.00     0.066 H 
ATOM     47  C   LIG d   1       3.228   0.197  -6.093  0.00  0.00     0.121 A 
ATOM     48  H   LIG d   1       1.698   1.185  -4.965  0.00  0.00     0.066 H 
ATOM     49  C   LIG d   1       4.177  -0.811  -6.104  0.00  0.00    -0.009 A 
ATOM     50  H   LIG d   1       4.787  -0.970  -6.981  0.00  0.00     0.066 H 
BRANCH  43  51
ATOM     51  O   LIG d   1       3.706  -2.194  -2.751  0.00  0.00    -0.494 OA
BRANCH  51  52
ATOM     52  C   LIG d   1       4.394  -1.622  -1.638  0.00  0.00     0.079 C 
ATOM     53  H   LIG d   1       3.893  -1.919  -0.705  0.00  0.00     0.066 H 
ATOM     54  H   LIG d   1       4.386  -0.526  -1.726  0.00  0.00     0.066 H 
ATOM     55  H   LIG d   1       5.434  -1.981  -1.626  0.00  0.00     0.066 H 
ENDBRANCH  51  52
ENDBRANCH  43  51
BRANCH  47  56
ATOM     56  O   LIG d   1       3.065   0.987  -7.188  0.00  0.00    -0.495 OA
BRANCH  56  57
ATOM     57  C   LIG d   1       2.720   0.335  -8.412  0.00  0.00     0.079 C 
ATOM     58  H   LIG d   1       1.945  -0.421  -8.218  0.00  0.00     0.066 H 
ATOM     59  H   LIG d   1       3.612  -0.154  -8.831  0.00  0.00     0.066 H 
ATOM     60  H   LIG d   1       2.339   1.077  -9.128  0.00  0.00     0.066 H 
ENDBRANCH  56  57
ENDBRANCH  47  56
ENDBRANCH  10  42
TORSDOF 10
ENDMDL
MODEL 2
REMARK VINA RESULT:      -6.0      5.727      8.376
REMARK  10 active torsions:
REMARK  status: ('A' for Active; 'I' for Inactive)
REMARK    1  A    between atoms: C_1  and  C_2 
REMARK    2  A    between atoms: C_2  and  N_3 
REMARK    3  A    between atoms: N_6  and  C_9 
REMARK    4  A    between atoms: C_9  and  C_10 
REMARK    5  A    between atoms: C_11  and  O_31 
REMARK    6  A    between atoms: C_19  and  C_21 
REMARK    7  A    between atoms: C_23  and  O_29 
REMARK    8  A    between atoms: C_26  and  O_27 
REMARK    9  A    between atoms: O_27  and  C_28 
REMARK   10  A    between atoms: O_29  and  C_30 
ROOT
ATOM      1  C   LIG d   1       5.376   0.078  -3.896  0.00  0.00     0.081 A 
ATOM      2  C   LIG d   1       4.571   0.576  -2.885  0.00  0.00     0.129 A 
ATOM      3  C   LIG d   1       3.226   0.845  -3.122  0.00  0.00    -0.019 A 
ATOM      4  C   LIG d   1       2.683   0.622  -4.354  0.00  0.00    -0.048 A 
ATOM      5  C   LIG d   1       3.483   0.118  -5.391  0.00  0.00     0.019 A 
ATOM      6  C   LIG d   1       4.842  -0.156  -5.155  0.00  0.00     0.151 A 
ATOM      7  O   LIG d   1       5.628  -0.643  -6.141  0.00  0.00    -0.421 OA
ATOM      8  C   LIG d   1       5.138  -0.878  -7.370  0.00  0.00     0.345 A 
ATOM      9  O   LIG d   1       5.867  -1.316  -8.240  0.00  0.00    -0.244 OA
ATOM     10  C   LIG d   1       3.728  -0.609  -7.664  0.00  0.00     0.071 A 
ATOM     11  C   LIG d   1       2.925  -0.111  -6.674  0.00  0.00    -0.036 A 
ATOM     12  H   LIG d   1       2.607   1.233  -2.326  0.00  0.00     0.065 H 
ATOM     13  H   LIG d   1       1.639   0.834  -4.531  0.00  0.00     0.063 H 
ATOM     14  H   LIG d   1       1.883   0.100  -6.867  0.00  0.00     0.063 H 
ENDROOT
BRANCH   1  15
ATOM     15  C   LIG d   1       6.831  -0.211  -3.628  0.00  0.00     0.001 C 
ATOM     16  H   LIG d   1       7.039  -1.271  -3.835  0.00  0.00     0.087 H 
ATOM     17  H   LIG d   1       7.062   0.009  -2.575  0.00  0.00     0.087 H 
BRANCH  15  18
ATOM     18  N   LIG d   1       7.665   0.629  -4.498  0.00  0.00     0.240 N 
ATOM     19  C   LIG d   1       8.020   1.889  -3.830  0.00  0.00    -0.018 C 
ATOM     20  C   LIG d   1       8.819   2.768  -4.795  0.00  0.00     0.039 C 
ATOM     21  H   LIG d   1       8.630   1.673  -2.940  0.00  0.00     0.083 H 
ATOM     22  H   LIG d   1       7.104   2.416  -3.527  0.00  0.00     0.083 H 
ATOM     23  N   LIG d   1      10.024   2.046  -5.227  0.00  0.00    -0.293 N 
ATOM     24  H   LIG d   1       9.112   3.700  -4.288  0.00  0.00     0.048 H 
ATOM     25  H   LIG d   1       8.201   3.007  -5.673  0.00  0.00     0.048 H 
ATOM     26  C   LIG d   1       9.668   0.787  -5.896  0.00  0.00     0.039 C 
ATOM     27  C   LIG d   1       8.870  -0.092  -4.930  0.00  0.00    -0.018 C 
ATOM     28  H   LIG d   1       9.060   1.003  -6.786  0.00  0.00     0.048 H 
ATOM     29  H   LIG d   1      10.586   0.261  -6.199  0.00  0.00     0.048 H 
ATOM     30  H   LIG d   1       9.490  -0.331  -4.053  0.00  0.00     0.083 H 
ATOM     31  H   LIG d   1       8.578  -1.023  -5.438  0.00  0.00     0.083 H 
ATOM     32  H   LIG d   1       7.076   0.875  -5.394  0.00  0.00     0.204 HD
BRANCH  23  33
ATOM     33  C   LIG d   1      10.858   2.887  -6.097  0.00  0.00    -0.004 C 
ATOM     34  H   LIG d   1      11.041   2.363  -7.047  0.00  0.00     0.042 H 
ATOM     35  H   LIG d   1      11.818   3.090  -5.600  0.00  0.00     0.042 H 
BRANCH  33  36
ATOM     36  C   LIG d   1      10.137   4.207  -6.375  0.00  0.00    -0.052 C 
ATOM     37  H   LIG d   1       9.106   4.149  -5.997  0.00  0.00     0.024 H 
ATOM     38  H   LIG d   1      10.120   4.395  -7.458  0.00  0.00     0.024 H 
ATOM     39  H   LIG d   1      10.667   5.027  -5.868  0.00  0.00     0.024 H 
ENDBRANCH  33  36
ENDBRANCH  23  33
ENDBRANCH  15  18
ENDBRANCH   1  15
BRANCH   2  40
ATOM     40  O   LIG d   1       5.097   0.803  -1.654  0.00  0.00    -0.506 OA
ATOM     41  H   LIG d   1       5.719   0.035  -1.171  0.00  0.00     0.292 HD
ENDBRANCH   2  40
BRANCH  10  42
ATOM     42  C   LIG d   1       3.182  -0.866  -9.017  0.00  0.00     0.034 A 
ATOM     43  C   LIG d   1       3.458   0.018 -10.065  0.00  0.00     0.128 A 
ATOM     44  C   LIG d   1       2.945  -0.228 -11.329  0.00  0.00    -0.016 A 
ATOM     45  C   LIG d   1       2.161  -1.344 -11.554  0.00  0.00    -0.017 A 
ATOM     46  H   LIG d   1       3.157   0.454 -12.139  0.00  0.00     0.066 H 
ATOM     47  C   LIG d   1       1.883  -2.224 -10.517  0.00  0.00     0.121 A 
ATOM     48  H   LIG d   1       1.762  -1.531 -12.540  0.00  0.00     0.066 H 
ATOM     49  C   LIG d   1       2.387  -1.987  -9.250  0.00  0.00    -0.009 A 
ATOM     50  H   LIG d   1       2.166  -2.671  -8.443  0.00  0.00     0.066 H 
BRANCH  43  51
ATOM     51  O   LIG d   1       4.229   1.116  -9.845  0.00  0.00    -0.494 OA
BRANCH  51  52
ATOM     52  C   LIG d   1       3.576   2.386  -9.887  0.00  0.00     0.079 C 
ATOM     53  H   LIG d   1       2.819   2.382 -10.685  0.00  0.00     0.066 H 
ATOM     54  H   LIG d   1       4.318   3.173 -10.088  0.00  0.00     0.066 H 
ATOM     55  H   LIG d   1       3.090   2.580  -8.920  0.00  0.00     0.066 H 
ENDBRANCH  51  52
ENDBRANCH  43  51
BRANCH  47  56
ATOM     56  O   LIG d   1       1.111  -3.320 -10.746  0.00  0.00    -0.495 OA
BRANCH  56  57
ATOM     57  C   LIG d   1       1.682  -4.592 -10.431  0.00  0.00     0.079 C 
ATOM     58  H   LIG d   1       0.891  -5.274 -10.086  0.00  0.00     0.066 H 
ATOM     59  H   LIG d   1       2.433  -4.470  -9.636  0.00  0.00     0.066 H 
ATOM     60  H   LIG d   1       2.162  -5.010 -11.328  0.00  0.00     0.066 H 
ENDBRANCH  56  57
ENDBRANCH  47  56
ENDBRANCH  10  42
TORSDOF 10
ENDMDL
MODEL 3
REMARK VINA RESULT:      -6.0      3.076      8.079
REMARK  10 active torsions:
REMARK  status: ('A' for Active; 'I' for Inactive)
REMARK    1  A    between atoms: C_1  and  C_2 
REMARK    2  A    between atoms: C_2  and  N_3 
REMARK    3  A    between atoms: N_6  and  C_9 
REMARK    4  A    between atoms: C_9  and  C_10 
REMARK    5  A    between atoms: C_11  and  O_31 
REMARK    6  A    between atoms: C_19  and  C_21 
REMARK    7  A    between atoms: C_23  and  O_29 
REMARK    8  A    between atoms: C_26  and  O_27 
REMARK    9  A    between atoms: O_27  and  C_28 
REMARK   10  A    between atoms: O_29  and  C_30 
ROOT
ATOM      1  C   LIG d   1       6.181  -2.167  -4.508  0.00  0.00     0.081 A 
ATOM      2  C   LIG d   1       7.459  -1.803  -4.117  0.00  0.00     0.129 A 
ATOM      3  C   LIG d   1       8.495  -2.733  -4.135  0.00  0.00    -0.019 A 
ATOM      4  C   LIG d   1       8.264  -4.016  -4.536  0.00  0.00    -0.048 A 
ATOM      5  C   LIG d   1       6.977  -4.405  -4.936  0.00  0.00     0.019 A 
ATOM      6  C   LIG d   1       5.928  -3.468  -4.920  0.00  0.00     0.151 A 
ATOM      7  O   LIG d   1       4.681  -3.824  -5.302  0.00  0.00    -0.421 OA
ATOM      8  C   LIG d   1       4.407  -5.076  -5.705  0.00  0.00     0.345 A 
ATOM      9  O   LIG d   1       3.275  -5.370  -6.043  0.00  0.00    -0.244 OA
ATOM     10  C   LIG d   1       5.466  -6.087  -5.739  0.00  0.00     0.071 A 
ATOM     11  C   LIG d   1       6.732  -5.738  -5.350  0.00  0.00    -0.036 A 
ATOM     12  H   LIG d   1       9.488  -2.437  -3.828  0.00  0.00     0.065 H 
ATOM     13  H   LIG d   1       9.073  -4.733  -4.547  0.00  0.00     0.063 H 
ATOM     14  H   LIG d   1       7.529  -6.467  -5.361  0.00  0.00     0.063 H 
ENDROOT
BRANCH   1  15
ATOM     15  C   LIG d   1       5.067  -1.152  -4.486  0.00  0.00     0.001 C 
ATOM     16  H   LIG d   1       5.438  -0.210  -4.058  0.00  0.00     0.087 H 
ATOM     17  H   LIG d   1       4.237  -1.532  -3.872  0.00  0.00     0.087 H 
BRANCH  15  18
ATOM     18  N   LIG d   1       4.595  -0.915  -5.857  0.00  0.00     0.240 N 
ATOM     19  C   LIG d   1       3.364  -0.113  -5.858  0.00  0.00    -0.018 C 
ATOM     20  C   LIG d   1       2.861   0.044  -7.296  0.00  0.00     0.039 C 
ATOM     21  H   LIG d   1       3.571   0.880  -5.431  0.00  0.00     0.083 H 
ATOM     22  H   LIG d   1       2.595  -0.618  -5.255  0.00  0.00     0.083 H 
ATOM     23  N   LIG d   1       3.905   0.685  -8.108  0.00  0.00    -0.293 N 
ATOM     24  H   LIG d   1       1.956   0.669  -7.303  0.00  0.00     0.048 H 
ATOM     25  H   LIG d   1       2.627  -0.946  -7.714  0.00  0.00     0.048 H 
ATOM     26  C   LIG d   1       5.136  -0.118  -8.107  0.00  0.00     0.039 C 
ATOM     27  C   LIG d   1       5.638  -0.274  -6.670  0.00  0.00    -0.018 C 
ATOM     28  H   LIG d   1       4.928  -1.110  -8.535  0.00  0.00     0.048 H 
ATOM     29  H   LIG d   1       5.904   0.388  -8.712  0.00  0.00     0.048 H 
ATOM     30  H   LIG d   1       5.872   0.716  -6.253  0.00  0.00     0.083 H 
ATOM     31  H   LIG d   1       6.543  -0.899  -6.663  0.00  0.00     0.083 H 
ATOM     32  H   LIG d   1       4.364  -1.891  -6.308  0.00  0.00     0.204 HD
BRANCH  23  33
ATOM     33  C   LIG d   1       3.433   0.922  -9.479  0.00  0.00    -0.004 C 
ATOM     34  H   LIG d   1       2.364   0.671  -9.547  0.00  0.00     0.042 H 
ATOM     35  H   LIG d   1       4.002   0.291 -10.177  0.00  0.00     0.042 H 
BRANCH  33  36
ATOM     36  C   LIG d   1       3.635   2.394  -9.841  0.00  0.00    -0.052 C 
ATOM     37  H   LIG d   1       4.702   2.583 -10.029  0.00  0.00     0.024 H 
ATOM     38  H   LIG d   1       3.292   3.027  -9.010  0.00  0.00     0.024 H 
ATOM     39  H   LIG d   1       3.055   2.632 -10.746  0.00  0.00     0.024 H 
ENDBRANCH  33  36
ENDBRANCH  23  33
ENDBRANCH  15  18
ENDBRANCH   1  15
BRANCH   2  40
ATOM     40  O   LIG d   1       7.703  -0.529  -3.714  0.00  0.00    -0.506 OA
ATOM     41  H   LIG d   1       7.573   0.305  -4.419  0.00  0.00     0.292 HD
ENDBRANCH   2  40
BRANCH  10  42
ATOM     42  C   LIG d   1       5.170  -7.469  -6.183  0.00  0.00     0.034 A 
ATOM     43  C   LIG d   1       5.193  -7.790  -7.544  0.00  0.00     0.128 A 
ATOM     44  C   LIG d   1       4.916  -9.084  -7.952  0.00  0.00    -0.016 A 
ATOM     45  C   LIG d   1       4.617 -10.058  -7.017  0.00  0.00    -0.017 A 
ATOM     46  H   LIG d   1       4.932  -9.333  -9.003  0.00  0.00     0.066 H 
ATOM     47  C   LIG d   1       4.593  -9.746  -5.665  0.00  0.00     0.121 A 
ATOM     48  H   LIG d   1       4.401 -11.065  -7.340  0.00  0.00     0.066 H 
ATOM     49  C   LIG d   1       4.864  -8.455  -5.245  0.00  0.00    -0.009 A 
ATOM     50  H   LIG d   1       4.842  -8.212  -4.193  0.00  0.00     0.066 H 
BRANCH  43  51
ATOM     51  O   LIG d   1       5.486  -6.833  -8.464  0.00  0.00    -0.494 OA
BRANCH  51  52
ATOM     52  C   LIG d   1       4.436  -6.445  -9.352  0.00  0.00     0.079 C 
ATOM     53  H   LIG d   1       3.994  -5.499  -9.005  0.00  0.00     0.066 H 
ATOM     54  H   LIG d   1       3.662  -7.226  -9.370  0.00  0.00     0.066 H 
ATOM     55  H   LIG d   1       4.844  -6.310 -10.365  0.00  0.00     0.066 H 
ENDBRANCH  51  52
ENDBRANCH  43  51
BRANCH  47  56
ATOM     56  O   LIG d   1       4.299 -10.708  -4.751  0.00  0.00    -0.495 OA
BRANCH  56  57
ATOM     57  C   LIG d   1       3.767 -10.271  -3.498  0.00  0.00     0.079 C 
ATOM     58  H   LIG d   1       4.593 -10.005  -2.822  0.00  0.00     0.066 H 
ATOM     59  H   LIG d   1       3.172 -11.080  -3.050  0.00  0.00     0.066 H 
ATOM     60  H   LIG d   1       3.127  -9.391  -3.658  0.00  0.00     0.066 H 
ENDBRANCH  56  57
ENDBRANCH  47  56
ENDBRANCH  10  42
TORSDOF 10
ENDMDL
MODEL 4
REMARK VINA RESULT:      -5.8      5.305      8.391
REMARK  10 active torsions:
REMARK  status: ('A' for Active; 'I' for Inactive)
REMARK    1  A    between atoms: C_1  and  C_2 
REMARK    2  A    between atoms: C_2  and  N_3 
REMARK    3  A    between atoms: N_6  and  C_9 
REMARK    4  A    between atoms: C_9  and  C_10 
REMARK    5  A    between atoms: C_11  and  O_31 
REMARK    6  A    between atoms: C_19  and  C_21 
REMARK    7  A    between atoms: C_23  and  O_29 
REMARK    8  A    between atoms: C_26  and  O_27 
REMARK    9  A    between atoms: O_27  and  C_28 
REMARK   10  A    between atoms: O_29  and  C_30 
ROOT
ATOM      1  C   LIG d   1       4.996  -0.971  -4.599  0.00  0.00     0.081 A 
ATOM      2  C   LIG d   1       4.176  -1.013  -3.483  0.00  0.00     0.129 A 
ATOM      3  C   LIG d   1       4.405  -0.161  -2.406  0.00  0.00    -0.019 A 
ATOM      4  C   LIG d   1       5.442   0.725  -2.434  0.00  0.00    -0.048 A 
ATOM      5  C   LIG d   1       6.285   0.782  -3.555  0.00  0.00     0.019 A 
ATOM      6  C   LIG d   1       6.056  -0.076  -4.646  0.00  0.00     0.151 A 
ATOM      7  O   LIG d   1       6.856  -0.035  -5.734  0.00  0.00    -0.421 OA
ATOM      8  C   LIG d   1       7.889   0.821  -5.807  0.00  0.00     0.345 A 
ATOM      9  O   LIG d   1       8.594   0.837  -6.799  0.00  0.00    -0.244 OA
ATOM     10  C   LIG d   1       8.168   1.735  -4.697  0.00  0.00     0.071 A 
ATOM     11  C   LIG d   1       7.366   1.698  -3.587  0.00  0.00    -0.036 A 
ATOM     12  H   LIG d   1       3.759  -0.202  -1.541  0.00  0.00     0.065 H 
ATOM     13  H   LIG d   1       5.615   1.382  -1.595  0.00  0.00     0.063 H 
ATOM     14  H   LIG d   1       7.553   2.358  -2.753  0.00  0.00     0.063 H 
ENDROOT
BRANCH   1  15
ATOM     15  C   LIG d   1       4.738  -1.897  -5.760  0.00  0.00     0.001 C 
ATOM     16  H   LIG d   1       3.801  -2.445  -5.590  0.00  0.00     0.087 H 
ATOM     17  H   LIG d   1       5.569  -2.611  -5.852  0.00  0.00     0.087 H 
BRANCH  15  18
ATOM     18  N   LIG d   1       4.629  -1.111  -6.996  0.00  0.00     0.240 N 
ATOM     19  C   LIG d   1       4.751  -1.972  -8.180  0.00  0.00    -0.018 C 
ATOM     20  C   LIG d   1       4.712  -1.108  -9.444  0.00  0.00     0.039 C 
ATOM     21  H   LIG d   1       3.917  -2.690  -8.201  0.00  0.00     0.083 H 
ATOM     22  H   LIG d   1       5.704  -2.519  -8.141  0.00  0.00     0.083 H 
ATOM     23  N   LIG d   1       3.453  -0.350  -9.476  0.00  0.00    -0.293 N 
ATOM     24  H   LIG d   1       4.774  -1.753 -10.333  0.00  0.00     0.048 H 
ATOM     25  H   LIG d   1       5.561  -0.409  -9.437  0.00  0.00     0.048 H 
ATOM     26  C   LIG d   1       3.331   0.512  -8.291  0.00  0.00     0.039 C 
ATOM     27  C   LIG d   1       3.370  -0.352  -7.029  0.00  0.00    -0.018 C 
ATOM     28  H   LIG d   1       4.165   1.230  -8.272  0.00  0.00     0.048 H 
ATOM     29  H   LIG d   1       2.378   1.059  -8.333  0.00  0.00     0.048 H 
ATOM     30  H   LIG d   1       2.520  -1.051  -7.035  0.00  0.00     0.083 H 
ATOM     31  H   LIG d   1       3.308   0.293  -6.140  0.00  0.00     0.083 H 
ATOM     32  H   LIG d   1       5.460  -0.391  -7.013  0.00  0.00     0.204 HD
BRANCH  23  33
ATOM     33  C   LIG d   1       3.344   0.436 -10.712  0.00  0.00    -0.004 C 
ATOM     34  H   LIG d   1       2.309   0.395 -11.081  0.00  0.00     0.042 H 
ATOM     35  H   LIG d   1       4.021   0.020 -11.472  0.00  0.00     0.042 H 
BRANCH  33  36
ATOM     36  C   LIG d   1       3.727   1.889 -10.429  0.00  0.00    -0.052 C 
ATOM     37  H   LIG d   1       3.809   2.043  -9.343  0.00  0.00     0.024 H 
ATOM     38  H   LIG d   1       2.956   2.558 -10.836  0.00  0.00     0.024 H 
ATOM     39  H   LIG d   1       4.694   2.112 -10.904  0.00  0.00     0.024 H 
ENDBRANCH  33  36
ENDBRANCH  23  33
ENDBRANCH  15  18
ENDBRANCH   1  15
BRANCH   2  40
ATOM     40  O   LIG d   1       3.140  -1.890  -3.441  0.00  0.00    -0.506 OA
ATOM     41  H   LIG d   1       2.203  -1.610  -2.939  0.00  0.00     0.292 HD
ENDBRANCH   2  40
BRANCH  10  42
ATOM     42  C   LIG d   1       9.306   2.681  -4.771  0.00  0.00     0.034 A 
ATOM     43  C   LIG d   1      10.611   2.228  -4.555  0.00  0.00     0.128 A 
ATOM     44  C   LIG d   1      11.671   3.116  -4.626  0.00  0.00    -0.016 A 
ATOM     45  C   LIG d   1      11.440   4.450  -4.909  0.00  0.00    -0.017 A 
ATOM     46  H   LIG d   1      12.679   2.768  -4.459  0.00  0.00     0.066 H 
ATOM     47  C   LIG d   1      10.147   4.906  -5.124  0.00  0.00     0.121 A 
ATOM     48  H   LIG d   1      12.269   5.139  -4.963  0.00  0.00     0.066 H 
ATOM     49  C   LIG d   1       9.079   4.027  -5.052  0.00  0.00    -0.009 A 
ATOM     50  H   LIG d   1       8.073   4.384  -5.216  0.00  0.00     0.066 H 
BRANCH  43  51
ATOM     51  O   LIG d   1      10.839   0.917  -4.276  0.00  0.00    -0.494 OA
BRANCH  51  52
ATOM     52  C   LIG d   1      12.201   0.487  -4.249  0.00  0.00     0.079 C 
ATOM     53  H   LIG d   1      12.262  -0.508  -3.786  0.00  0.00     0.066 H 
ATOM     54  H   LIG d   1      12.799   1.201  -3.663  0.00  0.00     0.066 H 
ATOM     55  H   LIG d   1      12.592   0.439  -5.276  0.00  0.00     0.066 H 
ENDBRANCH  51  52
ENDBRANCH  43  51
BRANCH  47  56
ATOM     56  O   LIG d   1       9.927   6.219  -5.403  0.00  0.00    -0.495 OA
BRANCH  56  57
ATOM     57  C   LIG d   1      10.074   7.143  -4.323  0.00  0.00     0.079 C 
ATOM     58  H   LIG d   1       9.098   7.303  -3.841  0.00  0.00     0.066 H 
ATOM     59  H   LIG d   1      10.453   8.101  -4.709  0.00  0.00     0.066 H 
ATOM     60  H   LIG d   1      10.784   6.739  -3.587  0.00  0.00     0.066 H 
ENDBRANCH  56  57
ENDBRANCH  47  56
ENDBRANCH  10  42
TORSDOF 10
ENDMDL
MODEL 5
REMARK VINA RESULT:      -5.8      5.070      7.116
REMARK  10 active torsions:
REMARK  status: ('A' for Active; 'I' for Inactive)
REMARK    1  A    between atoms: C_1  and  C_2 
REMARK    2  A    between atoms: C_2  and  N_3 
REMARK    3  A    between atoms: N_6  and  C_9 
REMARK    4  A    between atoms: C_9  and  C_10 
REMARK    5  A    between atoms: C_11  and  O_31 
REMARK    6  A    between atoms: C_19  and  C_21 
REMARK    7  A    between atoms: C_23  and  O_29 
REMARK    8  A    between atoms: C_26  and  O_27 
REMARK    9  A    between atoms: O_27  and  C_28 
REMARK   10  A    between atoms: O_29  and  C_30 
ROOT
ATOM      1  C   LIG d   1       5.661  -1.820  -3.643  0.00  0.00     0.081 A 
ATOM      2  C   LIG d   1       4.508  -1.648  -2.896  0.00  0.00     0.129 A 
ATOM      3  C   LIG d   1       4.220  -0.415  -2.316  0.00  0.00    -0.019 A 
ATOM      4  C   LIG d   1       5.072   0.639  -2.475  0.00  0.00    -0.048 A 
ATOM      5  C   LIG d   1       6.246   0.484  -3.228  0.00  0.00     0.019 A 
ATOM      6  C   LIG d   1       6.540  -0.760  -3.816  0.00  0.00     0.151 A 
ATOM      7  O   LIG d   1       7.664  -0.928  -4.546  0.00  0.00    -0.421 OA
ATOM      8  C   LIG d   1       8.533   0.081  -4.729  0.00  0.00     0.345 A 
ATOM      9  O   LIG d   1       9.539  -0.098  -5.390  0.00  0.00    -0.244 OA
ATOM     10  C   LIG d   1       8.271   1.395  -4.137  0.00  0.00     0.071 A 
ATOM     11  C   LIG d   1       7.136   1.575  -3.392  0.00  0.00    -0.036 A 
ATOM     12  H   LIG d   1       3.317  -0.291  -1.736  0.00  0.00     0.065 H 
ATOM     13  H   LIG d   1       4.843   1.592  -2.022  0.00  0.00     0.063 H 
ATOM     14  H   LIG d   1       6.923   2.532  -2.941  0.00  0.00     0.063 H 
ENDROOT
BRANCH   1  15
ATOM     15  C   LIG d   1       5.962  -3.159  -4.268  0.00  0.00     0.001 C 
ATOM     16  H   LIG d   1       5.878  -3.946  -3.506  0.00  0.00     0.087 H 
ATOM     17  H   LIG d   1       6.983  -3.152  -4.677  0.00  0.00     0.087 H 
BRANCH  15  18
ATOM     18  N   LIG d   1       5.003  -3.420  -5.350  0.00  0.00     0.240 N 
ATOM     19  C   LIG d   1       5.389  -2.711  -6.578  0.00  0.00    -0.018 C 
ATOM     20  C   LIG d   1       4.325  -2.944  -7.654  0.00  0.00     0.039 C 
ATOM     21  H   LIG d   1       6.359  -3.091  -6.933  0.00  0.00     0.083 H 
ATOM     22  H   LIG d   1       5.472  -1.634  -6.372  0.00  0.00     0.083 H 
ATOM     23  N   LIG d   1       4.191  -4.386  -7.902  0.00  0.00    -0.293 N 
ATOM     24  H   LIG d   1       4.626  -2.439  -8.584  0.00  0.00     0.048 H 
ATOM     25  H   LIG d   1       3.361  -2.539  -7.312  0.00  0.00     0.048 H 
ATOM     26  C   LIG d   1       3.804  -5.094  -6.673  0.00  0.00     0.039 C 
ATOM     27  C   LIG d   1       4.868  -4.862  -5.598  0.00  0.00    -0.018 C 
ATOM     28  H   LIG d   1       2.834  -4.714  -6.320  0.00  0.00     0.048 H 
ATOM     29  H   LIG d   1       3.721  -6.172  -6.882  0.00  0.00     0.048 H 
ATOM     30  H   LIG d   1       5.832  -5.268  -5.940  0.00  0.00     0.083 H 
ATOM     31  H   LIG d   1       4.567  -5.367  -4.668  0.00  0.00     0.083 H 
ATOM     32  H   LIG d   1       4.023  -3.037  -5.031  0.00  0.00     0.204 HD
BRANCH  23  33
ATOM     33  C   LIG d   1       3.232  -4.647  -8.983  0.00  0.00    -0.004 C 
ATOM     34  H   LIG d   1       3.512  -4.062  -9.871  0.00  0.00     0.042 H 
ATOM     35  H   LIG d   1       2.222  -4.357  -8.657  0.00  0.00     0.042 H 
BRANCH  33  36
ATOM     36  C   LIG d   1       3.246  -6.137  -9.330  0.00  0.00    -0.052 C 
ATOM     37  H   LIG d   1       3.807  -6.688  -8.561  0.00  0.00     0.024 H 
ATOM     38  H   LIG d   1       3.727  -6.281 -10.308  0.00  0.00     0.024 H 
ATOM     39  H   LIG d   1       2.213  -6.514  -9.370  0.00  0.00     0.024 H 
ENDBRANCH  33  36
ENDBRANCH  23  33
ENDBRANCH  15  18
ENDBRANCH   1  15
BRANCH   2  40
ATOM     40  O   LIG d   1       3.651  -2.687  -2.729  0.00  0.00    -0.506 OA
ATOM     41  H   LIG d   1       3.820  -3.632  -3.267  0.00  0.00     0.292 HD
ENDBRANCH   2  40
BRANCH  10  42
ATOM     42  C   LIG d   1       9.225   2.511  -4.336  0.00  0.00     0.034 A 
ATOM     43  C   LIG d   1       9.290   3.167  -5.569  0.00  0.00     0.128 A 
ATOM     44  C   LIG d   1      10.183   4.211  -5.749  0.00  0.00    -0.016 A 
ATOM     45  C   LIG d   1      11.009   4.603  -4.711  0.00  0.00    -0.017 A 
ATOM     46  H   LIG d   1      10.236   4.718  -6.701  0.00  0.00     0.066 H 
ATOM     47  C   LIG d   1      10.949   3.956  -3.485  0.00  0.00     0.121 A 
ATOM     48  H   LIG d   1      11.704   5.417  -4.857  0.00  0.00     0.066 H 
ATOM     49  C   LIG d   1      10.063   2.909  -3.296  0.00  0.00    -0.009 A 
ATOM     50  H   LIG d   1      10.019   2.404  -2.341  0.00  0.00     0.066 H 
BRANCH  43  51
ATOM     51  O   LIG d   1       8.479   2.781  -6.590  0.00  0.00    -0.494 OA
BRANCH  51  52
ATOM     52  C   LIG d   1       9.090   2.593  -7.868  0.00  0.00     0.079 C 
ATOM     53  H   LIG d   1       9.355   1.533  -7.994  0.00  0.00     0.066 H 
ATOM     54  H   LIG d   1       9.999   3.209  -7.934  0.00  0.00     0.066 H 
ATOM     55  H   LIG d   1       8.386   2.892  -8.658  0.00  0.00     0.066 H 
ENDBRANCH  51  52
ENDBRANCH  43  51
BRANCH  47  56
ATOM     56  O   LIG d   1      11.763   4.347  -2.469  0.00  0.00    -0.495 OA
BRANCH  56  57
ATOM     57  C   LIG d   1      11.164   5.099  -1.412  0.00  0.00     0.079 C 
ATOM     58  H   LIG d   1      11.065   4.464  -0.520  0.00  0.00     0.066 H 
ATOM     59  H   LIG d   1      10.169   5.447  -1.727  0.00  0.00     0.066 H 
ATOM     60  H   LIG d   1      11.796   5.968  -1.175  0.00  0.00     0.066 H 
ENDBRANCH  56  57
ENDBRANCH  47  56
ENDBRANCH  10  42
TORSDOF 10
ENDMDL
MODEL 6
REMARK VINA RESULT:      -5.7      5.442      8.560
REMARK  10 active torsions:
REMARK  status: ('A' for Active; 'I' for Inactive)
REMARK    1  A    between atoms: C_1  and  C_2 
REMARK    2  A    between atoms: C_2  and  N_3 
REMARK    3  A    between atoms: N_6  and  C_9 
REMARK    4  A    between atoms: C_9  and  C_10 
REMARK    5  A    between atoms: C_11  and  O_31 
REMARK    6  A    between atoms: C_19  and  C_21 
REMARK    7  A    between atoms: C_23  and  O_29 
REMARK    8  A    between atoms: C_26  and  O_27 
REMARK    9  A    between atoms: O_27  and  C_28 
REMARK   10  A    between atoms: O_29  and  C_30 
ROOT
ATOM      1  C   LIG d   1       4.499  -0.639  -4.326  0.00  0.00     0.081 A 
ATOM      2  C   LIG d   1       3.710  -0.274  -3.247  0.00  0.00     0.129 A 
ATOM      3  C   LIG d   1       4.175   0.646  -2.312  0.00  0.00    -0.019 A 
ATOM      4  C   LIG d   1       5.415   1.201  -2.446  0.00  0.00    -0.048 A 
ATOM      5  C   LIG d   1       6.229   0.844  -3.531  0.00  0.00     0.019 A 
ATOM      6  C   LIG d   1       5.762  -0.085  -4.479  0.00  0.00     0.151 A 
ATOM      7  O   LIG d   1       6.531  -0.440  -5.532  0.00  0.00    -0.421 OA
ATOM      8  C   LIG d   1       7.758   0.079  -5.705  0.00  0.00     0.345 A 
ATOM      9  O   LIG d   1       8.430  -0.258  -6.661  0.00  0.00    -0.244 OA
ATOM     10  C   LIG d   1       8.288   1.051  -4.745  0.00  0.00     0.071 A 
ATOM     11  C   LIG d   1       7.519   1.414  -3.672  0.00  0.00    -0.036 A 
ATOM     12  H   LIG d   1       3.552   0.924  -1.475  0.00  0.00     0.065 H 
ATOM     13  H   LIG d   1       5.770   1.914  -1.716  0.00  0.00     0.063 H 
ATOM     14  H   LIG d   1       7.889   2.125  -2.948  0.00  0.00     0.063 H 
ENDROOT
BRANCH   1  15
ATOM     15  C   LIG d   1       3.985  -1.635  -5.334  0.00  0.00     0.001 C 
ATOM     16  H   LIG d   1       2.945  -1.898  -5.092  0.00  0.00     0.087 H 
ATOM     17  H   LIG d   1       4.608  -2.541  -5.304  0.00  0.00     0.087 H 
BRANCH  15  18
ATOM     18  N   LIG d   1       4.042  -1.045  -6.678  0.00  0.00     0.240 N 
ATOM     19  C   LIG d   1       4.019  -2.089  -7.712  0.00  0.00    -0.018 C 
ATOM     20  C   LIG d   1       4.159  -1.440  -9.092  0.00  0.00     0.039 C 
ATOM     21  H   LIG d   1       3.066  -2.637  -7.660  0.00  0.00     0.083 H 
ATOM     22  H   LIG d   1       4.852  -2.787  -7.549  0.00  0.00     0.083 H 
ATOM     23  N   LIG d   1       3.064  -0.480  -9.291  0.00  0.00    -0.293 N 
ATOM     24  H   LIG d   1       4.112  -2.216  -9.870  0.00  0.00     0.048 H 
ATOM     25  H   LIG d   1       5.123  -0.914  -9.154  0.00  0.00     0.048 H 
ATOM     26  C   LIG d   1       3.088   0.564  -8.257  0.00  0.00     0.039 C 
ATOM     27  C   LIG d   1       2.947  -0.085  -6.878  0.00  0.00    -0.018 C 
ATOM     28  H   LIG d   1       4.040   1.112  -8.310  0.00  0.00     0.048 H 
ATOM     29  H   LIG d   1       2.254   1.262  -8.422  0.00  0.00     0.048 H 
ATOM     30  H   LIG d   1       1.982  -0.610  -6.816  0.00  0.00     0.083 H 
ATOM     31  H   LIG d   1       2.994   0.691  -6.100  0.00  0.00     0.083 H 
ATOM     32  H   LIG d   1       4.993  -0.500  -6.767  0.00  0.00     0.204 HD
BRANCH  23  33
ATOM     33  C   LIG d   1       3.121   0.111 -10.635  0.00  0.00    -0.004 C 
ATOM     34  H   LIG d   1       2.100   0.318 -10.988  0.00  0.00     0.042 H 
ATOM     35  H   LIG d   1       3.610  -0.593 -11.325  0.00  0.00     0.042 H 
BRANCH  33  36
ATOM     36  C   LIG d   1       3.918   1.415 -10.587  0.00  0.00    -0.052 C 
ATOM     37  H   LIG d   1       3.232   2.259 -10.428  0.00  0.00     0.024 H 
ATOM     38  H   LIG d   1       4.453   1.553 -11.538  0.00  0.00     0.024 H 
ATOM     39  H   LIG d   1       4.644   1.371  -9.762  0.00  0.00     0.024 H 
ENDBRANCH  33  36
ENDBRANCH  23  33
ENDBRANCH  15  18
ENDBRANCH   1  15
BRANCH   2  40
ATOM     40  O   LIG d   1       2.475  -0.818  -3.101  0.00  0.00    -0.506 OA
ATOM     41  H   LIG d   1       2.149  -1.186  -2.118  0.00  0.00     0.292 HD
ENDBRANCH   2  40
BRANCH  10  42
ATOM     42  C   LIG d   1       9.640   1.628  -4.930  0.00  0.00     0.034 A 
ATOM     43  C   LIG d   1       9.844   2.658  -5.853  0.00  0.00     0.128 A 
ATOM     44  C   LIG d   1      11.111   3.193  -6.022  0.00  0.00    -0.016 A 
ATOM     45  C   LIG d   1      12.172   2.710  -5.278  0.00  0.00    -0.017 A 
ATOM     46  H   LIG d   1      11.270   3.988  -6.735  0.00  0.00     0.066 H 
ATOM     47  C   LIG d   1      11.976   1.688  -4.361  0.00  0.00     0.121 A 
ATOM     48  H   LIG d   1      13.158   3.130  -5.414  0.00  0.00     0.066 H 
ATOM     49  C   LIG d   1      10.716   1.143  -4.187  0.00  0.00    -0.009 A 
ATOM     50  H   LIG d   1      10.565   0.344  -3.474  0.00  0.00     0.066 H 
BRANCH  43  51
ATOM     51  O   LIG d   1       8.801   3.133  -6.585  0.00  0.00    -0.494 OA
BRANCH  51  52
ATOM     52  C   LIG d   1       8.869   2.955  -8.001  0.00  0.00     0.079 C 
ATOM     53  H   LIG d   1       8.251   3.719  -8.496  0.00  0.00     0.066 H 
ATOM     54  H   LIG d   1       8.494   1.955  -8.264  0.00  0.00     0.066 H 
ATOM     55  H   LIG d   1       9.912   3.054  -8.334  0.00  0.00     0.066 H 
ENDBRANCH  51  52
ENDBRANCH  43  51
BRANCH  47  56
ATOM     56  O   LIG d   1      13.024   1.218  -3.633  0.00  0.00    -0.495 OA
BRANCH  56  57
ATOM     57  C   LIG d   1      13.373  -0.156  -3.812  0.00  0.00     0.079 C 
ATOM     58  H   LIG d   1      13.467  -0.374  -4.886  0.00  0.00     0.066 H 
ATOM     59  H   LIG d   1      12.589  -0.793  -3.376  0.00  0.00     0.066 H 
ATOM     60  H   LIG d   1      14.331  -0.360  -3.311  0.00  0.00     0.066 H 
ENDBRANCH  56  57
ENDBRANCH  47  56
ENDBRANCH  10  42
TORSDOF 10
ENDMDL
MODEL 7
REMARK VINA RESULT:      -5.6      3.202      8.040
REMARK  10 active torsions:
REMARK  status: ('A' for Active; 'I' for Inactive)
REMARK    1  A    between atoms: C_1  and  C_2 
REMARK    2  A    between atoms: C_2  and  N_3 
REMARK    3  A    between atoms: N_6  and  C_9 
REMARK    4  A    between atoms: C_9  and  C_10 
REMARK    5  A    between atoms: C_11  and  O_31 
REMARK    6  A    between atoms: C_19  and  C_21 
REMARK    7  A    between atoms: C_23  and  O_29 
REMARK    8  A    between atoms: C_26  and  O_27 
REMARK    9  A    between atoms: O_27  and  C_28 
REMARK   10  A    between atoms: O_29  and  C_30 
ROOT
ATOM      1  C   LIG d   1       7.283  -4.415  -5.283  0.00  0.00     0.081 A 
ATOM      2  C   LIG d   1       8.435  -4.196  -4.547  0.00  0.00     0.129 A 
ATOM      3  C   LIG d   1       9.137  -5.267  -3.999  0.00  0.00    -0.019 A 
ATOM      4  C   LIG d   1       8.697  -6.546  -4.179  0.00  0.00    -0.048 A 
ATOM      5  C   LIG d   1       7.532  -6.788  -4.921  0.00  0.00     0.019 A 
ATOM      6  C   LIG d   1       6.820  -5.709  -5.477  0.00  0.00     0.151 A 
ATOM      7  O   LIG d   1       5.696  -5.922  -6.196  0.00  0.00    -0.421 OA
ATOM      8  C   LIG d   1       5.225  -7.164  -6.400  0.00  0.00     0.345 A 
ATOM      9  O   LIG d   1       4.210  -7.329  -7.050  0.00  0.00    -0.244 OA
ATOM     10  C   LIG d   1       5.931  -8.320  -5.842  0.00  0.00     0.071 A 
ATOM     11  C   LIG d   1       7.068  -8.115  -5.108  0.00  0.00    -0.036 A 
ATOM     12  H   LIG d   1      10.035  -5.084  -3.427  0.00  0.00     0.065 H 
ATOM     13  H   LIG d   1       9.246  -7.371  -3.751  0.00  0.00     0.063 H 
ATOM     14  H   LIG d   1       7.604  -8.950  -4.681  0.00  0.00     0.063 H 
ENDROOT
BRANCH   1  15
ATOM     15  C   LIG d   1       6.532  -3.249  -5.873  0.00  0.00     0.001 C 
ATOM     16  H   LIG d   1       5.715  -3.622  -6.508  0.00  0.00     0.087 H 
ATOM     17  H   LIG d   1       7.218  -2.639  -6.479  0.00  0.00     0.087 H 
BRANCH  15  18
ATOM     18  N   LIG d   1       5.973  -2.429  -4.790  0.00  0.00     0.240 N 
ATOM     19  C   LIG d   1       5.870  -1.020  -5.195  0.00  0.00    -0.018 C 
ATOM     20  C   LIG d   1       5.360  -0.188  -4.015  0.00  0.00     0.039 C 
ATOM     21  H   LIG d   1       5.169  -0.930  -6.038  0.00  0.00     0.083 H 
ATOM     22  H   LIG d   1       6.860  -0.652  -5.502  0.00  0.00     0.083 H 
ATOM     23  N   LIG d   1       4.054  -0.706  -3.584  0.00  0.00    -0.293 N 
ATOM     24  H   LIG d   1       5.254   0.862  -4.325  0.00  0.00     0.048 H 
ATOM     25  H   LIG d   1       6.075  -0.255  -3.182  0.00  0.00     0.048 H 
ATOM     26  C   LIG d   1       4.157  -2.114  -3.178  0.00  0.00     0.039 C 
ATOM     27  C   LIG d   1       4.666  -2.946  -4.358  0.00  0.00    -0.018 C 
ATOM     28  H   LIG d   1       4.858  -2.204  -2.335  0.00  0.00     0.048 H 
ATOM     29  H   LIG d   1       3.166  -2.481  -2.871  0.00  0.00     0.048 H 
ATOM     30  H   LIG d   1       3.951  -2.879  -5.191  0.00  0.00     0.083 H 
ATOM     31  H   LIG d   1       4.772  -3.996  -4.049  0.00  0.00     0.083 H 
ATOM     32  H   LIG d   1       6.661  -2.486  -3.934  0.00  0.00     0.204 HD
BRANCH  23  33
ATOM     33  C   LIG d   1       3.495   0.114  -2.501  0.00  0.00    -0.004 C 
ATOM     34  H   LIG d   1       2.934  -0.529  -1.807  0.00  0.00     0.042 H 
ATOM     35  H   LIG d   1       2.820   0.872  -2.925  0.00  0.00     0.042 H 
BRANCH  33  36
ATOM     36  C   LIG d   1       4.631   0.808  -1.747  0.00  0.00    -0.052 C 
ATOM     37  H   LIG d   1       5.347   1.230  -2.468  0.00  0.00     0.024 H 
ATOM     38  H   LIG d   1       5.145   0.078  -1.106  0.00  0.00     0.024 H 
ATOM     39  H   LIG d   1       4.218   1.616  -1.125  0.00  0.00     0.024 H 
ENDBRANCH  33  36
ENDBRANCH  23  33
ENDBRANCH  15  18
ENDBRANCH   1  15
BRANCH   2  40
ATOM     40  O   LIG d   1       8.885  -2.929  -4.359  0.00  0.00    -0.506 OA
ATOM     41  H   LIG d   1       9.526  -2.454  -5.117  0.00  0.00     0.292 HD
ENDBRANCH   2  40
BRANCH  10  42
ATOM     42  C   LIG d   1       5.417  -9.692  -6.062  0.00  0.00     0.034 A 
ATOM     43  C   LIG d   1       4.410 -10.205  -5.239  0.00  0.00     0.128 A 
ATOM     44  C   LIG d   1       3.932 -11.488  -5.450  0.00  0.00    -0.016 A 
ATOM     45  C   LIG d   1       4.450 -12.261  -6.473  0.00  0.00    -0.017 A 
ATOM     46  H   LIG d   1       3.156 -11.886  -4.814  0.00  0.00     0.066 H 
ATOM     47  C   LIG d   1       5.449 -11.757  -7.294  0.00  0.00     0.121 A 
ATOM     48  H   LIG d   1       4.075 -13.261  -6.634  0.00  0.00     0.066 H 
ATOM     49  C   LIG d   1       5.937 -10.478  -7.089  0.00  0.00    -0.009 A 
ATOM     50  H   LIG d   1       6.718 -10.088  -7.727  0.00  0.00     0.066 H 
BRANCH  43  51
ATOM     51  O   LIG d   1       3.900  -9.446  -4.232  0.00  0.00    -0.494 OA
BRANCH  51  52
ATOM     52  C   LIG d   1       3.320 -10.141  -3.126  0.00  0.00     0.079 C 
ATOM     53  H   LIG d   1       3.427 -11.225  -3.277  0.00  0.00     0.066 H 
ATOM     54  H   LIG d   1       2.253  -9.885  -3.052  0.00  0.00     0.066 H 
ATOM     55  H   LIG d   1       3.832  -9.846  -2.199  0.00  0.00     0.066 H 
ENDBRANCH  51  52
ENDBRANCH  43  51
BRANCH  47  56
ATOM     56  O   LIG d   1       5.954 -12.523  -8.298  0.00  0.00    -0.495 OA
BRANCH  56  57
ATOM     57  C   LIG d   1       6.490 -13.797  -7.935  0.00  0.00     0.079 C 
ATOM     58  H   LIG d   1       7.386 -13.654  -7.313  0.00  0.00     0.066 H 
ATOM     59  H   LIG d   1       6.761 -14.353  -8.845  0.00  0.00     0.066 H 
ATOM     60  H   LIG d   1       5.737 -14.365  -7.369  0.00  0.00     0.066 H 
ENDBRANCH  56  57
ENDBRANCH  47  56
ENDBRANCH  10  42
TORSDOF 10
ENDMDL
MODEL 8
REMARK VINA RESULT:      -5.6      5.362      8.649
REMARK  10 active torsions:
REMARK  status: ('A' for Active; 'I' for Inactive)
REMARK    1  A    between atoms: C_1  and  C_2 
REMARK    2  A    between atoms: C_2  and  N_3 
REMARK    3  A    between atoms: N_6  and  C_9 
REMARK    4  A    between atoms: C_9  and  C_10 
REMARK    5  A    between atoms: C_11  and  O_31 
REMARK    6  A    between atoms: C_19  and  C_21 
REMARK    7  A    between atoms: C_23  and  O_29 
REMARK    8  A    between atoms: C_26  and  O_27 
REMARK    9  A    between atoms: O_27  and  C_28 
REMARK   10  A    between atoms: O_29  and  C_30 
ROOT
ATOM      1  C   LIG d   1       5.225  -0.350  -8.342  0.00  0.00     0.081 A 
ATOM      2  C   LIG d   1       5.695   0.949  -8.248  0.00  0.00     0.129 A 
ATOM      3  C   LIG d   1       5.292   1.913  -9.169  0.00  0.00    -0.019 A 
ATOM      4  C   LIG d   1       4.431   1.589 -10.177  0.00  0.00    -0.048 A 
ATOM      5  C   LIG d   1       3.945   0.278 -10.288  0.00  0.00     0.019 A 
ATOM      6  C   LIG d   1       4.348  -0.699  -9.360  0.00  0.00     0.151 A 
ATOM      7  O   LIG d   1       3.890  -1.966  -9.450  0.00  0.00    -0.421 OA
ATOM      8  C   LIG d   1       3.040  -2.331 -10.425  0.00  0.00     0.345 A 
ATOM      9  O   LIG d   1       2.643  -3.480 -10.484  0.00  0.00    -0.244 OA
ATOM     10  C   LIG d   1       2.591  -1.351 -11.416  0.00  0.00     0.071 A 
ATOM     11  C   LIG d   1       3.053  -0.064 -11.336  0.00  0.00    -0.036 A 
ATOM     12  H   LIG d   1       5.665   2.924  -9.086  0.00  0.00     0.065 H 
ATOM     13  H   LIG d   1       4.124   2.342 -10.888  0.00  0.00     0.063 H 
ATOM     14  H   LIG d   1       2.741   0.677 -12.057  0.00  0.00     0.063 H 
ENDROOT
BRANCH   1  15
ATOM     15  C   LIG d   1       5.666  -1.386  -7.339  0.00  0.00     0.001 C 
ATOM     16  H   LIG d   1       6.737  -1.595  -7.474  0.00  0.00     0.087 H 
ATOM     17  H   LIG d   1       5.090  -2.311  -7.489  0.00  0.00     0.087 H 
BRANCH  15  18
ATOM     18  N   LIG d   1       5.434  -0.879  -5.980  0.00  0.00     0.240 N 
ATOM     19  C   LIG d   1       4.006  -0.927  -5.637  0.00  0.00    -0.018 C 
ATOM     20  C   LIG d   1       3.796  -0.319  -4.247  0.00  0.00     0.039 C 
ATOM     21  H   LIG d   1       3.663  -1.973  -5.635  0.00  0.00     0.083 H 
ATOM     22  H   LIG d   1       3.430  -0.355  -6.378  0.00  0.00     0.083 H 
ATOM     23  N   LIG d   1       4.596  -1.063  -3.265  0.00  0.00    -0.293 N 
ATOM     24  H   LIG d   1       2.732  -0.380  -3.976  0.00  0.00     0.048 H 
ATOM     25  H   LIG d   1       4.113   0.734  -4.256  0.00  0.00     0.048 H 
ATOM     26  C   LIG d   1       6.024  -1.015  -3.608  0.00  0.00     0.039 C 
ATOM     27  C   LIG d   1       6.233  -1.623  -4.996  0.00  0.00    -0.018 C 
ATOM     28  H   LIG d   1       6.367   0.031  -3.609  0.00  0.00     0.048 H 
ATOM     29  H   LIG d   1       6.599  -1.587  -2.865  0.00  0.00     0.048 H 
ATOM     30  H   LIG d   1       5.917  -2.677  -4.987  0.00  0.00     0.083 H 
ATOM     31  H   LIG d   1       7.298  -1.562  -5.268  0.00  0.00     0.083 H 
ATOM     32  H   LIG d   1       5.754   0.172  -5.952  0.00  0.00     0.204 HD
BRANCH  23  33
ATOM     33  C   LIG d   1       4.364  -0.557  -1.905  0.00  0.00    -0.004 C 
ATOM     34  H   LIG d   1       5.156  -0.925  -1.237  0.00  0.00     0.042 H 
ATOM     35  H   LIG d   1       3.387  -0.910  -1.544  0.00  0.00     0.042 H 
BRANCH  33  36
ATOM     36  C   LIG d   1       4.379   0.972  -1.921  0.00  0.00    -0.052 C 
ATOM     37  H   LIG d   1       3.347   1.350  -1.884  0.00  0.00     0.024 H 
ATOM     38  H   LIG d   1       4.865   1.325  -2.842  0.00  0.00     0.024 H 
ATOM     39  H   LIG d   1       4.937   1.342  -1.048  0.00  0.00     0.024 H 
ENDBRANCH  33  36
ENDBRANCH  23  33
ENDBRANCH  15  18
ENDBRANCH   1  15
BRANCH   2  40
ATOM     40  O   LIG d   1       6.552   1.286  -7.251  0.00  0.00    -0.506 OA
ATOM     41  H   LIG d   1       7.228   2.145  -7.373  0.00  0.00     0.292 HD
ENDBRANCH   2  40
BRANCH  10  42
ATOM     42  C   LIG d   1       1.654  -1.747 -12.494  0.00  0.00     0.034 A 
ATOM     43  C   LIG d   1       2.144  -2.302 -13.680  0.00  0.00     0.128 A 
ATOM     44  C   LIG d   1       1.264  -2.672 -14.684  0.00  0.00    -0.016 A 
ATOM     45  C   LIG d   1      -0.097  -2.492 -14.514  0.00  0.00    -0.017 A 
ATOM     46  H   LIG d   1       1.641  -3.100 -15.601  0.00  0.00     0.066 H 
ATOM     47  C   LIG d   1      -0.588  -1.941 -13.339  0.00  0.00     0.121 A 
ATOM     48  H   LIG d   1      -0.779  -2.780 -15.300  0.00  0.00     0.066 H 
ATOM     49  C   LIG d   1       0.282  -1.564 -12.331  0.00  0.00    -0.009 A 
ATOM     50  H   LIG d   1      -0.102  -1.132 -11.418  0.00  0.00     0.066 H 
BRANCH  43  51
ATOM     51  O   LIG d   1       3.482  -2.479 -13.848  0.00  0.00    -0.494 OA
BRANCH  51  52
ATOM     52  C   LIG d   1       3.907  -3.084 -15.070  0.00  0.00     0.079 C 
ATOM     53  H   LIG d   1       4.955  -3.404 -14.975  0.00  0.00     0.066 H 
ATOM     54  H   LIG d   1       3.820  -2.355 -15.890  0.00  0.00     0.066 H 
ATOM     55  H   LIG d   1       3.274  -3.956 -15.288  0.00  0.00     0.066 H 
ENDBRANCH  51  52
ENDBRANCH  43  51
BRANCH  47  56
ATOM     56  O   LIG d   1      -1.927  -1.767 -13.179  0.00  0.00    -0.495 OA
BRANCH  56  57
ATOM     57  C   LIG d   1      -2.414  -0.423 -13.204  0.00  0.00     0.079 C 
ATOM     58  H   LIG d   1      -2.287   0.031 -12.210  0.00  0.00     0.066 H 
ATOM     59  H   LIG d   1      -3.480  -0.424 -13.473  0.00  0.00     0.066 H 
ATOM     60  H   LIG d   1      -1.849   0.158 -13.947  0.00  0.00     0.066 H 
ENDBRANCH  56  57
ENDBRANCH  47  56
ENDBRANCH  10  42
TORSDOF 10
ENDMDL
MODEL 9
REMARK VINA RESULT:      -5.5      3.104      8.170
REMARK  10 active torsions:
REMARK  status: ('A' for Active; 'I' for Inactive)
REMARK    1  A    between atoms: C_1  and  C_2 
REMARK    2  A    between atoms: C_2  and  N_3 
REMARK    3  A    between atoms: N_6  and  C_9 
REMARK    4  A    between atoms: C_9  and  C_10 
REMARK    5  A    between atoms: C_11  and  O_31 
REMARK    6  A    between atoms: C_19  and  C_21 
REMARK    7  A    between atoms: C_23  and  O_29 
REMARK    8  A    between atoms: C_26  and  O_27 
REMARK    9  A    between atoms: O_27  and  C_28 
REMARK   10  A    between atoms: O_29  and  C_30 
ROOT
ATOM      1  C   LIG d   1       4.350  -0.772  -5.718  0.00  0.00     0.081 A 
ATOM      2  C   LIG d   1       3.800  -0.207  -4.579  0.00  0.00     0.129 A 
ATOM      3  C   LIG d   1       3.613  -0.973  -3.431  0.00  0.00    -0.019 A 
ATOM      4  C   LIG d   1       3.966  -2.290  -3.415  0.00  0.00    -0.048 A 
ATOM      5  C   LIG d   1       4.523  -2.881  -4.559  0.00  0.00     0.019 A 
ATOM      6  C   LIG d   1       4.716  -2.110  -5.720  0.00  0.00     0.151 A 
ATOM      7  O   LIG d   1       5.252  -2.661  -6.831  0.00  0.00    -0.421 OA
ATOM      8  C   LIG d   1       5.615  -3.954  -6.862  0.00  0.00     0.345 A 
ATOM      9  O   LIG d   1       6.095  -4.425  -7.876  0.00  0.00    -0.244 OA
ATOM     10  C   LIG d   1       5.435  -4.798  -5.677  0.00  0.00     0.071 A 
ATOM     11  C   LIG d   1       4.889  -4.251  -4.548  0.00  0.00    -0.036 A 
ATOM     12  H   LIG d   1       3.184  -0.522  -2.548  0.00  0.00     0.065 H 
ATOM     13  H   LIG d   1       3.817  -2.879  -2.521  0.00  0.00     0.063 H 
ATOM     14  H   LIG d   1       4.741  -4.852  -3.663  0.00  0.00     0.063 H 
ENDROOT
BRANCH   1  15
ATOM     15  C   LIG d   1       4.550   0.067  -6.954  0.00  0.00     0.001 C 
ATOM     16  H   LIG d   1       5.624   0.139  -7.179  0.00  0.00     0.087 H 
ATOM     17  H   LIG d   1       4.143   1.075  -6.784  0.00  0.00     0.087 H 
BRANCH  15  18
ATOM     18  N   LIG d   1       3.854  -0.558  -8.087  0.00  0.00     0.240 N 
ATOM     19  C   LIG d   1       2.475  -0.063  -8.196  0.00  0.00    -0.018 C 
ATOM     20  C   LIG d   1       1.760  -0.794  -9.335  0.00  0.00     0.039 C 
ATOM     21  H   LIG d   1       2.488   1.018  -8.405  0.00  0.00     0.083 H 
ATOM     22  H   LIG d   1       1.942  -0.246  -7.252  0.00  0.00     0.083 H 
ATOM     23  N   LIG d   1       2.495  -0.578 -10.589  0.00  0.00    -0.293 N 
ATOM     24  H   LIG d   1       0.737  -0.404  -9.438  0.00  0.00     0.048 H 
ATOM     25  H   LIG d   1       1.722  -1.871  -9.113  0.00  0.00     0.048 H 
ATOM     26  C   LIG d   1       3.874  -1.074 -10.480  0.00  0.00     0.039 C 
ATOM     27  C   LIG d   1       4.588  -0.342  -9.342  0.00  0.00    -0.018 C 
ATOM     28  H   LIG d   1       3.860  -2.154 -10.271  0.00  0.00     0.048 H 
ATOM     29  H   LIG d   1       4.406  -0.891 -11.426  0.00  0.00     0.048 H 
ATOM     30  H   LIG d   1       4.627   0.735  -9.564  0.00  0.00     0.083 H 
ATOM     31  H   LIG d   1       5.612  -0.732  -9.239  0.00  0.00     0.083 H 
ATOM     32  H   LIG d   1       3.811  -1.641  -7.900  0.00  0.00     0.204 HD
BRANCH  23  33
ATOM     33  C   LIG d   1       1.799  -1.203 -11.721  0.00  0.00    -0.004 C 
ATOM     34  H   LIG d   1       2.520  -1.408 -12.527  0.00  0.00     0.042 H 
ATOM     35  H   LIG d   1       1.018  -0.523 -12.093  0.00  0.00     0.042 H 
BRANCH  33  36
ATOM     36  C   LIG d   1       1.158  -2.514 -11.266  0.00  0.00    -0.052 C 
ATOM     37  H   LIG d   1       1.705  -3.362 -11.702  0.00  0.00     0.024 H 
ATOM     38  H   LIG d   1       0.110  -2.545 -11.598  0.00  0.00     0.024 H 
ATOM     39  H   LIG d   1       1.196  -2.579 -10.168  0.00  0.00     0.024 H 
ENDBRANCH  33  36
ENDBRANCH  23  33
ENDBRANCH  15  18
ENDBRANCH   1  15
BRANCH   2  40
ATOM     40  O   LIG d   1       3.444   1.103  -4.581  0.00  0.00    -0.506 OA
ATOM     41  H   LIG d   1       2.700   1.470  -5.303  0.00  0.00     0.292 HD
ENDBRANCH   2  40
BRANCH  10  42
ATOM     42  C   LIG d   1       5.833  -6.225  -5.705  0.00  0.00     0.034 A 
ATOM     43  C   LIG d   1       7.158  -6.589  -5.443  0.00  0.00     0.128 A 
ATOM     44  C   LIG d   1       7.524  -7.924  -5.470  0.00  0.00    -0.016 A 
ATOM     45  C   LIG d   1       6.583  -8.897  -5.754  0.00  0.00    -0.017 A 
ATOM     46  H   LIG d   1       8.547  -8.207  -5.269  0.00  0.00     0.066 H 
ATOM     47  C   LIG d   1       5.267  -8.541  -6.015  0.00  0.00     0.121 A 
ATOM     48  H   LIG d   1       6.873  -9.936  -5.774  0.00  0.00     0.066 H 
ATOM     49  C   LIG d   1       4.890  -7.209  -5.995  0.00  0.00    -0.009 A 
ATOM     50  H   LIG d   1       3.866  -6.933  -6.202  0.00  0.00     0.066 H 
BRANCH  43  51
ATOM     51  O   LIG d   1       8.084  -5.634  -5.164  0.00  0.00    -0.494 OA
BRANCH  51  52
ATOM     52  C   LIG d   1       9.084  -5.963  -4.197  0.00  0.00     0.079 C 
ATOM     53  H   LIG d   1       9.359  -7.023  -4.301  0.00  0.00     0.066 H 
ATOM     54  H   LIG d   1       8.689  -5.785  -3.186  0.00  0.00     0.066 H 
ATOM     55  H   LIG d   1       9.972  -5.335  -4.359  0.00  0.00     0.066 H 
ENDBRANCH  51  52
ENDBRANCH  43  51
BRANCH  47  56
ATOM     56  O   LIG d   1       4.346  -9.502  -6.294  0.00  0.00    -0.495 OA
BRANCH  56  57
ATOM     57  C   LIG d   1       4.370 -10.678  -5.482  0.00  0.00     0.079 C 
ATOM     58  H   LIG d   1       5.053 -11.417  -5.927  0.00  0.00     0.066 H 
ATOM     59  H   LIG d   1       3.358 -11.103  -5.422  0.00  0.00     0.066 H 
ATOM     60  H   LIG d   1       4.719 -10.419  -4.471  0.00  0.00     0.066 H 
ENDBRANCH  56  57
ENDBRANCH  47  56
ENDBRANCH  10  42
TORSDOF 10
ENDMDL
