MODEL 1
REMARK VINA RESULT:      -7.1      0.000      0.000
REMARK  11 active torsions:
REMARK  status: ('A' for Active; 'I' for Inactive)
REMARK    1  A    between atoms: C_1  and  C_2 
REMARK    2  A    between atoms: C_3  and  O_19 
REMARK    3  A    between atoms: C_12  and  C_13 
REMARK    4  A    between atoms: O_19  and  C_20 
REMARK    5  A    between atoms: C_20  and  C_22 
REMARK    6  A    between atoms: C_22  and  C_23 
REMARK    7  A    between atoms: C_23  and  C_24 
REMARK    8  A    between atoms: C_24  and  N_25 
REMARK       I    between atoms: N_25  and  C_26 
REMARK    9  A    between atoms: C_26  and  O_28 
REMARK   10  A    between atoms: O_28  and  C_29 
REMARK   11  A    between atoms: C_29  and  C_30 
ROOT
ATOM      1  O   LIG d   1       3.722  -3.097 -11.163  0.00  0.00    -0.425 OA
ENDROOT
BRANCH   1   2
ATOM      2  C   LIG d   1       4.126  -3.100  -9.866  0.00  0.00     0.138 A 
ATOM      3  C   LIG d   1       3.820  -4.180  -9.055  0.00  0.00     0.035 A 
ATOM      4  C   LIG d   1       4.233  -4.184  -7.730  0.00  0.00     0.146 A 
ATOM      5  C   LIG d   1       4.957  -3.089  -7.231  0.00  0.00     0.026 A 
ATOM      6  O   LIG d   1       3.943  -5.228  -6.923  0.00  0.00    -0.422 OA
ATOM      7  C   LIG d   1       5.258  -2.008  -8.063  0.00  0.00    -0.047 A 
ATOM      8  C   LIG d   1       5.391  -3.105  -5.823  0.00  0.00    -0.001 A 
ATOM      9  C   LIG d   1       4.849  -2.021  -9.366  0.00  0.00    -0.018 A 
ATOM     10  H   LIG d   1       5.816  -1.167  -7.678  0.00  0.00     0.063 H 
ATOM     11  H   LIG d   1       5.085  -1.188 -10.011  0.00  0.00     0.066 H 
ATOM     12  C   LIG d   1       5.059  -4.206  -5.058  0.00  0.00     0.031 A 
ATOM     13  C   LIG d   1       4.331  -5.259  -5.638  0.00  0.00     0.338 A 
ATOM     14  H   LIG d   1       5.357  -4.258  -4.021  0.00  0.00     0.070 H 
ATOM     15  O   LIG d   1       4.042  -6.226  -4.955  0.00  0.00    -0.245 OA
BRANCH   3  16
ATOM     16  C   LIG d   1       3.040  -5.345  -9.607  0.00  0.00    -0.033 C 
ATOM     17  H   LIG d   1       3.135  -5.363 -10.693  0.00  0.00     0.028 H 
ATOM     18  H   LIG d   1       3.432  -6.275  -9.193  0.00  0.00     0.028 H 
ATOM     19  H   LIG d   1       1.990  -5.240  -9.336  0.00  0.00     0.028 H 
ENDBRANCH   3  16
BRANCH   8  20
ATOM     20  C   LIG d   1       6.157  -1.978  -5.247  0.00  0.00    -0.017 A 
ATOM     21  C   LIG d   1       6.112  -0.719  -5.850  0.00  0.00    -0.054 A 
ATOM     22  C   LIG d   1       6.828   0.327  -5.308  0.00  0.00    -0.061 A 
ATOM     23  H   LIG d   1       5.518  -0.567  -6.740  0.00  0.00     0.062 H 
ATOM     24  C   LIG d   1       7.590   0.134  -4.170  0.00  0.00    -0.062 A 
ATOM     25  H   LIG d   1       6.794   1.301  -5.775  0.00  0.00     0.062 H 
ATOM     26  C   LIG d   1       7.639  -1.112  -3.568  0.00  0.00    -0.061 A 
ATOM     27  H   LIG d   1       8.149   0.956  -3.751  0.00  0.00     0.062 H 
ATOM     28  C   LIG d   1       6.923  -2.166  -4.096  0.00  0.00    -0.054 A 
ATOM     29  H   LIG d   1       8.236  -1.257  -2.679  0.00  0.00     0.062 H 
ATOM     30  H   LIG d   1       6.959  -3.135  -3.622  0.00  0.00     0.062 H 
ENDBRANCH   8  20
ENDBRANCH   1   2
BRANCH   1  31
ATOM     31  C   LIG d   1       2.776  -2.206 -11.505  0.00  0.00     0.312 C 
ATOM     32  O   LIG d   1       2.869  -1.595 -12.543  0.00  0.00    -0.250 OA
BRANCH  31  33
ATOM     33  C   LIG d   1       1.600  -1.969 -10.593  0.00  0.00     0.047 C 
ATOM     34  H   LIG d   1       1.867  -2.250  -9.574  0.00  0.00     0.038 H 
ATOM     35  H   LIG d   1       0.755  -2.571 -10.927  0.00  0.00     0.038 H 
BRANCH  33  36
ATOM     36  C   LIG d   1       1.217  -0.488 -10.630  0.00  0.00    -0.027 C 
ATOM     37  H   LIG d   1       0.185  -0.371 -10.298  0.00  0.00     0.029 H 
ATOM     38  H   LIG d   1       1.316  -0.113 -11.649  0.00  0.00     0.029 H 
BRANCH  36  39
ATOM     39  C   LIG d   1       2.143   0.303  -9.703  0.00  0.00     0.015 C 
ATOM     40  H   LIG d   1       1.786   1.330  -9.623  0.00  0.00     0.046 H 
ATOM     41  H   LIG d   1       3.154   0.301 -10.113  0.00  0.00     0.046 H 
BRANCH  39  42
ATOM     42  N   LIG d   1       2.153  -0.318  -8.377  0.00  0.00    -0.281 N 
ATOM     43  C   LIG d   1       2.748   0.310  -7.344  0.00  0.00     0.401 C 
ATOM     44  O   LIG d   1       3.277   1.391  -7.513  0.00  0.00    -0.227 OA
ATOM     45  H   LIG d   1       1.730  -1.181  -8.242  0.00  0.00     0.152 HD
BRANCH  43  46
ATOM     46  O   LIG d   1       2.757  -0.260  -6.124  0.00  0.00    -0.446 OA
BRANCH  46  47
ATOM     47  C   LIG d   1       2.439   0.593  -4.994  0.00  0.00     0.119 C 
ATOM     48  H   LIG d   1       1.366   0.559  -4.804  0.00  0.00     0.075 H 
ATOM     49  H   LIG d   1       2.735   1.618  -5.219  0.00  0.00     0.075 H 
BRANCH  47  50
ATOM     50  C   LIG d   1       3.181   0.111  -3.775  0.00  0.00    -0.010 A 
ATOM     51  C   LIG d   1       3.919   1.001  -3.017  0.00  0.00    -0.055 A 
ATOM     52  C   LIG d   1       4.599   0.558  -1.898  0.00  0.00    -0.061 A 
ATOM     53  H   LIG d   1       3.964   2.043  -3.300  0.00  0.00     0.062 H 
ATOM     54  C   LIG d   1       4.541  -0.775  -1.537  0.00  0.00    -0.062 A 
ATOM     55  H   LIG d   1       5.175   1.254  -1.306  0.00  0.00     0.062 H 
ATOM     56  C   LIG d   1       3.803  -1.665  -2.294  0.00  0.00    -0.061 A 
ATOM     57  H   LIG d   1       5.073  -1.120  -0.663  0.00  0.00     0.062 H 
ATOM     58  C   LIG d   1       3.118  -1.221  -3.410  0.00  0.00    -0.055 A 
ATOM     59  H   LIG d   1       3.758  -2.706  -2.011  0.00  0.00     0.062 H 
ATOM     60  H   LIG d   1       2.538  -1.915  -3.999  0.00  0.00     0.062 H 
ENDBRANCH  47  50
ENDBRANCH  46  47
ENDBRANCH  43  46
ENDBRANCH  39  42
ENDBRANCH  36  39
ENDBRANCH  33  36
ENDBRANCH  31  33
ENDBRANCH   1  31
TORSDOF 11
ENDMDL
MODEL 2
REMARK VINA RESULT:      -6.8      3.691      7.324
REMARK  11 active torsions:
REMARK  status: ('A' for Active; 'I' for Inactive)
REMARK    1  A    between atoms: C_1  and  C_2 
REMARK    2  A    between atoms: C_3  and  O_19 
REMARK    3  A    between atoms: C_12  and  C_13 
REMARK    4  A    between atoms: O_19  and  C_20 
REMARK    5  A    between atoms: C_20  and  C_22 
REMARK    6  A    between atoms: C_22  and  C_23 
REMARK    7  A    between atoms: C_23  and  C_24 
REMARK    8  A    between atoms: C_24  and  N_25 
REMARK       I    between atoms: N_25  and  C_26 
REMARK    9  A    between atoms: C_26  and  O_28 
REMARK   10  A    between atoms: O_28  and  C_29 
REMARK   11  A    between atoms: C_29  and  C_30 
ROOT
ATOM      1  O   LIG d   1       5.906  -0.908  -4.648  0.00  0.00    -0.425 OA
ENDROOT
BRANCH   1   2
ATOM      2  C   LIG d   1       6.795   0.109  -4.785  0.00  0.00     0.138 A 
ATOM      3  C   LIG d   1       7.571   0.192  -5.930  0.00  0.00     0.035 A 
ATOM      4  C   LIG d   1       8.480   1.231  -6.071  0.00  0.00     0.146 A 
ATOM      5  C   LIG d   1       8.599   2.186  -5.047  0.00  0.00     0.026 A 
ATOM      6  O   LIG d   1       9.246   1.329  -7.179  0.00  0.00    -0.422 OA
ATOM      7  C   LIG d   1       7.809   2.087  -3.900  0.00  0.00    -0.047 A 
ATOM      8  C   LIG d   1       9.567   3.286  -5.209  0.00  0.00    -0.001 A 
ATOM      9  C   LIG d   1       6.915   1.062  -3.778  0.00  0.00    -0.018 A 
ATOM     10  H   LIG d   1       7.901   2.822  -3.113  0.00  0.00     0.063 H 
ATOM     11  H   LIG d   1       6.301   0.988  -2.892  0.00  0.00     0.066 H 
ATOM     12  C   LIG d   1      10.316   3.321  -6.368  0.00  0.00     0.031 A 
ATOM     13  C   LIG d   1      10.132   2.324  -7.343  0.00  0.00     0.338 A 
ATOM     14  H   LIG d   1      11.036   4.109  -6.527  0.00  0.00     0.070 H 
ATOM     15  O   LIG d   1      10.797   2.363  -8.363  0.00  0.00    -0.245 OA
BRANCH   3  16
ATOM     16  C   LIG d   1       7.430  -0.842  -7.017  0.00  0.00    -0.033 C 
ATOM     17  H   LIG d   1       6.745  -0.475  -7.780  0.00  0.00     0.028 H 
ATOM     18  H   LIG d   1       8.405  -1.033  -7.465  0.00  0.00     0.028 H 
ATOM     19  H   LIG d   1       7.039  -1.765  -6.590  0.00  0.00     0.028 H 
ENDBRANCH   3  16
BRANCH   8  20
ATOM     20  C   LIG d   1       9.732   4.317  -4.161  0.00  0.00    -0.017 A 
ATOM     21  C   LIG d   1      10.358   3.997  -2.954  0.00  0.00    -0.054 A 
ATOM     22  C   LIG d   1      10.509   4.964  -1.983  0.00  0.00    -0.061 A 
ATOM     23  H   LIG d   1      10.723   2.995  -2.784  0.00  0.00     0.062 H 
ATOM     24  C   LIG d   1      10.041   6.248  -2.199  0.00  0.00    -0.062 A 
ATOM     25  H   LIG d   1      10.993   4.717  -1.049  0.00  0.00     0.062 H 
ATOM     26  C   LIG d   1       9.419   6.571  -3.393  0.00  0.00    -0.061 A 
ATOM     27  H   LIG d   1      10.161   7.000  -1.435  0.00  0.00     0.062 H 
ATOM     28  C   LIG d   1       9.267   5.615  -4.376  0.00  0.00    -0.054 A 
ATOM     29  H   LIG d   1       9.056   7.575  -3.556  0.00  0.00     0.062 H 
ATOM     30  H   LIG d   1       8.786   5.870  -5.308  0.00  0.00     0.062 H 
ENDBRANCH   8  20
ENDBRANCH   1   2
BRANCH   1  31
ATOM     31  C   LIG d   1       5.960  -1.616  -3.508  0.00  0.00     0.312 C 
ATOM     32  O   LIG d   1       7.010  -2.085  -3.137  0.00  0.00    -0.250 OA
BRANCH  31  33
ATOM     33  C   LIG d   1       4.711  -1.825  -2.690  0.00  0.00     0.047 C 
ATOM     34  H   LIG d   1       4.925  -2.508  -1.868  0.00  0.00     0.038 H 
ATOM     35  H   LIG d   1       3.931  -2.249  -3.322  0.00  0.00     0.038 H 
BRANCH  33  36
ATOM     36  C   LIG d   1       4.239  -0.483  -2.128  0.00  0.00    -0.027 C 
ATOM     37  H   LIG d   1       4.928   0.304  -2.436  0.00  0.00     0.029 H 
ATOM     38  H   LIG d   1       4.210  -0.536  -1.039  0.00  0.00     0.029 H 
BRANCH  36  39
ATOM     39  C   LIG d   1       2.838  -0.171  -2.659  0.00  0.00     0.015 C 
ATOM     40  H   LIG d   1       2.643   0.898  -2.566  0.00  0.00     0.046 H 
ATOM     41  H   LIG d   1       2.099  -0.727  -2.082  0.00  0.00     0.046 H 
BRANCH  39  42
ATOM     42  N   LIG d   1       2.752  -0.563  -4.068  0.00  0.00    -0.281 N 
ATOM     43  C   LIG d   1       2.644   0.380  -5.024  0.00  0.00     0.401 C 
ATOM     44  O   LIG d   1       2.616   1.556  -4.717  0.00  0.00    -0.227 OA
ATOM     45  H   LIG d   1       2.775  -1.502  -4.313  0.00  0.00     0.152 HD
BRANCH  43  46
ATOM     46  O   LIG d   1       2.565   0.021  -6.319  0.00  0.00    -0.446 OA
BRANCH  46  47
ATOM     47  C   LIG d   1       3.808  -0.318  -6.987  0.00  0.00     0.119 C 
ATOM     48  H   LIG d   1       3.878  -1.400  -7.099  0.00  0.00     0.075 H 
ATOM     49  H   LIG d   1       4.649   0.039  -6.392  0.00  0.00     0.075 H 
BRANCH  47  50
ATOM     50  C   LIG d   1       3.842   0.331  -8.346  0.00  0.00    -0.010 A 
ATOM     51  C   LIG d   1       3.386   1.626  -8.505  0.00  0.00    -0.055 A 
ATOM     52  C   LIG d   1       3.418   2.222  -9.752  0.00  0.00    -0.061 A 
ATOM     53  H   LIG d   1       3.005   2.173  -7.654  0.00  0.00     0.062 H 
ATOM     54  C   LIG d   1       3.906   1.524 -10.840  0.00  0.00    -0.062 A 
ATOM     55  H   LIG d   1       3.062   3.235  -9.876  0.00  0.00     0.062 H 
ATOM     56  C   LIG d   1       4.363   0.229 -10.681  0.00  0.00    -0.061 A 
ATOM     57  H   LIG d   1       3.931   1.989 -11.813  0.00  0.00     0.062 H 
ATOM     58  C   LIG d   1       4.336  -0.366  -9.433  0.00  0.00    -0.055 A 
ATOM     59  H   LIG d   1       4.744  -0.317 -11.531  0.00  0.00     0.062 H 
ATOM     60  H   LIG d   1       4.696  -1.376  -9.308  0.00  0.00     0.062 H 
ENDBRANCH  47  50
ENDBRANCH  46  47
ENDBRANCH  43  46
ENDBRANCH  39  42
ENDBRANCH  36  39
ENDBRANCH  33  36
ENDBRANCH  31  33
ENDBRANCH   1  31
TORSDOF 11
ENDMDL
MODEL 3
REMARK VINA RESULT:      -6.8      2.436      5.537
REMARK  11 active torsions:
REMARK  status: ('A' for Active; 'I' for Inactive)
REMARK    1  A    between atoms: C_1  and  C_2 
REMARK    2  A    between atoms: C_3  and  O_19 
REMARK    3  A    between atoms: C_12  and  C_13 
REMARK    4  A    between atoms: O_19  and  C_20 
REMARK    5  A    between atoms: C_20  and  C_22 
REMARK    6  A    between atoms: C_22  and  C_23 
REMARK    7  A    between atoms: C_23  and  C_24 
REMARK    8  A    between atoms: C_24  and  N_25 
REMARK       I    between atoms: N_25  and  C_26 
REMARK    9  A    between atoms: C_26  and  O_28 
REMARK   10  A    between atoms: O_28  and  C_29 
REMARK   11  A    between atoms: C_29  and  C_30 
ROOT
ATOM      1  O   LIG d   1       6.234  -3.933  -4.638  0.00  0.00    -0.425 OA
ENDROOT
BRANCH   1   2
ATOM      2  C   LIG d   1       5.542  -3.399  -5.678  0.00  0.00     0.138 A 
ATOM      3  C   LIG d   1       4.797  -4.226  -6.503  0.00  0.00     0.035 A 
ATOM      4  C   LIG d   1       4.090  -3.682  -7.566  0.00  0.00     0.146 A 
ATOM      5  C   LIG d   1       4.140  -2.296  -7.789  0.00  0.00     0.026 A 
ATOM      6  O   LIG d   1       3.359  -4.472  -8.382  0.00  0.00    -0.422 OA
ATOM      7  C   LIG d   1       4.895  -1.476  -6.947  0.00  0.00    -0.047 A 
ATOM      8  C   LIG d   1       3.384  -1.729  -8.919  0.00  0.00    -0.001 A 
ATOM      9  C   LIG d   1       5.582  -2.026  -5.902  0.00  0.00    -0.018 A 
ATOM     10  H   LIG d   1       4.933  -0.411  -7.119  0.00  0.00     0.063 H 
ATOM     11  H   LIG d   1       6.163  -1.392  -5.249  0.00  0.00     0.066 H 
ATOM     12  C   LIG d   1       2.658  -2.598  -9.711  0.00  0.00     0.031 A 
ATOM     13  C   LIG d   1       2.663  -3.973  -9.416  0.00  0.00     0.338 A 
ATOM     14  H   LIG d   1       2.090  -2.225 -10.550  0.00  0.00     0.070 H 
ATOM     15  O   LIG d   1       2.020  -4.732 -10.119  0.00  0.00    -0.245 OA
BRANCH   3  16
ATOM     16  C   LIG d   1       4.756  -5.711  -6.249  0.00  0.00    -0.033 C 
ATOM     17  H   LIG d   1       5.088  -6.241  -7.142  0.00  0.00     0.028 H 
ATOM     18  H   LIG d   1       5.414  -5.956  -5.415  0.00  0.00     0.028 H 
ATOM     19  H   LIG d   1       3.736  -6.010  -6.008  0.00  0.00     0.028 H 
ENDBRANCH   3  16
BRANCH   8  20
ATOM     20  C   LIG d   1       3.402  -0.277  -9.198  0.00  0.00    -0.017 A 
ATOM     21  C   LIG d   1       2.818   0.618  -8.299  0.00  0.00    -0.054 A 
ATOM     22  C   LIG d   1       2.840   1.971  -8.566  0.00  0.00    -0.061 A 
ATOM     23  H   LIG d   1       2.351   0.250  -7.397  0.00  0.00     0.062 H 
ATOM     24  C   LIG d   1       3.437   2.444  -9.721  0.00  0.00    -0.062 A 
ATOM     25  H   LIG d   1       2.388   2.663  -7.870  0.00  0.00     0.062 H 
ATOM     26  C   LIG d   1       4.017   1.562 -10.616  0.00  0.00    -0.061 A 
ATOM     27  H   LIG d   1       3.450   3.503  -9.925  0.00  0.00     0.062 H 
ATOM     28  C   LIG d   1       4.008   0.206 -10.359  0.00  0.00    -0.054 A 
ATOM     29  H   LIG d   1       4.481   1.937 -11.517  0.00  0.00     0.062 H 
ATOM     30  H   LIG d   1       4.465  -0.479 -11.057  0.00  0.00     0.062 H 
ENDBRANCH   8  20
ENDBRANCH   1   2
BRANCH   1  31
ATOM     31  C   LIG d   1       7.568  -4.010  -4.770  0.00  0.00     0.312 C 
ATOM     32  O   LIG d   1       8.064  -4.934  -5.369  0.00  0.00    -0.250 OA
BRANCH  31  33
ATOM     33  C   LIG d   1       8.447  -2.943  -4.169  0.00  0.00     0.047 C 
ATOM     34  H   LIG d   1       8.979  -3.351  -3.310  0.00  0.00     0.038 H 
ATOM     35  H   LIG d   1       7.831  -2.102  -3.850  0.00  0.00     0.038 H 
BRANCH  33  36
ATOM     36  C   LIG d   1       9.457  -2.466  -5.215  0.00  0.00    -0.027 C 
ATOM     37  H   LIG d   1       9.136  -2.789  -6.205  0.00  0.00     0.029 H 
ATOM     38  H   LIG d   1      10.436  -2.891  -4.994  0.00  0.00     0.029 H 
BRANCH  36  39
ATOM     39  C   LIG d   1       9.546  -0.939  -5.181  0.00  0.00     0.015 C 
ATOM     40  H   LIG d   1       9.680  -0.560  -6.194  0.00  0.00     0.046 H 
ATOM     41  H   LIG d   1      10.395  -0.639  -4.566  0.00  0.00     0.046 H 
BRANCH  39  42
ATOM     42  N   LIG d   1       8.313  -0.391  -4.611  0.00  0.00    -0.281 N 
ATOM     43  C   LIG d   1       7.876   0.824  -4.995  0.00  0.00     0.401 C 
ATOM     44  O   LIG d   1       8.505   1.466  -5.813  0.00  0.00    -0.227 OA
ATOM     45  H   LIG d   1       7.810  -0.904  -3.959  0.00  0.00     0.152 HD
BRANCH  43  46
ATOM     46  O   LIG d   1       6.742   1.329  -4.472  0.00  0.00    -0.446 OA
BRANCH  46  47
ATOM     47  C   LIG d   1       6.439   0.983  -3.096  0.00  0.00     0.119 C 
ATOM     48  H   LIG d   1       6.292   1.894  -2.516  0.00  0.00     0.075 H 
ATOM     49  H   LIG d   1       7.268   0.414  -2.674  0.00  0.00     0.075 H 
BRANCH  47  50
ATOM     50  C   LIG d   1       5.184   0.151  -3.051  0.00  0.00    -0.010 A 
ATOM     51  C   LIG d   1       5.194  -1.083  -2.427  0.00  0.00    -0.055 A 
ATOM     52  C   LIG d   1       4.042  -1.846  -2.386  0.00  0.00    -0.061 A 
ATOM     53  H   LIG d   1       6.102  -1.450  -1.972  0.00  0.00     0.062 H 
ATOM     54  C   LIG d   1       2.880  -1.376  -2.968  0.00  0.00    -0.062 A 
ATOM     55  H   LIG d   1       4.050  -2.810  -1.898  0.00  0.00     0.062 H 
ATOM     56  C   LIG d   1       2.870  -0.142  -3.591  0.00  0.00    -0.061 A 
ATOM     57  H   LIG d   1       1.981  -1.972  -2.936  0.00  0.00     0.062 H 
ATOM     58  C   LIG d   1       4.020   0.623  -3.629  0.00  0.00    -0.055 A 
ATOM     59  H   LIG d   1       1.962   0.225  -4.046  0.00  0.00     0.062 H 
ATOM     60  H   LIG d   1       4.011   1.589  -4.111  0.00  0.00     0.062 H 
ENDBRANCH  47  50
ENDBRANCH  46  47
ENDBRANCH  43  46
ENDBRANCH  39  42
ENDBRANCH  36  39
ENDBRANCH  33  36
ENDBRANCH  31  33
ENDBRANCH   1  31
TORSDOF 11
ENDMDL
MODEL 4
REMARK VINA RESULT:      -6.7      2.241      3.945
REMARK  11 active torsions:
REMARK  status: ('A' for Active; 'I' for Inactive)
REMARK    1  A    between atoms: C_1  and  C_2 
REMARK    2  A    between atoms: C_3  and  O_19 
REMARK    3  A    between atoms: C_12  and  C_13 
REMARK    4  A    between atoms: O_19  and  C_20 
REMARK    5  A    between atoms: C_20  and  C_22 
REMARK    6  A    between atoms: C_22  and  C_23 
REMARK    7  A    between atoms: C_23  and  C_24 
REMARK    8  A    between atoms: C_24  and  N_25 
REMARK       I    between atoms: N_25  and  C_26 
REMARK    9  A    between atoms: C_26  and  O_28 
REMARK   10  A    between atoms: O_28  and  C_29 
REMARK   11  A    between atoms: C_29  and  C_30 
ROOT
ATOM      1  O   LIG d   1       4.281  -2.231  -9.728  0.00  0.00    -0.425 OA
ENDROOT
BRANCH   1   2
ATOM      2  C   LIG d   1       4.736  -2.171  -8.450  0.00  0.00     0.138 A 
ATOM      3  C   LIG d   1       5.718  -3.053  -8.029  0.00  0.00     0.035 A 
ATOM      4  C   LIG d   1       6.184  -2.993  -6.723  0.00  0.00     0.146 A 
ATOM      5  C   LIG d   1       5.650  -2.034  -5.845  0.00  0.00     0.026 A 
ATOM      6  O   LIG d   1       7.140  -3.845  -6.293  0.00  0.00    -0.422 OA
ATOM      7  C   LIG d   1       4.661  -1.153  -6.286  0.00  0.00    -0.047 A 
ATOM      8  C   LIG d   1       6.153  -1.979  -4.461  0.00  0.00    -0.001 A 
ATOM      9  C   LIG d   1       4.217  -1.220  -7.575  0.00  0.00    -0.018 A 
ATOM     10  H   LIG d   1       4.252  -0.415  -5.610  0.00  0.00     0.063 H 
ATOM     11  H   LIG d   1       3.455  -0.536  -7.918  0.00  0.00     0.066 H 
ATOM     12  C   LIG d   1       7.132  -2.882  -4.093  0.00  0.00     0.031 A 
ATOM     13  C   LIG d   1       7.610  -3.808  -5.036  0.00  0.00     0.338 A 
ATOM     14  H   LIG d   1       7.528  -2.875  -3.089  0.00  0.00     0.070 H 
ATOM     15  O   LIG d   1       8.473  -4.601  -4.703  0.00  0.00    -0.245 OA
BRANCH   3  16
ATOM     16  C   LIG d   1       6.278  -4.075  -8.984  0.00  0.00    -0.033 C 
ATOM     17  H   LIG d   1       5.563  -4.890  -9.103  0.00  0.00     0.028 H 
ATOM     18  H   LIG d   1       6.461  -3.608  -9.951  0.00  0.00     0.028 H 
ATOM     19  H   LIG d   1       7.213  -4.469  -8.587  0.00  0.00     0.028 H 
ENDBRANCH   3  16
BRANCH   8  20
ATOM     20  C   LIG d   1       5.626  -0.989  -3.496  0.00  0.00    -0.017 A 
ATOM     21  C   LIG d   1       4.739  -1.390  -2.495  0.00  0.00    -0.054 A 
ATOM     22  C   LIG d   1       4.251  -0.462  -1.599  0.00  0.00    -0.061 A 
ATOM     23  H   LIG d   1       4.436  -2.425  -2.423  0.00  0.00     0.062 H 
ATOM     24  C   LIG d   1       4.637   0.863  -1.690  0.00  0.00    -0.062 A 
ATOM     25  H   LIG d   1       3.565  -0.772  -0.824  0.00  0.00     0.062 H 
ATOM     26  C   LIG d   1       5.516   1.267  -2.680  0.00  0.00    -0.061 A 
ATOM     27  H   LIG d   1       4.252   1.585  -0.986  0.00  0.00     0.062 H 
ATOM     28  C   LIG d   1       6.016   0.348  -3.580  0.00  0.00    -0.054 A 
ATOM     29  H   LIG d   1       5.813   2.303  -2.747  0.00  0.00     0.062 H 
ATOM     30  H   LIG d   1       6.704   0.664  -4.349  0.00  0.00     0.062 H 
ENDBRANCH   8  20
ENDBRANCH   1   2
BRANCH   1  31
ATOM     31  C   LIG d   1       2.985  -2.534  -9.900  0.00  0.00     0.312 C 
ATOM     32  O   LIG d   1       2.572  -3.625  -9.582  0.00  0.00    -0.250 OA
BRANCH  31  33
ATOM     33  C   LIG d   1       2.043  -1.515 -10.489  0.00  0.00     0.047 C 
ATOM     34  H   LIG d   1       1.550  -0.969  -9.686  0.00  0.00     0.038 H 
ATOM     35  H   LIG d   1       1.294  -2.023 -11.098  0.00  0.00     0.038 H 
BRANCH  33  36
ATOM     36  C   LIG d   1       2.832  -0.537 -11.362  0.00  0.00    -0.027 C 
ATOM     37  H   LIG d   1       2.274  -0.332 -12.275  0.00  0.00     0.029 H 
ATOM     38  H   LIG d   1       3.798  -0.975 -11.616  0.00  0.00     0.029 H 
BRANCH  36  39
ATOM     39  C   LIG d   1       3.052   0.769 -10.595  0.00  0.00     0.015 C 
ATOM     40  H   LIG d   1       2.550   0.712  -9.629  0.00  0.00     0.046 H 
ATOM     41  H   LIG d   1       2.642   1.600 -11.169  0.00  0.00     0.046 H 
BRANCH  39  42
ATOM     42  N   LIG d   1       4.487   0.979 -10.389  0.00  0.00    -0.281 N 
ATOM     43  C   LIG d   1       4.912   1.877  -9.480  0.00  0.00     0.401 C 
ATOM     44  O   LIG d   1       4.106   2.514  -8.831  0.00  0.00    -0.227 OA
ATOM     45  H   LIG d   1       5.131   0.471 -10.908  0.00  0.00     0.152 HD
BRANCH  43  46
ATOM     46  O   LIG d   1       6.232   2.071  -9.290  0.00  0.00    -0.446 OA
BRANCH  46  47
ATOM     47  C   LIG d   1       7.112   0.955  -9.586  0.00  0.00     0.119 C 
ATOM     48  H   LIG d   1       7.856   1.264 -10.320  0.00  0.00     0.075 H 
ATOM     49  H   LIG d   1       6.526   0.128  -9.988  0.00  0.00     0.075 H 
BRANCH  47  50
ATOM     50  C   LIG d   1       7.804   0.513  -8.323  0.00  0.00    -0.010 A 
ATOM     51  C   LIG d   1       7.723   1.290  -7.182  0.00  0.00    -0.055 A 
ATOM     52  C   LIG d   1       8.359   0.884  -6.023  0.00  0.00    -0.061 A 
ATOM     53  H   LIG d   1       7.164   2.213  -7.196  0.00  0.00     0.062 H 
ATOM     54  C   LIG d   1       9.075  -0.298  -6.005  0.00  0.00    -0.062 A 
ATOM     55  H   LIG d   1       8.295   1.490  -5.132  0.00  0.00     0.062 H 
ATOM     56  C   LIG d   1       9.155  -1.075  -7.146  0.00  0.00    -0.061 A 
ATOM     57  H   LIG d   1       9.571  -0.615  -5.100  0.00  0.00     0.062 H 
ATOM     58  C   LIG d   1       8.516  -0.672  -8.304  0.00  0.00    -0.055 A 
ATOM     59  H   LIG d   1       9.715  -1.999  -7.132  0.00  0.00     0.062 H 
ATOM     60  H   LIG d   1       8.575  -1.280  -9.193  0.00  0.00     0.062 H 
ENDBRANCH  47  50
ENDBRANCH  46  47
ENDBRANCH  43  46
ENDBRANCH  39  42
ENDBRANCH  36  39
ENDBRANCH  33  36
ENDBRANCH  31  33
ENDBRANCH   1  31
TORSDOF 11
ENDMDL
MODEL 5
REMARK VINA RESULT:      -6.7      2.284      3.121
REMARK  11 active torsions:
REMARK  status: ('A' for Active; 'I' for Inactive)
REMARK    1  A    between atoms: C_1  and  C_2 
REMARK    2  A    between atoms: C_3  and  O_19 
REMARK    3  A    between atoms: C_12  and  C_13 
REMARK    4  A    between atoms: O_19  and  C_20 
REMARK    5  A    between atoms: C_20  and  C_22 
REMARK    6  A    between atoms: C_22  and  C_23 
REMARK    7  A    between atoms: C_23  and  C_24 
REMARK    8  A    between atoms: C_24  and  N_25 
REMARK       I    between atoms: N_25  and  C_26 
REMARK    9  A    between atoms: C_26  and  O_28 
REMARK   10  A    between atoms: O_28  and  C_29 
REMARK   11  A    between atoms: C_29  and  C_30 
ROOT
ATOM      1  O   LIG d   1       6.683  -0.598 -10.116  0.00  0.00    -0.425 OA
ENDROOT
BRANCH   1   2
ATOM      2  C   LIG d   1       6.624  -1.431  -9.046  0.00  0.00     0.138 A 
ATOM      3  C   LIG d   1       5.506  -2.226  -8.855  0.00  0.00     0.035 A 
ATOM      4  C   LIG d   1       5.445  -3.078  -7.761  0.00  0.00     0.146 A 
ATOM      5  C   LIG d   1       6.523  -3.122  -6.861  0.00  0.00     0.026 A 
ATOM      6  O   LIG d   1       4.362  -3.859  -7.557  0.00  0.00    -0.422 OA
ATOM      7  C   LIG d   1       7.644  -2.314  -7.069  0.00  0.00    -0.047 A 
ATOM      8  C   LIG d   1       6.448  -4.031  -5.704  0.00  0.00    -0.001 A 
ATOM      9  C   LIG d   1       7.691  -1.485  -8.153  0.00  0.00    -0.018 A 
ATOM     10  H   LIG d   1       8.473  -2.349  -6.377  0.00  0.00     0.063 H 
ATOM     11  H   LIG d   1       8.559  -0.863  -8.316  0.00  0.00     0.066 H 
ATOM     12  C   LIG d   1       5.310  -4.800  -5.561  0.00  0.00     0.031 A 
ATOM     13  C   LIG d   1       4.277  -4.693  -6.508  0.00  0.00     0.338 A 
ATOM     14  H   LIG d   1       5.214  -5.480  -4.727  0.00  0.00     0.070 H 
ATOM     15  O   LIG d   1       3.277  -5.376  -6.374  0.00  0.00    -0.245 OA
BRANCH   3  16
ATOM     16  C   LIG d   1       4.358  -2.164  -9.829  0.00  0.00    -0.033 C 
ATOM     17  H   LIG d   1       3.589  -1.494  -9.443  0.00  0.00     0.028 H 
ATOM     18  H   LIG d   1       4.715  -1.792 -10.789  0.00  0.00     0.028 H 
ATOM     19  H   LIG d   1       3.938  -3.162  -9.959  0.00  0.00     0.028 H 
ENDBRANCH   3  16
BRANCH   8  20
ATOM     20  C   LIG d   1       7.556  -4.116  -4.727  0.00  0.00    -0.017 A 
ATOM     21  C   LIG d   1       7.743  -3.098  -3.789  0.00  0.00    -0.054 A 
ATOM     22  C   LIG d   1       8.777  -3.184  -2.881  0.00  0.00    -0.061 A 
ATOM     23  H   LIG d   1       7.078  -2.246  -3.776  0.00  0.00     0.062 H 
ATOM     24  C   LIG d   1       9.630  -4.274  -2.898  0.00  0.00    -0.062 A 
ATOM     25  H   LIG d   1       8.922  -2.397  -2.155  0.00  0.00     0.062 H 
ATOM     26  C   LIG d   1       9.450  -5.285  -3.825  0.00  0.00    -0.061 A 
ATOM     27  H   LIG d   1      10.438  -4.335  -2.185  0.00  0.00     0.062 H 
ATOM     28  C   LIG d   1       8.415  -5.215  -4.736  0.00  0.00    -0.054 A 
ATOM     29  H   LIG d   1      10.119  -6.133  -3.834  0.00  0.00     0.062 H 
ATOM     30  H   LIG d   1       8.274  -6.007  -5.455  0.00  0.00     0.062 H 
ENDBRANCH   8  20
ENDBRANCH   1   2
BRANCH   1  31
ATOM     31  C   LIG d   1       6.920   0.700  -9.866  0.00  0.00     0.312 C 
ATOM     32  O   LIG d   1       7.966   1.200 -10.205  0.00  0.00    -0.250 OA
BRANCH  31  33
ATOM     33  C   LIG d   1       5.880   1.534  -9.163  0.00  0.00     0.047 C 
ATOM     34  H   LIG d   1       6.282   2.528  -8.968  0.00  0.00     0.038 H 
ATOM     35  H   LIG d   1       5.611   1.059  -8.219  0.00  0.00     0.038 H 
BRANCH  33  36
ATOM     36  C   LIG d   1       4.636   1.651 -10.047  0.00  0.00    -0.027 C 
ATOM     37  H   LIG d   1       4.447   0.696 -10.537  0.00  0.00     0.029 H 
ATOM     38  H   LIG d   1       4.799   2.421 -10.801  0.00  0.00     0.029 H 
BRANCH  36  39
ATOM     39  C   LIG d   1       3.430   2.030  -9.184  0.00  0.00     0.015 C 
ATOM     40  H   LIG d   1       2.521   1.635  -9.637  0.00  0.00     0.046 H 
ATOM     41  H   LIG d   1       3.360   3.116  -9.117  0.00  0.00     0.046 H 
BRANCH  39  42
ATOM     42  N   LIG d   1       3.594   1.467  -7.842  0.00  0.00    -0.281 N 
ATOM     43  C   LIG d   1       2.884   0.382  -7.476  0.00  0.00     0.401 C 
ATOM     44  O   LIG d   1       2.107  -0.128  -8.258  0.00  0.00    -0.227 OA
ATOM     45  H   LIG d   1       4.214   1.875  -7.217  0.00  0.00     0.152 HD
BRANCH  43  46
ATOM     46  O   LIG d   1       3.034  -0.136  -6.242  0.00  0.00    -0.446 OA
BRANCH  46  47
ATOM     47  C   LIG d   1       4.389  -0.419  -5.805  0.00  0.00     0.119 C 
ATOM     48  H   LIG d   1       5.031   0.430  -6.039  0.00  0.00     0.075 H 
ATOM     49  H   LIG d   1       4.758  -1.305  -6.320  0.00  0.00     0.075 H 
BRANCH  47  50
ATOM     50  C   LIG d   1       4.397  -0.661  -4.318  0.00  0.00    -0.010 A 
ATOM     51  C   LIG d   1       4.101  -1.916  -3.820  0.00  0.00    -0.055 A 
ATOM     52  C   LIG d   1       4.109  -2.138  -2.456  0.00  0.00    -0.061 A 
ATOM     53  H   LIG d   1       3.863  -2.723  -4.497  0.00  0.00     0.062 H 
ATOM     54  C   LIG d   1       4.414  -1.105  -1.589  0.00  0.00    -0.062 A 
ATOM     55  H   LIG d   1       3.879  -3.119  -2.067  0.00  0.00     0.062 H 
ATOM     56  C   LIG d   1       4.711   0.150  -2.087  0.00  0.00    -0.061 A 
ATOM     57  H   LIG d   1       4.421  -1.278  -0.524  0.00  0.00     0.062 H 
ATOM     58  C   LIG d   1       4.707   0.371  -3.452  0.00  0.00    -0.055 A 
ATOM     59  H   LIG d   1       4.949   0.957  -1.410  0.00  0.00     0.062 H 
ATOM     60  H   LIG d   1       4.944   1.350  -3.841  0.00  0.00     0.062 H 
ENDBRANCH  47  50
ENDBRANCH  46  47
ENDBRANCH  43  46
ENDBRANCH  39  42
ENDBRANCH  36  39
ENDBRANCH  33  36
ENDBRANCH  31  33
ENDBRANCH   1  31
TORSDOF 11
ENDMDL
MODEL 6
REMARK VINA RESULT:      -6.6      5.006      8.256
REMARK  11 active torsions:
REMARK  status: ('A' for Active; 'I' for Inactive)
REMARK    1  A    between atoms: C_1  and  C_2 
REMARK    2  A    between atoms: C_3  and  O_19 
REMARK    3  A    between atoms: C_12  and  C_13 
REMARK    4  A    between atoms: O_19  and  C_20 
REMARK    5  A    between atoms: C_20  and  C_22 
REMARK    6  A    between atoms: C_22  and  C_23 
REMARK    7  A    between atoms: C_23  and  C_24 
REMARK    8  A    between atoms: C_24  and  N_25 
REMARK       I    between atoms: N_25  and  C_26 
REMARK    9  A    between atoms: C_26  and  O_28 
REMARK   10  A    between atoms: O_28  and  C_29 
REMARK   11  A    between atoms: C_29  and  C_30 
ROOT
ATOM      1  O   LIG d   1       8.857   0.729  -4.887  0.00  0.00    -0.425 OA
ENDROOT
BRANCH   1   2
ATOM      2  C   LIG d   1       9.177   2.035  -4.695  0.00  0.00     0.138 A 
ATOM      3  C   LIG d   1       9.231   2.895  -5.780  0.00  0.00     0.035 A 
ATOM      4  C   LIG d   1       9.558   4.229  -5.585  0.00  0.00     0.146 A 
ATOM      5  C   LIG d   1       9.829   4.690  -4.286  0.00  0.00     0.026 A 
ATOM      6  O   LIG d   1       9.616   5.083  -6.630  0.00  0.00    -0.422 OA
ATOM      7  C   LIG d   1       9.771   3.809  -3.203  0.00  0.00    -0.047 A 
ATOM      8  C   LIG d   1      10.174   6.109  -4.091  0.00  0.00    -0.001 A 
ATOM      9  C   LIG d   1       9.442   2.500  -3.410  0.00  0.00    -0.018 A 
ATOM     10  H   LIG d   1       9.979   4.164  -2.204  0.00  0.00     0.063 H 
ATOM     11  H   LIG d   1       9.392   1.820  -2.573  0.00  0.00     0.066 H 
ATOM     12  C   LIG d   1      10.214   6.922  -5.206  0.00  0.00     0.031 A 
ATOM     13  C   LIG d   1       9.928   6.379  -6.471  0.00  0.00     0.338 A 
ATOM     14  H   LIG d   1      10.462   7.968  -5.108  0.00  0.00     0.070 H 
ATOM     15  O   LIG d   1       9.966   7.104  -7.449  0.00  0.00    -0.245 OA
BRANCH   3  16
ATOM     16  C   LIG d   1       8.938   2.384  -7.167  0.00  0.00    -0.033 C 
ATOM     17  H   LIG d   1       8.125   1.659  -7.122  0.00  0.00     0.028 H 
ATOM     18  H   LIG d   1       8.647   3.216  -7.808  0.00  0.00     0.028 H 
ATOM     19  H   LIG d   1       9.829   1.905  -7.573  0.00  0.00     0.028 H 
ENDBRANCH   3  16
BRANCH   8  20
ATOM     20  C   LIG d   1      10.469   6.644  -2.744  0.00  0.00    -0.017 A 
ATOM     21  C   LIG d   1      11.771   6.599  -2.240  0.00  0.00    -0.054 A 
ATOM     22  C   LIG d   1      12.038   7.100  -0.984  0.00  0.00    -0.061 A 
ATOM     23  H   LIG d   1      12.565   6.171  -2.834  0.00  0.00     0.062 H 
ATOM     24  C   LIG d   1      11.022   7.647  -0.221  0.00  0.00    -0.062 A 
ATOM     25  H   LIG d   1      13.045   7.065  -0.594  0.00  0.00     0.062 H 
ATOM     26  C   LIG d   1       9.729   7.695  -0.714  0.00  0.00    -0.061 A 
ATOM     27  H   LIG d   1      11.237   8.037   0.762  0.00  0.00     0.062 H 
ATOM     28  C   LIG d   1       9.448   7.202  -1.972  0.00  0.00    -0.054 A 
ATOM     29  H   LIG d   1       8.939   8.123  -0.114  0.00  0.00     0.062 H 
ATOM     30  H   LIG d   1       8.441   7.245  -2.357  0.00  0.00     0.062 H 
ENDBRANCH   8  20
ENDBRANCH   1   2
BRANCH   1  31
ATOM     31  C   LIG d   1       7.560   0.399  -4.787  0.00  0.00     0.312 C 
ATOM     32  O   LIG d   1       6.772   1.180  -4.308  0.00  0.00    -0.250 OA
BRANCH  31  33
ATOM     33  C   LIG d   1       7.085  -0.947  -5.273  0.00  0.00     0.047 C 
ATOM     34  H   LIG d   1       6.053  -1.103  -4.960  0.00  0.00     0.038 H 
ATOM     35  H   LIG d   1       7.716  -1.729  -4.849  0.00  0.00     0.038 H 
BRANCH  33  36
ATOM     36  C   LIG d   1       7.168  -0.996  -6.800  0.00  0.00    -0.027 C 
ATOM     37  H   LIG d   1       7.605  -1.946  -7.110  0.00  0.00     0.029 H 
ATOM     38  H   LIG d   1       7.792  -0.176  -7.156  0.00  0.00     0.029 H 
BRANCH  36  39
ATOM     39  C   LIG d   1       5.764  -0.862  -7.393  0.00  0.00     0.015 C 
ATOM     40  H   LIG d   1       5.283  -1.841  -7.413  0.00  0.00     0.046 H 
ATOM     41  H   LIG d   1       5.835  -0.472  -8.408  0.00  0.00     0.046 H 
BRANCH  39  42
ATOM     42  N   LIG d   1       4.972   0.055  -6.571  0.00  0.00    -0.281 N 
ATOM     43  C   LIG d   1       3.632   0.090  -6.700  0.00  0.00     0.401 C 
ATOM     44  O   LIG d   1       3.080  -0.640  -7.500  0.00  0.00    -0.227 OA
ATOM     45  H   LIG d   1       5.413   0.637  -5.932  0.00  0.00     0.152 HD
BRANCH  43  46
ATOM     46  O   LIG d   1       2.903   0.933  -5.944  0.00  0.00    -0.446 OA
BRANCH  46  47
ATOM     47  C   LIG d   1       2.100   0.346  -4.888  0.00  0.00     0.119 C 
ATOM     48  H   LIG d   1       1.631  -0.568  -5.253  0.00  0.00     0.075 H 
ATOM     49  H   LIG d   1       1.328   1.053  -4.584  0.00  0.00     0.075 H 
BRANCH  47  50
ATOM     50  C   LIG d   1       2.979   0.023  -3.708  0.00  0.00    -0.010 A 
ATOM     51  C   LIG d   1       3.248  -1.294  -3.386  0.00  0.00    -0.055 A 
ATOM     52  C   LIG d   1       4.055  -1.591  -2.304  0.00  0.00    -0.061 A 
ATOM     53  H   LIG d   1       2.827  -2.092  -3.980  0.00  0.00     0.062 H 
ATOM     54  C   LIG d   1       4.595  -0.570  -1.544  0.00  0.00    -0.062 A 
ATOM     55  H   LIG d   1       4.266  -2.620  -2.052  0.00  0.00     0.062 H 
ATOM     56  C   LIG d   1       4.327   0.748  -1.866  0.00  0.00    -0.061 A 
ATOM     57  H   LIG d   1       5.225  -0.801  -0.698  0.00  0.00     0.062 H 
ATOM     58  C   LIG d   1       3.523   1.044  -2.951  0.00  0.00    -0.055 A 
ATOM     59  H   LIG d   1       4.748   1.545  -1.272  0.00  0.00     0.062 H 
ATOM     60  H   LIG d   1       3.317   2.073  -3.206  0.00  0.00     0.062 H 
ENDBRANCH  47  50
ENDBRANCH  46  47
ENDBRANCH  43  46
ENDBRANCH  39  42
ENDBRANCH  36  39
ENDBRANCH  33  36
ENDBRANCH  31  33
ENDBRANCH   1  31
TORSDOF 11
ENDMDL
MODEL 7
REMARK VINA RESULT:      -6.5      2.178      4.382
REMARK  11 active torsions:
REMARK  status: ('A' for Active; 'I' for Inactive)
REMARK    1  A    between atoms: C_1  and  C_2 
REMARK    2  A    between atoms: C_3  and  O_19 
REMARK    3  A    between atoms: C_12  and  C_13 
REMARK    4  A    between atoms: O_19  and  C_20 
REMARK    5  A    between atoms: C_20  and  C_22 
REMARK    6  A    between atoms: C_22  and  C_23 
REMARK    7  A    between atoms: C_23  and  C_24 
REMARK    8  A    between atoms: C_24  and  N_25 
REMARK       I    between atoms: N_25  and  C_26 
REMARK    9  A    between atoms: C_26  and  O_28 
REMARK   10  A    between atoms: O_28  and  C_29 
REMARK   11  A    between atoms: C_29  and  C_30 
ROOT
ATOM      1  O   LIG d   1       1.983   0.858  -9.241  0.00  0.00    -0.425 OA
ENDROOT
BRANCH   1   2
ATOM      2  C   LIG d   1       2.402  -0.430  -9.136  0.00  0.00     0.138 A 
ATOM      3  C   LIG d   1       2.021  -1.356 -10.093  0.00  0.00     0.035 A 
ATOM      4  C   LIG d   1       2.450  -2.672  -9.986  0.00  0.00     0.146 A 
ATOM      5  C   LIG d   1       3.267  -3.045  -8.906  0.00  0.00     0.026 A 
ATOM      6  O   LIG d   1       2.088  -3.590 -10.909  0.00  0.00    -0.422 OA
ATOM      7  C   LIG d   1       3.641  -2.098  -7.950  0.00  0.00    -0.047 A 
ATOM      8  C   LIG d   1       3.716  -4.444  -8.803  0.00  0.00    -0.001 A 
ATOM      9  C   LIG d   1       3.216  -0.806  -8.071  0.00  0.00    -0.018 A 
ATOM     10  H   LIG d   1       4.270  -2.386  -7.119  0.00  0.00     0.063 H 
ATOM     11  H   LIG d   1       3.510  -0.073  -7.335  0.00  0.00     0.066 H 
ATOM     12  C   LIG d   1       3.307  -5.327  -9.783  0.00  0.00     0.031 A 
ATOM     13  C   LIG d   1       2.489  -4.869 -10.831  0.00  0.00     0.338 A 
ATOM     14  H   LIG d   1       3.614  -6.362  -9.747  0.00  0.00     0.070 H 
ATOM     15  O   LIG d   1       2.133  -5.654 -11.692  0.00  0.00    -0.245 OA
BRANCH   3  16
ATOM     16  C   LIG d   1       1.144  -0.938 -11.244  0.00  0.00    -0.033 C 
ATOM     17  H   LIG d   1       1.260   0.131 -11.419  0.00  0.00     0.028 H 
ATOM     18  H   LIG d   1       1.434  -1.487 -12.141  0.00  0.00     0.028 H 
ATOM     19  H   LIG d   1       0.103  -1.156 -11.005  0.00  0.00     0.028 H 
ENDBRANCH   3  16
BRANCH   8  20
ATOM     20  C   LIG d   1       4.577  -4.889  -7.686  0.00  0.00    -0.017 A 
ATOM     21  C   LIG d   1       4.006  -5.282  -6.473  0.00  0.00    -0.054 A 
ATOM     22  C   LIG d   1       4.814  -5.696  -5.436  0.00  0.00    -0.061 A 
ATOM     23  H   LIG d   1       2.933  -5.260  -6.350  0.00  0.00     0.062 H 
ATOM     24  C   LIG d   1       6.189  -5.723  -5.592  0.00  0.00    -0.062 A 
ATOM     25  H   LIG d   1       4.372  -5.999  -4.498  0.00  0.00     0.062 H 
ATOM     26  C   LIG d   1       6.761  -5.335  -6.791  0.00  0.00    -0.061 A 
ATOM     27  H   LIG d   1       6.817  -6.047  -4.777  0.00  0.00     0.062 H 
ATOM     28  C   LIG d   1       5.964  -4.924  -7.840  0.00  0.00    -0.054 A 
ATOM     29  H   LIG d   1       7.835  -5.358  -6.908  0.00  0.00     0.062 H 
ATOM     30  H   LIG d   1       6.412  -4.627  -8.775  0.00  0.00     0.062 H 
ENDBRANCH   8  20
ENDBRANCH   1   2
BRANCH   1  31
ATOM     31  C   LIG d   1       2.891   1.816  -8.999  0.00  0.00     0.312 C 
ATOM     32  O   LIG d   1       2.812   2.484  -7.994  0.00  0.00    -0.250 OA
BRANCH  31  33
ATOM     33  C   LIG d   1       4.010   2.060  -9.979  0.00  0.00     0.047 C 
ATOM     34  H   LIG d   1       3.722   2.853 -10.669  0.00  0.00     0.038 H 
ATOM     35  H   LIG d   1       4.208   1.145 -10.538  0.00  0.00     0.038 H 
BRANCH  33  36
ATOM     36  C   LIG d   1       5.271   2.477  -9.220  0.00  0.00    -0.027 C 
ATOM     37  H   LIG d   1       4.992   2.894  -8.252  0.00  0.00     0.029 H 
ATOM     38  H   LIG d   1       5.810   3.229  -9.798  0.00  0.00     0.029 H 
BRANCH  36  39
ATOM     39  C   LIG d   1       6.169   1.256  -9.011  0.00  0.00     0.015 C 
ATOM     40  H   LIG d   1       7.169   1.472  -9.386  0.00  0.00     0.046 H 
ATOM     41  H   LIG d   1       5.754   0.404  -9.551  0.00  0.00     0.046 H 
BRANCH  39  42
ATOM     42  N   LIG d   1       6.238   0.940  -7.582  0.00  0.00    -0.281 N 
ATOM     43  C   LIG d   1       6.743  -0.242  -7.178  0.00  0.00     0.401 C 
ATOM     44  O   LIG d   1       7.140  -1.046  -7.998  0.00  0.00    -0.227 OA
ATOM     45  H   LIG d   1       5.922   1.582  -6.927  0.00  0.00     0.152 HD
BRANCH  43  46
ATOM     46  O   LIG d   1       6.808  -0.533  -5.865  0.00  0.00    -0.446 OA
BRANCH  46  47
ATOM     47  C   LIG d   1       6.264  -1.812  -5.444  0.00  0.00     0.119 C 
ATOM     48  H   LIG d   1       7.042  -2.391  -4.946  0.00  0.00     0.075 H 
ATOM     49  H   LIG d   1       5.907  -2.358  -6.317  0.00  0.00     0.075 H 
BRANCH  47  50
ATOM     50  C   LIG d   1       5.120  -1.582  -4.491  0.00  0.00    -0.010 A 
ATOM     51  C   LIG d   1       4.889  -2.475  -3.462  0.00  0.00    -0.055 A 
ATOM     52  C   LIG d   1       3.839  -2.264  -2.587  0.00  0.00    -0.061 A 
ATOM     53  H   LIG d   1       5.528  -3.337  -3.341  0.00  0.00     0.062 H 
ATOM     54  C   LIG d   1       3.021  -1.160  -2.742  0.00  0.00    -0.062 A 
ATOM     55  H   LIG d   1       3.658  -2.962  -1.782  0.00  0.00     0.062 H 
ATOM     56  C   LIG d   1       3.254  -0.267  -3.771  0.00  0.00    -0.061 A 
ATOM     57  H   LIG d   1       2.202  -0.996  -2.059  0.00  0.00     0.062 H 
ATOM     58  C   LIG d   1       4.306  -0.475  -4.643  0.00  0.00    -0.055 A 
ATOM     59  H   LIG d   1       2.615   0.595  -3.892  0.00  0.00     0.062 H 
ATOM     60  H   LIG d   1       4.491   0.224  -5.444  0.00  0.00     0.062 H 
ENDBRANCH  47  50
ENDBRANCH  46  47
ENDBRANCH  43  46
ENDBRANCH  39  42
ENDBRANCH  36  39
ENDBRANCH  33  36
ENDBRANCH  31  33
ENDBRANCH   1  31
TORSDOF 11
ENDMDL
MODEL 8
REMARK VINA RESULT:      -6.5      2.341      5.681
REMARK  11 active torsions:
REMARK  status: ('A' for Active; 'I' for Inactive)
REMARK    1  A    between atoms: C_1  and  C_2 
REMARK    2  A    between atoms: C_3  and  O_19 
REMARK    3  A    between atoms: C_12  and  C_13 
REMARK    4  A    between atoms: O_19  and  C_20 
REMARK    5  A    between atoms: C_20  and  C_22 
REMARK    6  A    between atoms: C_22  and  C_23 
REMARK    7  A    between atoms: C_23  and  C_24 
REMARK    8  A    between atoms: C_24  and  N_25 
REMARK       I    between atoms: N_25  and  C_26 
REMARK    9  A    between atoms: C_26  and  O_28 
REMARK   10  A    between atoms: O_28  and  C_29 
REMARK   11  A    between atoms: C_29  and  C_30 
ROOT
ATOM      1  O   LIG d   1       4.451  -5.845  -7.835  0.00  0.00    -0.425 OA
ENDROOT
BRANCH   1   2
ATOM      2  C   LIG d   1       3.934  -4.728  -8.410  0.00  0.00     0.138 A 
ATOM      3  C   LIG d   1       2.938  -4.846  -9.365  0.00  0.00     0.035 A 
ATOM      4  C   LIG d   1       2.409  -3.705  -9.952  0.00  0.00     0.146 A 
ATOM      5  C   LIG d   1       2.893  -2.444  -9.567  0.00  0.00     0.026 A 
ATOM      6  O   LIG d   1       1.438  -3.800 -10.887  0.00  0.00    -0.422 OA
ATOM      7  C   LIG d   1       3.897  -2.343  -8.601  0.00  0.00    -0.047 A 
ATOM      8  C   LIG d   1       2.323  -1.240 -10.196  0.00  0.00    -0.001 A 
ATOM      9  C   LIG d   1       4.404  -3.474  -8.028  0.00  0.00    -0.018 A 
ATOM     10  H   LIG d   1       4.268  -1.373  -8.305  0.00  0.00     0.063 H 
ATOM     11  H   LIG d   1       5.178  -3.396  -7.279  0.00  0.00     0.066 H 
ATOM     12  C   LIG d   1       1.333  -1.414 -11.143  0.00  0.00     0.031 A 
ATOM     13  C   LIG d   1       0.907  -2.713 -11.470  0.00  0.00     0.338 A 
ATOM     14  H   LIG d   1       0.888  -0.558 -11.629  0.00  0.00     0.070 H 
ATOM     15  O   LIG d   1       0.033  -2.858 -12.307  0.00  0.00    -0.245 OA
BRANCH   3  16
ATOM     16  C   LIG d   1       2.432  -6.207  -9.768  0.00  0.00    -0.033 C 
ATOM     17  H   LIG d   1       2.272  -6.813  -8.876  0.00  0.00     0.028 H 
ATOM     18  H   LIG d   1       1.491  -6.100 -10.308  0.00  0.00     0.028 H 
ATOM     19  H   LIG d   1       3.167  -6.692 -10.409  0.00  0.00     0.028 H 
ENDBRANCH   3  16
BRANCH   8  20
ATOM     20  C   LIG d   1       2.796   0.112  -9.826  0.00  0.00    -0.017 A 
ATOM     21  C   LIG d   1       3.657   0.810 -10.676  0.00  0.00    -0.054 A 
ATOM     22  C   LIG d   1       4.094   2.070 -10.325  0.00  0.00    -0.061 A 
ATOM     23  H   LIG d   1       3.978   0.364 -11.606  0.00  0.00     0.062 H 
ATOM     24  C   LIG d   1       3.685   2.643  -9.134  0.00  0.00    -0.062 A 
ATOM     25  H   LIG d   1       4.760   2.611 -10.982  0.00  0.00     0.062 H 
ATOM     26  C   LIG d   1       2.832   1.955  -8.287  0.00  0.00    -0.061 A 
ATOM     27  H   LIG d   1       4.031   3.629  -8.864  0.00  0.00     0.062 H 
ATOM     28  C   LIG d   1       2.382   0.697  -8.629  0.00  0.00    -0.054 A 
ATOM     29  H   LIG d   1       2.516   2.407  -7.358  0.00  0.00     0.062 H 
ATOM     30  H   LIG d   1       1.714   0.164  -7.969  0.00  0.00     0.062 H 
ENDBRANCH   8  20
ENDBRANCH   1   2
BRANCH   1  31
ATOM     31  C   LIG d   1       4.346  -5.948  -6.501  0.00  0.00     0.312 C 
ATOM     32  O   LIG d   1       3.355  -5.544  -5.939  0.00  0.00    -0.250 OA
BRANCH  31  33
ATOM     33  C   LIG d   1       5.465  -6.567  -5.703  0.00  0.00     0.047 C 
ATOM     34  H   LIG d   1       5.382  -7.653  -5.743  0.00  0.00     0.038 H 
ATOM     35  H   LIG d   1       5.397  -6.236  -4.666  0.00  0.00     0.038 H 
BRANCH  33  36
ATOM     36  C   LIG d   1       6.810  -6.135  -6.289  0.00  0.00    -0.027 C 
ATOM     37  H   LIG d   1       6.641  -5.507  -7.164  0.00  0.00     0.029 H 
ATOM     38  H   LIG d   1       7.379  -7.018  -6.580  0.00  0.00     0.029 H 
BRANCH  36  39
ATOM     39  C   LIG d   1       7.595  -5.346  -5.239  0.00  0.00     0.015 C 
ATOM     40  H   LIG d   1       8.645  -5.300  -5.529  0.00  0.00     0.046 H 
ATOM     41  H   LIG d   1       7.507  -5.843  -4.272  0.00  0.00     0.046 H 
BRANCH  39  42
ATOM     42  N   LIG d   1       7.054  -3.989  -5.142  0.00  0.00    -0.281 N 
ATOM     43  C   LIG d   1       7.609  -3.101  -4.294  0.00  0.00     0.401 C 
ATOM     44  O   LIG d   1       8.558  -3.427  -3.609  0.00  0.00    -0.227 OA
ATOM     45  H   LIG d   1       6.296  -3.729  -5.689  0.00  0.00     0.152 HD
BRANCH  43  46
ATOM     46  O   LIG d   1       7.112  -1.853  -4.204  0.00  0.00    -0.446 OA
BRANCH  46  47
ATOM     47  C   LIG d   1       6.289  -1.551  -3.047  0.00  0.00     0.119 C 
ATOM     48  H   LIG d   1       6.773  -0.780  -2.448  0.00  0.00     0.075 H 
ATOM     49  H   LIG d   1       6.165  -2.452  -2.446  0.00  0.00     0.075 H 
BRANCH  47  50
ATOM     50  C   LIG d   1       4.940  -1.061  -3.503  0.00  0.00    -0.010 A 
ATOM     51  C   LIG d   1       3.881  -1.026  -2.616  0.00  0.00    -0.055 A 
ATOM     52  C   LIG d   1       2.642  -0.576  -3.035  0.00  0.00    -0.061 A 
ATOM     53  H   LIG d   1       4.021  -1.350  -1.595  0.00  0.00     0.062 H 
ATOM     54  C   LIG d   1       2.464  -0.160  -4.341  0.00  0.00    -0.062 A 
ATOM     55  H   LIG d   1       1.815  -0.548  -2.341  0.00  0.00     0.062 H 
ATOM     56  C   LIG d   1       3.523  -0.195  -5.228  0.00  0.00    -0.061 A 
ATOM     57  H   LIG d   1       1.497   0.191  -4.668  0.00  0.00     0.062 H 
ATOM     58  C   LIG d   1       4.762  -0.641  -4.808  0.00  0.00    -0.055 A 
ATOM     59  H   LIG d   1       3.383   0.130  -6.249  0.00  0.00     0.062 H 
ATOM     60  H   LIG d   1       5.591  -0.664  -5.500  0.00  0.00     0.062 H 
ENDBRANCH  47  50
ENDBRANCH  46  47
ENDBRANCH  43  46
ENDBRANCH  39  42
ENDBRANCH  36  39
ENDBRANCH  33  36
ENDBRANCH  31  33
ENDBRANCH   1  31
TORSDOF 11
ENDMDL
MODEL 9
REMARK VINA RESULT:      -6.5      2.333      4.705
REMARK  11 active torsions:
REMARK  status: ('A' for Active; 'I' for Inactive)
REMARK    1  A    between atoms: C_1  and  C_2 
REMARK    2  A    between atoms: C_3  and  O_19 
REMARK    3  A    between atoms: C_12  and  C_13 
REMARK    4  A    between atoms: O_19  and  C_20 
REMARK    5  A    between atoms: C_20  and  C_22 
REMARK    6  A    between atoms: C_22  and  C_23 
REMARK    7  A    between atoms: C_23  and  C_24 
REMARK    8  A    between atoms: C_24  and  N_25 
REMARK       I    between atoms: N_25  and  C_26 
REMARK    9  A    between atoms: C_26  and  O_28 
REMARK   10  A    between atoms: O_28  and  C_29 
REMARK   11  A    between atoms: C_29  and  C_30 
ROOT
ATOM      1  O   LIG d   1       4.646  -1.074 -10.084  0.00  0.00    -0.425 OA
ENDROOT
BRANCH   1   2
ATOM      2  C   LIG d   1       5.167  -0.946  -8.836  0.00  0.00     0.138 A 
ATOM      3  C   LIG d   1       6.542  -0.956  -8.662  0.00  0.00     0.035 A 
ATOM      4  C   LIG d   1       7.075  -0.826  -7.388  0.00  0.00     0.146 A 
ATOM      5  C   LIG d   1       6.210  -0.684  -6.290  0.00  0.00     0.026 A 
ATOM      6  O   LIG d   1       8.413  -0.835  -7.198  0.00  0.00    -0.422 OA
ATOM      7  C   LIG d   1       4.827  -0.675  -6.483  0.00  0.00    -0.047 A 
ATOM      8  C   LIG d   1       6.788  -0.545  -4.942  0.00  0.00    -0.001 A 
ATOM      9  C   LIG d   1       4.317  -0.799  -7.744  0.00  0.00    -0.018 A 
ATOM     10  H   LIG d   1       4.163  -0.565  -5.638  0.00  0.00     0.063 H 
ATOM     11  H   LIG d   1       3.248  -0.788  -7.894  0.00  0.00     0.066 H 
ATOM     12  C   LIG d   1       8.164  -0.563  -4.825  0.00  0.00     0.031 A 
ATOM     13  C   LIG d   1       8.956  -0.709  -5.977  0.00  0.00     0.338 A 
ATOM     14  H   LIG d   1       8.629  -0.464  -3.855  0.00  0.00     0.070 H 
ATOM     15  O   LIG d   1      10.170  -0.724  -5.864  0.00  0.00    -0.245 OA
BRANCH   3  16
ATOM     16  C   LIG d   1       7.454  -1.111  -9.851  0.00  0.00    -0.033 C 
ATOM     17  H   LIG d   1       6.857  -1.174 -10.761  0.00  0.00     0.028 H 
ATOM     18  H   LIG d   1       8.121  -0.251  -9.913  0.00  0.00     0.028 H 
ATOM     19  H   LIG d   1       8.043  -2.021  -9.741  0.00  0.00     0.028 H 
ENDBRANCH   3  16
BRANCH   8  20
ATOM     20  C   LIG d   1       5.922  -0.392  -3.752  0.00  0.00    -0.017 A 
ATOM     21  C   LIG d   1       5.705   0.872  -3.200  0.00  0.00    -0.054 A 
ATOM     22  C   LIG d   1       4.896   1.006  -2.091  0.00  0.00    -0.061 A 
ATOM     23  H   LIG d   1       6.169   1.742  -3.642  0.00  0.00     0.062 H 
ATOM     24  C   LIG d   1       4.301  -0.107  -1.524  0.00  0.00    -0.062 A 
ATOM     25  H   LIG d   1       4.728   1.984  -1.664  0.00  0.00     0.062 H 
ATOM     26  C   LIG d   1       4.513  -1.363  -2.066  0.00  0.00    -0.061 A 
ATOM     27  H   LIG d   1       3.670   0.005  -0.656  0.00  0.00     0.062 H 
ATOM     28  C   LIG d   1       5.315  -1.511  -3.179  0.00  0.00    -0.054 A 
ATOM     29  H   LIG d   1       4.047  -2.228  -1.619  0.00  0.00     0.062 H 
ATOM     30  H   LIG d   1       5.475  -2.490  -3.603  0.00  0.00     0.062 H 
ENDBRANCH   8  20
ENDBRANCH   1   2
BRANCH   1  31
ATOM     31  C   LIG d   1       3.876  -0.067 -10.528  0.00  0.00     0.312 C 
ATOM     32  O   LIG d   1       4.255   1.075 -10.423  0.00  0.00    -0.250 OA
BRANCH  31  33
ATOM     33  C   LIG d   1       2.539  -0.363 -11.158  0.00  0.00     0.047 C 
ATOM     34  H   LIG d   1       2.668  -1.086 -11.963  0.00  0.00     0.038 H 
ATOM     35  H   LIG d   1       2.116   0.558 -11.561  0.00  0.00     0.038 H 
BRANCH  33  36
ATOM     36  C   LIG d   1       1.593  -0.938 -10.102  0.00  0.00    -0.027 C 
ATOM     37  H   LIG d   1       0.615  -0.466 -10.193  0.00  0.00     0.029 H 
ATOM     38  H   LIG d   1       1.999  -0.746  -9.109  0.00  0.00     0.029 H 
BRANCH  36  39
ATOM     39  C   LIG d   1       1.453  -2.448 -10.310  0.00  0.00     0.015 C 
ATOM     40  H   LIG d   1       1.708  -2.697 -11.341  0.00  0.00     0.046 H 
ATOM     41  H   LIG d   1       0.424  -2.748 -10.108  0.00  0.00     0.046 H 
BRANCH  39  42
ATOM     42  N   LIG d   1       2.355  -3.154  -9.398  0.00  0.00    -0.281 N 
ATOM     43  C   LIG d   1       3.051  -4.222  -9.831  0.00  0.00     0.401 C 
ATOM     44  O   LIG d   1       2.929  -4.601 -10.979  0.00  0.00    -0.227 OA
ATOM     45  H   LIG d   1       2.452  -2.850  -8.481  0.00  0.00     0.152 HD
BRANCH  43  46
ATOM     46  O   LIG d   1       3.881  -4.871  -8.993  0.00  0.00    -0.446 OA
BRANCH  46  47
ATOM     47  C   LIG d   1       3.825  -4.501  -7.590  0.00  0.00     0.119 C 
ATOM     48  H   LIG d   1       3.259  -5.251  -7.039  0.00  0.00     0.075 H 
ATOM     49  H   LIG d   1       3.336  -3.531  -7.491  0.00  0.00     0.075 H 
BRANCH  47  50
ATOM     50  C   LIG d   1       5.223  -4.418  -7.036  0.00  0.00    -0.010 A 
ATOM     51  C   LIG d   1       5.421  -4.302  -5.673  0.00  0.00    -0.055 A 
ATOM     52  C   LIG d   1       6.704  -4.227  -5.164  0.00  0.00    -0.061 A 
ATOM     53  H   LIG d   1       4.572  -4.270  -5.005  0.00  0.00     0.062 H 
ATOM     54  C   LIG d   1       7.790  -4.269  -6.019  0.00  0.00    -0.062 A 
ATOM     55  H   LIG d   1       6.859  -4.137  -4.099  0.00  0.00     0.062 H 
ATOM     56  C   LIG d   1       7.592  -4.386  -7.382  0.00  0.00    -0.061 A 
ATOM     57  H   LIG d   1       8.792  -4.210  -5.622  0.00  0.00     0.062 H 
ATOM     58  C   LIG d   1       6.309  -4.465  -7.890  0.00  0.00    -0.055 A 
ATOM     59  H   LIG d   1       8.441  -4.418  -8.049  0.00  0.00     0.062 H 
ATOM     60  H   LIG d   1       6.155  -4.561  -8.954  0.00  0.00     0.062 H 
ENDBRANCH  47  50
ENDBRANCH  46  47
ENDBRANCH  43  46
ENDBRANCH  39  42
ENDBRANCH  36  39
ENDBRANCH  33  36
ENDBRANCH  31  33
ENDBRANCH   1  31
TORSDOF 11
ENDMDL
