MODEL 1
REMARK VINA RESULT:      -6.8      0.000      0.000
REMARK  13 active torsions:
REMARK  status: ('A' for Active; 'I' for Inactive)
REMARK    1  A    between atoms: C_1  and  C_2 
REMARK    2  A    between atoms: C_5  and  O_39 
REMARK    3  A    between atoms: C_7  and  C_36 
REMARK    4  A    between atoms: C_7  and  C_37 
REMARK    5  A    between atoms: C_14  and  N_16 
REMARK       I    between atoms: N_16  and  C_17 
REMARK    6  A    between atoms: C_17  and  O_19 
REMARK    7  A    between atoms: O_19  and  C_20 
REMARK    8  A    between atoms: C_20  and  C_21 
REMARK    9  A    between atoms: C_23  and  C_25 
REMARK   10  A    between atoms: C_25  and  C_26 
REMARK       I    between atoms: C_26  and  N_28 
REMARK   11  A    between atoms: N_28  and  C_29 
REMARK   12  A    between atoms: C_29  and  C_30 
REMARK   13  A    between atoms: C_37  and  O_38 
ROOT
ATOM      1  C   LIG d   1       2.534  -2.123 -10.178  0.00  0.00    -0.019 C 
ATOM      2  C   LIG d   1       1.641  -0.957 -10.614  0.00  0.00    -0.044 C 
ATOM      3  C   LIG d   1       1.207  -1.134 -12.067  0.00  0.00    -0.026 C 
ATOM      4  C   LIG d   1       0.410  -2.436 -12.188  0.00  0.00     0.063 C 
ATOM      5  H   LIG d   1      -0.452  -2.401 -11.522  0.00  0.00     0.060 H 
ATOM      6  C   LIG d   1       1.314  -3.604 -11.799  0.00  0.00     0.021 C 
ATOM      7  C   LIG d   1       1.790  -3.450 -10.352  0.00  0.00    -0.021 C 
ATOM      8  H   LIG d   1       0.946  -3.496  -9.664  0.00  0.00     0.032 H 
ATOM      9  C   LIG d   1       2.765  -4.611 -10.068  0.00  0.00    -0.016 C 
ATOM     10  C   LIG d   1       3.518  -4.317  -8.820  0.00  0.00     0.015 A 
ATOM     11  C   LIG d   1       3.613  -3.130  -8.165  0.00  0.00     0.058 A 
ATOM     12  N   LIG d   1       4.358  -3.130  -7.063  0.00  0.00    -0.229 NA
ATOM     13  C   LIG d   1       4.967  -4.213  -6.626  0.00  0.00     0.167 A 
ATOM     14  S   LIG d   1       4.507  -5.393  -7.817  0.00  0.00    -0.057 SA
ATOM     15  C   LIG d   1       2.888  -1.905  -8.702  0.00  0.00     0.016 C 
ATOM     16  H   LIG d   1       1.975  -1.744  -8.129  0.00  0.00     0.037 H 
ATOM     17  H   LIG d   1       2.193  -0.022 -10.514  0.00  0.00     0.027 H 
ATOM     18  H   LIG d   1       0.758  -0.921  -9.976  0.00  0.00     0.027 H 
ATOM     19  H   LIG d   1       2.088  -1.185 -12.708  0.00  0.00     0.029 H 
ATOM     20  H   LIG d   1       0.582  -0.293 -12.367  0.00  0.00     0.029 H 
ATOM     21  H   LIG d   1       2.203  -5.536  -9.946  0.00  0.00     0.032 H 
ATOM     22  H   LIG d   1       3.461  -4.713 -10.900  0.00  0.00     0.032 H 
ENDROOT
BRANCH  15  23
ATOM     23  C   LIG d   1       3.795  -0.680  -8.571  0.00  0.00     0.033 C 
ATOM     24  H   LIG d   1       4.815  -1.002  -8.358  0.00  0.00     0.036 H 
ATOM     25  H   LIG d   1       3.779  -0.114  -9.502  0.00  0.00     0.036 H 
BRANCH  23  26
ATOM     26  C   LIG d   1       3.301   0.194  -7.446  0.00  0.00     0.214 C 
ATOM     27  O   LIG d   1       3.243   1.397  -7.593  0.00  0.00    -0.276 OA
ATOM     28  N   LIG d   1       2.924  -0.361  -6.278  0.00  0.00    -0.311 N 
ATOM     29  H   LIG d   1       2.970  -1.323  -6.159  0.00  0.00     0.149 HD
BRANCH  28  30
ATOM     30  C   LIG d   1       2.444   0.488  -5.184  0.00  0.00     0.037 C 
ATOM     31  H   LIG d   1       2.650   1.533  -5.418  0.00  0.00     0.051 H 
ATOM     32  H   LIG d   1       1.370   0.348  -5.060  0.00  0.00     0.051 H 
BRANCH  30  33
ATOM     33  C   LIG d   1       3.151   0.111  -3.908  0.00  0.00    -0.030 A 
ATOM     34  C   LIG d   1       3.717   1.091  -3.115  0.00  0.00    -0.057 A 
ATOM     35  C   LIG d   1       4.366   0.745  -1.944  0.00  0.00    -0.061 A 
ATOM     36  H   LIG d   1       3.654   2.128  -3.411  0.00  0.00     0.062 H 
ATOM     37  C   LIG d   1       4.447  -0.582  -1.566  0.00  0.00    -0.062 A 
ATOM     38  H   LIG d   1       4.809   1.510  -1.326  0.00  0.00     0.062 H 
ATOM     39  C   LIG d   1       3.880  -1.563  -2.359  0.00  0.00    -0.061 A 
ATOM     40  H   LIG d   1       4.953  -0.853  -0.651  0.00  0.00     0.062 H 
ATOM     41  C   LIG d   1       3.227  -1.216  -3.526  0.00  0.00    -0.057 A 
ATOM     42  H   LIG d   1       3.943  -2.599  -2.063  0.00  0.00     0.062 H 
ATOM     43  H   LIG d   1       2.781  -1.982  -4.143  0.00  0.00     0.062 H 
ENDBRANCH  30  33
ENDBRANCH  28  30
ENDBRANCH  23  26
ENDBRANCH  15  23
BRANCH   1  44
ATOM     44  C   LIG d   1       3.809  -2.136 -11.023  0.00  0.00    -0.059 C 
ATOM     45  H   LIG d   1       3.555  -2.356 -12.061  0.00  0.00     0.024 H 
ATOM     46  H   LIG d   1       4.293  -1.161 -10.967  0.00  0.00     0.024 H 
ATOM     47  H   LIG d   1       4.487  -2.901 -10.646  0.00  0.00     0.024 H 
ENDBRANCH   1  44
BRANCH   6  48
ATOM     48  C   LIG d   1       0.537  -4.915 -11.940  0.00  0.00    -0.055 C 
ATOM     49  H   LIG d   1       1.197  -5.687 -12.334  0.00  0.00     0.024 H 
ATOM     50  H   LIG d   1       0.160  -5.220 -10.965  0.00  0.00     0.024 H 
ATOM     51  H   LIG d   1      -0.299  -4.768 -12.624  0.00  0.00     0.024 H 
ENDBRANCH   6  48
BRANCH   6  52
ATOM     52  C   LIG d   1       2.527  -3.636 -12.731  0.00  0.00     0.052 C 
ATOM     53  H   LIG d   1       2.772  -2.622 -13.045  0.00  0.00     0.056 H 
ATOM     54  H   LIG d   1       3.378  -4.068 -12.204  0.00  0.00     0.056 H 
BRANCH  52  55
ATOM     55  O   LIG d   1       2.225  -4.432 -13.879  0.00  0.00    -0.394 OA
ATOM     56  H   LIG d   1       1.354  -4.851 -13.849  0.00  0.00     0.209 HD
ENDBRANCH  52  55
ENDBRANCH   6  52
BRANCH  13  57
ATOM     57  N   LIG d   1       5.772  -4.371  -5.504  0.00  0.00    -0.230 N 
ATOM     58  C   LIG d   1       7.097  -4.143  -5.587  0.00  0.00     0.406 C 
ATOM     59  O   LIG d   1       7.589  -3.798  -6.644  0.00  0.00    -0.226 OA
ATOM     60  H   LIG d   1       5.379  -4.647  -4.661  0.00  0.00     0.160 HD
BRANCH  58  61
ATOM     61  O   LIG d   1       7.877  -4.297  -4.501  0.00  0.00    -0.446 OA
BRANCH  61  62
ATOM     62  C   LIG d   1       8.439  -3.093  -3.916  0.00  0.00     0.112 C 
ATOM     63  H   LIG d   1       9.062  -3.360  -3.063  0.00  0.00     0.074 H 
ATOM     64  H   LIG d   1       9.044  -2.575  -4.660  0.00  0.00     0.074 H 
BRANCH  62  65
ATOM     65  C   LIG d   1       7.323  -2.188  -3.459  0.00  0.00    -0.054 C 
ATOM     66  C   LIG d   1       7.286  -0.941  -3.860  0.00  0.00    -0.100 C 
ATOM     67  H   LIG d   1       6.486  -0.294  -3.533  0.00  0.00     0.053 H 
ATOM     68  H   LIG d   1       8.053  -0.563  -4.518  0.00  0.00     0.053 H 
ATOM     69  H   LIG d   1       6.556  -2.568  -2.801  0.00  0.00     0.060 H 
ENDBRANCH  62  65
ENDBRANCH  61  62
ENDBRANCH  58  61
ENDBRANCH  13  57
BRANCH   4  70
ATOM     70  O   LIG d   1      -0.035  -2.602 -13.537  0.00  0.00    -0.391 OA
ATOM     71  H   LIG d   1       0.622  -2.355 -14.200  0.00  0.00     0.210 HD
ENDBRANCH   4  70
TORSDOF 13
ENDMDL
MODEL 2
REMARK VINA RESULT:      -6.7      3.040      4.510
REMARK  13 active torsions:
REMARK  status: ('A' for Active; 'I' for Inactive)
REMARK    1  A    between atoms: C_1  and  C_2 
REMARK    2  A    between atoms: C_5  and  O_39 
REMARK    3  A    between atoms: C_7  and  C_36 
REMARK    4  A    between atoms: C_7  and  C_37 
REMARK    5  A    between atoms: C_14  and  N_16 
REMARK       I    between atoms: N_16  and  C_17 
REMARK    6  A    between atoms: C_17  and  O_19 
REMARK    7  A    between atoms: O_19  and  C_20 
REMARK    8  A    between atoms: C_20  and  C_21 
REMARK    9  A    between atoms: C_23  and  C_25 
REMARK   10  A    between atoms: C_25  and  C_26 
REMARK       I    between atoms: C_26  and  N_28 
REMARK   11  A    between atoms: N_28  and  C_29 
REMARK   12  A    between atoms: C_29  and  C_30 
REMARK   13  A    between atoms: C_37  and  O_38 
ROOT
ATOM      1  C   LIG d   1       4.246  -2.131  -8.007  0.00  0.00    -0.019 C 
ATOM      2  C   LIG d   1       4.301  -0.850  -7.168  0.00  0.00    -0.044 C 
ATOM      3  C   LIG d   1       4.249   0.380  -8.072  0.00  0.00    -0.026 C 
ATOM      4  C   LIG d   1       2.933   0.361  -8.854  0.00  0.00     0.063 C 
ATOM      5  H   LIG d   1       2.094   0.348  -8.158  0.00  0.00     0.060 H 
ATOM      6  C   LIG d   1       2.897  -0.892  -9.727  0.00  0.00     0.021 C 
ATOM      7  C   LIG d   1       2.972  -2.150  -8.856  0.00  0.00    -0.021 C 
ATOM      8  H   LIG d   1       2.096  -2.221  -8.211  0.00  0.00     0.032 H 
ATOM      9  C   LIG d   1       3.024  -3.360  -9.809  0.00  0.00    -0.016 C 
ATOM     10  C   LIG d   1       3.447  -4.563  -9.044  0.00  0.00     0.015 A 
ATOM     11  C   LIG d   1       4.003  -4.607  -7.805  0.00  0.00     0.058 A 
ATOM     12  N   LIG d   1       4.296  -5.819  -7.340  0.00  0.00    -0.229 NA
ATOM     13  C   LIG d   1       4.062  -6.913  -8.034  0.00  0.00     0.167 A 
ATOM     14  S   LIG d   1       3.365  -6.276  -9.493  0.00  0.00    -0.057 SA
ATOM     15  C   LIG d   1       4.251  -3.318  -7.035  0.00  0.00     0.016 C 
ATOM     16  H   LIG d   1       3.466  -3.183  -6.291  0.00  0.00     0.037 H 
ATOM     17  H   LIG d   1       5.227  -0.836  -6.592  0.00  0.00     0.027 H 
ATOM     18  H   LIG d   1       3.454  -0.831  -6.484  0.00  0.00     0.027 H 
ATOM     19  H   LIG d   1       5.088   0.357  -8.768  0.00  0.00     0.029 H 
ATOM     20  H   LIG d   1       4.301   1.282  -7.464  0.00  0.00     0.029 H 
ATOM     21  H   LIG d   1       2.037  -3.529 -10.238  0.00  0.00     0.032 H 
ATOM     22  H   LIG d   1       3.739  -3.164 -10.608  0.00  0.00     0.032 H 
ENDROOT
BRANCH  15  23
ATOM     23  C   LIG d   1       5.608  -3.397  -6.335  0.00  0.00     0.033 C 
ATOM     24  H   LIG d   1       6.004  -4.410  -6.419  0.00  0.00     0.036 H 
ATOM     25  H   LIG d   1       6.300  -2.697  -6.802  0.00  0.00     0.036 H 
BRANCH  23  26
ATOM     26  C   LIG d   1       5.445  -3.043  -4.879  0.00  0.00     0.214 C 
ATOM     27  O   LIG d   1       6.423  -2.832  -4.193  0.00  0.00    -0.276 OA
ATOM     28  N   LIG d   1       4.212  -2.962  -4.340  0.00  0.00    -0.311 N 
ATOM     29  H   LIG d   1       3.430  -3.131  -4.888  0.00  0.00     0.149 HD
BRANCH  28  30
ATOM     30  C   LIG d   1       4.054  -2.618  -2.924  0.00  0.00     0.037 C 
ATOM     31  H   LIG d   1       3.154  -3.093  -2.534  0.00  0.00     0.051 H 
ATOM     32  H   LIG d   1       4.922  -2.968  -2.366  0.00  0.00     0.051 H 
BRANCH  30  33
ATOM     33  C   LIG d   1       3.934  -1.122  -2.781  0.00  0.00    -0.030 A 
ATOM     34  C   LIG d   1       4.589  -0.471  -1.752  0.00  0.00    -0.057 A 
ATOM     35  C   LIG d   1       4.479   0.901  -1.622  0.00  0.00    -0.061 A 
ATOM     36  H   LIG d   1       5.184  -1.035  -1.050  0.00  0.00     0.062 H 
ATOM     37  C   LIG d   1       3.716   1.622  -2.521  0.00  0.00    -0.062 A 
ATOM     38  H   LIG d   1       4.988   1.409  -0.817  0.00  0.00     0.062 H 
ATOM     39  C   LIG d   1       3.063   0.971  -3.551  0.00  0.00    -0.061 A 
ATOM     40  H   LIG d   1       3.631   2.694  -2.419  0.00  0.00     0.062 H 
ATOM     41  C   LIG d   1       3.176  -0.400  -3.685  0.00  0.00    -0.057 A 
ATOM     42  H   LIG d   1       2.467   1.535  -4.254  0.00  0.00     0.062 H 
ATOM     43  H   LIG d   1       2.669  -0.907  -4.491  0.00  0.00     0.062 H 
ENDBRANCH  30  33
ENDBRANCH  28  30
ENDBRANCH  23  26
ENDBRANCH  15  23
BRANCH   1  44
ATOM     44  C   LIG d   1       5.470  -2.200  -8.920  0.00  0.00    -0.059 C 
ATOM     45  H   LIG d   1       5.500  -1.314  -9.556  0.00  0.00     0.024 H 
ATOM     46  H   LIG d   1       6.375  -2.241  -8.313  0.00  0.00     0.024 H 
ATOM     47  H   LIG d   1       5.410  -3.092  -9.543  0.00  0.00     0.024 H 
ENDBRANCH   1  44
BRANCH   6  48
ATOM     48  C   LIG d   1       1.598  -0.911 -10.534  0.00  0.00    -0.055 C 
ATOM     49  H   LIG d   1       1.629  -1.728 -11.254  0.00  0.00     0.024 H 
ATOM     50  H   LIG d   1       0.753  -1.050  -9.860  0.00  0.00     0.024 H 
ATOM     51  H   LIG d   1       1.487   0.036 -11.064  0.00  0.00     0.024 H 
ENDBRANCH   6  48
BRANCH   6  52
ATOM     52  C   LIG d   1       4.086  -0.872 -10.689  0.00  0.00     0.052 C 
ATOM     53  H   LIG d   1       4.933  -0.380 -10.211  0.00  0.00     0.056 H 
ATOM     54  H   LIG d   1       4.360  -1.894 -10.949  0.00  0.00     0.056 H 
BRANCH  52  55
ATOM     55  O   LIG d   1       3.728  -0.159 -11.875  0.00  0.00    -0.394 OA
ATOM     56  H   LIG d   1       3.274  -0.700 -12.536  0.00  0.00     0.209 HD
ENDBRANCH  52  55
ENDBRANCH   6  52
BRANCH  13  57
ATOM     57  N   LIG d   1       4.309  -8.237  -7.689  0.00  0.00    -0.230 N 
ATOM     58  C   LIG d   1       4.567  -8.562  -6.407  0.00  0.00     0.406 C 
ATOM     59  O   LIG d   1       4.582  -7.698  -5.552  0.00  0.00    -0.226 OA
ATOM     60  H   LIG d   1       4.298  -8.926  -8.371  0.00  0.00     0.160 HD
BRANCH  58  61
ATOM     61  O   LIG d   1       4.808  -9.844  -6.073  0.00  0.00    -0.446 OA
BRANCH  61  62
ATOM     62  C   LIG d   1       5.221 -10.102  -4.705  0.00  0.00     0.112 C 
ATOM     63  H   LIG d   1       6.131 -10.702  -4.707  0.00  0.00     0.074 H 
ATOM     64  H   LIG d   1       5.410  -9.157  -4.197  0.00  0.00     0.074 H 
BRANCH  62  65
ATOM     65  C   LIG d   1       4.129 -10.850  -3.983  0.00  0.00    -0.054 C 
ATOM     66  C   LIG d   1       3.312 -10.207  -3.186  0.00  0.00    -0.100 C 
ATOM     67  H   LIG d   1       2.529 -10.743  -2.670  0.00  0.00     0.053 H 
ATOM     68  H   LIG d   1       3.419  -9.142  -3.048  0.00  0.00     0.053 H 
ATOM     69  H   LIG d   1       4.022 -11.916  -4.122  0.00  0.00     0.060 H 
ENDBRANCH  62  65
ENDBRANCH  61  62
ENDBRANCH  58  61
ENDBRANCH  13  57
BRANCH   4  70
ATOM     70  O   LIG d   1       2.851   1.524  -9.682  0.00  0.00    -0.391 OA
ATOM     71  H   LIG d   1       2.440   1.366 -10.542  0.00  0.00     0.210 HD
ENDBRANCH   4  70
TORSDOF 13
ENDMDL
MODEL 3
REMARK VINA RESULT:      -6.4      4.374      8.430
REMARK  13 active torsions:
REMARK  status: ('A' for Active; 'I' for Inactive)
REMARK    1  A    between atoms: C_1  and  C_2 
REMARK    2  A    between atoms: C_5  and  O_39 
REMARK    3  A    between atoms: C_7  and  C_36 
REMARK    4  A    between atoms: C_7  and  C_37 
REMARK    5  A    between atoms: C_14  and  N_16 
REMARK       I    between atoms: N_16  and  C_17 
REMARK    6  A    between atoms: C_17  and  O_19 
REMARK    7  A    between atoms: O_19  and  C_20 
REMARK    8  A    between atoms: C_20  and  C_21 
REMARK    9  A    between atoms: C_23  and  C_25 
REMARK   10  A    between atoms: C_25  and  C_26 
REMARK       I    between atoms: C_26  and  N_28 
REMARK   11  A    between atoms: N_28  and  C_29 
REMARK   12  A    between atoms: C_29  and  C_30 
REMARK   13  A    between atoms: C_37  and  O_38 
ROOT
ATOM      1  C   LIG d   1       9.133  -3.875  -4.838  0.00  0.00    -0.019 C 
ATOM      2  C   LIG d   1       8.772  -5.026  -3.893  0.00  0.00    -0.044 C 
ATOM      3  C   LIG d   1       9.963  -5.967  -3.724  0.00  0.00    -0.026 C 
ATOM      4  C   LIG d   1      11.130  -5.181  -3.119  0.00  0.00     0.063 C 
ATOM      5  H   LIG d   1      10.826  -4.754  -2.162  0.00  0.00     0.060 H 
ATOM      6  C   LIG d   1      11.521  -4.062  -4.082  0.00  0.00     0.021 C 
ATOM      7  C   LIG d   1      10.342  -3.108  -4.297  0.00  0.00    -0.021 C 
ATOM      8  H   LIG d   1      10.079  -2.609  -3.365  0.00  0.00     0.032 H 
ATOM      9  C   LIG d   1      10.785  -2.068  -5.345  0.00  0.00    -0.016 C 
ATOM     10  C   LIG d   1       9.586  -1.345  -5.847  0.00  0.00     0.015 A 
ATOM     11  C   LIG d   1       8.281  -1.690  -5.692  0.00  0.00     0.058 A 
ATOM     12  N   LIG d   1       7.391  -0.869  -6.244  0.00  0.00    -0.229 NA
ATOM     13  C   LIG d   1       7.748   0.215  -6.900  0.00  0.00     0.167 A 
ATOM     14  S   LIG d   1       9.482   0.157  -6.784  0.00  0.00    -0.057 SA
ATOM     15  C   LIG d   1       7.913  -2.948  -4.921  0.00  0.00     0.016 C 
ATOM     16  H   LIG d   1       7.593  -2.677  -3.915  0.00  0.00     0.037 H 
ATOM     17  H   LIG d   1       7.929  -5.581  -4.306  0.00  0.00     0.027 H 
ATOM     18  H   LIG d   1       8.492  -4.620  -2.921  0.00  0.00     0.027 H 
ATOM     19  H   LIG d   1      10.256  -6.365  -4.696  0.00  0.00     0.029 H 
ATOM     20  H   LIG d   1       9.689  -6.786  -3.059  0.00  0.00     0.029 H 
ATOM     21  H   LIG d   1      11.473  -1.359  -4.887  0.00  0.00     0.032 H 
ATOM     22  H   LIG d   1      11.280  -2.574  -6.174  0.00  0.00     0.032 H 
ENDROOT
BRANCH  15  23
ATOM     23  C   LIG d   1       6.772  -3.670  -5.641  0.00  0.00     0.033 C 
ATOM     24  H   LIG d   1       6.687  -3.292  -6.660  0.00  0.00     0.036 H 
ATOM     25  H   LIG d   1       6.978  -4.740  -5.666  0.00  0.00     0.036 H 
BRANCH  23  26
ATOM     26  C   LIG d   1       5.479  -3.426  -4.906  0.00  0.00     0.214 C 
ATOM     27  O   LIG d   1       4.433  -3.830  -5.369  0.00  0.00    -0.276 OA
ATOM     28  N   LIG d   1       5.485  -2.759  -3.735  0.00  0.00    -0.311 N 
ATOM     29  H   LIG d   1       6.321  -2.435  -3.365  0.00  0.00     0.149 HD
BRANCH  28  30
ATOM     30  C   LIG d   1       4.228  -2.521  -3.021  0.00  0.00     0.037 C 
ATOM     31  H   LIG d   1       3.406  -2.982  -3.569  0.00  0.00     0.051 H 
ATOM     32  H   LIG d   1       4.289  -2.955  -2.023  0.00  0.00     0.051 H 
BRANCH  30  33
ATOM     33  C   LIG d   1       3.987  -1.037  -2.909  0.00  0.00    -0.030 A 
ATOM     34  C   LIG d   1       3.217  -0.388  -3.856  0.00  0.00    -0.057 A 
ATOM     35  C   LIG d   1       2.996   0.973  -3.753  0.00  0.00    -0.061 A 
ATOM     36  H   LIG d   1       2.790  -0.944  -4.677  0.00  0.00     0.062 H 
ATOM     37  C   LIG d   1       3.544   1.684  -2.702  0.00  0.00    -0.062 A 
ATOM     38  H   LIG d   1       2.397   1.480  -4.494  0.00  0.00     0.062 H 
ATOM     39  C   LIG d   1       4.313   1.035  -1.754  0.00  0.00    -0.061 A 
ATOM     40  H   LIG d   1       3.370   2.747  -2.621  0.00  0.00     0.062 H 
ATOM     41  C   LIG d   1       4.530  -0.327  -1.854  0.00  0.00    -0.057 A 
ATOM     42  H   LIG d   1       4.740   1.590  -0.933  0.00  0.00     0.062 H 
ATOM     43  H   LIG d   1       5.127  -0.835  -1.112  0.00  0.00     0.062 H 
ENDBRANCH  30  33
ENDBRANCH  28  30
ENDBRANCH  23  26
ENDBRANCH  15  23
BRANCH   1  44
ATOM     44  C   LIG d   1       9.458  -4.433  -6.224  0.00  0.00    -0.059 C 
ATOM     45  H   LIG d   1       9.364  -5.519  -6.211  0.00  0.00     0.024 H 
ATOM     46  H   LIG d   1       8.765  -4.017  -6.956  0.00  0.00     0.024 H 
ATOM     47  H   LIG d   1      10.478  -4.161  -6.495  0.00  0.00     0.024 H 
ENDBRANCH   1  44
BRANCH   6  48
ATOM     48  C   LIG d   1      12.703  -3.284  -3.502  0.00  0.00    -0.055 C 
ATOM     49  H   LIG d   1      12.788  -2.322  -4.006  0.00  0.00     0.024 H 
ATOM     50  H   LIG d   1      12.545  -3.124  -2.436  0.00  0.00     0.024 H 
ATOM     51  H   LIG d   1      13.620  -3.855  -3.650  0.00  0.00     0.024 H 
ENDBRANCH   6  48
BRANCH   6  52
ATOM     52  C   LIG d   1      11.931  -4.671  -5.424  0.00  0.00     0.052 C 
ATOM     53  H   LIG d   1      11.368  -5.589  -5.595  0.00  0.00     0.056 H 
ATOM     54  H   LIG d   1      11.719  -3.962  -6.224  0.00  0.00     0.056 H 
BRANCH  52  55
ATOM     55  O   LIG d   1      13.329  -4.966  -5.407  0.00  0.00    -0.394 OA
ATOM     56  H   LIG d   1      13.544  -5.870  -5.675  0.00  0.00     0.209 HD
ENDBRANCH  52  55
ENDBRANCH   6  52
BRANCH  13  57
ATOM     57  N   LIG d   1       6.946   1.162  -7.527  0.00  0.00    -0.230 N 
ATOM     58  C   LIG d   1       6.814   1.153  -8.868  0.00  0.00     0.406 C 
ATOM     59  O   LIG d   1       7.397   0.316  -9.530  0.00  0.00    -0.226 OA
ATOM     60  H   LIG d   1       6.482   1.831  -6.998  0.00  0.00     0.160 HD
BRANCH  58  61
ATOM     61  O   LIG d   1       6.039   2.071  -9.475  0.00  0.00    -0.446 OA
BRANCH  61  62
ATOM     62  C   LIG d   1       4.694   1.660  -9.840  0.00  0.00     0.112 C 
ATOM     63  H   LIG d   1       4.570   1.743 -10.919  0.00  0.00     0.074 H 
ATOM     64  H   LIG d   1       4.534   0.626  -9.534  0.00  0.00     0.074 H 
BRANCH  62  65
ATOM     65  C   LIG d   1       3.692   2.548  -9.149  0.00  0.00    -0.054 C 
ATOM     66  C   LIG d   1       2.766   2.022  -8.386  0.00  0.00    -0.100 C 
ATOM     67  H   LIG d   1       2.049   2.659  -7.891  0.00  0.00     0.053 H 
ATOM     68  H   LIG d   1       2.723   0.952  -8.250  0.00  0.00     0.053 H 
ATOM     69  H   LIG d   1       3.736   3.619  -9.285  0.00  0.00     0.060 H 
ENDBRANCH  62  65
ENDBRANCH  61  62
ENDBRANCH  58  61
ENDBRANCH  13  57
BRANCH   4  70
ATOM     70  O   LIG d   1      12.244  -6.054  -2.920  0.00  0.00    -0.391 OA
ATOM     71  H   LIG d   1      12.381  -6.685  -3.639  0.00  0.00     0.210 HD
ENDBRANCH   4  70
TORSDOF 13
ENDMDL
MODEL 4
REMARK VINA RESULT:      -6.3      1.675      1.811
REMARK  13 active torsions:
REMARK  status: ('A' for Active; 'I' for Inactive)
REMARK    1  A    between atoms: C_1  and  C_2 
REMARK    2  A    between atoms: C_5  and  O_39 
REMARK    3  A    between atoms: C_7  and  C_36 
REMARK    4  A    between atoms: C_7  and  C_37 
REMARK    5  A    between atoms: C_14  and  N_16 
REMARK       I    between atoms: N_16  and  C_17 
REMARK    6  A    between atoms: C_17  and  O_19 
REMARK    7  A    between atoms: O_19  and  C_20 
REMARK    8  A    between atoms: C_20  and  C_21 
REMARK    9  A    between atoms: C_23  and  C_25 
REMARK   10  A    between atoms: C_25  and  C_26 
REMARK       I    between atoms: C_26  and  N_28 
REMARK   11  A    between atoms: N_28  and  C_29 
REMARK   12  A    between atoms: C_29  and  C_30 
REMARK   13  A    between atoms: C_37  and  O_38 
ROOT
ATOM      1  C   LIG d   1       2.843  -1.591 -10.014  0.00  0.00    -0.019 C 
ATOM      2  C   LIG d   1       1.460  -0.965 -10.217  0.00  0.00    -0.044 C 
ATOM      3  C   LIG d   1       0.901  -1.343 -11.587  0.00  0.00    -0.026 C 
ATOM      4  C   LIG d   1       0.766  -2.866 -11.661  0.00  0.00     0.063 C 
ATOM      5  H   LIG d   1       0.114  -3.216 -10.860  0.00  0.00     0.060 H 
ATOM      6  C   LIG d   1       2.152  -3.490 -11.507  0.00  0.00     0.021 C 
ATOM      7  C   LIG d   1       2.757  -3.114 -10.151  0.00  0.00    -0.021 C 
ATOM      8  H   LIG d   1       2.162  -3.528  -9.338  0.00  0.00     0.032 H 
ATOM      9  C   LIG d   1       4.182  -3.701 -10.112  0.00  0.00    -0.016 C 
ATOM     10  C   LIG d   1       4.932  -3.078  -8.988  0.00  0.00     0.015 A 
ATOM     11  C   LIG d   1       4.599  -1.968  -8.280  0.00  0.00     0.058 A 
ATOM     12  N   LIG d   1       5.447  -1.612  -7.319  0.00  0.00    -0.229 NA
ATOM     13  C   LIG d   1       6.545  -2.294  -7.063  0.00  0.00     0.167 A 
ATOM     14  S   LIG d   1       6.461  -3.572  -8.238  0.00  0.00    -0.057 SA
ATOM     15  C   LIG d   1       3.318  -1.213  -8.605  0.00  0.00     0.016 C 
ATOM     16  H   LIG d   1       2.548  -1.476  -7.880  0.00  0.00     0.037 H 
ATOM     17  H   LIG d   1       1.541   0.120 -10.146  0.00  0.00     0.027 H 
ATOM     18  H   LIG d   1       0.784  -1.324  -9.440  0.00  0.00     0.027 H 
ATOM     19  H   LIG d   1       1.580  -0.997 -12.366  0.00  0.00     0.029 H 
ATOM     20  H   LIG d   1      -0.078  -0.882 -11.722  0.00  0.00     0.029 H 
ATOM     21  H   LIG d   1       4.129  -4.778  -9.961  0.00  0.00     0.032 H 
ATOM     22  H   LIG d   1       4.690  -3.489 -11.053  0.00  0.00     0.032 H 
ENDROOT
BRANCH  15  23
ATOM     23  C   LIG d   1       3.584   0.292  -8.544  0.00  0.00     0.033 C 
ATOM     24  H   LIG d   1       4.660   0.472  -8.551  0.00  0.00     0.036 H 
ATOM     25  H   LIG d   1       3.128   0.777  -9.407  0.00  0.00     0.036 H 
BRANCH  23  26
ATOM     26  C   LIG d   1       2.990   0.856  -7.279  0.00  0.00     0.214 C 
ATOM     27  O   LIG d   1       2.697   2.032  -7.220  0.00  0.00    -0.276 OA
ATOM     28  N   LIG d   1       2.785   0.056  -6.215  0.00  0.00    -0.311 N 
ATOM     29  H   LIG d   1       3.019  -0.884  -6.262  0.00  0.00     0.149 HD
BRANCH  28  30
ATOM     30  C   LIG d   1       2.207   0.605  -4.986  0.00  0.00     0.037 C 
ATOM     31  H   LIG d   1       2.208   1.694  -5.039  0.00  0.00     0.051 H 
ATOM     32  H   LIG d   1       1.184   0.247  -4.873  0.00  0.00     0.051 H 
BRANCH  30  33
ATOM     33  C   LIG d   1       3.029   0.160  -3.803  0.00  0.00    -0.030 A 
ATOM     34  C   LIG d   1       3.694   1.095  -3.032  0.00  0.00    -0.057 A 
ATOM     35  C   LIG d   1       4.447   0.686  -1.947  0.00  0.00    -0.061 A 
ATOM     36  H   LIG d   1       3.627   2.143  -3.278  0.00  0.00     0.062 H 
ATOM     37  C   LIG d   1       4.533  -0.657  -1.632  0.00  0.00    -0.062 A 
ATOM     38  H   LIG d   1       4.968   1.415  -1.346  0.00  0.00     0.062 H 
ATOM     39  C   LIG d   1       3.867  -1.592  -2.403  0.00  0.00    -0.061 A 
ATOM     40  H   LIG d   1       5.121  -0.976  -0.784  0.00  0.00     0.062 H 
ATOM     41  C   LIG d   1       3.110  -1.183  -3.484  0.00  0.00    -0.057 A 
ATOM     42  H   LIG d   1       3.934  -2.641  -2.156  0.00  0.00     0.062 H 
ATOM     43  H   LIG d   1       2.586  -1.913  -4.084  0.00  0.00     0.062 H 
ENDBRANCH  30  33
ENDBRANCH  28  30
ENDBRANCH  23  26
ENDBRANCH  15  23
BRANCH   1  44
ATOM     44  C   LIG d   1       3.814  -1.037 -11.057  0.00  0.00    -0.059 C 
ATOM     45  H   LIG d   1       4.252  -1.862 -11.621  0.00  0.00     0.024 H 
ATOM     46  H   LIG d   1       3.279  -0.376 -11.739  0.00  0.00     0.024 H 
ATOM     47  H   LIG d   1       4.606  -0.480 -10.557  0.00  0.00     0.024 H 
ENDBRANCH   1  44
BRANCH   6  48
ATOM     48  C   LIG d   1       2.036  -5.012 -11.606  0.00  0.00    -0.055 C 
ATOM     49  H   LIG d   1       2.979  -5.426 -11.961  0.00  0.00     0.024 H 
ATOM     50  H   LIG d   1       1.804  -5.423 -10.624  0.00  0.00     0.024 H 
ATOM     51  H   LIG d   1       1.240  -5.270 -12.305  0.00  0.00     0.024 H 
ENDBRANCH   6  48
BRANCH   6  52
ATOM     52  C   LIG d   1       3.062  -2.982 -12.627  0.00  0.00     0.052 C 
ATOM     53  H   LIG d   1       2.766  -1.971 -12.906  0.00  0.00     0.056 H 
ATOM     54  H   LIG d   1       4.095  -2.974 -12.279  0.00  0.00     0.056 H 
BRANCH  52  55
ATOM     55  O   LIG d   1       2.949  -3.843 -13.761  0.00  0.00    -0.394 OA
ATOM     56  H   LIG d   1       2.083  -3.817 -14.190  0.00  0.00     0.209 HD
ENDBRANCH  52  55
ENDBRANCH   6  52
BRANCH  13  57
ATOM     57  N   LIG d   1       7.520  -2.052  -6.103  0.00  0.00    -0.230 N 
ATOM     58  C   LIG d   1       8.504  -1.166  -6.350  0.00  0.00     0.406 C 
ATOM     59  O   LIG d   1       8.539  -0.577  -7.413  0.00  0.00    -0.226 OA
ATOM     60  H   LIG d   1       7.493  -2.522  -5.255  0.00  0.00     0.160 HD
BRANCH  58  61
ATOM     61  O   LIG d   1       9.450  -0.932  -5.421  0.00  0.00    -0.446 OA
BRANCH  61  62
ATOM     62  C   LIG d   1       9.486   0.397  -4.836  0.00  0.00     0.112 C 
ATOM     63  H   LIG d   1      10.248   0.430  -4.058  0.00  0.00     0.074 H 
ATOM     64  H   LIG d   1       9.724   1.127  -5.609  0.00  0.00     0.074 H 
BRANCH  62  65
ATOM     65  C   LIG d   1       8.141   0.719  -4.237  0.00  0.00    -0.054 C 
ATOM     66  C   LIG d   1       7.874   1.940  -3.845  0.00  0.00    -0.100 C 
ATOM     67  H   LIG d   1       6.911   2.171  -3.416  0.00  0.00     0.053 H 
ATOM     68  H   LIG d   1       8.618   2.716  -3.953  0.00  0.00     0.053 H 
ATOM     69  H   LIG d   1       7.398  -0.057  -4.130  0.00  0.00     0.060 H 
ENDBRANCH  62  65
ENDBRANCH  61  62
ENDBRANCH  58  61
ENDBRANCH  13  57
BRANCH   4  70
ATOM     70  O   LIG d   1       0.212  -3.237 -12.926  0.00  0.00    -0.391 OA
ATOM     71  H   LIG d   1       0.869  -3.515 -13.577  0.00  0.00     0.210 HD
ENDBRANCH   4  70
TORSDOF 13
ENDMDL
MODEL 5
REMARK VINA RESULT:      -6.3      2.805      3.625
REMARK  13 active torsions:
REMARK  status: ('A' for Active; 'I' for Inactive)
REMARK    1  A    between atoms: C_1  and  C_2 
REMARK    2  A    between atoms: C_5  and  O_39 
REMARK    3  A    between atoms: C_7  and  C_36 
REMARK    4  A    between atoms: C_7  and  C_37 
REMARK    5  A    between atoms: C_14  and  N_16 
REMARK       I    between atoms: N_16  and  C_17 
REMARK    6  A    between atoms: C_17  and  O_19 
REMARK    7  A    between atoms: O_19  and  C_20 
REMARK    8  A    between atoms: C_20  and  C_21 
REMARK    9  A    between atoms: C_23  and  C_25 
REMARK   10  A    between atoms: C_25  and  C_26 
REMARK       I    between atoms: C_26  and  N_28 
REMARK   11  A    between atoms: N_28  and  C_29 
REMARK   12  A    between atoms: C_29  and  C_30 
REMARK   13  A    between atoms: C_37  and  O_38 
ROOT
ATOM      1  C   LIG d   1       3.349  -0.387  -9.576  0.00  0.00    -0.019 C 
ATOM      2  C   LIG d   1       1.845  -0.657  -9.475  0.00  0.00    -0.044 C 
ATOM      3  C   LIG d   1       1.288  -1.079 -10.832  0.00  0.00    -0.026 C 
ATOM      4  C   LIG d   1       1.990  -2.367 -11.273  0.00  0.00     0.063 C 
ATOM      5  H   LIG d   1       1.833  -3.144 -10.525  0.00  0.00     0.060 H 
ATOM      6  C   LIG d   1       3.485  -2.087 -11.420  0.00  0.00     0.021 C 
ATOM      7  C   LIG d   1       4.076  -1.636 -10.082  0.00  0.00    -0.021 C 
ATOM      8  H   LIG d   1       4.002  -2.434  -9.343  0.00  0.00     0.032 H 
ATOM      9  C   LIG d   1       5.556  -1.287 -10.334  0.00  0.00    -0.016 C 
ATOM     10  C   LIG d   1       6.078  -0.520  -9.171  0.00  0.00     0.015 A 
ATOM     11  C   LIG d   1       5.366   0.071  -8.177  0.00  0.00     0.058 A 
ATOM     12  N   LIG d   1       6.076   0.704  -7.247  0.00  0.00    -0.229 NA
ATOM     13  C   LIG d   1       7.391   0.756  -7.282  0.00  0.00     0.167 A 
ATOM     14  S   LIG d   1       7.753  -0.143  -8.726  0.00  0.00    -0.057 SA
ATOM     15  C   LIG d   1       3.847  -0.019  -8.172  0.00  0.00     0.016 C 
ATOM     16  H   LIG d   1       3.531  -0.783  -7.462  0.00  0.00     0.037 H 
ATOM     17  H   LIG d   1       1.338   0.249  -9.142  0.00  0.00     0.027 H 
ATOM     18  H   LIG d   1       1.669  -1.451  -8.750  0.00  0.00     0.027 H 
ATOM     19  H   LIG d   1       1.475  -0.293 -11.564  0.00  0.00     0.029 H 
ATOM     20  H   LIG d   1       0.216  -1.256 -10.749  0.00  0.00     0.029 H 
ATOM     21  H   LIG d   1       6.132  -2.204 -10.454  0.00  0.00     0.032 H 
ATOM     22  H   LIG d   1       5.639  -0.683 -11.237  0.00  0.00     0.032 H 
ENDROOT
BRANCH  15  23
ATOM     23  C   LIG d   1       3.259   1.332  -7.761  0.00  0.00     0.033 C 
ATOM     24  H   LIG d   1       4.055   2.076  -7.710  0.00  0.00     0.036 H 
ATOM     25  H   LIG d   1       2.517   1.645  -8.496  0.00  0.00     0.036 H 
BRANCH  23  26
ATOM     26  C   LIG d   1       2.604   1.206  -6.410  0.00  0.00     0.214 C 
ATOM     27  O   LIG d   1       2.237   2.200  -5.819  0.00  0.00    -0.276 OA
ATOM     28  N   LIG d   1       2.426  -0.010  -5.858  0.00  0.00    -0.311 N 
ATOM     29  H   LIG d   1       2.719  -0.805  -6.330  0.00  0.00     0.149 HD
BRANCH  28  30
ATOM     30  C   LIG d   1       1.790  -0.132  -4.544  0.00  0.00     0.037 C 
ATOM     31  H   LIG d   1       1.204   0.764  -4.339  0.00  0.00     0.051 H 
ATOM     32  H   LIG d   1       1.135  -1.004  -4.537  0.00  0.00     0.051 H 
BRANCH  30  33
ATOM     33  C   LIG d   1       2.850  -0.291  -3.485  0.00  0.00    -0.030 A 
ATOM     34  C   LIG d   1       3.322  -1.550  -3.162  0.00  0.00    -0.057 A 
ATOM     35  C   LIG d   1       4.295  -1.695  -2.191  0.00  0.00    -0.061 A 
ATOM     36  H   LIG d   1       2.929  -2.419  -3.667  0.00  0.00     0.062 H 
ATOM     37  C   LIG d   1       4.797  -0.582  -1.544  0.00  0.00    -0.062 A 
ATOM     38  H   LIG d   1       4.662  -2.678  -1.937  0.00  0.00     0.062 H 
ATOM     39  C   LIG d   1       4.326   0.677  -1.867  0.00  0.00    -0.061 A 
ATOM     40  H   LIG d   1       5.558  -0.696  -0.785  0.00  0.00     0.062 H 
ATOM     41  C   LIG d   1       3.357   0.823  -2.842  0.00  0.00    -0.057 A 
ATOM     42  H   LIG d   1       4.719   1.547  -1.362  0.00  0.00     0.062 H 
ATOM     43  H   LIG d   1       2.993   1.806  -3.097  0.00  0.00     0.062 H 
ENDBRANCH  30  33
ENDBRANCH  28  30
ENDBRANCH  23  26
ENDBRANCH  15  23
BRANCH   1  44
ATOM     44  C   LIG d   1       3.599   0.775 -10.538  0.00  0.00    -0.059 C 
ATOM     45  H   LIG d   1       3.825   0.384 -11.530  0.00  0.00     0.024 H 
ATOM     46  H   LIG d   1       2.709   1.402 -10.590  0.00  0.00     0.024 H 
ATOM     47  H   LIG d   1       4.441   1.368 -10.182  0.00  0.00     0.024 H 
ENDBRANCH   1  44
BRANCH   6  48
ATOM     48  C   LIG d   1       4.195  -3.359 -11.886  0.00  0.00    -0.055 C 
ATOM     49  H   LIG d   1       3.800  -3.662 -12.855  0.00  0.00     0.024 H 
ATOM     50  H   LIG d   1       5.264  -3.167 -11.973  0.00  0.00     0.024 H 
ATOM     51  H   LIG d   1       4.026  -4.155 -11.160  0.00  0.00     0.024 H 
ENDBRANCH   6  48
BRANCH   6  52
ATOM     52  C   LIG d   1       3.692  -0.986 -12.462  0.00  0.00     0.052 C 
ATOM     53  H   LIG d   1       2.877  -0.265 -12.397  0.00  0.00     0.056 H 
ATOM     54  H   LIG d   1       4.639  -0.480 -12.271  0.00  0.00     0.056 H 
BRANCH  52  55
ATOM     55  O   LIG d   1       3.716  -1.563 -13.769  0.00  0.00    -0.394 OA
ATOM     56  H   LIG d   1       4.605  -1.745 -14.102  0.00  0.00     0.209 HD
ENDBRANCH  52  55
ENDBRANCH   6  52
BRANCH  13  57
ATOM     57  N   LIG d   1       8.266   1.372  -6.394  0.00  0.00    -0.230 N 
ATOM     58  C   LIG d   1       8.794   0.670  -5.372  0.00  0.00     0.406 C 
ATOM     59  O   LIG d   1       8.506  -0.502  -5.227  0.00  0.00    -0.226 OA
ATOM     60  H   LIG d   1       8.495   2.308  -6.509  0.00  0.00     0.160 HD
BRANCH  58  61
ATOM     61  O   LIG d   1       9.640   1.267  -4.512  0.00  0.00    -0.446 OA
BRANCH  61  62
ATOM     62  C   LIG d   1       9.059   2.176  -3.540  0.00  0.00     0.112 C 
ATOM     63  H   LIG d   1       7.985   2.247  -3.705  0.00  0.00     0.074 H 
ATOM     64  H   LIG d   1       9.249   1.803  -2.533  0.00  0.00     0.074 H 
BRANCH  62  65
ATOM     65  C   LIG d   1       9.681   3.541  -3.694  0.00  0.00    -0.054 C 
ATOM     66  C   LIG d   1      10.320   4.087  -2.689  0.00  0.00    -0.100 C 
ATOM     67  H   LIG d   1      10.766   5.064  -2.800  0.00  0.00     0.053 H 
ATOM     68  H   LIG d   1      10.403   3.558  -1.751  0.00  0.00     0.053 H 
ATOM     69  H   LIG d   1       9.599   4.068  -4.633  0.00  0.00     0.060 H 
ENDBRANCH  62  65
ENDBRANCH  61  62
ENDBRANCH  58  61
ENDBRANCH  13  57
BRANCH   4  70
ATOM     70  O   LIG d   1       1.457  -2.797 -12.528  0.00  0.00    -0.391 OA
ATOM     71  H   LIG d   1       1.980  -3.483 -12.963  0.00  0.00     0.210 HD
ENDBRANCH   4  70
TORSDOF 13
ENDMDL
MODEL 6
REMARK VINA RESULT:      -5.9      3.253      4.209
REMARK  13 active torsions:
REMARK  status: ('A' for Active; 'I' for Inactive)
REMARK    1  A    between atoms: C_1  and  C_2 
REMARK    2  A    between atoms: C_5  and  O_39 
REMARK    3  A    between atoms: C_7  and  C_36 
REMARK    4  A    between atoms: C_7  and  C_37 
REMARK    5  A    between atoms: C_14  and  N_16 
REMARK       I    between atoms: N_16  and  C_17 
REMARK    6  A    between atoms: C_17  and  O_19 
REMARK    7  A    between atoms: O_19  and  C_20 
REMARK    8  A    between atoms: C_20  and  C_21 
REMARK    9  A    between atoms: C_23  and  C_25 
REMARK   10  A    between atoms: C_25  and  C_26 
REMARK       I    between atoms: C_26  and  N_28 
REMARK   11  A    between atoms: N_28  and  C_29 
REMARK   12  A    between atoms: C_29  and  C_30 
REMARK   13  A    between atoms: C_37  and  O_38 
ROOT
ATOM      1  C   LIG d   1       3.965  -3.666  -8.426  0.00  0.00    -0.019 C 
ATOM      2  C   LIG d   1       3.606  -2.200  -8.164  0.00  0.00    -0.044 C 
ATOM      3  C   LIG d   1       3.246  -1.499  -9.472  0.00  0.00    -0.026 C 
ATOM      4  C   LIG d   1       2.032  -2.199 -10.088  0.00  0.00     0.063 C 
ATOM      5  H   LIG d   1       1.198  -2.173  -9.385  0.00  0.00     0.060 H 
ATOM      6  C   LIG d   1       2.403  -3.649 -10.394  0.00  0.00     0.021 C 
ATOM      7  C   LIG d   1       2.794  -4.381  -9.107  0.00  0.00    -0.021 C 
ATOM      8  H   LIG d   1       1.946  -4.437  -8.425  0.00  0.00     0.032 H 
ATOM      9  C   LIG d   1       3.241  -5.800  -9.510  0.00  0.00    -0.016 C 
ATOM     10  C   LIG d   1       3.956  -6.427  -8.365  0.00  0.00     0.015 A 
ATOM     11  C   LIG d   1       4.438  -5.817  -7.252  0.00  0.00     0.058 A 
ATOM     12  N   LIG d   1       5.046  -6.608  -6.370  0.00  0.00    -0.229 NA
ATOM     13  C   LIG d   1       5.172  -7.904  -6.560  0.00  0.00     0.167 A 
ATOM     14  S   LIG d   1       4.394  -8.124  -8.100  0.00  0.00    -0.057 SA
ATOM     15  C   LIG d   1       4.265  -4.317  -7.069  0.00  0.00     0.016 C 
ATOM     16  H   LIG d   1       3.438  -4.127  -6.385  0.00  0.00     0.037 H 
ATOM     17  H   LIG d   1       4.458  -1.696  -7.707  0.00  0.00     0.027 H 
ATOM     18  H   LIG d   1       2.756  -2.153  -7.483  0.00  0.00     0.027 H 
ATOM     19  H   LIG d   1       4.089  -1.555 -10.161  0.00  0.00     0.029 H 
ATOM     20  H   LIG d   1       3.004  -0.455  -9.272  0.00  0.00     0.029 H 
ATOM     21  H   LIG d   1       2.368  -6.398  -9.766  0.00  0.00     0.032 H 
ATOM     22  H   LIG d   1       3.908  -5.741 -10.370  0.00  0.00     0.032 H 
ENDROOT
BRANCH  15  23
ATOM     23  C   LIG d   1       5.550  -3.722  -6.492  0.00  0.00     0.033 C 
ATOM     24  H   LIG d   1       6.365  -4.439  -6.602  0.00  0.00     0.036 H 
ATOM     25  H   LIG d   1       5.799  -2.805  -7.026  0.00  0.00     0.036 H 
BRANCH  23  26
ATOM     26  C   LIG d   1       5.350  -3.412  -5.031  0.00  0.00     0.214 C 
ATOM     27  O   LIG d   1       4.475  -3.975  -4.407  0.00  0.00    -0.276 OA
ATOM     28  N   LIG d   1       6.141  -2.510  -4.418  0.00  0.00    -0.311 N 
ATOM     29  H   LIG d   1       6.840  -2.060  -4.917  0.00  0.00     0.149 HD
BRANCH  28  30
ATOM     30  C   LIG d   1       5.946  -2.210  -2.998  0.00  0.00     0.037 C 
ATOM     31  H   LIG d   1       5.405  -3.029  -2.524  0.00  0.00     0.051 H 
ATOM     32  H   LIG d   1       6.916  -2.087  -2.516  0.00  0.00     0.051 H 
BRANCH  30  33
ATOM     33  C   LIG d   1       5.152  -0.936  -2.859  0.00  0.00    -0.030 A 
ATOM     34  C   LIG d   1       5.798   0.285  -2.848  0.00  0.00    -0.057 A 
ATOM     35  C   LIG d   1       5.069   1.452  -2.721  0.00  0.00    -0.061 A 
ATOM     36  H   LIG d   1       6.873   0.327  -2.938  0.00  0.00     0.062 H 
ATOM     37  C   LIG d   1       3.693   1.399  -2.605  0.00  0.00    -0.062 A 
ATOM     38  H   LIG d   1       5.575   2.406  -2.711  0.00  0.00     0.062 H 
ATOM     39  C   LIG d   1       3.045   0.177  -2.617  0.00  0.00    -0.061 A 
ATOM     40  H   LIG d   1       3.123   2.311  -2.507  0.00  0.00     0.062 H 
ATOM     41  C   LIG d   1       3.774  -0.990  -2.749  0.00  0.00    -0.057 A 
ATOM     42  H   LIG d   1       1.970   0.135  -2.527  0.00  0.00     0.062 H 
ATOM     43  H   LIG d   1       3.268  -1.944  -2.763  0.00  0.00     0.062 H 
ENDBRANCH  30  33
ENDBRANCH  28  30
ENDBRANCH  23  26
ENDBRANCH  15  23
BRANCH   1  44
ATOM     44  C   LIG d   1       5.201  -3.739  -9.323  0.00  0.00    -0.059 C 
ATOM     45  H   LIG d   1       5.085  -3.049 -10.160  0.00  0.00     0.024 H 
ATOM     46  H   LIG d   1       6.085  -3.465  -8.748  0.00  0.00     0.024 H 
ATOM     47  H   LIG d   1       5.314  -4.754  -9.704  0.00  0.00     0.024 H 
ENDBRANCH   1  44
BRANCH   6  48
ATOM     48  C   LIG d   1       1.206  -4.354 -11.035  0.00  0.00    -0.055 C 
ATOM     49  H   LIG d   1       0.648  -4.891 -10.269  0.00  0.00     0.024 H 
ATOM     50  H   LIG d   1       0.559  -3.615 -11.506  0.00  0.00     0.024 H 
ATOM     51  H   LIG d   1       1.561  -5.058 -11.787  0.00  0.00     0.024 H 
ENDBRANCH   6  48
BRANCH   6  52
ATOM     52  C   LIG d   1       3.582  -3.673 -11.369  0.00  0.00     0.052 C 
ATOM     53  H   LIG d   1       4.217  -2.805 -11.195  0.00  0.00     0.056 H 
ATOM     54  H   LIG d   1       4.162  -4.583 -11.213  0.00  0.00     0.056 H 
BRANCH  52  55
ATOM     55  O   LIG d   1       3.091  -3.645 -12.710  0.00  0.00    -0.394 OA
ATOM     56  H   LIG d   1       2.146  -3.451 -12.780  0.00  0.00     0.209 HD
ENDBRANCH  52  55
ENDBRANCH   6  52
BRANCH  13  57
ATOM     57  N   LIG d   1       5.774  -8.853  -5.742  0.00  0.00    -0.230 N 
ATOM     58  C   LIG d   1       5.091  -9.384  -4.709  0.00  0.00     0.406 C 
ATOM     59  O   LIG d   1       3.946  -9.034  -4.494  0.00  0.00    -0.226 OA
ATOM     60  H   LIG d   1       6.688  -9.132  -5.914  0.00  0.00     0.160 HD
BRANCH  58  61
ATOM     61  O   LIG d   1       5.674 -10.302  -3.916  0.00  0.00    -0.446 OA
BRANCH  61  62
ATOM     62  C   LIG d   1       5.125 -10.465  -2.582  0.00  0.00     0.112 C 
ATOM     63  H   LIG d   1       4.526  -9.591  -2.326  0.00  0.00     0.074 H 
ATOM     64  H   LIG d   1       4.498 -11.356  -2.553  0.00  0.00     0.074 H 
BRANCH  62  65
ATOM     65  C   LIG d   1       6.250 -10.610  -1.589  0.00  0.00    -0.054 C 
ATOM     66  C   LIG d   1       7.215  -9.725  -1.559  0.00  0.00    -0.100 C 
ATOM     67  H   LIG d   1       8.020  -9.829  -0.848  0.00  0.00     0.053 H 
ATOM     68  H   LIG d   1       7.204  -8.891  -2.244  0.00  0.00     0.053 H 
ATOM     69  H   LIG d   1       6.260 -11.445  -0.903  0.00  0.00     0.060 H 
ENDBRANCH  62  65
ENDBRANCH  61  62
ENDBRANCH  58  61
ENDBRANCH  13  57
BRANCH   4  70
ATOM     70  O   LIG d   1       1.658  -1.534 -11.297  0.00  0.00    -0.391 OA
ATOM     71  H   LIG d   1       1.101  -2.065 -11.881  0.00  0.00     0.210 HD
ENDBRANCH   4  70
TORSDOF 13
ENDMDL
MODEL 7
REMARK VINA RESULT:      -5.8      4.912      9.471
REMARK  13 active torsions:
REMARK  status: ('A' for Active; 'I' for Inactive)
REMARK    1  A    between atoms: C_1  and  C_2 
REMARK    2  A    between atoms: C_5  and  O_39 
REMARK    3  A    between atoms: C_7  and  C_36 
REMARK    4  A    between atoms: C_7  and  C_37 
REMARK    5  A    between atoms: C_14  and  N_16 
REMARK       I    between atoms: N_16  and  C_17 
REMARK    6  A    between atoms: C_17  and  O_19 
REMARK    7  A    between atoms: O_19  and  C_20 
REMARK    8  A    between atoms: C_20  and  C_21 
REMARK    9  A    between atoms: C_23  and  C_25 
REMARK   10  A    between atoms: C_25  and  C_26 
REMARK       I    between atoms: C_26  and  N_28 
REMARK   11  A    between atoms: N_28  and  C_29 
REMARK   12  A    between atoms: C_29  and  C_30 
REMARK   13  A    between atoms: C_37  and  O_38 
ROOT
ATOM      1  C   LIG d   1       9.643   2.344  -4.957  0.00  0.00    -0.019 C 
ATOM      2  C   LIG d   1       9.605   2.151  -3.438  0.00  0.00    -0.044 C 
ATOM      3  C   LIG d   1      10.523   3.160  -2.751  0.00  0.00    -0.026 C 
ATOM      4  C   LIG d   1      10.035   4.573  -3.080  0.00  0.00     0.063 C 
ATOM      5  H   LIG d   1       9.003   4.691  -2.748  0.00  0.00     0.060 H 
ATOM      6  C   LIG d   1      10.117   4.783  -4.590  0.00  0.00     0.021 C 
ATOM      7  C   LIG d   1       9.226   3.772  -5.317  0.00  0.00    -0.021 C 
ATOM      8  H   LIG d   1       8.179   3.930  -5.060  0.00  0.00     0.032 H 
ATOM      9  C   LIG d   1       9.435   3.988  -6.830  0.00  0.00    -0.016 C 
ATOM     10  C   LIG d   1       8.879   2.822  -7.567  0.00  0.00     0.015 A 
ATOM     11  C   LIG d   1       8.519   1.614  -7.063  0.00  0.00     0.058 A 
ATOM     12  N   LIG d   1       8.047   0.732  -7.941  0.00  0.00    -0.229 NA
ATOM     13  C   LIG d   1       7.930   1.011  -9.222  0.00  0.00     0.167 A 
ATOM     14  S   LIG d   1       8.519   2.645  -9.294  0.00  0.00    -0.057 SA
ATOM     15  C   LIG d   1       8.665   1.336  -5.574  0.00  0.00     0.016 C 
ATOM     16  H   LIG d   1       7.692   1.431  -5.090  0.00  0.00     0.037 H 
ATOM     17  H   LIG d   1       9.933   1.140  -3.194  0.00  0.00     0.027 H 
ATOM     18  H   LIG d   1       8.584   2.292  -3.082  0.00  0.00     0.027 H 
ATOM     19  H   LIG d   1      11.543   3.032  -3.114  0.00  0.00     0.029 H 
ATOM     20  H   LIG d   1      10.495   3.004  -1.672  0.00  0.00     0.029 H 
ATOM     21  H   LIG d   1       8.922   4.896  -7.143  0.00  0.00     0.032 H 
ATOM     22  H   LIG d   1      10.501   4.080  -7.040  0.00  0.00     0.032 H 
ENDROOT
BRANCH  15  23
ATOM     23  C   LIG d   1       9.199  -0.083  -5.371  0.00  0.00     0.033 C 
ATOM     24  H   LIG d   1       9.579  -0.468  -6.317  0.00  0.00     0.036 H 
ATOM     25  H   LIG d   1      10.004  -0.067  -4.636  0.00  0.00     0.036 H 
BRANCH  23  26
ATOM     26  C   LIG d   1       8.087  -0.973  -4.877  0.00  0.00     0.214 C 
ATOM     27  O   LIG d   1       7.505  -1.702  -5.653  0.00  0.00    -0.276 OA
ATOM     28  N   LIG d   1       7.740  -0.959  -3.575  0.00  0.00    -0.311 N 
ATOM     29  H   LIG d   1       8.205  -0.376  -2.955  0.00  0.00     0.149 HD
BRANCH  28  30
ATOM     30  C   LIG d   1       6.659  -1.824  -3.096  0.00  0.00     0.037 C 
ATOM     31  H   LIG d   1       6.464  -2.604  -3.833  0.00  0.00     0.051 H 
ATOM     32  H   LIG d   1       6.952  -2.282  -2.151  0.00  0.00     0.051 H 
BRANCH  30  33
ATOM     33  C   LIG d   1       5.412  -1.003  -2.891  0.00  0.00    -0.030 A 
ATOM     34  C   LIG d   1       5.511   0.341  -2.588  0.00  0.00    -0.057 A 
ATOM     35  C   LIG d   1       4.367   1.094  -2.400  0.00  0.00    -0.061 A 
ATOM     36  H   LIG d   1       6.483   0.804  -2.497  0.00  0.00     0.062 H 
ATOM     37  C   LIG d   1       3.124   0.502  -2.516  0.00  0.00    -0.062 A 
ATOM     38  H   LIG d   1       4.445   2.144  -2.161  0.00  0.00     0.062 H 
ATOM     39  C   LIG d   1       3.024  -0.843  -2.820  0.00  0.00    -0.061 A 
ATOM     40  H   LIG d   1       2.230   1.090  -2.370  0.00  0.00     0.062 H 
ATOM     41  C   LIG d   1       4.168  -1.595  -3.013  0.00  0.00    -0.057 A 
ATOM     42  H   LIG d   1       2.053  -1.305  -2.912  0.00  0.00     0.062 H 
ATOM     43  H   LIG d   1       4.090  -2.644  -3.255  0.00  0.00     0.062 H 
ENDBRANCH  30  33
ENDBRANCH  28  30
ENDBRANCH  23  26
ENDBRANCH  15  23
BRANCH   1  44
ATOM     44  C   LIG d   1      11.058   2.078  -5.472  0.00  0.00    -0.059 C 
ATOM     45  H   LIG d   1      11.777   2.625  -4.861  0.00  0.00     0.024 H 
ATOM     46  H   LIG d   1      11.272   1.011  -5.415  0.00  0.00     0.024 H 
ATOM     47  H   LIG d   1      11.137   2.410  -6.507  0.00  0.00     0.024 H 
ENDBRANCH   1  44
BRANCH   6  48
ATOM     48  C   LIG d   1       9.657   6.202  -4.930  0.00  0.00    -0.055 C 
ATOM     49  H   LIG d   1       8.571   6.254  -4.879  0.00  0.00     0.024 H 
ATOM     50  H   LIG d   1      10.090   6.904  -4.218  0.00  0.00     0.024 H 
ATOM     51  H   LIG d   1       9.986   6.458  -5.938  0.00  0.00     0.024 H 
ENDBRANCH   6  48
BRANCH   6  52
ATOM     52  C   LIG d   1      11.566   4.602  -5.047  0.00  0.00     0.052 C 
ATOM     53  H   LIG d   1      12.060   3.869  -4.409  0.00  0.00     0.056 H 
ATOM     54  H   LIG d   1      11.580   4.252  -6.079  0.00  0.00     0.056 H 
BRANCH  52  55
ATOM     55  O   LIG d   1      12.254   5.852  -4.959  0.00  0.00    -0.394 OA
ATOM     56  H   LIG d   1      11.892   6.454  -4.295  0.00  0.00     0.209 HD
ENDBRANCH  52  55
ENDBRANCH   6  52
BRANCH  13  57
ATOM     57  N   LIG d   1       7.460   0.205 -10.253  0.00  0.00    -0.230 N 
ATOM     58  C   LIG d   1       6.187   0.327 -10.677  0.00  0.00     0.406 C 
ATOM     59  O   LIG d   1       5.450   1.144 -10.158  0.00  0.00    -0.226 OA
ATOM     60  H   LIG d   1       8.048  -0.447 -10.666  0.00  0.00     0.160 HD
BRANCH  58  61
ATOM     61  O   LIG d   1       5.731  -0.454 -11.674  0.00  0.00    -0.446 OA
BRANCH  61  62
ATOM     62  C   LIG d   1       4.608  -1.323 -11.369  0.00  0.00     0.112 C 
ATOM     63  H   LIG d   1       4.814  -2.326 -11.741  0.00  0.00     0.074 H 
ATOM     64  H   LIG d   1       4.459  -1.360 -10.290  0.00  0.00     0.074 H 
BRANCH  62  65
ATOM     65  C   LIG d   1       3.364  -0.788 -12.030  0.00  0.00    -0.054 C 
ATOM     66  C   LIG d   1       2.219  -0.819 -11.395  0.00  0.00    -0.100 C 
ATOM     67  H   LIG d   1       1.328  -0.434 -11.868  0.00  0.00     0.053 H 
ATOM     68  H   LIG d   1       2.168  -1.226 -10.396  0.00  0.00     0.053 H 
ATOM     69  H   LIG d   1       3.417  -0.380 -13.029  0.00  0.00     0.060 H 
ENDBRANCH  62  65
ENDBRANCH  61  62
ENDBRANCH  58  61
ENDBRANCH  13  57
BRANCH   4  70
ATOM     70  O   LIG d   1      10.863   5.532  -2.416  0.00  0.00    -0.391 OA
ATOM     71  H   LIG d   1      10.961   6.365  -2.896  0.00  0.00     0.210 HD
ENDBRANCH   4  70
TORSDOF 13
ENDMDL
MODEL 8
REMARK VINA RESULT:      -5.6      4.774      9.887
REMARK  13 active torsions:
REMARK  status: ('A' for Active; 'I' for Inactive)
REMARK    1  A    between atoms: C_1  and  C_2 
REMARK    2  A    between atoms: C_5  and  O_39 
REMARK    3  A    between atoms: C_7  and  C_36 
REMARK    4  A    between atoms: C_7  and  C_37 
REMARK    5  A    between atoms: C_14  and  N_16 
REMARK       I    between atoms: N_16  and  C_17 
REMARK    6  A    between atoms: C_17  and  O_19 
REMARK    7  A    between atoms: O_19  and  C_20 
REMARK    8  A    between atoms: C_20  and  C_21 
REMARK    9  A    between atoms: C_23  and  C_25 
REMARK   10  A    between atoms: C_25  and  C_26 
REMARK       I    between atoms: C_26  and  N_28 
REMARK   11  A    between atoms: N_28  and  C_29 
REMARK   12  A    between atoms: C_29  and  C_30 
REMARK   13  A    between atoms: C_37  and  O_38 
ROOT
ATOM      1  C   LIG d   1      11.781  -0.588  -5.163  0.00  0.00    -0.019 C 
ATOM      2  C   LIG d   1      12.254  -1.682  -4.202  0.00  0.00    -0.044 C 
ATOM      3  C   LIG d   1      13.774  -1.643  -4.060  0.00  0.00    -0.026 C 
ATOM      4  C   LIG d   1      14.182  -0.280  -3.493  0.00  0.00     0.063 C 
ATOM      5  H   LIG d   1      13.693  -0.123  -2.532  0.00  0.00     0.060 H 
ATOM      6  C   LIG d   1      13.752   0.809  -4.474  0.00  0.00     0.021 C 
ATOM      7  C   LIG d   1      12.233   0.787  -4.662  0.00  0.00    -0.021 C 
ATOM      8  H   LIG d   1      11.728   1.026  -3.726  0.00  0.00     0.032 H 
ATOM      9  C   LIG d   1      11.892   1.846  -5.729  0.00  0.00    -0.016 C 
ATOM     10  C   LIG d   1      10.498   1.627  -6.201  0.00  0.00     0.015 A 
ATOM     11  C   LIG d   1       9.716   0.534  -6.007  0.00  0.00     0.058 A 
ATOM     12  N   LIG d   1       8.498   0.585  -6.539  0.00  0.00    -0.229 NA
ATOM     13  C   LIG d   1       8.069   1.633  -7.212  0.00  0.00     0.167 A 
ATOM     14  S   LIG d   1       9.444   2.696  -7.145  0.00  0.00    -0.057 SA
ATOM     15  C   LIG d   1      10.249  -0.653  -5.218  0.00  0.00     0.016 C 
ATOM     16  H   LIG d   1       9.848  -0.625  -4.205  0.00  0.00     0.037 H 
ATOM     17  H   LIG d   1      11.952  -2.656  -4.586  0.00  0.00     0.027 H 
ATOM     18  H   LIG d   1      11.797  -1.525  -3.225  0.00  0.00     0.027 H 
ATOM     19  H   LIG d   1      14.236  -1.785  -5.037  0.00  0.00     0.029 H 
ATOM     20  H   LIG d   1      14.098  -2.433  -3.382  0.00  0.00     0.029 H 
ATOM     21  H   LIG d   1      11.978   2.841  -5.295  0.00  0.00     0.032 H 
ATOM     22  H   LIG d   1      12.581   1.753  -6.568  0.00  0.00     0.032 H 
ENDROOT
BRANCH  15  23
ATOM     23  C   LIG d   1       9.819  -1.953  -5.900  0.00  0.00     0.033 C 
ATOM     24  H   LIG d   1       9.571  -1.752  -6.943  0.00  0.00     0.036 H 
ATOM     25  H   LIG d   1      10.633  -2.676  -5.852  0.00  0.00     0.036 H 
BRANCH  23  26
ATOM     26  C   LIG d   1       8.609  -2.513  -5.197  0.00  0.00     0.214 C 
ATOM     27  O   LIG d   1       8.184  -3.608  -5.501  0.00  0.00    -0.276 OA
ATOM     28  N   LIG d   1       8.000  -1.799  -4.230  0.00  0.00    -0.311 N 
ATOM     29  H   LIG d   1       8.339  -0.923  -3.987  0.00  0.00     0.149 HD
BRANCH  28  30
ATOM     30  C   LIG d   1       6.824  -2.344  -3.547  0.00  0.00     0.037 C 
ATOM     31  H   LIG d   1       6.250  -2.955  -4.244  0.00  0.00     0.051 H 
ATOM     32  H   LIG d   1       7.145  -2.956  -2.704  0.00  0.00     0.051 H 
BRANCH  30  33
ATOM     33  C   LIG d   1       5.964  -1.211  -3.047  0.00  0.00    -0.030 A 
ATOM     34  C   LIG d   1       4.793  -1.482  -2.366  0.00  0.00    -0.057 A 
ATOM     35  C   LIG d   1       4.004  -0.443  -1.907  0.00  0.00    -0.061 A 
ATOM     36  H   LIG d   1       4.492  -2.504  -2.193  0.00  0.00     0.062 H 
ATOM     37  C   LIG d   1       4.388   0.866  -2.128  0.00  0.00    -0.062 A 
ATOM     38  H   LIG d   1       3.088  -0.654  -1.376  0.00  0.00     0.062 H 
ATOM     39  C   LIG d   1       5.561   1.137  -2.809  0.00  0.00    -0.061 A 
ATOM     40  H   LIG d   1       3.773   1.678  -1.769  0.00  0.00     0.062 H 
ATOM     41  C   LIG d   1       6.352   0.098  -3.263  0.00  0.00    -0.057 A 
ATOM     42  H   LIG d   1       5.862   2.159  -2.981  0.00  0.00     0.062 H 
ATOM     43  H   LIG d   1       7.270   0.309  -3.791  0.00  0.00     0.062 H 
ENDBRANCH  30  33
ENDBRANCH  28  30
ENDBRANCH  23  26
ENDBRANCH  15  23
BRANCH   1  44
ATOM     44  C   LIG d   1      12.363  -0.841  -6.555  0.00  0.00    -0.059 C 
ATOM     45  H   LIG d   1      11.615  -1.334  -7.177  0.00  0.00     0.024 H 
ATOM     46  H   LIG d   1      12.645   0.108  -7.010  0.00  0.00     0.024 H 
ATOM     47  H   LIG d   1      13.242  -1.480  -6.471  0.00  0.00     0.024 H 
ENDBRANCH   1  44
BRANCH   6  48
ATOM     48  C   LIG d   1      14.177   2.175  -3.933  0.00  0.00    -0.055 C 
ATOM     49  H   LIG d   1      15.020   2.051  -3.254  0.00  0.00     0.024 H 
ATOM     50  H   LIG d   1      14.469   2.819  -4.762  0.00  0.00     0.024 H 
ATOM     51  H   LIG d   1      13.343   2.628  -3.397  0.00  0.00     0.024 H 
ENDBRANCH   6  48
BRANCH   6  52
ATOM     52  C   LIG d   1      14.433   0.569  -5.824  0.00  0.00     0.052 C 
ATOM     53  H   LIG d   1      14.590  -0.500  -5.968  0.00  0.00     0.056 H 
ATOM     54  H   LIG d   1      13.799   0.954  -6.623  0.00  0.00     0.056 H 
BRANCH  52  55
ATOM     55  O   LIG d   1      15.692   1.244  -5.849  0.00  0.00    -0.394 OA
ATOM     56  H   LIG d   1      16.416   0.741  -5.452  0.00  0.00     0.209 HD
ENDBRANCH  52  55
ENDBRANCH   6  52
BRANCH  13  57
ATOM     57  N   LIG d   1       6.837   1.836  -7.822  0.00  0.00    -0.230 N 
ATOM     58  C   LIG d   1       6.713   1.694  -9.156  0.00  0.00     0.406 C 
ATOM     59  O   LIG d   1       7.679   1.387  -9.826  0.00  0.00    -0.226 OA
ATOM     60  H   LIG d   1       6.065   2.082  -7.286  0.00  0.00     0.160 HD
BRANCH  58  61
ATOM     61  O   LIG d   1       5.519   1.892  -9.746  0.00  0.00    -0.446 OA
BRANCH  61  62
ATOM     62  C   LIG d   1       4.602   0.766  -9.774  0.00  0.00     0.112 C 
ATOM     63  H   LIG d   1       4.155   0.686 -10.764  0.00  0.00     0.074 H 
ATOM     64  H   LIG d   1       5.145  -0.151  -9.544  0.00  0.00     0.074 H 
BRANCH  62  65
ATOM     65  C   LIG d   1       3.518   0.977  -8.748  0.00  0.00    -0.054 C 
ATOM     66  C   LIG d   1       2.955   2.153  -8.621  0.00  0.00    -0.100 C 
ATOM     67  H   LIG d   1       2.178   2.303  -7.887  0.00  0.00     0.053 H 
ATOM     68  H   LIG d   1       3.268   2.971  -9.253  0.00  0.00     0.053 H 
ATOM     69  H   LIG d   1       3.205   0.157  -8.117  0.00  0.00     0.060 H 
ENDBRANCH  62  65
ENDBRANCH  61  62
ENDBRANCH  58  61
ENDBRANCH  13  57
BRANCH   4  70
ATOM     70  O   LIG d   1      15.601  -0.238  -3.321  0.00  0.00    -0.391 OA
ATOM     71  H   LIG d   1      15.951   0.648  -3.161  0.00  0.00     0.210 HD
ENDBRANCH   4  70
TORSDOF 13
ENDMDL
MODEL 9
REMARK VINA RESULT:      -5.6      5.418      8.271
REMARK  13 active torsions:
REMARK  status: ('A' for Active; 'I' for Inactive)
REMARK    1  A    between atoms: C_1  and  C_2 
REMARK    2  A    between atoms: C_5  and  O_39 
REMARK    3  A    between atoms: C_7  and  C_36 
REMARK    4  A    between atoms: C_7  and  C_37 
REMARK    5  A    between atoms: C_14  and  N_16 
REMARK       I    between atoms: N_16  and  C_17 
REMARK    6  A    between atoms: C_17  and  O_19 
REMARK    7  A    between atoms: O_19  and  C_20 
REMARK    8  A    between atoms: C_20  and  C_21 
REMARK    9  A    between atoms: C_23  and  C_25 
REMARK   10  A    between atoms: C_25  and  C_26 
REMARK       I    between atoms: C_26  and  N_28 
REMARK   11  A    between atoms: N_28  and  C_29 
REMARK   12  A    between atoms: C_29  and  C_30 
REMARK   13  A    between atoms: C_37  and  O_38 
ROOT
ATOM      1  C   LIG d   1       6.706  -0.520  -4.221  0.00  0.00    -0.019 C 
ATOM      2  C   LIG d   1       6.807   0.794  -3.440  0.00  0.00    -0.044 C 
ATOM      3  C   LIG d   1       5.414   1.317  -3.097  0.00  0.00    -0.026 C 
ATOM      4  C   LIG d   1       4.699   0.281  -2.227  0.00  0.00     0.063 C 
ATOM      5  H   LIG d   1       5.282   0.096  -1.324  0.00  0.00     0.060 H 
ATOM      6  C   LIG d   1       4.555  -1.015  -3.022  0.00  0.00     0.021 C 
ATOM      7  C   LIG d   1       5.934  -1.560  -3.405  0.00  0.00    -0.021 C 
ATOM      8  H   LIG d   1       6.500  -1.829  -2.514  0.00  0.00     0.032 H 
ATOM      9  C   LIG d   1       5.702  -2.809  -4.279  0.00  0.00    -0.016 C 
ATOM     10  C   LIG d   1       6.974  -3.167  -4.961  0.00  0.00     0.015 A 
ATOM     11  C   LIG d   1       8.092  -2.406  -5.088  0.00  0.00     0.058 A 
ATOM     12  N   LIG d   1       9.103  -2.961  -5.753  0.00  0.00    -0.229 NA
ATOM     13  C   LIG d   1       9.030  -4.175  -6.257  0.00  0.00     0.167 A 
ATOM     14  S   LIG d   1       7.423  -4.661  -5.805  0.00  0.00    -0.057 SA
ATOM     15  C   LIG d   1       8.136  -1.010  -4.485  0.00  0.00     0.016 C 
ATOM     16  H   LIG d   1       8.690  -1.037  -3.547  0.00  0.00     0.037 H 
ATOM     17  H   LIG d   1       7.333   1.534  -4.044  0.00  0.00     0.027 H 
ATOM     18  H   LIG d   1       7.365   0.623  -2.519  0.00  0.00     0.027 H 
ATOM     19  H   LIG d   1       4.848   1.476  -4.016  0.00  0.00     0.029 H 
ATOM     20  H   LIG d   1       5.501   2.257  -2.552  0.00  0.00     0.029 H 
ATOM     21  H   LIG d   1       5.379  -3.638  -3.651  0.00  0.00     0.032 H 
ATOM     22  H   LIG d   1       4.935  -2.595  -5.023  0.00  0.00     0.032 H 
ENDROOT
BRANCH  15  23
ATOM     23  C   LIG d   1       8.830  -0.056  -5.459  0.00  0.00     0.033 C 
ATOM     24  H   LIG d   1       8.921  -0.535  -6.435  0.00  0.00     0.036 H 
ATOM     25  H   LIG d   1       8.242   0.856  -5.555  0.00  0.00     0.036 H 
BRANCH  23  26
ATOM     26  C   LIG d   1      10.202   0.284  -4.938  0.00  0.00     0.214 C 
ATOM     27  O   LIG d   1      10.452   1.416  -4.580  0.00  0.00    -0.276 OA
ATOM     28  N   LIG d   1      11.153  -0.669  -4.869  0.00  0.00    -0.311 N 
ATOM     29  H   LIG d   1      10.955  -1.574  -5.156  0.00  0.00     0.149 HD
BRANCH  28  30
ATOM     30  C   LIG d   1      12.487  -0.338  -4.363  0.00  0.00     0.037 C 
ATOM     31  H   LIG d   1      13.072   0.128  -5.156  0.00  0.00     0.051 H 
ATOM     32  H   LIG d   1      12.396   0.353  -3.524  0.00  0.00     0.051 H 
BRANCH  30  33
ATOM     33  C   LIG d   1      13.177  -1.597  -3.904  0.00  0.00    -0.030 A 
ATOM     34  C   LIG d   1      14.480  -1.544  -3.446  0.00  0.00    -0.057 A 
ATOM     35  C   LIG d   1      15.112  -2.699  -3.025  0.00  0.00    -0.061 A 
ATOM     36  H   LIG d   1      15.004  -0.601  -3.418  0.00  0.00     0.062 H 
ATOM     37  C   LIG d   1      14.441  -3.907  -3.062  0.00  0.00    -0.062 A 
ATOM     38  H   LIG d   1      16.130  -2.658  -2.669  0.00  0.00     0.062 H 
ATOM     39  C   LIG d   1      13.137  -3.960  -3.519  0.00  0.00    -0.061 A 
ATOM     40  H   LIG d   1      14.935  -4.809  -2.733  0.00  0.00     0.062 H 
ATOM     41  C   LIG d   1      12.503  -2.804  -3.935  0.00  0.00    -0.057 A 
ATOM     42  H   LIG d   1      12.613  -4.903  -3.547  0.00  0.00     0.062 H 
ATOM     43  H   LIG d   1      11.484  -2.845  -4.288  0.00  0.00     0.062 H 
ENDBRANCH  30  33
ENDBRANCH  28  30
ENDBRANCH  23  26
ENDBRANCH  15  23
BRANCH   1  44
ATOM     44  C   LIG d   1       5.987  -0.273  -5.548  0.00  0.00    -0.059 C 
ATOM     45  H   LIG d   1       6.409   0.609  -6.032  0.00  0.00     0.024 H 
ATOM     46  H   LIG d   1       6.115  -1.139  -6.198  0.00  0.00     0.024 H 
ATOM     47  H   LIG d   1       4.926  -0.112  -5.362  0.00  0.00     0.024 H 
ENDBRANCH   1  44
BRANCH   6  48
ATOM     48  C   LIG d   1       3.818  -2.052  -2.173  0.00  0.00    -0.055 C 
ATOM     49  H   LIG d   1       2.776  -1.756  -2.062  0.00  0.00     0.024 H 
ATOM     50  H   LIG d   1       3.870  -3.025  -2.661  0.00  0.00     0.024 H 
ATOM     51  H   LIG d   1       4.285  -2.113  -1.190  0.00  0.00     0.024 H 
ENDBRANCH   6  48
BRANCH   6  52
ATOM     52  C   LIG d   1       3.748  -0.741  -4.292  0.00  0.00     0.052 C 
ATOM     53  H   LIG d   1       3.955   0.270  -4.645  0.00  0.00     0.056 H 
ATOM     54  H   LIG d   1       4.030  -1.458  -5.063  0.00  0.00     0.056 H 
BRANCH  52  55
ATOM     55  O   LIG d   1       2.354  -0.871  -4.009  0.00  0.00    -0.394 OA
ATOM     56  H   LIG d   1       2.160  -1.387  -3.214  0.00  0.00     0.209 HD
ENDBRANCH  52  55
ENDBRANCH   6  52
BRANCH  13  57
ATOM     57  N   LIG d   1       9.990  -4.885  -6.969  0.00  0.00    -0.230 N 
ATOM     58  C   LIG d   1      10.812  -5.737  -6.327  0.00  0.00     0.406 C 
ATOM     59  O   LIG d   1      10.714  -5.885  -5.124  0.00  0.00    -0.226 OA
ATOM     60  H   LIG d   1      10.068  -4.766  -7.929  0.00  0.00     0.160 HD
BRANCH  58  61
ATOM     61  O   LIG d   1      11.743  -6.424  -7.016  0.00  0.00    -0.446 OA
BRANCH  61  62
ATOM     62  C   LIG d   1      13.130  -6.212  -6.642  0.00  0.00     0.112 C 
ATOM     63  H   LIG d   1      13.225  -6.257  -5.558  0.00  0.00     0.074 H 
ATOM     64  H   LIG d   1      13.750  -6.986  -7.094  0.00  0.00     0.074 H 
BRANCH  62  65
ATOM     65  C   LIG d   1      13.581  -4.859  -7.130  0.00  0.00    -0.054 C 
ATOM     66  C   LIG d   1      14.761  -4.401  -6.794  0.00  0.00    -0.100 C 
ATOM     67  H   LIG d   1      15.084  -3.432  -7.144  0.00  0.00     0.053 H 
ATOM     68  H   LIG d   1      15.412  -4.994  -6.168  0.00  0.00     0.053 H 
ATOM     69  H   LIG d   1      12.930  -4.267  -7.756  0.00  0.00     0.060 H 
ENDBRANCH  62  65
ENDBRANCH  61  62
ENDBRANCH  58  61
ENDBRANCH  13  57
BRANCH   4  70
ATOM     70  O   LIG d   1       3.404   0.769  -1.867  0.00  0.00    -0.391 OA
ATOM     71  H   LIG d   1       3.181   0.644  -0.936  0.00  0.00     0.210 HD
ENDBRANCH   4  70
TORSDOF 13
ENDMDL
