MODEL 1
REMARK VINA RESULT:      -6.7      0.000      0.000
REMARK  7 active torsions:
REMARK  status: ('A' for Active; 'I' for Inactive)
REMARK    1  A    between atoms: C_1  and  C_2 
REMARK    2  A    between atoms: C_6  and  C_25 
REMARK    3  A    between atoms: C_7  and  C_11 
REMARK    4  A    between atoms: C_11  and  C_12 
REMARK       I    between atoms: C_12  and  N_14 
REMARK    5  A    between atoms: N_14  and  C_15 
REMARK    6  A    between atoms: C_15  and  C_16 
REMARK    7  A    between atoms: C_28  and  C_31 
ROOT
ATOM      1  C   LIG d   1      10.065   5.186  -2.805  0.00  0.00    -0.036 A 
ATOM      2  C   LIG d   1       9.879   3.834  -2.785  0.00  0.00    -0.015 A 
ATOM      3  C   LIG d   1       9.599   3.143  -3.961  0.00  0.00     0.143 A 
ATOM      4  C   LIG d   1       9.506   3.837  -5.179  0.00  0.00     0.064 A 
ATOM      5  C   LIG d   1       9.210   3.093  -6.403  0.00  0.00    -0.026 A 
ATOM      6  C   LIG d   1       9.037   1.747  -6.312  0.00  0.00     0.049 A 
ATOM      7  C   LIG d   1       9.144   1.113  -5.057  0.00  0.00     0.341 A 
ATOM      8  O   LIG d   1       8.986  -0.092  -4.986  0.00  0.00    -0.245 OA
ATOM      9  O   LIG d   1       9.414   1.804  -3.939  0.00  0.00    -0.422 OA
ATOM     10  C   LIG d   1       9.702   5.229  -5.206  0.00  0.00     0.146 A 
ATOM     11  C   LIG d   1       9.978   5.897  -4.006  0.00  0.00     0.027 A 
ATOM     12  C   LIG d   1      10.120   7.312  -4.370  0.00  0.00    -0.005 A 
ATOM     13  C   LIG d   1       9.923   7.379  -5.694  0.00  0.00     0.096 A 
ATOM     14  O   LIG d   1       9.674   6.151  -6.184  0.00  0.00    -0.462 OA
ATOM     15  H   LIG d   1       9.949   3.298  -1.852  0.00  0.00     0.066 H 
ATOM     16  H   LIG d   1       9.959   8.284  -6.282  0.00  0.00     0.103 H 
ENDROOT
BRANCH   6  17
ATOM     17  C   LIG d   1       8.732   0.938  -7.545  0.00  0.00     0.056 C 
ATOM     18  H   LIG d   1       9.023   1.503  -8.431  0.00  0.00     0.041 H 
ATOM     19  H   LIG d   1       9.288   0.001  -7.512  0.00  0.00     0.041 H 
BRANCH  17  20
ATOM     20  C   LIG d   1       7.255   0.644  -7.600  0.00  0.00     0.218 C 
ATOM     21  O   LIG d   1       6.484   1.486  -8.005  0.00  0.00    -0.275 OA
ATOM     22  N   LIG d   1       6.792  -0.557  -7.198  0.00  0.00    -0.311 N 
ATOM     23  H   LIG d   1       7.409  -1.231  -6.874  0.00  0.00     0.149 HD
BRANCH  22  24
ATOM     24  C   LIG d   1       5.356  -0.844  -7.252  0.00  0.00     0.037 C 
ATOM     25  H   LIG d   1       4.907  -0.298  -8.080  0.00  0.00     0.051 H 
ATOM     26  H   LIG d   1       5.205  -1.914  -7.397  0.00  0.00     0.051 H 
BRANCH  24  27
ATOM     27  C   LIG d   1       4.710  -0.416  -5.959  0.00  0.00    -0.027 A 
ATOM     28  C   LIG d   1       5.456  -0.380  -4.795  0.00  0.00    -0.011 A 
ATOM     29  C   LIG d   1       4.865   0.012  -3.606  0.00  0.00     0.167 A 
ATOM     30  H   LIG d   1       6.499  -0.658  -4.814  0.00  0.00     0.066 H 
ATOM     31  C   LIG d   1       3.519   0.371  -3.585  0.00  0.00     0.166 A 
ATOM     32  O   LIG d   1       5.367   0.133  -2.341  0.00  0.00    -0.453 OA
ATOM     33  C   LIG d   1       2.778   0.331  -4.756  0.00  0.00    -0.016 A 
ATOM     34  O   LIG d   1       3.178   0.716  -2.310  0.00  0.00    -0.453 OA
ATOM     35  C   LIG d   1       3.376  -0.057  -5.940  0.00  0.00    -0.053 A 
ATOM     36  H   LIG d   1       1.735   0.609  -4.743  0.00  0.00     0.066 H 
ATOM     37  H   LIG d   1       2.798  -0.082  -6.852  0.00  0.00     0.062 H 
ATOM     38  C   LIG d   1       4.425   0.958  -1.630  0.00  0.00     0.233 C 
ATOM     39  H   LIG d   1       4.703   2.008  -1.704  0.00  0.00     0.117 H 
ATOM     40  H   LIG d   1       4.358   0.650  -0.587  0.00  0.00     0.117 H 
ENDBRANCH  24  27
ENDBRANCH  22  24
ENDBRANCH  17  20
ENDBRANCH   6  17
BRANCH   5  41
ATOM     41  C   LIG d   1       9.103   3.797  -7.730  0.00  0.00    -0.038 C 
ATOM     42  H   LIG d   1      10.051   4.282  -7.963  0.00  0.00     0.028 H 
ATOM     43  H   LIG d   1       8.864   3.073  -8.508  0.00  0.00     0.028 H 
ATOM     44  H   LIG d   1       8.315   4.549  -7.679  0.00  0.00     0.028 H 
ENDBRANCH   5  41
BRANCH   1  45
ATOM     45  C   LIG d   1      10.369   5.918  -1.523  0.00  0.00    -0.039 C 
ATOM     46  H   LIG d   1       9.952   5.365  -0.682  0.00  0.00     0.028 H 
ATOM     47  H   LIG d   1      11.449   6.006  -1.402  0.00  0.00     0.028 H 
ATOM     48  H   LIG d   1       9.926   6.913  -1.561  0.00  0.00     0.028 H 
ENDBRANCH   1  45
BRANCH  12  49
ATOM     49  C   LIG d   1      10.427   8.459  -3.443  0.00  0.00    -0.036 C 
ATOM     50  H   LIG d   1      11.398   8.301  -2.976  0.00  0.00     0.028 H 
ATOM     51  H   LIG d   1      10.444   9.390  -4.010  0.00  0.00     0.028 H 
ATOM     52  H   LIG d   1       9.658   8.519  -2.672  0.00  0.00     0.028 H 
ENDBRANCH  12  49
TORSDOF 7
ENDMDL
MODEL 2
REMARK VINA RESULT:      -6.7      2.835      5.653
REMARK  7 active torsions:
REMARK  status: ('A' for Active; 'I' for Inactive)
REMARK    1  A    between atoms: C_1  and  C_2 
REMARK    2  A    between atoms: C_6  and  C_25 
REMARK    3  A    between atoms: C_7  and  C_11 
REMARK    4  A    between atoms: C_11  and  C_12 
REMARK       I    between atoms: C_12  and  N_14 
REMARK    5  A    between atoms: N_14  and  C_15 
REMARK    6  A    between atoms: C_15  and  C_16 
REMARK    7  A    between atoms: C_28  and  C_31 
ROOT
ATOM      1  C   LIG d   1      10.117   0.215  -5.592  0.00  0.00    -0.036 A 
ATOM      2  C   LIG d   1       9.410  -0.940  -5.760  0.00  0.00    -0.015 A 
ATOM      3  C   LIG d   1       8.180  -1.114  -5.129  0.00  0.00     0.143 A 
ATOM      4  C   LIG d   1       7.660  -0.097  -4.313  0.00  0.00     0.064 A 
ATOM      5  C   LIG d   1       6.368  -0.298  -3.658  0.00  0.00    -0.026 A 
ATOM      6  C   LIG d   1       5.716  -1.471  -3.871  0.00  0.00     0.049 A 
ATOM      7  C   LIG d   1       6.295  -2.451  -4.703  0.00  0.00     0.341 A 
ATOM      8  O   LIG d   1       5.703  -3.500  -4.886  0.00  0.00    -0.245 OA
ATOM      9  O   LIG d   1       7.482  -2.259  -5.298  0.00  0.00    -0.422 OA
ATOM     10  C   LIG d   1       8.383   1.097  -4.139  0.00  0.00     0.146 A 
ATOM     11  C   LIG d   1       9.618   1.241  -4.784  0.00  0.00     0.027 A 
ATOM     12  C   LIG d   1      10.108   2.570  -4.400  0.00  0.00    -0.005 A 
ATOM     13  C   LIG d   1       9.175   3.093  -3.592  0.00  0.00     0.096 A 
ATOM     14  O   LIG d   1       8.161   2.223  -3.437  0.00  0.00    -0.462 OA
ATOM     15  H   LIG d   1       9.806  -1.725  -6.387  0.00  0.00     0.066 H 
ATOM     16  H   LIG d   1       9.229   4.069  -3.132  0.00  0.00     0.103 H 
ENDROOT
BRANCH   6  17
ATOM     17  C   LIG d   1       4.382  -1.724  -3.219  0.00  0.00     0.056 C 
ATOM     18  H   LIG d   1       4.114  -2.775  -3.334  0.00  0.00     0.041 H 
ATOM     19  H   LIG d   1       4.442  -1.478  -2.159  0.00  0.00     0.041 H 
BRANCH  17  20
ATOM     20  C   LIG d   1       3.331  -0.865  -3.874  0.00  0.00     0.218 C 
ATOM     21  O   LIG d   1       2.389  -0.460  -3.227  0.00  0.00    -0.275 OA
ATOM     22  N   LIG d   1       3.440  -0.546  -5.180  0.00  0.00    -0.311 N 
ATOM     23  H   LIG d   1       4.193  -0.869  -5.697  0.00  0.00     0.149 HD
BRANCH  22  24
ATOM     24  C   LIG d   1       2.418   0.290  -5.817  0.00  0.00     0.037 C 
ATOM     25  H   LIG d   1       1.459  -0.227  -5.794  0.00  0.00     0.051 H 
ATOM     26  H   LIG d   1       2.334   1.234  -5.278  0.00  0.00     0.051 H 
BRANCH  24  27
ATOM     27  C   LIG d   1       2.809   0.560  -7.246  0.00  0.00    -0.027 A 
ATOM     28  C   LIG d   1       3.180  -0.488  -8.069  0.00  0.00    -0.011 A 
ATOM     29  C   LIG d   1       3.540  -0.243  -9.384  0.00  0.00     0.167 A 
ATOM     30  H   LIG d   1       3.188  -1.497  -7.686  0.00  0.00     0.066 H 
ATOM     31  C   LIG d   1       3.528   1.061  -9.874  0.00  0.00     0.166 A 
ATOM     32  O   LIG d   1       3.938  -1.081 -10.386  0.00  0.00    -0.453 OA
ATOM     33  C   LIG d   1       3.157   2.106  -9.043  0.00  0.00    -0.016 A 
ATOM     34  O   LIG d   1       3.918   1.040 -11.182  0.00  0.00    -0.453 OA
ATOM     35  C   LIG d   1       2.793   1.853  -7.734  0.00  0.00    -0.053 A 
ATOM     36  H   LIG d   1       3.146   3.118  -9.421  0.00  0.00     0.066 H 
ATOM     37  H   LIG d   1       2.499   2.668  -7.089  0.00  0.00     0.062 H 
ATOM     38  C   LIG d   1       3.775  -0.331 -11.603  0.00  0.00     0.233 C 
ATOM     39  H   LIG d   1       2.786  -0.499 -12.028  0.00  0.00     0.117 H 
ATOM     40  H   LIG d   1       4.552  -0.593 -12.321  0.00  0.00     0.117 H 
ENDBRANCH  24  27
ENDBRANCH  22  24
ENDBRANCH  17  20
ENDBRANCH   6  17
BRANCH   5  41
ATOM     41  C   LIG d   1       5.773   0.768  -2.775  0.00  0.00    -0.038 C 
ATOM     42  H   LIG d   1       5.292   0.302  -1.915  0.00  0.00     0.028 H 
ATOM     43  H   LIG d   1       6.561   1.437  -2.432  0.00  0.00     0.028 H 
ATOM     44  H   LIG d   1       5.034   1.337  -3.340  0.00  0.00     0.028 H 
ENDBRANCH   5  41
BRANCH   1  45
ATOM     45  C   LIG d   1      11.446   0.385  -6.283  0.00  0.00    -0.039 C 
ATOM     46  H   LIG d   1      11.783  -0.578  -6.666  0.00  0.00     0.028 H 
ATOM     47  H   LIG d   1      11.337   1.087  -7.110  0.00  0.00     0.028 H 
ATOM     48  H   LIG d   1      12.176   0.771  -5.573  0.00  0.00     0.028 H 
ENDBRANCH   1  45
BRANCH  12  49
ATOM     49  C   LIG d   1      11.398   3.219  -4.828  0.00  0.00    -0.036 C 
ATOM     50  H   LIG d   1      11.914   3.616  -3.954  0.00  0.00     0.028 H 
ATOM     51  H   LIG d   1      12.032   2.480  -5.319  0.00  0.00     0.028 H 
ATOM     52  H   LIG d   1      11.184   4.031  -5.524  0.00  0.00     0.028 H 
ENDBRANCH  12  49
TORSDOF 7
ENDMDL
MODEL 3
REMARK VINA RESULT:      -6.6      4.029      6.647
REMARK  7 active torsions:
REMARK  status: ('A' for Active; 'I' for Inactive)
REMARK    1  A    between atoms: C_1  and  C_2 
REMARK    2  A    between atoms: C_6  and  C_25 
REMARK    3  A    between atoms: C_7  and  C_11 
REMARK    4  A    between atoms: C_11  and  C_12 
REMARK       I    between atoms: C_12  and  N_14 
REMARK    5  A    between atoms: N_14  and  C_15 
REMARK    6  A    between atoms: C_15  and  C_16 
REMARK    7  A    between atoms: C_28  and  C_31 
ROOT
ATOM      1  C   LIG d   1       9.126  -3.293  -5.690  0.00  0.00    -0.036 A 
ATOM      2  C   LIG d   1       7.905  -3.694  -5.230  0.00  0.00    -0.015 A 
ATOM      3  C   LIG d   1       7.049  -2.784  -4.613  0.00  0.00     0.143 A 
ATOM      4  C   LIG d   1       7.441  -1.444  -4.461  0.00  0.00     0.064 A 
ATOM      5  C   LIG d   1       6.528  -0.504  -3.811  0.00  0.00    -0.026 A 
ATOM      6  C   LIG d   1       5.327  -0.970  -3.378  0.00  0.00     0.049 A 
ATOM      7  C   LIG d   1       4.997  -2.328  -3.562  0.00  0.00     0.341 A 
ATOM      8  O   LIG d   1       3.918  -2.735  -3.170  0.00  0.00    -0.245 OA
ATOM      9  O   LIG d   1       5.840  -3.184  -4.159  0.00  0.00    -0.422 OA
ATOM     10  C   LIG d   1       8.696  -1.025  -4.937  0.00  0.00     0.146 A 
ATOM     11  C   LIG d   1       9.536  -1.964  -5.549  0.00  0.00     0.027 A 
ATOM     12  C   LIG d   1      10.747  -1.223  -5.920  0.00  0.00    -0.005 A 
ATOM     13  C   LIG d   1      10.549   0.040  -5.518  0.00  0.00     0.096 A 
ATOM     14  O   LIG d   1       9.342   0.154  -4.936  0.00  0.00    -0.462 OA
ATOM     15  H   LIG d   1       7.600  -4.723  -5.344  0.00  0.00     0.066 H 
ATOM     16  H   LIG d   1      11.256   0.848  -5.641  0.00  0.00     0.103 H 
ENDROOT
BRANCH   6  17
ATOM     17  C   LIG d   1       4.354  -0.039  -2.703  0.00  0.00     0.056 C 
ATOM     18  H   LIG d   1       3.699  -0.612  -2.046  0.00  0.00     0.041 H 
ATOM     19  H   LIG d   1       4.902   0.698  -2.117  0.00  0.00     0.041 H 
BRANCH  17  20
ATOM     20  C   LIG d   1       3.525   0.665  -3.746  0.00  0.00     0.218 C 
ATOM     21  O   LIG d   1       3.287   1.848  -3.634  0.00  0.00    -0.275 OA
ATOM     22  N   LIG d   1       3.051  -0.021  -4.805  0.00  0.00    -0.311 N 
ATOM     23  H   LIG d   1       3.242  -0.967  -4.896  0.00  0.00     0.149 HD
BRANCH  22  24
ATOM     24  C   LIG d   1       2.245   0.664  -5.820  0.00  0.00     0.037 C 
ATOM     25  H   LIG d   1       1.352   0.077  -6.032  0.00  0.00     0.051 H 
ATOM     26  H   LIG d   1       1.954   1.647  -5.449  0.00  0.00     0.051 H 
BRANCH  24  27
ATOM     27  C   LIG d   1       3.054   0.823  -7.081  0.00  0.00    -0.027 A 
ATOM     28  C   LIG d   1       4.053  -0.086  -7.378  0.00  0.00    -0.011 A 
ATOM     29  C   LIG d   1       4.798   0.057  -8.537  0.00  0.00     0.167 A 
ATOM     30  H   LIG d   1       4.252  -0.907  -6.706  0.00  0.00     0.066 H 
ATOM     31  C   LIG d   1       4.538   1.118  -9.402  0.00  0.00     0.166 A 
ATOM     32  O   LIG d   1       5.820  -0.686  -9.054  0.00  0.00    -0.453 OA
ATOM     33  C   LIG d   1       3.536   2.026  -9.096  0.00  0.00    -0.016 A 
ATOM     34  O   LIG d   1       5.397   1.040 -10.460  0.00  0.00    -0.453 OA
ATOM     35  C   LIG d   1       2.793   1.873  -7.941  0.00  0.00    -0.053 A 
ATOM     36  H   LIG d   1       3.333   2.849  -9.765  0.00  0.00     0.066 H 
ATOM     37  H   LIG d   1       2.009   2.578  -7.708  0.00  0.00     0.062 H 
ATOM     38  C   LIG d   1       5.908  -0.307 -10.440  0.00  0.00     0.233 C 
ATOM     39  H   LIG d   1       5.291  -0.959 -11.057  0.00  0.00     0.117 H 
ATOM     40  H   LIG d   1       6.945  -0.327 -10.777  0.00  0.00     0.117 H 
ENDBRANCH  24  27
ENDBRANCH  22  24
ENDBRANCH  17  20
ENDBRANCH   6  17
BRANCH   5  41
ATOM     41  C   LIG d   1       6.908   0.942  -3.628  0.00  0.00    -0.038 C 
ATOM     42  H   LIG d   1       6.841   1.206  -2.572  0.00  0.00     0.028 H 
ATOM     43  H   LIG d   1       7.929   1.097  -3.977  0.00  0.00     0.028 H 
ATOM     44  H   LIG d   1       6.229   1.572  -4.203  0.00  0.00     0.028 H 
ENDBRANCH   5  41
BRANCH   1  45
ATOM     45  C   LIG d   1      10.039  -4.292  -6.355  0.00  0.00    -0.039 C 
ATOM     46  H   LIG d   1       9.449  -5.126  -6.735  0.00  0.00     0.028 H 
ATOM     47  H   LIG d   1      10.562  -3.810  -7.181  0.00  0.00     0.028 H 
ATOM     48  H   LIG d   1      10.764  -4.658  -5.630  0.00  0.00     0.028 H 
ENDBRANCH   1  45
BRANCH  12  49
ATOM     49  C   LIG d   1      11.967  -1.770  -6.615  0.00  0.00    -0.036 C 
ATOM     50  H   LIG d   1      11.660  -2.465  -7.396  0.00  0.00     0.028 H 
ATOM     51  H   LIG d   1      12.531  -0.950  -7.059  0.00  0.00     0.028 H 
ATOM     52  H   LIG d   1      12.594  -2.291  -5.891  0.00  0.00     0.028 H 
ENDBRANCH  12  49
TORSDOF 7
ENDMDL
MODEL 4
REMARK VINA RESULT:      -6.5      7.251     10.942
REMARK  7 active torsions:
REMARK  status: ('A' for Active; 'I' for Inactive)
REMARK    1  A    between atoms: C_1  and  C_2 
REMARK    2  A    between atoms: C_6  and  C_25 
REMARK    3  A    between atoms: C_7  and  C_11 
REMARK    4  A    between atoms: C_11  and  C_12 
REMARK       I    between atoms: C_12  and  N_14 
REMARK    5  A    between atoms: N_14  and  C_15 
REMARK    6  A    between atoms: C_15  and  C_16 
REMARK    7  A    between atoms: C_28  and  C_31 
ROOT
ATOM      1  C   LIG d   1       6.607 -10.253  -1.957  0.00  0.00    -0.036 A 
ATOM      2  C   LIG d   1       7.799  -9.746  -1.527  0.00  0.00    -0.015 A 
ATOM      3  C   LIG d   1       8.479  -8.797  -2.287  0.00  0.00     0.143 A 
ATOM      4  C   LIG d   1       7.939  -8.356  -3.506  0.00  0.00     0.064 A 
ATOM      5  C   LIG d   1       8.667  -7.359  -4.290  0.00  0.00    -0.026 A 
ATOM      6  C   LIG d   1       9.848  -6.896  -3.801  0.00  0.00     0.049 A 
ATOM      7  C   LIG d   1      10.334  -7.383  -2.570  0.00  0.00     0.341 A 
ATOM      8  O   LIG d   1      11.394  -6.961  -2.142  0.00  0.00    -0.245 OA
ATOM      9  O   LIG d   1       9.659  -8.297  -1.858  0.00  0.00    -0.422 OA
ATOM     10  C   LIG d   1       6.708  -8.871  -3.951  0.00  0.00     0.146 A 
ATOM     11  C   LIG d   1       6.050  -9.827  -3.167  0.00  0.00     0.027 A 
ATOM     12  C   LIG d   1       4.823 -10.158  -3.901  0.00  0.00    -0.005 A 
ATOM     13  C   LIG d   1       4.842  -9.413  -5.015  0.00  0.00     0.096 A 
ATOM     14  O   LIG d   1       5.954  -8.658  -5.045  0.00  0.00    -0.462 OA
ATOM     15  H   LIG d   1       8.218 -10.084  -0.591  0.00  0.00     0.066 H 
ATOM     16  H   LIG d   1       4.077  -9.419  -5.778  0.00  0.00     0.103 H 
ENDROOT
BRANCH   6  17
ATOM     17  C   LIG d   1      10.635  -5.869  -4.572  0.00  0.00     0.056 C 
ATOM     18  H   LIG d   1      11.696  -5.977  -4.345  0.00  0.00     0.041 H 
ATOM     19  H   LIG d   1      10.475  -6.015  -5.641  0.00  0.00     0.041 H 
BRANCH  17  20
ATOM     20  C   LIG d   1      10.176  -4.487  -4.182  0.00  0.00     0.218 C 
ATOM     21  O   LIG d   1      10.531  -4.007  -3.127  0.00  0.00    -0.275 OA
ATOM     22  N   LIG d   1       9.373  -3.786  -5.006  0.00  0.00    -0.311 N 
ATOM     23  H   LIG d   1       9.090  -4.170  -5.850  0.00  0.00     0.149 HD
BRANCH  22  24
ATOM     24  C   LIG d   1       8.927  -2.442  -4.626  0.00  0.00     0.037 C 
ATOM     25  H   LIG d   1       9.490  -2.105  -3.757  0.00  0.00     0.051 H 
ATOM     26  H   LIG d   1       9.095  -1.756  -5.456  0.00  0.00     0.051 H 
BRANCH  24  27
ATOM     27  C   LIG d   1       7.458  -2.476  -4.292  0.00  0.00    -0.027 A 
ATOM     28  C   LIG d   1       6.940  -1.583  -3.373  0.00  0.00    -0.011 A 
ATOM     29  C   LIG d   1       5.590  -1.612  -3.064  0.00  0.00     0.167 A 
ATOM     30  H   LIG d   1       7.588  -0.863  -2.896  0.00  0.00     0.066 H 
ATOM     31  C   LIG d   1       4.757  -2.542  -3.682  0.00  0.00     0.166 A 
ATOM     32  O   LIG d   1       4.840  -0.855  -2.210  0.00  0.00    -0.453 OA
ATOM     33  C   LIG d   1       5.284  -3.435  -4.601  0.00  0.00    -0.016 A 
ATOM     34  O   LIG d   1       3.486  -2.369  -3.215  0.00  0.00    -0.453 OA
ATOM     35  C   LIG d   1       6.632  -3.397  -4.908  0.00  0.00    -0.053 A 
ATOM     36  H   LIG d   1       4.641  -4.157  -5.081  0.00  0.00     0.066 H 
ATOM     37  H   LIG d   1       7.039  -4.090  -5.629  0.00  0.00     0.062 H 
ATOM     38  C   LIG d   1       3.473  -1.060  -2.613  0.00  0.00     0.233 C 
ATOM     39  H   LIG d   1       3.171  -0.308  -3.341  0.00  0.00     0.117 H 
ATOM     40  H   LIG d   1       2.812  -1.043  -1.747  0.00  0.00     0.117 H 
ENDBRANCH  24  27
ENDBRANCH  22  24
ENDBRANCH  17  20
ENDBRANCH   6  17
BRANCH   5  41
ATOM     41  C   LIG d   1       8.123  -6.857  -5.602  0.00  0.00    -0.038 C 
ATOM     42  H   LIG d   1       7.738  -5.846  -5.474  0.00  0.00     0.028 H 
ATOM     43  H   LIG d   1       8.918  -6.853  -6.347  0.00  0.00     0.028 H 
ATOM     44  H   LIG d   1       7.318  -7.512  -5.935  0.00  0.00     0.028 H 
ENDBRANCH   5  41
BRANCH   1  45
ATOM     45  C   LIG d   1       5.885 -11.279  -1.121  0.00  0.00    -0.039 C 
ATOM     46  H   LIG d   1       6.565 -11.679  -0.369  0.00  0.00     0.028 H 
ATOM     47  H   LIG d   1       5.033 -10.810  -0.628  0.00  0.00     0.028 H 
ATOM     48  H   LIG d   1       5.534 -12.087  -1.763  0.00  0.00     0.028 H 
ENDBRANCH   1  45
BRANCH  12  49
ATOM     49  C   LIG d   1       3.755 -11.136  -3.485  0.00  0.00    -0.036 C 
ATOM     50  H   LIG d   1       4.110 -11.726  -2.640  0.00  0.00     0.028 H 
ATOM     51  H   LIG d   1       2.856 -10.592  -3.196  0.00  0.00     0.028 H 
ATOM     52  H   LIG d   1       3.525 -11.799  -4.320  0.00  0.00     0.028 H 
ENDBRANCH  12  49
TORSDOF 7
ENDMDL
MODEL 5
REMARK VINA RESULT:      -6.4      4.297      6.852
REMARK  7 active torsions:
REMARK  status: ('A' for Active; 'I' for Inactive)
REMARK    1  A    between atoms: C_1  and  C_2 
REMARK    2  A    between atoms: C_6  and  C_25 
REMARK    3  A    between atoms: C_7  and  C_11 
REMARK    4  A    between atoms: C_11  and  C_12 
REMARK       I    between atoms: C_12  and  N_14 
REMARK    5  A    between atoms: N_14  and  C_15 
REMARK    6  A    between atoms: C_15  and  C_16 
REMARK    7  A    between atoms: C_28  and  C_31 
ROOT
ATOM      1  C   LIG d   1       4.694  -2.061  -3.331  0.00  0.00    -0.036 A 
ATOM      2  C   LIG d   1       4.899  -3.168  -4.102  0.00  0.00    -0.015 A 
ATOM      3  C   LIG d   1       5.923  -3.192  -5.046  0.00  0.00     0.143 A 
ATOM      4  C   LIG d   1       6.753  -2.071  -5.209  0.00  0.00     0.064 A 
ATOM      5  C   LIG d   1       7.823  -2.115  -6.205  0.00  0.00    -0.026 A 
ATOM      6  C   LIG d   1       7.972  -3.250  -6.938  0.00  0.00     0.049 A 
ATOM      7  C   LIG d   1       7.103  -4.340  -6.723  0.00  0.00     0.341 A 
ATOM      8  O   LIG d   1       7.244  -5.351  -7.386  0.00  0.00    -0.245 OA
ATOM      9  O   LIG d   1       6.124  -4.290  -5.808  0.00  0.00    -0.422 OA
ATOM     10  C   LIG d   1       6.550  -0.930  -4.414  0.00  0.00     0.146 A 
ATOM     11  C   LIG d   1       5.509  -0.935  -3.476  0.00  0.00     0.027 A 
ATOM     12  C   LIG d   1       5.561   0.381  -2.827  0.00  0.00    -0.005 A 
ATOM     13  C   LIG d   1       6.576   1.041  -3.402  0.00  0.00     0.096 A 
ATOM     14  O   LIG d   1       7.156   0.269  -4.338  0.00  0.00    -0.462 OA
ATOM     15  H   LIG d   1       4.262  -4.031  -3.980  0.00  0.00     0.066 H 
ATOM     16  H   LIG d   1       6.884   2.046  -3.150  0.00  0.00     0.103 H 
ENDROOT
BRANCH   6  17
ATOM     17  C   LIG d   1       9.060  -3.344  -7.976  0.00  0.00     0.056 C 
ATOM     18  H   LIG d   1       9.855  -2.638  -7.733  0.00  0.00     0.041 H 
ATOM     19  H   LIG d   1       9.463  -4.356  -7.990  0.00  0.00     0.041 H 
BRANCH  17  20
ATOM     20  C   LIG d   1       8.491  -3.012  -9.331  0.00  0.00     0.218 C 
ATOM     21  O   LIG d   1       8.125  -3.901 -10.069  0.00  0.00    -0.275 OA
ATOM     22  N   LIG d   1       8.389  -1.726  -9.723  0.00  0.00    -0.311 N 
ATOM     23  H   LIG d   1       8.681  -1.014  -9.132  0.00  0.00     0.149 HD
BRANCH  22  24
ATOM     24  C   LIG d   1       7.836  -1.403 -11.041  0.00  0.00     0.037 C 
ATOM     25  H   LIG d   1       8.581  -0.866 -11.626  0.00  0.00     0.051 H 
ATOM     26  H   LIG d   1       7.565  -2.325 -11.556  0.00  0.00     0.051 H 
BRANCH  24  27
ATOM     27  C   LIG d   1       6.611  -0.542 -10.875  0.00  0.00    -0.027 A 
ATOM     28  C   LIG d   1       6.511   0.313  -9.793  0.00  0.00    -0.011 A 
ATOM     29  C   LIG d   1       5.386   1.106  -9.638  0.00  0.00     0.167 A 
ATOM     30  H   LIG d   1       7.310   0.363  -9.069  0.00  0.00     0.066 H 
ATOM     31  C   LIG d   1       4.356   1.040 -10.574  0.00  0.00     0.166 A 
ATOM     32  O   LIG d   1       5.045   2.017  -8.680  0.00  0.00    -0.453 OA
ATOM     33  C   LIG d   1       4.463   0.179 -11.656  0.00  0.00    -0.016 A 
ATOM     34  O   LIG d   1       3.371   1.908 -10.203  0.00  0.00    -0.453 OA
ATOM     35  C   LIG d   1       5.592  -0.605 -11.807  0.00  0.00    -0.053 A 
ATOM     36  H   LIG d   1       3.667   0.126 -12.383  0.00  0.00     0.066 H 
ATOM     37  H   LIG d   1       5.675  -1.271 -12.652  0.00  0.00     0.062 H 
ATOM     38  C   LIG d   1       3.985   2.803  -9.255  0.00  0.00     0.233 C 
ATOM     39  H   LIG d   1       4.389   3.678  -9.763  0.00  0.00     0.117 H 
ATOM     40  H   LIG d   1       3.268   3.099  -8.489  0.00  0.00     0.117 H 
ENDBRANCH  24  27
ENDBRANCH  22  24
ENDBRANCH  17  20
ENDBRANCH   6  17
BRANCH   5  41
ATOM     41  C   LIG d   1       8.737  -0.936  -6.412  0.00  0.00    -0.038 C 
ATOM     42  H   LIG d   1       9.764  -1.228  -6.195  0.00  0.00     0.028 H 
ATOM     43  H   LIG d   1       8.666  -0.598  -7.445  0.00  0.00     0.028 H 
ATOM     44  H   LIG d   1       8.442  -0.126  -5.744  0.00  0.00     0.028 H 
ENDBRANCH   5  41
BRANCH   1  45
ATOM     45  C   LIG d   1       3.581  -2.053  -2.314  0.00  0.00    -0.039 C 
ATOM     46  H   LIG d   1       3.984  -2.304  -1.332  0.00  0.00     0.028 H 
ATOM     47  H   LIG d   1       3.129  -1.062  -2.278  0.00  0.00     0.028 H 
ATOM     48  H   LIG d   1       2.827  -2.787  -2.597  0.00  0.00     0.028 H 
ENDBRANCH   1  45
BRANCH  12  49
ATOM     49  C   LIG d   1       4.655   0.889  -1.735  0.00  0.00    -0.036 C 
ATOM     50  H   LIG d   1       3.656   1.053  -2.137  0.00  0.00     0.028 H 
ATOM     51  H   LIG d   1       4.607   0.154  -0.932  0.00  0.00     0.028 H 
ATOM     52  H   LIG d   1       5.049   1.828  -1.344  0.00  0.00     0.028 H 
ENDBRANCH  12  49
TORSDOF 7
ENDMDL
MODEL 6
REMARK VINA RESULT:      -6.4      1.207      2.558
REMARK  7 active torsions:
REMARK  status: ('A' for Active; 'I' for Inactive)
REMARK    1  A    between atoms: C_1  and  C_2 
REMARK    2  A    between atoms: C_6  and  C_25 
REMARK    3  A    between atoms: C_7  and  C_11 
REMARK    4  A    between atoms: C_11  and  C_12 
REMARK       I    between atoms: C_12  and  N_14 
REMARK    5  A    between atoms: N_14  and  C_15 
REMARK    6  A    between atoms: C_15  and  C_16 
REMARK    7  A    between atoms: C_28  and  C_31 
ROOT
ATOM      1  C   LIG d   1      10.265   6.158  -5.754  0.00  0.00    -0.036 A 
ATOM      2  C   LIG d   1      10.017   5.738  -7.029  0.00  0.00    -0.015 A 
ATOM      3  C   LIG d   1       9.557   4.446  -7.270  0.00  0.00     0.143 A 
ATOM      4  C   LIG d   1       9.346   3.564  -6.198  0.00  0.00     0.064 A 
ATOM      5  C   LIG d   1       8.863   2.211  -6.471  0.00  0.00    -0.026 A 
ATOM      6  C   LIG d   1       8.635   1.859  -7.764  0.00  0.00     0.049 A 
ATOM      7  C   LIG d   1       8.868   2.795  -8.794  0.00  0.00     0.341 A 
ATOM      8  O   LIG d   1       8.661   2.469  -9.949  0.00  0.00    -0.245 OA
ATOM      9  O   LIG d   1       9.312   4.033  -8.533  0.00  0.00    -0.422 OA
ATOM     10  C   LIG d   1       9.596   3.992  -4.882  0.00  0.00     0.146 A 
ATOM     11  C   LIG d   1      10.061   5.297  -4.671  0.00  0.00     0.027 A 
ATOM     12  C   LIG d   1      10.225   5.424  -3.218  0.00  0.00    -0.005 A 
ATOM     13  C   LIG d   1       9.866   4.243  -2.697  0.00  0.00     0.096 A 
ATOM     14  O   LIG d   1       9.498   3.400  -3.678  0.00  0.00    -0.462 OA
ATOM     15  H   LIG d   1      10.179   6.413  -7.856  0.00  0.00     0.066 H 
ATOM     16  H   LIG d   1       9.871   4.002  -1.644  0.00  0.00     0.103 H 
ENDROOT
BRANCH   6  17
ATOM     17  C   LIG d   1       8.137   0.477  -8.096  0.00  0.00     0.056 C 
ATOM     18  H   LIG d   1       8.433   0.218  -9.113  0.00  0.00     0.041 H 
ATOM     19  H   LIG d   1       8.566  -0.241  -7.398  0.00  0.00     0.041 H 
BRANCH  17  20
ATOM     20  C   LIG d   1       6.634   0.445  -7.988  0.00  0.00     0.218 C 
ATOM     21  O   LIG d   1       5.985   1.429  -8.272  0.00  0.00    -0.275 OA
ATOM     22  N   LIG d   1       6.012  -0.677  -7.576  0.00  0.00    -0.311 N 
ATOM     23  H   LIG d   1       6.531  -1.464  -7.349  0.00  0.00     0.149 HD
BRANCH  22  24
ATOM     24  C   LIG d   1       4.550  -0.708  -7.470  0.00  0.00     0.037 C 
ATOM     25  H   LIG d   1       4.119  -0.028  -8.204  0.00  0.00     0.051 H 
ATOM     26  H   LIG d   1       4.194  -1.721  -7.660  0.00  0.00     0.051 H 
BRANCH  24  27
ATOM     27  C   LIG d   1       4.137  -0.283  -6.086  0.00  0.00    -0.027 A 
ATOM     28  C   LIG d   1       5.017  -0.427  -5.029  0.00  0.00    -0.011 A 
ATOM     29  C   LIG d   1       4.641  -0.037  -3.755  0.00  0.00     0.167 A 
ATOM     30  H   LIG d   1       5.999  -0.844  -5.198  0.00  0.00     0.066 H 
ATOM     31  C   LIG d   1       3.374   0.502  -3.541  0.00  0.00     0.166 A 
ATOM     32  O   LIG d   1       5.307  -0.070  -2.563  0.00  0.00    -0.453 OA
ATOM     33  C   LIG d   1       2.497   0.642  -4.605  0.00  0.00    -0.016 A 
ATOM     34  O   LIG d   1       3.246   0.805  -2.216  0.00  0.00    -0.453 OA
ATOM     35  C   LIG d   1       2.882   0.255  -5.874  0.00  0.00    -0.053 A 
ATOM     36  H   LIG d   1       1.514   1.059  -4.442  0.00  0.00     0.066 H 
ATOM     37  H   LIG d   1       2.199   0.370  -6.703  0.00  0.00     0.062 H 
ATOM     38  C   LIG d   1       4.589   0.827  -1.695  0.00  0.00     0.233 C 
ATOM     39  H   LIG d   1       5.005   1.832  -1.754  0.00  0.00     0.117 H 
ATOM     40  H   LIG d   1       4.607   0.463  -0.668  0.00  0.00     0.117 H 
ENDBRANCH  24  27
ENDBRANCH  22  24
ENDBRANCH  17  20
ENDBRANCH   6  17
BRANCH   5  41
ATOM     41  C   LIG d   1       8.623   1.233  -5.351  0.00  0.00    -0.038 C 
ATOM     42  H   LIG d   1       8.533   1.774  -4.408  0.00  0.00     0.028 H 
ATOM     43  H   LIG d   1       7.703   0.680  -5.541  0.00  0.00     0.028 H 
ATOM     44  H   LIG d   1       9.459   0.537  -5.290  0.00  0.00     0.028 H 
ENDBRANCH   5  41
BRANCH   1  45
ATOM     45  C   LIG d   1      10.762   7.560  -5.511  0.00  0.00    -0.039 C 
ATOM     46  H   LIG d   1       9.913   8.241  -5.455  0.00  0.00     0.028 H 
ATOM     47  H   LIG d   1      11.316   7.592  -4.572  0.00  0.00     0.028 H 
ATOM     48  H   LIG d   1      11.416   7.859  -6.329  0.00  0.00     0.028 H 
ENDBRANCH   1  45
BRANCH  12  49
ATOM     49  C   LIG d   1      10.700   6.638  -2.463  0.00  0.00    -0.036 C 
ATOM     50  H   LIG d   1      11.787   6.694  -2.509  0.00  0.00     0.028 H 
ATOM     51  H   LIG d   1      10.271   7.535  -2.910  0.00  0.00     0.028 H 
ATOM     52  H   LIG d   1      10.384   6.565  -1.421  0.00  0.00     0.028 H 
ENDBRANCH  12  49
TORSDOF 7
ENDMDL
MODEL 7
REMARK VINA RESULT:      -6.4      6.548      8.772
REMARK  7 active torsions:
REMARK  status: ('A' for Active; 'I' for Inactive)
REMARK    1  A    between atoms: C_1  and  C_2 
REMARK    2  A    between atoms: C_6  and  C_25 
REMARK    3  A    between atoms: C_7  and  C_11 
REMARK    4  A    between atoms: C_11  and  C_12 
REMARK       I    between atoms: C_12  and  N_14 
REMARK    5  A    between atoms: N_14  and  C_15 
REMARK    6  A    between atoms: C_15  and  C_16 
REMARK    7  A    between atoms: C_28  and  C_31 
ROOT
ATOM      1  C   LIG d   1       4.217  -1.643  -3.534  0.00  0.00    -0.036 A 
ATOM      2  C   LIG d   1       4.332  -2.909  -4.028  0.00  0.00    -0.015 A 
ATOM      3  C   LIG d   1       5.550  -3.366  -4.525  0.00  0.00     0.143 A 
ATOM      4  C   LIG d   1       6.671  -2.520  -4.521  0.00  0.00     0.064 A 
ATOM      5  C   LIG d   1       7.942  -3.017  -5.048  0.00  0.00    -0.026 A 
ATOM      6  C   LIG d   1       7.987  -4.290  -5.523  0.00  0.00     0.049 A 
ATOM      7  C   LIG d   1       6.823  -5.086  -5.498  0.00  0.00     0.341 A 
ATOM      8  O   LIG d   1       6.874  -6.224  -5.928  0.00  0.00    -0.245 OA
ATOM      9  O   LIG d   1       5.662  -4.621  -5.014  0.00  0.00    -0.422 OA
ATOM     10  C   LIG d   1       6.560  -1.215  -4.008  0.00  0.00     0.146 A 
ATOM     11  C   LIG d   1       5.320  -0.784  -3.519  0.00  0.00     0.027 A 
ATOM     12  C   LIG d   1       5.535   0.598  -3.072  0.00  0.00    -0.005 A 
ATOM     13  C   LIG d   1       6.823   0.874  -3.320  0.00  0.00     0.096 A 
ATOM     14  O   LIG d   1       7.424  -0.193  -3.875  0.00  0.00    -0.462 OA
ATOM     15  H   LIG d   1       3.473  -3.562  -4.034  0.00  0.00     0.066 H 
ATOM     16  H   LIG d   1       7.307   1.816  -3.107  0.00  0.00     0.103 H 
ENDROOT
BRANCH   6  17
ATOM     17  C   LIG d   1       9.273  -4.846  -6.075  0.00  0.00     0.056 C 
ATOM     18  H   LIG d   1       9.052  -5.506  -6.915  0.00  0.00     0.041 H 
ATOM     19  H   LIG d   1       9.908  -4.028  -6.413  0.00  0.00     0.041 H 
BRANCH  17  20
ATOM     20  C   LIG d   1       9.986  -5.624  -4.999  0.00  0.00     0.218 C 
ATOM     21  O   LIG d   1      10.794  -5.070  -4.285  0.00  0.00    -0.275 OA
ATOM     22  N   LIG d   1       9.726  -6.936  -4.831  0.00  0.00    -0.311 N 
ATOM     23  H   LIG d   1       9.081  -7.380  -5.402  0.00  0.00     0.149 HD
BRANCH  22  24
ATOM     24  C   LIG d   1      10.421  -7.692  -3.785  0.00  0.00     0.037 C 
ATOM     25  H   LIG d   1      11.124  -8.386  -4.245  0.00  0.00     0.051 H 
ATOM     26  H   LIG d   1      10.961  -7.003  -3.137  0.00  0.00     0.051 H 
BRANCH  24  27
ATOM     27  C   LIG d   1       9.415  -8.463  -2.971  0.00  0.00    -0.027 A 
ATOM     28  C   LIG d   1       8.151  -8.698  -3.480  0.00  0.00    -0.011 A 
ATOM     29  C   LIG d   1       7.224  -9.407  -2.733  0.00  0.00     0.167 A 
ATOM     30  H   LIG d   1       7.887  -8.330  -4.460  0.00  0.00     0.066 H 
ATOM     31  C   LIG d   1       7.568  -9.881  -1.469  0.00  0.00     0.166 A 
ATOM     32  O   LIG d   1       5.934  -9.770  -2.998  0.00  0.00    -0.453 OA
ATOM     33  C   LIG d   1       8.837  -9.640  -0.965  0.00  0.00    -0.016 A 
ATOM     34  O   LIG d   1       6.495 -10.540  -0.942  0.00  0.00    -0.453 OA
ATOM     35  C   LIG d   1       9.758  -8.937  -1.719  0.00  0.00    -0.053 A 
ATOM     36  H   LIG d   1       9.106 -10.006   0.014  0.00  0.00     0.066 H 
ATOM     37  H   LIG d   1      10.748  -8.755  -1.326  0.00  0.00     0.062 H 
ATOM     38  C   LIG d   1       5.629 -10.818  -2.059  0.00  0.00     0.233 C 
ATOM     39  H   LIG d   1       5.857 -11.793  -2.486  0.00  0.00     0.117 H 
ATOM     40  H   LIG d   1       4.583 -10.766  -1.754  0.00  0.00     0.117 H 
ENDBRANCH  24  27
ENDBRANCH  22  24
ENDBRANCH  17  20
ENDBRANCH   6  17
BRANCH   5  41
ATOM     41  C   LIG d   1       9.169  -2.143  -5.061  0.00  0.00    -0.038 C 
ATOM     42  H   LIG d   1       9.090  -1.392  -4.275  0.00  0.00     0.028 H 
ATOM     43  H   LIG d   1      10.054  -2.756  -4.890  0.00  0.00     0.028 H 
ATOM     44  H   LIG d   1       9.252  -1.649  -6.029  0.00  0.00     0.028 H 
ENDBRANCH   5  41
BRANCH   1  45
ATOM     45  C   LIG d   1       2.891  -1.166  -2.999  0.00  0.00    -0.039 C 
ATOM     46  H   LIG d   1       2.092  -1.788  -3.401  0.00  0.00     0.028 H 
ATOM     47  H   LIG d   1       2.892  -1.235  -1.911  0.00  0.00     0.028 H 
ATOM     48  H   LIG d   1       2.731  -0.130  -3.297  0.00  0.00     0.028 H 
ENDBRANCH   1  45
BRANCH  12  49
ATOM     49  C   LIG d   1       4.514   1.520  -2.457  0.00  0.00    -0.036 C 
ATOM     50  H   LIG d   1       3.603   0.963  -2.241  0.00  0.00     0.028 H 
ATOM     51  H   LIG d   1       4.912   1.939  -1.533  0.00  0.00     0.028 H 
ATOM     52  H   LIG d   1       4.289   2.329  -3.154  0.00  0.00     0.028 H 
ENDBRANCH  12  49
TORSDOF 7
ENDMDL
MODEL 8
REMARK VINA RESULT:      -6.3      3.257      6.271
REMARK  7 active torsions:
REMARK  status: ('A' for Active; 'I' for Inactive)
REMARK    1  A    between atoms: C_1  and  C_2 
REMARK    2  A    between atoms: C_6  and  C_25 
REMARK    3  A    between atoms: C_7  and  C_11 
REMARK    4  A    between atoms: C_11  and  C_12 
REMARK       I    between atoms: C_12  and  N_14 
REMARK    5  A    between atoms: N_14  and  C_15 
REMARK    6  A    between atoms: C_15  and  C_16 
REMARK    7  A    between atoms: C_28  and  C_31 
ROOT
ATOM      1  C   LIG d   1       5.424   0.622  -2.741  0.00  0.00    -0.036 A 
ATOM      2  C   LIG d   1       6.323   1.598  -3.063  0.00  0.00    -0.015 A 
ATOM      3  C   LIG d   1       7.379   1.327  -3.930  0.00  0.00     0.143 A 
ATOM      4  C   LIG d   1       7.524   0.042  -4.479  0.00  0.00     0.064 A 
ATOM      5  C   LIG d   1       8.640  -0.223  -5.387  0.00  0.00    -0.026 A 
ATOM      6  C   LIG d   1       9.497   0.794  -5.666  0.00  0.00     0.049 A 
ATOM      7  C   LIG d   1       9.292   2.060  -5.080  0.00  0.00     0.341 A 
ATOM      8  O   LIG d   1      10.067   2.965  -5.336  0.00  0.00    -0.245 OA
ATOM      9  O   LIG d   1       8.267   2.294  -4.247  0.00  0.00    -0.422 OA
ATOM     10  C   LIG d   1       6.598  -0.965  -4.154  0.00  0.00     0.146 A 
ATOM     11  C   LIG d   1       5.549  -0.663  -3.277  0.00  0.00     0.027 A 
ATOM     12  C   LIG d   1       4.781  -1.906  -3.143  0.00  0.00    -0.005 A 
ATOM     13  C   LIG d   1       5.401  -2.813  -3.910  0.00  0.00     0.096 A 
ATOM     14  O   LIG d   1       6.473  -2.258  -4.503  0.00  0.00    -0.462 OA
ATOM     15  H   LIG d   1       6.215   2.586  -2.642  0.00  0.00     0.066 H 
ATOM     16  H   LIG d   1       5.087  -3.839  -4.034  0.00  0.00     0.103 H 
ENDROOT
BRANCH   6  17
ATOM     17  C   LIG d   1      10.660   0.570  -6.596  0.00  0.00     0.056 C 
ATOM     18  H   LIG d   1      11.354   1.407  -6.519  0.00  0.00     0.041 H 
ATOM     19  H   LIG d   1      11.171  -0.353  -6.323  0.00  0.00     0.041 H 
BRANCH  17  20
ATOM     20  C   LIG d   1      10.158   0.464  -8.013  0.00  0.00     0.218 C 
ATOM     21  O   LIG d   1      10.633  -0.360  -8.765  0.00  0.00    -0.275 OA
ATOM     22  N   LIG d   1       9.179   1.284  -8.444  0.00  0.00    -0.311 N 
ATOM     23  H   LIG d   1       8.798   1.943  -7.843  0.00  0.00     0.149 HD
BRANCH  22  24
ATOM     24  C   LIG d   1       8.690   1.181  -9.822  0.00  0.00     0.037 C 
ATOM     25  H   LIG d   1       8.904   2.108 -10.353  0.00  0.00     0.051 H 
ATOM     26  H   LIG d   1       9.190   0.352 -10.323  0.00  0.00     0.051 H 
BRANCH  24  27
ATOM     27  C   LIG d   1       7.204   0.939  -9.811  0.00  0.00    -0.027 A 
ATOM     28  C   LIG d   1       6.379   1.744  -9.047  0.00  0.00    -0.011 A 
ATOM     29  C   LIG d   1       5.012   1.525  -9.035  0.00  0.00     0.167 A 
ATOM     30  H   LIG d   1       6.802   2.545  -8.459  0.00  0.00     0.066 H 
ATOM     31  C   LIG d   1       4.470   0.491  -9.796  0.00  0.00     0.166 A 
ATOM     32  O   LIG d   1       3.997   2.162  -8.381  0.00  0.00    -0.453 OA
ATOM     33  C   LIG d   1       5.302  -0.313 -10.558  0.00  0.00    -0.016 A 
ATOM     34  O   LIG d   1       3.117   0.480  -9.617  0.00  0.00    -0.453 OA
ATOM     35  C   LIG d   1       6.665  -0.084 -10.569  0.00  0.00    -0.053 A 
ATOM     36  H   LIG d   1       4.885  -1.115 -11.149  0.00  0.00     0.066 H 
ATOM     37  H   LIG d   1       7.311  -0.708 -11.168  0.00  0.00     0.062 H 
ATOM     38  C   LIG d   1       2.792   1.771  -9.064  0.00  0.00     0.233 C 
ATOM     39  H   LIG d   1       2.554   2.478  -9.858  0.00  0.00     0.117 H 
ATOM     40  H   LIG d   1       1.963   1.688  -8.361  0.00  0.00     0.117 H 
ENDBRANCH  24  27
ENDBRANCH  22  24
ENDBRANCH  17  20
ENDBRANCH   6  17
BRANCH   5  41
ATOM     41  C   LIG d   1       8.832  -1.586  -5.999  0.00  0.00    -0.038 C 
ATOM     42  H   LIG d   1       8.345  -2.337  -5.377  0.00  0.00     0.028 H 
ATOM     43  H   LIG d   1       8.395  -1.601  -6.997  0.00  0.00     0.028 H 
ATOM     44  H   LIG d   1       9.898  -1.807  -6.066  0.00  0.00     0.028 H 
ENDBRANCH   5  41
BRANCH   1  45
ATOM     45  C   LIG d   1       4.287   0.934  -1.801  0.00  0.00    -0.039 C 
ATOM     46  H   LIG d   1       4.553   0.620  -0.792  0.00  0.00     0.028 H 
ATOM     47  H   LIG d   1       4.093   2.007  -1.810  0.00  0.00     0.028 H 
ATOM     48  H   LIG d   1       3.393   0.400  -2.125  0.00  0.00     0.028 H 
ENDBRANCH   1  45
BRANCH  12  49
ATOM     49  C   LIG d   1       3.543  -2.121  -2.311  0.00  0.00    -0.036 C 
ATOM     50  H   LIG d   1       2.746  -1.470  -2.669  0.00  0.00     0.028 H 
ATOM     51  H   LIG d   1       3.226  -3.161  -2.392  0.00  0.00     0.028 H 
ATOM     52  H   LIG d   1       3.761  -1.889  -1.268  0.00  0.00     0.028 H 
ENDBRANCH  12  49
TORSDOF 7
ENDMDL
MODEL 9
REMARK VINA RESULT:      -6.3      2.227      3.164
REMARK  7 active torsions:
REMARK  status: ('A' for Active; 'I' for Inactive)
REMARK    1  A    between atoms: C_1  and  C_2 
REMARK    2  A    between atoms: C_6  and  C_25 
REMARK    3  A    between atoms: C_7  and  C_11 
REMARK    4  A    between atoms: C_11  and  C_12 
REMARK       I    between atoms: C_12  and  N_14 
REMARK    5  A    between atoms: N_14  and  C_15 
REMARK    6  A    between atoms: C_15  and  C_16 
REMARK    7  A    between atoms: C_28  and  C_31 
ROOT
ATOM      1  C   LIG d   1       9.609   8.022  -1.844  0.00  0.00    -0.036 A 
ATOM      2  C   LIG d   1       9.645   6.703  -1.496  0.00  0.00    -0.015 A 
ATOM      3  C   LIG d   1      10.113   5.748  -2.396  0.00  0.00     0.143 A 
ATOM      4  C   LIG d   1      10.551   6.140  -3.671  0.00  0.00     0.064 A 
ATOM      5  C   LIG d   1      11.039   5.123  -4.602  0.00  0.00    -0.026 A 
ATOM      6  C   LIG d   1      11.049   3.827  -4.190  0.00  0.00     0.049 A 
ATOM      7  C   LIG d   1      10.594   3.502  -2.896  0.00  0.00     0.341 A 
ATOM      8  O   LIG d   1      10.606   2.338  -2.537  0.00  0.00    -0.245 OA
ATOM      9  O   LIG d   1      10.148   4.442  -2.049  0.00  0.00    -0.422 OA
ATOM     10  C   LIG d   1      10.520   7.498  -4.033  0.00  0.00     0.146 A 
ATOM     11  C   LIG d   1      10.041   8.435  -3.108  0.00  0.00     0.027 A 
ATOM     12  C   LIG d   1      10.133   9.735  -3.783  0.00  0.00    -0.005 A 
ATOM     13  C   LIG d   1      10.632   9.488  -5.002  0.00  0.00     0.096 A 
ATOM     14  O   LIG d   1      10.857   8.170  -5.149  0.00  0.00    -0.462 OA
ATOM     15  H   LIG d   1       9.308   6.397  -0.517  0.00  0.00     0.066 H 
ATOM     16  H   LIG d   1      10.826  10.236  -5.756  0.00  0.00     0.103 H 
ENDROOT
BRANCH   6  17
ATOM     17  C   LIG d   1      11.542   2.744  -5.113  0.00  0.00     0.056 C 
ATOM     18  H   LIG d   1      12.156   3.187  -5.898  0.00  0.00     0.041 H 
ATOM     19  H   LIG d   1      12.138   2.028  -4.547  0.00  0.00     0.041 H 
BRANCH  17  20
ATOM     20  C   LIG d   1      10.365   2.038  -5.734  0.00  0.00     0.218 C 
ATOM     21  O   LIG d   1       9.799   2.527  -6.688  0.00  0.00    -0.275 OA
ATOM     22  N   LIG d   1       9.942   0.862  -5.229  0.00  0.00    -0.311 N 
ATOM     23  H   LIG d   1      10.394   0.470  -4.466  0.00  0.00     0.149 HD
BRANCH  22  24
ATOM     24  C   LIG d   1       8.796   0.175  -5.833  0.00  0.00     0.037 C 
ATOM     25  H   LIG d   1       8.371   0.799  -6.618  0.00  0.00     0.051 H 
ATOM     26  H   LIG d   1       9.126  -0.772  -6.261  0.00  0.00     0.051 H 
BRANCH  24  27
ATOM     27  C   LIG d   1       7.754  -0.087  -4.777  0.00  0.00    -0.027 A 
ATOM     28  C   LIG d   1       7.160   0.973  -4.117  0.00  0.00    -0.011 A 
ATOM     29  C   LIG d   1       6.201   0.736  -3.146  0.00  0.00     0.167 A 
ATOM     30  H   LIG d   1       7.445   1.987  -4.359  0.00  0.00     0.066 H 
ATOM     31  C   LIG d   1       5.836  -0.573  -2.837  0.00  0.00     0.166 A 
ATOM     32  O   LIG d   1       5.476   1.587  -2.363  0.00  0.00    -0.453 OA
ATOM     33  C   LIG d   1       6.437  -1.630  -3.503  0.00  0.00    -0.016 A 
ATOM     34  O   LIG d   1       4.884  -0.542  -1.861  0.00  0.00    -0.453 OA
ATOM     35  C   LIG d   1       7.389  -1.385  -4.474  0.00  0.00    -0.053 A 
ATOM     36  H   LIG d   1       6.156  -2.645  -3.265  0.00  0.00     0.066 H 
ATOM     37  H   LIG d   1       7.852  -2.210  -4.995  0.00  0.00     0.062 H 
ATOM     38  C   LIG d   1       4.374   0.806  -1.864  0.00  0.00     0.233 C 
ATOM     39  H   LIG d   1       3.514   0.887  -2.528  0.00  0.00     0.117 H 
ATOM     40  H   LIG d   1       4.111   1.117  -0.853  0.00  0.00     0.117 H 
ENDBRANCH  24  27
ENDBRANCH  22  24
ENDBRANCH  17  20
ENDBRANCH   6  17
BRANCH   5  41
ATOM     41  C   LIG d   1      11.519   5.500  -5.979  0.00  0.00    -0.038 C 
ATOM     42  H   LIG d   1      12.339   6.214  -5.896  0.00  0.00     0.028 H 
ATOM     43  H   LIG d   1      11.865   4.608  -6.501  0.00  0.00     0.028 H 
ATOM     44  H   LIG d   1      10.699   5.952  -6.538  0.00  0.00     0.028 H 
ENDBRANCH   5  41
BRANCH   1  45
ATOM     45  C   LIG d   1       9.100   9.042  -0.857  0.00  0.00    -0.039 C 
ATOM     46  H   LIG d   1       9.800   9.124  -0.026  0.00  0.00     0.028 H 
ATOM     47  H   LIG d   1       9.007  10.010  -1.351  0.00  0.00     0.028 H 
ATOM     48  H   LIG d   1       8.125   8.729  -0.483  0.00  0.00     0.028 H 
ENDBRANCH   1  45
BRANCH  12  49
ATOM     49  C   LIG d   1       9.745  11.078  -3.220  0.00  0.00    -0.036 C 
ATOM     50  H   LIG d   1       8.997  11.540  -3.864  0.00  0.00     0.028 H 
ATOM     51  H   LIG d   1       9.333  10.947  -2.220  0.00  0.00     0.028 H 
ATOM     52  H   LIG d   1      10.626  11.718  -3.169  0.00  0.00     0.028 H 
ENDBRANCH  12  49
TORSDOF 7
ENDMDL
