MODEL 1
REMARK VINA RESULT:      -5.2      0.000      0.000
REMARK  8 active torsions:
REMARK  status: ('A' for Active; 'I' for Inactive)
REMARK    1  A    between atoms: C_1  and  C_2 
REMARK    2  A    between atoms: C_3  and  N_18 
REMARK    3  A    between atoms: C_5  and  C_11 
REMARK    4  A    between atoms: C_7  and  N_8 
REMARK       I    between atoms: C_11  and  N_13 
REMARK    5  A    between atoms: N_13  and  C_14 
REMARK    6  A    between atoms: C_14  and  C_15 
REMARK    7  A    between atoms: C_14  and  C_16 
REMARK    8  A    between atoms: C_14  and  C_17 
ROOT
ATOM      1  C   LIG d   1       4.277   0.147  -9.615  0.00  0.00     0.103 A 
ATOM      2  C   LIG d   1       3.258  -0.626  -9.087  0.00  0.00     0.283 A 
ATOM      3  C   LIG d   1       3.241  -0.925  -7.741  0.00  0.00     0.028 A 
ATOM      4  C   LIG d   1       4.253  -0.442  -6.910  0.00  0.00     0.050 A 
ATOM      5  C   LIG d   1       5.282   0.331  -7.449  0.00  0.00     0.028 A 
ATOM      6  C   LIG d   1       5.286   0.623  -8.797  0.00  0.00     0.283 A 
ATOM      7  H   LIG d   1       2.445  -1.528  -7.330  0.00  0.00     0.069 H 
ATOM      8  H   LIG d   1       6.070   0.704  -6.811  0.00  0.00     0.069 H 
ENDROOT
BRANCH   4   9
ATOM      9  C   LIG d   1       4.238  -0.754  -5.465  0.00  0.00     0.245 C 
ATOM     10  O   LIG d   1       4.419  -1.895  -5.086  0.00  0.00    -0.270 OA
ATOM     11  N   LIG d   1       4.023   0.227  -4.565  0.00  0.00    -0.307 N 
ATOM     12  H   LIG d   1       3.877   1.138  -4.867  0.00  0.00     0.149 HD
BRANCH  11  13
ATOM     13  C   LIG d   1       4.007  -0.081  -3.134  0.00  0.00     0.026 C 
BRANCH  13  14
ATOM     14  C   LIG d   1       3.757   1.202  -2.339  0.00  0.00    -0.044 C 
ATOM     15  H   LIG d   1       2.716   1.503  -2.450  0.00  0.00     0.025 H 
ATOM     16  H   LIG d   1       3.973   1.025  -1.284  0.00  0.00     0.025 H 
ATOM     17  H   LIG d   1       4.407   1.994  -2.714  0.00  0.00     0.025 H 
ENDBRANCH  13  14
BRANCH  13  18
ATOM     18  C   LIG d   1       2.891  -1.087  -2.841  0.00  0.00    -0.044 C 
ATOM     19  H   LIG d   1       1.925  -0.626  -3.042  0.00  0.00     0.025 H 
ATOM     20  H   LIG d   1       3.017  -1.963  -3.477  0.00  0.00     0.025 H 
ATOM     21  H   LIG d   1       2.940  -1.388  -1.794  0.00  0.00     0.025 H 
ENDBRANCH  13  18
BRANCH  13  22
ATOM     22  C   LIG d   1       5.354  -0.680  -2.726  0.00  0.00    -0.044 C 
ATOM     23  H   LIG d   1       5.203  -1.406  -1.926  0.00  0.00     0.025 H 
ATOM     24  H   LIG d   1       5.806  -1.177  -3.586  0.00  0.00     0.025 H 
ATOM     25  H   LIG d   1       6.015   0.113  -2.377  0.00  0.00     0.025 H 
ENDBRANCH  13  22
ENDBRANCH  11  13
ENDBRANCH   4   9
BRANCH   2  26
ATOM     26  N   LIG d   1       2.183  -1.132  -9.970  0.00  0.00     0.080 N 
ATOM     27  O   LIG d   1       2.299  -2.218 -10.509  0.00  0.00     0.042 OA
ATOM     28  O   LIG d   1       1.181  -0.464 -10.155  0.00  0.00    -0.576 OA
ENDBRANCH   2  26
BRANCH   6  29
ATOM     29  N   LIG d   1       6.373   1.448  -9.370  0.00  0.00     0.080 N 
ATOM     30  O   LIG d   1       7.342   0.912  -9.878  0.00  0.00     0.042 OA
ATOM     31  O   LIG d   1       6.300   2.663  -9.335  0.00  0.00    -0.576 OA
ENDBRANCH   6  29
BRANCH   1  32
ATOM     32  C   LIG d   1       4.289   0.470 -11.088  0.00  0.00    -0.027 C 
ATOM     33  H   LIG d   1       4.265  -0.457 -11.662  0.00  0.00     0.028 H 
ATOM     34  H   LIG d   1       3.415   1.072 -11.333  0.00  0.00     0.028 H 
ATOM     35  H   LIG d   1       5.194   1.025 -11.331  0.00  0.00     0.028 H 
ENDBRANCH   1  32
TORSDOF 8
ENDMDL
MODEL 2
REMARK VINA RESULT:      -5.1      0.056      3.435
REMARK  8 active torsions:
REMARK  status: ('A' for Active; 'I' for Inactive)
REMARK    1  A    between atoms: C_1  and  C_2 
REMARK    2  A    between atoms: C_3  and  N_18 
REMARK    3  A    between atoms: C_5  and  C_11 
REMARK    4  A    between atoms: C_7  and  N_8 
REMARK       I    between atoms: C_11  and  N_13 
REMARK    5  A    between atoms: N_13  and  C_14 
REMARK    6  A    between atoms: C_14  and  C_15 
REMARK    7  A    between atoms: C_14  and  C_16 
REMARK    8  A    between atoms: C_14  and  C_17 
ROOT
ATOM      1  C   LIG d   1       4.290   0.148  -9.614  0.00  0.00     0.103 A 
ATOM      2  C   LIG d   1       5.308   0.608  -8.798  0.00  0.00     0.283 A 
ATOM      3  C   LIG d   1       5.302   0.313  -7.451  0.00  0.00     0.028 A 
ATOM      4  C   LIG d   1       4.270  -0.456  -6.912  0.00  0.00     0.050 A 
ATOM      5  C   LIG d   1       3.242  -0.912  -7.740  0.00  0.00     0.028 A 
ATOM      6  C   LIG d   1       3.261  -0.610  -9.086  0.00  0.00     0.283 A 
ATOM      7  H   LIG d   1       6.097   0.673  -6.814  0.00  0.00     0.069 H 
ATOM      8  H   LIG d   1       2.438  -1.504  -7.329  0.00  0.00     0.069 H 
ENDROOT
BRANCH   4   9
ATOM      9  C   LIG d   1       4.260  -0.781  -5.470  0.00  0.00     0.245 C 
ATOM     10  O   LIG d   1       4.408  -1.931  -5.105  0.00  0.00    -0.270 OA
ATOM     11  N   LIG d   1       4.089   0.197  -4.559  0.00  0.00    -0.307 N 
ATOM     12  H   LIG d   1       3.971   1.116  -4.850  0.00  0.00     0.149 HD
BRANCH  11  13
ATOM     13  C   LIG d   1       4.079  -0.125  -3.130  0.00  0.00     0.026 C 
BRANCH  13  14
ATOM     14  C   LIG d   1       5.414  -0.765  -2.743  0.00  0.00    -0.044 C 
ATOM     15  H   LIG d   1       5.706  -0.426  -1.750  0.00  0.00     0.025 H 
ATOM     16  H   LIG d   1       5.310  -1.851  -2.741  0.00  0.00     0.025 H 
ATOM     17  H   LIG d   1       6.178  -0.476  -3.466  0.00  0.00     0.025 H 
ENDBRANCH  13  14
BRANCH  13  18
ATOM     18  C   LIG d   1       3.875   1.157  -2.319  0.00  0.00    -0.044 C 
ATOM     19  H   LIG d   1       4.557   1.161  -1.469  0.00  0.00     0.025 H 
ATOM     20  H   LIG d   1       4.076   2.022  -2.951  0.00  0.00     0.025 H 
ATOM     21  H   LIG d   1       2.847   1.199  -1.961  0.00  0.00     0.025 H 
ENDBRANCH  13  18
BRANCH  13  22
ATOM     22  C   LIG d   1       2.940  -1.102  -2.836  0.00  0.00    -0.044 C 
ATOM     23  H   LIG d   1       2.661  -1.623  -3.752  0.00  0.00     0.025 H 
ATOM     24  H   LIG d   1       3.267  -1.829  -2.091  0.00  0.00     0.025 H 
ATOM     25  H   LIG d   1       2.079  -0.553  -2.453  0.00  0.00     0.025 H 
ENDBRANCH  13  22
ENDBRANCH  11  13
ENDBRANCH   4   9
BRANCH   2  26
ATOM     26  N   LIG d   1       6.405   1.419  -9.372  0.00  0.00     0.080 N 
ATOM     27  O   LIG d   1       7.370   0.871  -9.874  0.00  0.00     0.042 OA
ATOM     28  O   LIG d   1       6.343   2.636  -9.343  0.00  0.00    -0.576 OA
ENDBRANCH   2  26
BRANCH   6  29
ATOM     29  N   LIG d   1       2.176  -1.098  -9.967  0.00  0.00     0.080 N 
ATOM     30  O   LIG d   1       2.287  -2.170 -10.534  0.00  0.00     0.042 OA
ATOM     31  O   LIG d   1       1.172  -0.427 -10.126  0.00  0.00    -0.576 OA
ENDBRANCH   6  29
BRANCH   1  32
ATOM     32  C   LIG d   1       4.303   0.475 -11.086  0.00  0.00    -0.027 C 
ATOM     33  H   LIG d   1       3.528   1.210 -11.301  0.00  0.00     0.028 H 
ATOM     34  H   LIG d   1       5.277   0.882 -11.358  0.00  0.00     0.028 H 
ATOM     35  H   LIG d   1       4.115  -0.432 -11.661  0.00  0.00     0.028 H 
ENDBRANCH   1  32
TORSDOF 8
ENDMDL
MODEL 3
REMARK VINA RESULT:      -5.0      1.074      1.401
REMARK  8 active torsions:
REMARK  status: ('A' for Active; 'I' for Inactive)
REMARK    1  A    between atoms: C_1  and  C_2 
REMARK    2  A    between atoms: C_3  and  N_18 
REMARK    3  A    between atoms: C_5  and  C_11 
REMARK    4  A    between atoms: C_7  and  N_8 
REMARK       I    between atoms: C_11  and  N_13 
REMARK    5  A    between atoms: N_13  and  C_14 
REMARK    6  A    between atoms: C_14  and  C_15 
REMARK    7  A    between atoms: C_14  and  C_16 
REMARK    8  A    between atoms: C_14  and  C_17 
ROOT
ATOM      1  C   LIG d   1       3.715  -0.204  -9.641  0.00  0.00     0.103 A 
ATOM      2  C   LIG d   1       3.403  -1.446  -9.117  0.00  0.00     0.283 A 
ATOM      3  C   LIG d   1       3.566  -1.689  -7.769  0.00  0.00     0.028 A 
ATOM      4  C   LIG d   1       4.039  -0.677  -6.932  0.00  0.00     0.050 A 
ATOM      5  C   LIG d   1       4.358   0.572  -7.469  0.00  0.00     0.028 A 
ATOM      6  C   LIG d   1       4.191   0.801  -8.818  0.00  0.00     0.283 A 
ATOM      7  H   LIG d   1       3.322  -2.658  -7.360  0.00  0.00     0.069 H 
ATOM      8  H   LIG d   1       4.729   1.358  -6.828  0.00  0.00     0.069 H 
ENDROOT
BRANCH   4   9
ATOM      9  C   LIG d   1       4.209  -0.928  -5.486  0.00  0.00     0.245 C 
ATOM     10  O   LIG d   1       4.534  -2.032  -5.094  0.00  0.00    -0.270 OA
ATOM     11  N   LIG d   1       4.004   0.067  -4.600  0.00  0.00    -0.307 N 
ATOM     12  H   LIG d   1       3.745   0.949  -4.911  0.00  0.00     0.149 HD
BRANCH  11  13
ATOM     13  C   LIG d   1       4.172  -0.182  -3.166  0.00  0.00     0.026 C 
BRANCH  13  14
ATOM     14  C   LIG d   1       3.769   1.068  -2.381  0.00  0.00    -0.044 C 
ATOM     15  H   LIG d   1       2.689   1.077  -2.240  0.00  0.00     0.025 H 
ATOM     16  H   LIG d   1       4.263   1.062  -1.409  0.00  0.00     0.025 H 
ATOM     17  H   LIG d   1       4.071   1.957  -2.936  0.00  0.00     0.025 H 
ENDBRANCH  13  14
BRANCH  13  18
ATOM     18  C   LIG d   1       3.284  -1.356  -2.745  0.00  0.00    -0.044 C 
ATOM     19  H   LIG d   1       2.418  -1.410  -3.404  0.00  0.00     0.025 H 
ATOM     20  H   LIG d   1       3.852  -2.283  -2.813  0.00  0.00     0.025 H 
ATOM     21  H   LIG d   1       2.951  -1.208  -1.718  0.00  0.00     0.025 H 
ENDBRANCH  13  18
BRANCH  13  22
ATOM     22  C   LIG d   1       5.635  -0.519  -2.874  0.00  0.00    -0.044 C 
ATOM     23  H   LIG d   1       6.125  -0.839  -3.794  0.00  0.00     0.025 H 
ATOM     24  H   LIG d   1       6.140   0.365  -2.483  0.00  0.00     0.025 H 
ATOM     25  H   LIG d   1       5.684  -1.321  -2.138  0.00  0.00     0.025 H 
ENDBRANCH  13  22
ENDBRANCH  11  13
ENDBRANCH   4   9
BRANCH   2  26
ATOM     26  N   LIG d   1       2.896  -2.516 -10.004  0.00  0.00     0.080 N 
ATOM     27  O   LIG d   1       1.698  -2.643 -10.181  0.00  0.00     0.042 OA
ATOM     28  O   LIG d   1       3.677  -3.269 -10.558  0.00  0.00    -0.576 OA
ENDBRANCH   2  26
BRANCH   6  29
ATOM     29  N   LIG d   1       4.522   2.127  -9.389  0.00  0.00     0.080 N 
ATOM     30  O   LIG d   1       5.685   2.474  -9.488  0.00  0.00     0.042 OA
ATOM     31  O   LIG d   1       3.631   2.871  -9.759  0.00  0.00    -0.576 OA
ENDBRANCH   6  29
BRANCH   1  32
ATOM     32  C   LIG d   1       3.535   0.054 -11.116  0.00  0.00    -0.027 C 
ATOM     33  H   LIG d   1       3.747  -0.860 -11.672  0.00  0.00     0.028 H 
ATOM     34  H   LIG d   1       2.509   0.367 -11.307  0.00  0.00     0.028 H 
ATOM     35  H   LIG d   1       4.221   0.840 -11.433  0.00  0.00     0.028 H 
ENDBRANCH   1  32
TORSDOF 8
ENDMDL
MODEL 4
REMARK VINA RESULT:      -5.0      1.226      3.545
REMARK  8 active torsions:
REMARK  status: ('A' for Active; 'I' for Inactive)
REMARK    1  A    between atoms: C_1  and  C_2 
REMARK    2  A    between atoms: C_3  and  N_18 
REMARK    3  A    between atoms: C_5  and  C_11 
REMARK    4  A    between atoms: C_7  and  N_8 
REMARK       I    between atoms: C_11  and  N_13 
REMARK    5  A    between atoms: N_13  and  C_14 
REMARK    6  A    between atoms: C_14  and  C_15 
REMARK    7  A    between atoms: C_14  and  C_16 
REMARK    8  A    between atoms: C_14  and  C_17 
ROOT
ATOM      1  C   LIG d   1       3.681  -0.223  -9.480  0.00  0.00     0.103 A 
ATOM      2  C   LIG d   1       4.314   0.637  -8.600  0.00  0.00     0.283 A 
ATOM      3  C   LIG d   1       4.620   0.218  -7.322  0.00  0.00     0.028 A 
ATOM      4  C   LIG d   1       4.294  -1.078  -6.919  0.00  0.00     0.050 A 
ATOM      5  C   LIG d   1       3.649  -1.938  -7.810  0.00  0.00     0.028 A 
ATOM      6  C   LIG d   1       3.350  -1.506  -9.085  0.00  0.00     0.283 A 
ATOM      7  H   LIG d   1       5.114   0.889  -6.635  0.00  0.00     0.069 H 
ATOM      8  H   LIG d   1       3.391  -2.941  -7.502  0.00  0.00     0.069 H 
ENDROOT
BRANCH   4   9
ATOM      9  C   LIG d   1       4.625  -1.536  -5.553  0.00  0.00     0.245 C 
ATOM     10  O   LIG d   1       4.963  -2.688  -5.363  0.00  0.00    -0.270 OA
ATOM     11  N   LIG d   1       4.553  -0.676  -4.517  0.00  0.00    -0.307 N 
ATOM     12  H   LIG d   1       4.282   0.244  -4.668  0.00  0.00     0.149 HD
BRANCH  11  13
ATOM     13  C   LIG d   1       4.880  -1.130  -3.164  0.00  0.00     0.026 C 
BRANCH  13  14
ATOM     14  C   LIG d   1       3.937  -2.268  -2.766  0.00  0.00    -0.044 C 
ATOM     15  H   LIG d   1       3.187  -2.407  -3.544  0.00  0.00     0.025 H 
ATOM     16  H   LIG d   1       4.509  -3.188  -2.644  0.00  0.00     0.025 H 
ATOM     17  H   LIG d   1       3.445  -2.020  -1.825  0.00  0.00     0.025 H 
ENDBRANCH  13  14
BRANCH  13  18
ATOM     18  C   LIG d   1       6.326  -1.630  -3.129  0.00  0.00    -0.044 C 
ATOM     19  H   LIG d   1       6.374  -2.560  -2.562  0.00  0.00     0.025 H 
ATOM     20  H   LIG d   1       6.673  -1.806  -4.147  0.00  0.00     0.025 H 
ATOM     21  H   LIG d   1       6.957  -0.881  -2.652  0.00  0.00     0.025 H 
ENDBRANCH  13  18
BRANCH  13  22
ATOM     22  C   LIG d   1       4.718   0.033  -2.183  0.00  0.00    -0.044 C 
ATOM     23  H   LIG d   1       3.715   0.449  -2.274  0.00  0.00     0.025 H 
ATOM     24  H   LIG d   1       4.871  -0.327  -1.165  0.00  0.00     0.025 H 
ATOM     25  H   LIG d   1       5.454   0.805  -2.410  0.00  0.00     0.025 H 
ENDBRANCH  13  22
ENDBRANCH  11  13
ENDBRANCH   4   9
BRANCH   2  26
ATOM     26  N   LIG d   1       4.664   2.009  -9.031  0.00  0.00     0.080 N 
ATOM     27  O   LIG d   1       3.867   2.917  -8.877  0.00  0.00     0.042 OA
ATOM     28  O   LIG d   1       5.749   2.231  -9.538  0.00  0.00    -0.576 OA
ENDBRANCH   2  26
BRANCH   6  29
ATOM     29  N   LIG d   1       2.672  -2.418 -10.033  0.00  0.00     0.080 N 
ATOM     30  O   LIG d   1       1.455  -2.481 -10.054  0.00  0.00     0.042 OA
ATOM     31  O   LIG d   1       3.329  -3.107 -10.792  0.00  0.00    -0.576 OA
ENDBRANCH   6  29
BRANCH   1  32
ATOM     32  C   LIG d   1       3.349   0.243 -10.875  0.00  0.00    -0.027 C 
ATOM     33  H   LIG d   1       3.887  -0.370 -11.599  0.00  0.00     0.028 H 
ATOM     34  H   LIG d   1       2.277   0.149 -11.044  0.00  0.00     0.028 H 
ATOM     35  H   LIG d   1       3.646   1.285 -10.990  0.00  0.00     0.028 H 
ENDBRANCH   1  32
TORSDOF 8
ENDMDL
MODEL 5
REMARK VINA RESULT:      -4.9      2.695      6.040
REMARK  8 active torsions:
REMARK  status: ('A' for Active; 'I' for Inactive)
REMARK    1  A    between atoms: C_1  and  C_2 
REMARK    2  A    between atoms: C_3  and  N_18 
REMARK    3  A    between atoms: C_5  and  C_11 
REMARK    4  A    between atoms: C_7  and  N_8 
REMARK       I    between atoms: C_11  and  N_13 
REMARK    5  A    between atoms: N_13  and  C_14 
REMARK    6  A    between atoms: C_14  and  C_15 
REMARK    7  A    between atoms: C_14  and  C_16 
REMARK    8  A    between atoms: C_14  and  C_17 
ROOT
ATOM      1  C   LIG d   1       6.170  -1.602  -4.196  0.00  0.00     0.103 A 
ATOM      2  C   LIG d   1       4.834  -1.358  -3.934  0.00  0.00     0.283 A 
ATOM      3  C   LIG d   1       4.020  -0.834  -4.916  0.00  0.00     0.028 A 
ATOM      4  C   LIG d   1       4.545  -0.556  -6.179  0.00  0.00     0.050 A 
ATOM      5  C   LIG d   1       5.896  -0.799  -6.435  0.00  0.00     0.028 A 
ATOM      6  C   LIG d   1       6.698  -1.323  -5.443  0.00  0.00     0.283 A 
ATOM      7  H   LIG d   1       2.976  -0.644  -4.711  0.00  0.00     0.069 H 
ATOM      8  H   LIG d   1       6.310  -0.582  -7.409  0.00  0.00     0.069 H 
ENDROOT
BRANCH   4   9
ATOM      9  C   LIG d   1       3.677  -0.001  -7.239  0.00  0.00     0.245 C 
ATOM     10  O   LIG d   1       2.499   0.200  -7.017  0.00  0.00    -0.270 OA
ATOM     11  N   LIG d   1       4.192   0.283  -8.452  0.00  0.00    -0.307 N 
ATOM     12  H   LIG d   1       5.132   0.123  -8.630  0.00  0.00     0.149 HD
BRANCH  11  13
ATOM     13  C   LIG d   1       3.331   0.833  -9.503  0.00  0.00     0.026 C 
BRANCH  13  14
ATOM     14  C   LIG d   1       2.744   2.166  -9.034  0.00  0.00    -0.044 C 
ATOM     15  H   LIG d   1       3.188   2.980  -9.605  0.00  0.00     0.025 H 
ATOM     16  H   LIG d   1       1.664   2.161  -9.189  0.00  0.00     0.025 H 
ATOM     17  H   LIG d   1       2.958   2.304  -7.974  0.00  0.00     0.025 H 
ENDBRANCH  13  14
BRANCH  13  18
ATOM     18  C   LIG d   1       4.156   1.057 -10.772  0.00  0.00    -0.044 C 
ATOM     19  H   LIG d   1       5.012   0.382 -10.773  0.00  0.00     0.025 H 
ATOM     20  H   LIG d   1       3.537   0.861 -11.647  0.00  0.00     0.025 H 
ATOM     21  H   LIG d   1       4.507   2.089 -10.799  0.00  0.00     0.025 H 
ENDBRANCH  13  18
BRANCH  13  22
ATOM     22  C   LIG d   1       2.197  -0.150  -9.799  0.00  0.00    -0.044 C 
ATOM     23  H   LIG d   1       2.510  -0.841 -10.582  0.00  0.00     0.025 H 
ATOM     24  H   LIG d   1       1.958  -0.712  -8.895  0.00  0.00     0.025 H 
ATOM     25  H   LIG d   1       1.316   0.400 -10.129  0.00  0.00     0.025 H 
ENDBRANCH  13  22
ENDBRANCH  11  13
ENDBRANCH   4   9
BRANCH   2  26
ATOM     26  N   LIG d   1       4.276  -1.658  -2.596  0.00  0.00     0.080 N 
ATOM     27  O   LIG d   1       4.397  -0.852  -1.691  0.00  0.00     0.042 OA
ATOM     28  O   LIG d   1       3.696  -2.711  -2.400  0.00  0.00    -0.576 OA
ENDBRANCH   2  26
BRANCH   6  29
ATOM     29  N   LIG d   1       8.130  -1.587  -5.714  0.00  0.00     0.080 N 
ATOM     30  O   LIG d   1       8.962  -0.727  -5.485  0.00  0.00     0.042 OA
ATOM     31  O   LIG d   1       8.476  -2.664  -6.166  0.00  0.00    -0.576 OA
ENDBRANCH   6  29
BRANCH   1  32
ATOM     32  C   LIG d   1       7.054  -2.174  -3.116  0.00  0.00    -0.027 C 
ATOM     33  H   LIG d   1       6.438  -2.694  -2.382  0.00  0.00     0.028 H 
ATOM     34  H   LIG d   1       7.761  -2.874  -3.560  0.00  0.00     0.028 H 
ATOM     35  H   LIG d   1       7.599  -1.367  -2.628  0.00  0.00     0.028 H 
ENDBRANCH   1  32
TORSDOF 8
ENDMDL
MODEL 6
REMARK VINA RESULT:      -4.9      2.700      6.536
REMARK  8 active torsions:
REMARK  status: ('A' for Active; 'I' for Inactive)
REMARK    1  A    between atoms: C_1  and  C_2 
REMARK    2  A    between atoms: C_3  and  N_18 
REMARK    3  A    between atoms: C_5  and  C_11 
REMARK    4  A    between atoms: C_7  and  N_8 
REMARK       I    between atoms: C_11  and  N_13 
REMARK    5  A    between atoms: N_13  and  C_14 
REMARK    6  A    between atoms: C_14  and  C_15 
REMARK    7  A    between atoms: C_14  and  C_16 
REMARK    8  A    between atoms: C_14  and  C_17 
ROOT
ATOM      1  C   LIG d   1       6.182  -1.571  -4.180  0.00  0.00     0.103 A 
ATOM      2  C   LIG d   1       6.709  -1.282  -5.426  0.00  0.00     0.283 A 
ATOM      3  C   LIG d   1       5.900  -0.772  -6.419  0.00  0.00     0.028 A 
ATOM      4  C   LIG d   1       4.547  -0.540  -6.163  0.00  0.00     0.050 A 
ATOM      5  C   LIG d   1       4.020  -0.840  -4.905  0.00  0.00     0.028 A 
ATOM      6  C   LIG d   1       4.841  -1.350  -3.921  0.00  0.00     0.283 A 
ATOM      7  H   LIG d   1       6.312  -0.546  -7.391  0.00  0.00     0.069 H 
ATOM      8  H   LIG d   1       2.974  -0.667  -4.702  0.00  0.00     0.069 H 
ENDROOT
BRANCH   4   9
ATOM      9  C   LIG d   1       3.676   0.013  -7.220  0.00  0.00     0.245 C 
ATOM     10  O   LIG d   1       2.495   0.199  -6.999  0.00  0.00    -0.270 OA
ATOM     11  N   LIG d   1       4.189   0.312  -8.430  0.00  0.00    -0.307 N 
ATOM     12  H   LIG d   1       5.132   0.164  -8.607  0.00  0.00     0.149 HD
BRANCH  11  13
ATOM     13  C   LIG d   1       3.325   0.860  -9.478  0.00  0.00     0.026 C 
BRANCH  13  14
ATOM     14  C   LIG d   1       2.198  -0.130  -9.778  0.00  0.00    -0.044 C 
ATOM     15  H   LIG d   1       2.577  -1.148  -9.699  0.00  0.00     0.025 H 
ATOM     16  H   LIG d   1       1.388   0.013  -9.062  0.00  0.00     0.025 H 
ATOM     17  H   LIG d   1       1.824   0.042 -10.788  0.00  0.00     0.025 H 
ENDBRANCH  13  14
BRANCH  13  18
ATOM     18  C   LIG d   1       2.726   2.186  -9.004  0.00  0.00    -0.044 C 
ATOM     19  H   LIG d   1       1.638   2.128  -9.046  0.00  0.00     0.025 H 
ATOM     20  H   LIG d   1       3.041   2.381  -7.979  0.00  0.00     0.025 H 
ATOM     21  H   LIG d   1       3.072   2.992  -9.651  0.00  0.00     0.025 H 
ENDBRANCH  13  18
BRANCH  13  22
ATOM     22  C   LIG d   1       4.149   1.097 -10.746  0.00  0.00    -0.044 C 
ATOM     23  H   LIG d   1       5.154   1.416 -10.472  0.00  0.00     0.025 H 
ATOM     24  H   LIG d   1       4.205   0.171 -11.320  0.00  0.00     0.025 H 
ATOM     25  H   LIG d   1       3.673   1.870 -11.349  0.00  0.00     0.025 H 
ENDBRANCH  13  22
ENDBRANCH  11  13
ENDBRANCH   4   9
BRANCH   2  26
ATOM     26  N   LIG d   1       8.145  -1.523  -5.694  0.00  0.00     0.080 N 
ATOM     27  O   LIG d   1       8.962  -0.651  -5.462  0.00  0.00     0.042 OA
ATOM     28  O   LIG d   1       8.509  -2.594  -6.145  0.00  0.00    -0.576 OA
ENDBRANCH   2  26
BRANCH   6  29
ATOM     29  N   LIG d   1       4.286  -1.662  -2.585  0.00  0.00     0.080 N 
ATOM     30  O   LIG d   1       3.710  -2.719  -2.396  0.00  0.00     0.042 OA
ATOM     31  O   LIG d   1       4.404  -0.863  -1.674  0.00  0.00    -0.576 OA
ENDBRANCH   6  29
BRANCH   1  32
ATOM     32  C   LIG d   1       7.073  -2.129  -3.099  0.00  0.00    -0.027 C 
ATOM     33  H   LIG d   1       6.615  -1.954  -2.125  0.00  0.00     0.028 H 
ATOM     34  H   LIG d   1       7.202  -3.200  -3.253  0.00  0.00     0.028 H 
ATOM     35  H   LIG d   1       8.044  -1.636  -3.139  0.00  0.00     0.028 H 
ENDBRANCH   1  32
TORSDOF 8
ENDMDL
MODEL 7
REMARK VINA RESULT:      -4.9      4.704      6.202
REMARK  8 active torsions:
REMARK  status: ('A' for Active; 'I' for Inactive)
REMARK    1  A    between atoms: C_1  and  C_2 
REMARK    2  A    between atoms: C_3  and  N_18 
REMARK    3  A    between atoms: C_5  and  C_11 
REMARK    4  A    between atoms: C_7  and  N_8 
REMARK       I    between atoms: C_11  and  N_13 
REMARK    5  A    between atoms: N_13  and  C_14 
REMARK    6  A    between atoms: C_14  and  C_15 
REMARK    7  A    between atoms: C_14  and  C_16 
REMARK    8  A    between atoms: C_14  and  C_17 
ROOT
ATOM      1  C   LIG d   1       4.274  -6.755  -7.289  0.00  0.00     0.103 A 
ATOM      2  C   LIG d   1       3.944  -5.502  -7.773  0.00  0.00     0.283 A 
ATOM      3  C   LIG d   1       4.111  -4.387  -6.980  0.00  0.00     0.028 A 
ATOM      4  C   LIG d   1       4.621  -4.523  -5.687  0.00  0.00     0.050 A 
ATOM      5  C   LIG d   1       4.946  -5.792  -5.203  0.00  0.00     0.028 A 
ATOM      6  C   LIG d   1       4.774  -6.898  -6.007  0.00  0.00     0.283 A 
ATOM      7  H   LIG d   1       3.853  -3.408  -7.358  0.00  0.00     0.069 H 
ATOM      8  H   LIG d   1       5.337  -5.904  -4.202  0.00  0.00     0.069 H 
ENDROOT
BRANCH   4   9
ATOM      9  C   LIG d   1       4.809  -3.332  -4.834  0.00  0.00     0.245 C 
ATOM     10  O   LIG d   1       5.913  -3.061  -4.402  0.00  0.00    -0.270 OA
ATOM     11  N   LIG d   1       3.757  -2.544  -4.534  0.00  0.00    -0.307 N 
ATOM     12  H   LIG d   1       2.876  -2.759  -4.878  0.00  0.00     0.149 HD
BRANCH  11  13
ATOM     13  C   LIG d   1       3.944  -1.363  -3.687  0.00  0.00     0.026 C 
BRANCH  13  14
ATOM     14  C   LIG d   1       2.623  -0.597  -3.583  0.00  0.00    -0.044 C 
ATOM     15  H   LIG d   1       2.202  -0.731  -2.587  0.00  0.00     0.025 H 
ATOM     16  H   LIG d   1       2.802   0.464  -3.762  0.00  0.00     0.025 H 
ATOM     17  H   LIG d   1       1.923  -0.978  -4.328  0.00  0.00     0.025 H 
ENDBRANCH  13  14
BRANCH  13  18
ATOM     18  C   LIG d   1       4.390  -1.802  -2.290  0.00  0.00    -0.044 C 
ATOM     19  H   LIG d   1       5.475  -1.902  -2.271  0.00  0.00     0.025 H 
ATOM     20  H   LIG d   1       4.080  -1.055  -1.559  0.00  0.00     0.025 H 
ATOM     21  H   LIG d   1       3.932  -2.760  -2.048  0.00  0.00     0.025 H 
ENDBRANCH  13  18
BRANCH  13  22
ATOM     22  C   LIG d   1       5.012  -0.457  -4.303  0.00  0.00    -0.044 C 
ATOM     23  H   LIG d   1       5.050  -0.621  -5.380  0.00  0.00     0.025 H 
ATOM     24  H   LIG d   1       4.763   0.586  -4.102  0.00  0.00     0.025 H 
ATOM     25  H   LIG d   1       5.982  -0.690  -3.865  0.00  0.00     0.025 H 
ENDBRANCH  13  22
ENDBRANCH  11  13
ENDBRANCH   4   9
BRANCH   2  26
ATOM     26  N   LIG d   1       3.409  -5.358  -9.146  0.00  0.00     0.080 N 
ATOM     27  O   LIG d   1       4.143  -5.007 -10.052  0.00  0.00     0.042 OA
ATOM     28  O   LIG d   1       2.234  -5.592  -9.370  0.00  0.00    -0.576 OA
ENDBRANCH   2  26
BRANCH   6  29
ATOM     29  N   LIG d   1       5.124  -8.243  -5.497  0.00  0.00     0.080 N 
ATOM     30  O   LIG d   1       6.252  -8.679  -5.651  0.00  0.00     0.042 OA
ATOM     31  O   LIG d   1       4.286  -8.915  -4.924  0.00  0.00    -0.576 OA
ENDBRANCH   6  29
BRANCH   1  32
ATOM     32  C   LIG d   1       4.088  -7.970  -8.163  0.00  0.00    -0.027 C 
ATOM     33  H   LIG d   1       4.982  -8.121  -8.769  0.00  0.00     0.028 H 
ATOM     34  H   LIG d   1       3.922  -8.846  -7.536  0.00  0.00     0.028 H 
ATOM     35  H   LIG d   1       3.227  -7.820  -8.814  0.00  0.00     0.028 H 
ENDBRANCH   1  32
TORSDOF 8
ENDMDL
MODEL 8
REMARK VINA RESULT:      -4.8      2.377      3.249
REMARK  8 active torsions:
REMARK  status: ('A' for Active; 'I' for Inactive)
REMARK    1  A    between atoms: C_1  and  C_2 
REMARK    2  A    between atoms: C_3  and  N_18 
REMARK    3  A    between atoms: C_5  and  C_11 
REMARK    4  A    between atoms: C_7  and  N_8 
REMARK       I    between atoms: C_11  and  N_13 
REMARK    5  A    between atoms: N_13  and  C_14 
REMARK    6  A    between atoms: C_14  and  C_15 
REMARK    7  A    between atoms: C_14  and  C_16 
REMARK    8  A    between atoms: C_14  and  C_17 
ROOT
ATOM      1  C   LIG d   1       3.619  -2.673  -8.624  0.00  0.00     0.103 A 
ATOM      2  C   LIG d   1       4.142  -3.541  -7.682  0.00  0.00     0.283 A 
ATOM      3  C   LIG d   1       4.548  -3.066  -6.453  0.00  0.00     0.028 A 
ATOM      4  C   LIG d   1       4.425  -1.707  -6.158  0.00  0.00     0.050 A 
ATOM      5  C   LIG d   1       3.903  -0.836  -7.116  0.00  0.00     0.028 A 
ATOM      6  C   LIG d   1       3.500  -1.325  -8.341  0.00  0.00     0.283 A 
ATOM      7  H   LIG d   1       4.956  -3.744  -5.718  0.00  0.00     0.069 H 
ATOM      8  H   LIG d   1       3.809   0.217  -6.895  0.00  0.00     0.069 H 
ENDROOT
BRANCH   4   9
ATOM      9  C   LIG d   1       4.852  -1.192  -4.840  0.00  0.00     0.245 C 
ATOM     10  O   LIG d   1       5.868  -1.613  -4.322  0.00  0.00    -0.270 OA
ATOM     11  N   LIG d   1       4.116  -0.254  -4.212  0.00  0.00    -0.307 N 
ATOM     12  H   LIG d   1       3.305   0.083  -4.624  0.00  0.00     0.149 HD
BRANCH  11  13
ATOM     13  C   LIG d   1       4.538   0.256  -2.905  0.00  0.00     0.026 C 
BRANCH  13  14
ATOM     14  C   LIG d   1       3.591   1.374  -2.464  0.00  0.00    -0.044 C 
ATOM     15  H   LIG d   1       3.417   1.302  -1.391  0.00  0.00     0.025 H 
ATOM     16  H   LIG d   1       4.038   2.342  -2.696  0.00  0.00     0.025 H 
ATOM     17  H   LIG d   1       2.643   1.276  -2.994  0.00  0.00     0.025 H 
ENDBRANCH  13  14
BRANCH  13  18
ATOM     18  C   LIG d   1       4.501  -0.878  -1.878  0.00  0.00    -0.044 C 
ATOM     19  H   LIG d   1       3.822  -0.612  -1.068  0.00  0.00     0.025 H 
ATOM     20  H   LIG d   1       4.154  -1.792  -2.360  0.00  0.00     0.025 H 
ATOM     21  H   LIG d   1       5.502  -1.036  -1.476  0.00  0.00     0.025 H 
ENDBRANCH  13  18
BRANCH  13  22
ATOM     22  C   LIG d   1       5.963   0.805  -3.008  0.00  0.00    -0.044 C 
ATOM     23  H   LIG d   1       6.407   0.488  -3.952  0.00  0.00     0.025 H 
ATOM     24  H   LIG d   1       5.937   1.894  -2.968  0.00  0.00     0.025 H 
ATOM     25  H   LIG d   1       6.560   0.424  -2.180  0.00  0.00     0.025 H 
ENDBRANCH  13  22
ENDBRANCH  11  13
ENDBRANCH   4   9
BRANCH   2  26
ATOM     26  N   LIG d   1       4.266  -4.983  -7.994  0.00  0.00     0.080 N 
ATOM     27  O   LIG d   1       5.280  -5.407  -8.519  0.00  0.00     0.042 OA
ATOM     28  O   LIG d   1       3.355  -5.745  -7.725  0.00  0.00    -0.576 OA
ENDBRANCH   2  26
BRANCH   6  29
ATOM     29  N   LIG d   1       2.940  -0.404  -9.355  0.00  0.00     0.080 N 
ATOM     30  O   LIG d   1       3.684   0.195 -10.112  0.00  0.00     0.042 OA
ATOM     31  O   LIG d   1       1.736  -0.243  -9.434  0.00  0.00    -0.576 OA
ENDBRANCH   6  29
BRANCH   1  32
ATOM     32  C   LIG d   1       3.177  -3.200  -9.966  0.00  0.00    -0.027 C 
ATOM     33  H   LIG d   1       3.902  -2.909 -10.727  0.00  0.00     0.028 H 
ATOM     34  H   LIG d   1       3.111  -4.287  -9.925  0.00  0.00     0.028 H 
ATOM     35  H   LIG d   1       2.201  -2.785 -10.216  0.00  0.00     0.028 H 
ENDBRANCH   1  32
TORSDOF 8
ENDMDL
MODEL 9
REMARK VINA RESULT:      -4.8      2.443      3.667
REMARK  8 active torsions:
REMARK  status: ('A' for Active; 'I' for Inactive)
REMARK    1  A    between atoms: C_1  and  C_2 
REMARK    2  A    between atoms: C_3  and  N_18 
REMARK    3  A    between atoms: C_5  and  C_11 
REMARK    4  A    between atoms: C_7  and  N_8 
REMARK       I    between atoms: C_11  and  N_13 
REMARK    5  A    between atoms: N_13  and  C_14 
REMARK    6  A    between atoms: C_14  and  C_15 
REMARK    7  A    between atoms: C_14  and  C_16 
REMARK    8  A    between atoms: C_14  and  C_17 
ROOT
ATOM      1  C   LIG d   1       3.660  -2.787  -8.553  0.00  0.00     0.103 A 
ATOM      2  C   LIG d   1       3.507  -1.435  -8.298  0.00  0.00     0.283 A 
ATOM      3  C   LIG d   1       3.892  -0.913  -7.081  0.00  0.00     0.028 A 
ATOM      4  C   LIG d   1       4.443  -1.749  -6.108  0.00  0.00     0.050 A 
ATOM      5  C   LIG d   1       4.589  -3.112  -6.370  0.00  0.00     0.028 A 
ATOM      6  C   LIG d   1       4.200  -3.622  -7.591  0.00  0.00     0.283 A 
ATOM      7  H   LIG d   1       3.773   0.142  -6.882  0.00  0.00     0.069 H 
ATOM      8  H   LIG d   1       5.011  -3.765  -5.620  0.00  0.00     0.069 H 
ENDROOT
BRANCH   4   9
ATOM      9  C   LIG d   1       4.864  -1.194  -4.805  0.00  0.00     0.245 C 
ATOM     10  O   LIG d   1       5.885  -1.590  -4.276  0.00  0.00    -0.270 OA
ATOM     11  N   LIG d   1       4.117  -0.248  -4.201  0.00  0.00    -0.307 N 
ATOM     12  H   LIG d   1       3.302   0.068  -4.622  0.00  0.00     0.149 HD
BRANCH  11  13
ATOM     13  C   LIG d   1       4.534   0.301  -2.908  0.00  0.00     0.026 C 
BRANCH  13  14
ATOM     14  C   LIG d   1       3.575   1.420  -2.498  0.00  0.00    -0.044 C 
ATOM     15  H   LIG d   1       4.127   2.354  -2.399  0.00  0.00     0.025 H 
ATOM     16  H   LIG d   1       2.802   1.534  -3.258  0.00  0.00     0.025 H 
ATOM     17  H   LIG d   1       3.112   1.169  -1.543  0.00  0.00     0.025 H 
ENDBRANCH  13  14
BRANCH  13  18
ATOM     18  C   LIG d   1       4.508  -0.806  -1.851  0.00  0.00    -0.044 C 
ATOM     19  H   LIG d   1       3.652  -0.657  -1.192  0.00  0.00     0.025 H 
ATOM     20  H   LIG d   1       4.424  -1.775  -2.343  0.00  0.00     0.025 H 
ATOM     21  H   LIG d   1       5.427  -0.771  -1.268  0.00  0.00     0.025 H 
ENDBRANCH  13  18
BRANCH  13  22
ATOM     22  C   LIG d   1       5.953   0.860  -3.026  0.00  0.00    -0.044 C 
ATOM     23  H   LIG d   1       5.980   1.621  -3.806  0.00  0.00     0.025 H 
ATOM     24  H   LIG d   1       6.248   1.306  -2.075  0.00  0.00     0.025 H 
ATOM     25  H   LIG d   1       6.642   0.055  -3.279  0.00  0.00     0.025 H 
ENDBRANCH  13  22
ENDBRANCH  11  13
ENDBRANCH   4   9
BRANCH   2  26
ATOM     26  N   LIG d   1       2.928  -0.549  -9.332  0.00  0.00     0.080 N 
ATOM     27  O   LIG d   1       1.722  -0.389  -9.391  0.00  0.00     0.042 OA
ATOM     28  O   LIG d   1       3.657   0.020 -10.124  0.00  0.00    -0.576 OA
ENDBRANCH   2  26
BRANCH   6  29
ATOM     29  N   LIG d   1       4.360  -5.066  -7.874  0.00  0.00     0.080 N 
ATOM     30  O   LIG d   1       5.391  -5.479  -8.373  0.00  0.00     0.042 OA
ATOM     31  O   LIG d   1       3.460  -5.842  -7.607  0.00  0.00    -0.576 OA
ENDBRANCH   6  29
BRANCH   1  32
ATOM     32  C   LIG d   1       3.237  -3.351  -9.886  0.00  0.00    -0.027 C 
ATOM     33  H   LIG d   1       2.162  -3.535  -9.876  0.00  0.00     0.028 H 
ATOM     34  H   LIG d   1       3.476  -2.638 -10.674  0.00  0.00     0.028 H 
ATOM     35  H   LIG d   1       3.765  -4.286 -10.068  0.00  0.00     0.028 H 
ENDBRANCH   1  32
TORSDOF 8
ENDMDL
MODEL 10
REMARK VINA RESULT:      -4.7      4.644      5.972
REMARK  8 active torsions:
REMARK  status: ('A' for Active; 'I' for Inactive)
REMARK    1  A    between atoms: C_1  and  C_2 
REMARK    2  A    between atoms: C_3  and  N_18 
REMARK    3  A    between atoms: C_5  and  C_11 
REMARK    4  A    between atoms: C_7  and  N_8 
REMARK       I    between atoms: C_11  and  N_13 
REMARK    5  A    between atoms: N_13  and  C_14 
REMARK    6  A    between atoms: C_14  and  C_15 
REMARK    7  A    between atoms: C_14  and  C_16 
REMARK    8  A    between atoms: C_14  and  C_17 
ROOT
ATOM      1  C   LIG d   1       9.815   0.700  -4.977  0.00  0.00     0.103 A 
ATOM      2  C   LIG d   1       8.974  -0.372  -5.217  0.00  0.00     0.283 A 
ATOM      3  C   LIG d   1       7.695  -0.378  -4.701  0.00  0.00     0.028 A 
ATOM      4  C   LIG d   1       7.248   0.703  -3.941  0.00  0.00     0.050 A 
ATOM      5  C   LIG d   1       8.104   1.779  -3.696  0.00  0.00     0.028 A 
ATOM      6  C   LIG d   1       9.380   1.771  -4.219  0.00  0.00     0.283 A 
ATOM      7  H   LIG d   1       7.039  -1.215  -4.889  0.00  0.00     0.069 H 
ATOM      8  H   LIG d   1       7.765   2.617  -3.105  0.00  0.00     0.069 H 
ENDROOT
BRANCH   4   9
ATOM      9  C   LIG d   1       5.876   0.707  -3.390  0.00  0.00     0.245 C 
ATOM     10  O   LIG d   1       5.684   1.041  -2.237  0.00  0.00    -0.270 OA
ATOM     11  N   LIG d   1       4.837   0.340  -4.167  0.00  0.00    -0.307 N 
ATOM     12  H   LIG d   1       4.989   0.073  -5.087  0.00  0.00     0.149 HD
BRANCH  11  13
ATOM     13  C   LIG d   1       3.477   0.343  -3.621  0.00  0.00     0.026 C 
BRANCH  13  14
ATOM     14  C   LIG d   1       3.315   1.527  -2.666  0.00  0.00    -0.044 C 
ATOM     15  H   LIG d   1       3.557   2.452  -3.187  0.00  0.00     0.025 H 
ATOM     16  H   LIG d   1       2.284   1.569  -2.310  0.00  0.00     0.025 H 
ATOM     17  H   LIG d   1       3.986   1.402  -1.816  0.00  0.00     0.025 H 
ENDBRANCH  13  14
BRANCH  13  18
ATOM     18  C   LIG d   1       2.469   0.470  -4.766  0.00  0.00    -0.044 C 
ATOM     19  H   LIG d   1       2.969   0.872  -5.647  0.00  0.00     0.025 H 
ATOM     20  H   LIG d   1       2.057  -0.512  -4.997  0.00  0.00     0.025 H 
ATOM     21  H   LIG d   1       1.664   1.141  -4.467  0.00  0.00     0.025 H 
ENDBRANCH  13  18
BRANCH  13  22
ATOM     22  C   LIG d   1       3.228  -0.963  -2.865  0.00  0.00    -0.044 C 
ATOM     23  H   LIG d   1       2.809  -0.740  -1.883  0.00  0.00     0.025 H 
ATOM     24  H   LIG d   1       2.527  -1.581  -3.427  0.00  0.00     0.025 H 
ATOM     25  H   LIG d   1       4.170  -1.499  -2.745  0.00  0.00     0.025 H 
ENDBRANCH  13  22
ENDBRANCH  11  13
ENDBRANCH   4   9
BRANCH   2  26
ATOM     26  N   LIG d   1       9.448  -1.516  -6.029  0.00  0.00     0.080 N 
ATOM     27  O   LIG d   1       9.288  -1.513  -7.236  0.00  0.00     0.042 OA
ATOM     28  O   LIG d   1      10.000  -2.458  -5.490  0.00  0.00    -0.576 OA
ENDBRANCH   2  26
BRANCH   6  29
ATOM     29  N   LIG d   1      10.288   2.914  -3.966  0.00  0.00     0.080 N 
ATOM     30  O   LIG d   1      10.990   2.925  -2.971  0.00  0.00     0.042 OA
ATOM     31  O   LIG d   1      10.332   3.842  -4.753  0.00  0.00    -0.576 OA
ENDBRANCH   6  29
BRANCH   1  32
ATOM     32  C   LIG d   1      11.213   0.698  -5.544  0.00  0.00    -0.027 C 
ATOM     33  H   LIG d   1      11.918   1.001  -4.770  0.00  0.00     0.028 H 
ATOM     34  H   LIG d   1      11.462  -0.304  -5.892  0.00  0.00     0.028 H 
ATOM     35  H   LIG d   1      11.266   1.397  -6.378  0.00  0.00     0.028 H 
ENDBRANCH   1  32
TORSDOF 8
ENDMDL
