MODEL 1
REMARK VINA RESULT:      -6.4      0.000      0.000
REMARK  8 active torsions:
REMARK  status: ('A' for Active; 'I' for Inactive)
REMARK    1  A    between atoms: C_1  and  N_2 
REMARK    2  A    between atoms: N_2  and  C_3 
REMARK    3  A    between atoms: N_2  and  C_4 
REMARK    4  A    between atoms: C_11  and  O_36 
REMARK    5  A    between atoms: C_17  and  O_34 
REMARK    6  A    between atoms: C_22  and  O_33 
REMARK    7  A    between atoms: C_23  and  O_32 
REMARK    8  A    between atoms: C_26  and  C_29 
REMARK       I    between atoms: C_29  and  N_31 
ROOT
ATOM      1  C   LIG d   1       7.436   0.022  -5.366  0.00  0.00    -0.002 C 
ATOM      2  H   LIG d   1       7.749   0.692  -6.167  0.00  0.00     0.090 H 
ATOM      3  C   LIG d   1       6.667  -1.138  -5.965  0.00  0.00     0.049 C 
ATOM      4  H   LIG d   1       7.371  -1.768  -6.509  0.00  0.00     0.040 H 
ATOM      5  C   LIG d   1       5.598  -0.667  -6.947  0.00  0.00    -0.032 C 
ATOM      6  C   LIG d   1       5.118  -1.882  -7.747  0.00  0.00     0.022 C 
ATOM      7  H   LIG d   1       5.920  -2.211  -8.408  0.00  0.00     0.038 H 
ATOM      8  C   LIG d   1       3.905  -1.494  -8.589  0.00  0.00     0.089 C 
ATOM      9  H   LIG d   1       4.201  -0.751  -9.328  0.00  0.00     0.065 H 
ATOM     10  C   LIG d   1       3.353  -2.706  -9.294  0.00  0.00     0.014 A 
ATOM     11  C   LIG d   1       2.826  -2.587 -10.564  0.00  0.00     0.048 A 
ATOM     12  C   LIG d   1       2.305  -3.697 -11.210  0.00  0.00    -0.040 A 
ATOM     13  C   LIG d   1       2.307  -4.932 -10.590  0.00  0.00    -0.018 A 
ATOM     14  C   LIG d   1       2.838  -5.070  -9.316  0.00  0.00     0.128 A 
ATOM     15  C   LIG d   1       3.372  -3.951  -8.665  0.00  0.00     0.070 A 
ATOM     16  C   LIG d   1       3.975  -4.085  -7.324  0.00  0.00     0.197 C 
ATOM     17  O   LIG d   1       3.798  -5.092  -6.662  0.00  0.00    -0.287 OA
ATOM     18  C   LIG d   1       4.757  -3.009  -6.817  0.00  0.00     0.046 C 
ATOM     19  C   LIG d   1       5.145  -3.052  -5.538  0.00  0.00     0.141 C 
ATOM     20  C   LIG d   1       6.000  -1.992  -4.887  0.00  0.00     0.193 C 
ATOM     21  C   LIG d   1       5.073  -1.097  -4.085  0.00  0.00     0.207 C 
ATOM     22  O   LIG d   1       3.990  -1.501  -3.715  0.00  0.00    -0.288 OA
ATOM     23  C   LIG d   1       5.509   0.262  -3.767  0.00  0.00     0.076 C 
ATOM     24  C   LIG d   1       6.613   0.796  -4.379  0.00  0.00    -0.066 C 
ATOM     25  O   LIG d   1       6.970   2.054  -4.084  0.00  0.00    -0.872 OA
ATOM     26 CL   LIG d   1       2.815  -1.042 -11.355  0.00  0.00    -0.083 Cl
ATOM     27  H   LIG d   1       4.760  -0.233  -6.400  0.00  0.00     0.028 H 
ATOM     28  H   LIG d   1       6.020   0.075  -7.624  0.00  0.00     0.028 H 
ATOM     29  H   LIG d   1       1.895  -3.597 -12.203  0.00  0.00     0.063 H 
ATOM     30  H   LIG d   1       1.894  -5.791 -11.098  0.00  0.00     0.066 H 
ENDROOT
BRANCH   1  31
ATOM     31  N   LIG d   1       8.631  -0.498  -4.687  0.00  0.00     0.236 N 
ATOM     32  H   LIG d   1       8.355  -0.976  -3.842  0.00  0.00     0.203 HD
BRANCH  31  33
ATOM     33  C   LIG d   1       9.330  -1.436  -5.575  0.00  0.00    -0.043 C 
ATOM     34  H   LIG d   1       9.021  -1.259  -6.606  0.00  0.00     0.078 H 
ATOM     35  H   LIG d   1      10.406  -1.287  -5.486  0.00  0.00     0.078 H 
ATOM     36  H   LIG d   1       9.080  -2.459  -5.292  0.00  0.00     0.078 H 
ENDBRANCH  31  33
BRANCH  31  37
ATOM     37  C   LIG d   1       9.526   0.616  -4.349  0.00  0.00    -0.043 C 
ATOM     38  H   LIG d   1      10.224   0.299  -3.573  0.00  0.00     0.078 H 
ATOM     39  H   LIG d   1      10.083   0.917  -5.237  0.00  0.00     0.078 H 
ATOM     40  H   LIG d   1       8.938   1.458  -3.987  0.00  0.00     0.078 H 
ENDBRANCH  31  37
ENDBRANCH   1  31
BRANCH  23  41
ATOM     41  C   LIG d   1       4.759   1.060  -2.784  0.00  0.00     0.244 C 
ATOM     42  O   LIG d   1       5.033   0.984  -1.601  0.00  0.00    -0.270 OA
ATOM     43  N   LIG d   1       3.766   1.875  -3.194  0.00  0.00    -0.325 N 
ATOM     44  H   LIG d   1       3.490   1.872  -4.124  0.00  0.00     0.145 HD
ATOM     45  H   LIG d   1       3.328   2.463  -2.559  0.00  0.00     0.145 HD
ENDBRANCH  23  41
BRANCH  20  46
ATOM     46  O   LIG d   1       6.985  -2.593  -4.044  0.00  0.00    -0.373 OA
ATOM     47  H   LIG d   1       6.655  -3.336  -3.521  0.00  0.00     0.211 HD
ENDBRANCH  20  46
BRANCH  19  48
ATOM     48  O   LIG d   1       4.752  -4.105  -4.794  0.00  0.00    -0.507 OA
ATOM     49  H   LIG d   1       5.395  -4.826  -4.764  0.00  0.00     0.292 HD
ENDBRANCH  19  48
BRANCH   8  50
ATOM     50  O   LIG d   1       2.896  -0.943  -7.741  0.00  0.00    -0.387 OA
ATOM     51  H   LIG d   1       2.120  -0.613  -8.216  0.00  0.00     0.210 HD
ENDBRANCH   8  50
BRANCH  14  52
ATOM     52  O   LIG d   1       2.839  -6.281  -8.705  0.00  0.00    -0.506 OA
ATOM     53  H   LIG d   1       1.974  -6.554  -8.371  0.00  0.00     0.292 HD
ENDBRANCH  14  52
TORSDOF 8
ENDMDL
MODEL 2
REMARK VINA RESULT:      -6.3      2.980      4.696
REMARK  8 active torsions:
REMARK  status: ('A' for Active; 'I' for Inactive)
REMARK    1  A    between atoms: C_1  and  N_2 
REMARK    2  A    between atoms: N_2  and  C_3 
REMARK    3  A    between atoms: N_2  and  C_4 
REMARK    4  A    between atoms: C_11  and  O_36 
REMARK    5  A    between atoms: C_17  and  O_34 
REMARK    6  A    between atoms: C_22  and  O_33 
REMARK    7  A    between atoms: C_23  and  O_32 
REMARK    8  A    between atoms: C_26  and  C_29 
REMARK       I    between atoms: C_29  and  N_31 
ROOT
ATOM      1  C   LIG d   1       5.099  -0.882  -3.675  0.00  0.00    -0.002 C 
ATOM      2  H   LIG d   1       5.400  -1.272  -2.702  0.00  0.00     0.090 H 
ATOM      3  C   LIG d   1       4.689  -2.039  -4.564  0.00  0.00     0.049 C 
ATOM      4  H   LIG d   1       3.745  -2.437  -4.191  0.00  0.00     0.040 H 
ATOM      5  C   LIG d   1       5.718  -3.166  -4.545  0.00  0.00    -0.032 C 
ATOM      6  C   LIG d   1       5.078  -4.406  -5.175  0.00  0.00     0.022 C 
ATOM      7  H   LIG d   1       4.302  -4.782  -4.509  0.00  0.00     0.038 H 
ATOM      8  C   LIG d   1       6.138  -5.488  -5.365  0.00  0.00     0.089 C 
ATOM      9  H   LIG d   1       6.507  -5.808  -4.392  0.00  0.00     0.065 H 
ATOM     10  C   LIG d   1       5.548  -6.672  -6.087  0.00  0.00     0.014 A 
ATOM     11  C   LIG d   1       5.955  -7.951  -5.767  0.00  0.00     0.048 A 
ATOM     12  C   LIG d   1       5.424  -9.041  -6.440  0.00  0.00    -0.040 A 
ATOM     13  C   LIG d   1       4.485  -8.859  -7.436  0.00  0.00    -0.018 A 
ATOM     14  C   LIG d   1       4.061  -7.580  -7.766  0.00  0.00     0.128 A 
ATOM     15  C   LIG d   1       4.590  -6.478  -7.083  0.00  0.00     0.070 A 
ATOM     16  C   LIG d   1       4.123  -5.112  -7.395  0.00  0.00     0.197 C 
ATOM     17  O   LIG d   1       3.474  -4.893  -8.401  0.00  0.00    -0.287 OA
ATOM     18  C   LIG d   1       4.459  -4.056  -6.501  0.00  0.00     0.046 C 
ATOM     19  C   LIG d   1       4.199  -2.800  -6.875  0.00  0.00     0.141 C 
ATOM     20  C   LIG d   1       4.478  -1.594  -6.011  0.00  0.00     0.193 C 
ATOM     21  C   LIG d   1       5.771  -0.975  -6.506  0.00  0.00     0.207 C 
ATOM     22  O   LIG d   1       6.160  -1.176  -7.638  0.00  0.00    -0.288 OA
ATOM     23  C   LIG d   1       6.542  -0.131  -5.593  0.00  0.00     0.076 C 
ATOM     24  C   LIG d   1       6.236  -0.097  -4.258  0.00  0.00    -0.066 C 
ATOM     25  O   LIG d   1       6.980   0.666  -3.444  0.00  0.00    -0.872 OA
ATOM     26 CL   LIG d   1       7.136  -8.196  -4.519  0.00  0.00    -0.083 Cl
ATOM     27  H   LIG d   1       6.597  -2.873  -5.120  0.00  0.00     0.028 H 
ATOM     28  H   LIG d   1       6.008  -3.383  -3.517  0.00  0.00     0.028 H 
ATOM     29  H   LIG d   1       5.747 -10.039  -6.183  0.00  0.00     0.063 H 
ATOM     30  H   LIG d   1       4.080  -9.713  -7.958  0.00  0.00     0.066 H 
ENDROOT
BRANCH   1  31
ATOM     31  N   LIG d   1       3.946   0.011  -3.494  0.00  0.00     0.236 N 
ATOM     32  H   LIG d   1       3.692   0.416  -4.383  0.00  0.00     0.203 HD
BRANCH  31  33
ATOM     33  C   LIG d   1       2.812  -0.755  -2.962  0.00  0.00    -0.043 C 
ATOM     34  H   LIG d   1       2.639  -1.631  -3.588  0.00  0.00     0.078 H 
ATOM     35  H   LIG d   1       3.034  -1.074  -1.943  0.00  0.00     0.078 H 
ATOM     36  H   LIG d   1       1.919  -0.128  -2.959  0.00  0.00     0.078 H 
ENDBRANCH  31  33
BRANCH  31  37
ATOM     37  C   LIG d   1       4.299   1.082  -2.552  0.00  0.00    -0.043 C 
ATOM     38  H   LIG d   1       5.359   1.010  -2.301  0.00  0.00     0.078 H 
ATOM     39  H   LIG d   1       4.100   2.051  -3.011  0.00  0.00     0.078 H 
ATOM     40  H   LIG d   1       3.704   0.980  -1.646  0.00  0.00     0.078 H 
ENDBRANCH  31  37
ENDBRANCH   1  31
BRANCH  23  41
ATOM     41  C   LIG d   1       7.652   0.684  -6.112  0.00  0.00     0.244 C 
ATOM     42  O   LIG d   1       7.439   1.807  -6.530  0.00  0.00    -0.270 OA
ATOM     43  N   LIG d   1       8.905   0.188  -6.124  0.00  0.00    -0.325 N 
ATOM     44  H   LIG d   1       9.063  -0.736  -5.872  0.00  0.00     0.145 HD
ATOM     45  H   LIG d   1       9.648   0.753  -6.386  0.00  0.00     0.145 HD
ENDBRANCH  23  41
BRANCH  20  46
ATOM     46  O   LIG d   1       3.400  -0.659  -6.094  0.00  0.00    -0.373 OA
ATOM     47  H   LIG d   1       2.862  -0.606  -5.292  0.00  0.00     0.211 HD
ENDBRANCH  20  46
BRANCH  19  48
ATOM     48  O   LIG d   1       3.653  -2.603  -8.093  0.00  0.00    -0.507 OA
ATOM     49  H   LIG d   1       4.302  -2.524  -8.805  0.00  0.00     0.292 HD
ENDBRANCH  19  48
BRANCH   8  50
ATOM     50  O   LIG d   1       7.221  -4.961  -6.134  0.00  0.00    -0.387 OA
ATOM     51  H   LIG d   1       8.096  -5.200  -5.796  0.00  0.00     0.210 HD
ENDBRANCH   8  50
BRANCH  14  52
ATOM     52  O   LIG d   1       3.139  -7.399  -8.746  0.00  0.00    -0.506 OA
ATOM     53  H   LIG d   1       2.945  -8.196  -9.256  0.00  0.00     0.292 HD
ENDBRANCH  14  52
TORSDOF 8
ENDMDL
MODEL 3
REMARK VINA RESULT:      -6.2      3.697      5.249
REMARK  8 active torsions:
REMARK  status: ('A' for Active; 'I' for Inactive)
REMARK    1  A    between atoms: C_1  and  N_2 
REMARK    2  A    between atoms: N_2  and  C_3 
REMARK    3  A    between atoms: N_2  and  C_4 
REMARK    4  A    between atoms: C_11  and  O_36 
REMARK    5  A    between atoms: C_17  and  O_34 
REMARK    6  A    between atoms: C_22  and  O_33 
REMARK    7  A    between atoms: C_23  and  O_32 
REMARK    8  A    between atoms: C_26  and  C_29 
REMARK       I    between atoms: C_29  and  N_31 
ROOT
ATOM      1  C   LIG d   1       6.184  -0.970  -3.892  0.00  0.00    -0.002 C 
ATOM      2  H   LIG d   1       7.053  -0.972  -3.232  0.00  0.00     0.090 H 
ATOM      3  C   LIG d   1       5.838  -2.399  -4.255  0.00  0.00     0.049 C 
ATOM      4  H   LIG d   1       5.432  -2.888  -3.369  0.00  0.00     0.040 H 
ATOM      5  C   LIG d   1       7.064  -3.186  -4.710  0.00  0.00    -0.032 C 
ATOM      6  C   LIG d   1       6.698  -4.672  -4.724  0.00  0.00     0.022 C 
ATOM      7  H   LIG d   1       6.564  -5.014  -3.697  0.00  0.00     0.038 H 
ATOM      8  C   LIG d   1       7.826  -5.472  -5.371  0.00  0.00     0.089 C 
ATOM      9  H   LIG d   1       8.723  -5.393  -4.758  0.00  0.00     0.065 H 
ATOM     10  C   LIG d   1       7.432  -6.921  -5.494  0.00  0.00     0.014 A 
ATOM     11  C   LIG d   1       8.379  -7.912  -5.331  0.00  0.00     0.048 A 
ATOM     12  C   LIG d   1       8.022  -9.245  -5.458  0.00  0.00    -0.040 A 
ATOM     13  C   LIG d   1       6.718  -9.596  -5.747  0.00  0.00    -0.018 A 
ATOM     14  C   LIG d   1       5.753  -8.613  -5.908  0.00  0.00     0.128 A 
ATOM     15  C   LIG d   1       6.109  -7.265  -5.773  0.00  0.00     0.070 A 
ATOM     16  C   LIG d   1       5.088  -6.207  -5.905  0.00  0.00     0.197 C 
ATOM     17  O   LIG d   1       3.992  -6.456  -6.373  0.00  0.00    -0.287 OA
ATOM     18  C   LIG d   1       5.416  -4.887  -5.483  0.00  0.00     0.046 C 
ATOM     19  C   LIG d   1       4.566  -3.897  -5.772  0.00  0.00     0.141 C 
ATOM     20  C   LIG d   1       4.780  -2.461  -5.357  0.00  0.00     0.193 C 
ATOM     21  C   LIG d   1       5.316  -1.720  -6.567  0.00  0.00     0.207 C 
ATOM     22  O   LIG d   1       5.122  -2.142  -7.688  0.00  0.00    -0.288 OA
ATOM     23  C   LIG d   1       6.072  -0.485  -6.357  0.00  0.00     0.076 C 
ATOM     24  C   LIG d   1       6.494  -0.137  -5.100  0.00  0.00    -0.066 C 
ATOM     25  O   LIG d   1       7.208   0.987  -4.946  0.00  0.00    -0.872 OA
ATOM     26 CL   LIG d   1      10.022  -7.486  -4.969  0.00  0.00    -0.083 Cl
ATOM     27  H   LIG d   1       7.354  -2.869  -5.713  0.00  0.00     0.028 H 
ATOM     28  H   LIG d   1       7.888  -3.016  -4.018  0.00  0.00     0.028 H 
ATOM     29  H   LIG d   1       8.768 -10.014  -5.328  0.00  0.00     0.063 H 
ATOM     30  H   LIG d   1       6.450 -10.637  -5.849  0.00  0.00     0.066 H 
ENDROOT
BRANCH   1  31
ATOM     31  N   LIG d   1       5.048  -0.370  -3.178  0.00  0.00     0.236 N 
ATOM     32  H   LIG d   1       4.252  -0.322  -3.796  0.00  0.00     0.203 HD
BRANCH  31  33
ATOM     33  C   LIG d   1       4.713  -1.195  -2.010  0.00  0.00    -0.043 C 
ATOM     34  H   LIG d   1       5.622  -1.641  -1.607  0.00  0.00     0.078 H 
ATOM     35  H   LIG d   1       4.244  -0.573  -1.248  0.00  0.00     0.078 H 
ATOM     36  H   LIG d   1       4.023  -1.985  -2.309  0.00  0.00     0.078 H 
ENDBRANCH  31  33
BRANCH  31  37
ATOM     37  C   LIG d   1       5.406   0.983  -2.735  0.00  0.00    -0.043 C 
ATOM     38  H   LIG d   1       6.153   0.921  -1.942  0.00  0.00     0.078 H 
ATOM     39  H   LIG d   1       5.816   1.545  -3.575  0.00  0.00     0.078 H 
ATOM     40  H   LIG d   1       4.519   1.490  -2.358  0.00  0.00     0.078 H 
ENDBRANCH  31  37
ENDBRANCH   1  31
BRANCH  23  41
ATOM     41  C   LIG d   1       6.380   0.387  -7.501  0.00  0.00     0.244 C 
ATOM     42  O   LIG d   1       5.524   1.121  -7.956  0.00  0.00    -0.270 OA
ATOM     43  N   LIG d   1       7.614   0.373  -8.046  0.00  0.00    -0.325 N 
ATOM     44  H   LIG d   1       8.271  -0.271  -7.740  0.00  0.00     0.145 HD
ATOM     45  H   LIG d   1       7.843   1.007  -8.743  0.00  0.00     0.145 HD
ENDBRANCH  23  41
BRANCH  20  46
ATOM     46  O   LIG d   1       3.553  -1.883  -4.906  0.00  0.00    -0.373 OA
ATOM     47  H   LIG d   1       2.816  -1.994  -5.521  0.00  0.00     0.211 HD
ENDBRANCH  20  46
BRANCH  19  48
ATOM     48  O   LIG d   1       3.453  -4.204  -6.468  0.00  0.00    -0.507 OA
ATOM     49  H   LIG d   1       2.758  -3.534  -6.413  0.00  0.00     0.292 HD
ENDBRANCH  19  48
BRANCH   8  50
ATOM     50  O   LIG d   1       8.093  -4.946  -6.672  0.00  0.00    -0.387 OA
ATOM     51  H   LIG d   1       7.313  -4.887  -7.241  0.00  0.00     0.210 HD
ENDBRANCH   8  50
BRANCH  14  52
ATOM     52  O   LIG d   1       4.472  -8.955  -6.195  0.00  0.00    -0.506 OA
ATOM     53  H   LIG d   1       4.020  -9.423  -5.480  0.00  0.00     0.292 HD
ENDBRANCH  14  52
TORSDOF 8
ENDMDL
MODEL 4
REMARK VINA RESULT:      -6.1      3.565      6.905
REMARK  8 active torsions:
REMARK  status: ('A' for Active; 'I' for Inactive)
REMARK    1  A    between atoms: C_1  and  N_2 
REMARK    2  A    between atoms: N_2  and  C_3 
REMARK    3  A    between atoms: N_2  and  C_4 
REMARK    4  A    between atoms: C_11  and  O_36 
REMARK    5  A    between atoms: C_17  and  O_34 
REMARK    6  A    between atoms: C_22  and  O_33 
REMARK    7  A    between atoms: C_23  and  O_32 
REMARK    8  A    between atoms: C_26  and  C_29 
REMARK       I    between atoms: C_29  and  N_31 
ROOT
ATOM      1  C   LIG d   1       4.688  -1.481  -5.709  0.00  0.00    -0.002 C 
ATOM      2  H   LIG d   1       4.208  -2.458  -5.636  0.00  0.00     0.090 H 
ATOM      3  C   LIG d   1       6.191  -1.669  -5.691  0.00  0.00     0.049 C 
ATOM      4  H   LIG d   1       6.489  -2.125  -6.636  0.00  0.00     0.040 H 
ATOM      5  C   LIG d   1       6.638  -2.591  -4.560  0.00  0.00    -0.032 C 
ATOM      6  C   LIG d   1       8.092  -2.994  -4.821  0.00  0.00     0.022 C 
ATOM      7  H   LIG d   1       8.128  -3.651  -5.690  0.00  0.00     0.038 H 
ATOM      8  C   LIG d   1       8.641  -3.743  -3.609  0.00  0.00     0.089 C 
ATOM      9  H   LIG d   1       8.093  -4.676  -3.481  0.00  0.00     0.065 H 
ATOM     10  C   LIG d   1      10.103  -4.047  -3.804  0.00  0.00     0.014 A 
ATOM     11  C   LIG d   1      10.635  -5.228  -3.327  0.00  0.00     0.048 A 
ATOM     12  C   LIG d   1      11.983  -5.504  -3.492  0.00  0.00    -0.040 A 
ATOM     13  C   LIG d   1      12.807  -4.602  -4.136  0.00  0.00    -0.018 A 
ATOM     14  C   LIG d   1      12.289  -3.414  -4.628  0.00  0.00     0.128 A 
ATOM     15  C   LIG d   1      10.925  -3.136  -4.468  0.00  0.00     0.070 A 
ATOM     16  C   LIG d   1      10.348  -1.893  -5.017  0.00  0.00     0.197 C 
ATOM     17  O   LIG d   1      11.068  -0.984  -5.387  0.00  0.00    -0.287 OA
ATOM     18  C   LIG d   1       8.931  -1.774  -5.093  0.00  0.00     0.046 C 
ATOM     19  C   LIG d   1       8.408  -0.587  -5.412  0.00  0.00     0.141 C 
ATOM     20  C   LIG d   1       6.926  -0.336  -5.555  0.00  0.00     0.193 C 
ATOM     21  C   LIG d   1       6.458   0.331  -4.275  0.00  0.00     0.207 C 
ATOM     22  O   LIG d   1       7.241   0.927  -3.565  0.00  0.00    -0.288 OA
ATOM     23  C   LIG d   1       5.044   0.242  -3.912  0.00  0.00     0.076 C 
ATOM     24  C   LIG d   1       4.212  -0.620  -4.576  0.00  0.00    -0.066 C 
ATOM     25  O   LIG d   1       2.927  -0.697  -4.201  0.00  0.00    -0.872 OA
ATOM     26 CL   LIG d   1       9.611  -6.370  -2.513  0.00  0.00    -0.083 Cl
ATOM     27  H   LIG d   1       6.567  -2.066  -3.607  0.00  0.00     0.028 H 
ATOM     28  H   LIG d   1       6.008  -3.479  -4.538  0.00  0.00     0.028 H 
ATOM     29  H   LIG d   1      12.391  -6.430  -3.117  0.00  0.00     0.063 H 
ATOM     30  H   LIG d   1      13.858  -4.823  -4.257  0.00  0.00     0.066 H 
ENDROOT
BRANCH   1  31
ATOM     31  N   LIG d   1       4.301  -0.854  -6.980  0.00  0.00     0.236 N 
ATOM     32  H   LIG d   1       5.051  -0.262  -7.304  0.00  0.00     0.203 HD
BRANCH  31  33
ATOM     33  C   LIG d   1       4.032  -1.897  -7.979  0.00  0.00    -0.043 C 
ATOM     34  H   LIG d   1       4.106  -2.878  -7.509  0.00  0.00     0.078 H 
ATOM     35  H   LIG d   1       3.030  -1.762  -8.385  0.00  0.00     0.078 H 
ATOM     36  H   LIG d   1       4.764  -1.825  -8.785  0.00  0.00     0.078 H 
ENDBRANCH  31  33
BRANCH  31  37
ATOM     37  C   LIG d   1       3.091  -0.046  -6.779  0.00  0.00    -0.043 C 
ATOM     38  H   LIG d   1       2.661  -0.271  -5.802  0.00  0.00     0.078 H 
ATOM     39  H   LIG d   1       3.349   1.013  -6.826  0.00  0.00     0.078 H 
ATOM     40  H   LIG d   1       2.365  -0.277  -7.557  0.00  0.00     0.078 H 
ENDBRANCH  31  37
ENDBRANCH   1  31
BRANCH  23  41
ATOM     41  C   LIG d   1       4.512   1.084  -2.828  0.00  0.00     0.244 C 
ATOM     42  O   LIG d   1       4.002   2.157  -3.085  0.00  0.00    -0.270 OA
ATOM     43  N   LIG d   1       4.591   0.665  -1.549  0.00  0.00    -0.325 N 
ATOM     44  H   LIG d   1       5.073  -0.149  -1.334  0.00  0.00     0.145 HD
ATOM     45  H   LIG d   1       4.167   1.178  -0.844  0.00  0.00     0.145 HD
ENDBRANCH  23  41
BRANCH  20  46
ATOM     46  O   LIG d   1       6.667   0.496  -6.688  0.00  0.00    -0.373 OA
ATOM     47  H   LIG d   1       7.324   1.193  -6.823  0.00  0.00     0.211 HD
ENDBRANCH  20  46
BRANCH  19  48
ATOM     48  O   LIG d   1       9.255   0.440  -5.622  0.00  0.00    -0.507 OA
ATOM     49  H   LIG d   1       8.821   1.254  -5.913  0.00  0.00     0.292 HD
ENDBRANCH  19  48
BRANCH   8  50
ATOM     50  O   LIG d   1       8.481  -2.936  -2.440  0.00  0.00    -0.387 OA
ATOM     51  H   LIG d   1       8.738  -2.012  -2.562  0.00  0.00     0.210 HD
ENDBRANCH   8  50
BRANCH  14  52
ATOM     52  O   LIG d   1      13.097  -2.525  -5.259  0.00  0.00    -0.506 OA
ATOM     53  H   LIG d   1      14.040  -2.719  -5.169  0.00  0.00     0.292 HD
ENDBRANCH  14  52
TORSDOF 8
ENDMDL
MODEL 5
REMARK VINA RESULT:      -6.1      7.368     10.687
REMARK  8 active torsions:
REMARK  status: ('A' for Active; 'I' for Inactive)
REMARK    1  A    between atoms: C_1  and  N_2 
REMARK    2  A    between atoms: N_2  and  C_3 
REMARK    3  A    between atoms: N_2  and  C_4 
REMARK    4  A    between atoms: C_11  and  O_36 
REMARK    5  A    between atoms: C_17  and  O_34 
REMARK    6  A    between atoms: C_22  and  O_33 
REMARK    7  A    between atoms: C_23  and  O_32 
REMARK    8  A    between atoms: C_26  and  C_29 
REMARK       I    between atoms: C_29  and  N_31 
ROOT
ATOM      1  C   LIG d   1      12.775   8.891  -2.510  0.00  0.00    -0.002 C 
ATOM      2  H   LIG d   1      13.035   9.378  -3.451  0.00  0.00     0.090 H 
ATOM      3  C   LIG d   1      12.388   7.454  -2.790  0.00  0.00     0.049 C 
ATOM      4  H   LIG d   1      13.288   6.907  -3.073  0.00  0.00     0.040 H 
ATOM      5  C   LIG d   1      11.388   7.345  -3.938  0.00  0.00    -0.032 C 
ATOM      6  C   LIG d   1      11.319   5.878  -4.372  0.00  0.00     0.022 C 
ATOM      7  H   LIG d   1      12.260   5.605  -4.851  0.00  0.00     0.038 H 
ATOM      8  C   LIG d   1      10.181   5.693  -5.373  0.00  0.00     0.089 C 
ATOM      9  H   LIG d   1      10.399   6.260  -6.277  0.00  0.00     0.065 H 
ATOM     10  C   LIG d   1      10.029   4.236  -5.723  0.00  0.00     0.014 A 
ATOM     11  C   LIG d   1       9.673   3.865  -7.004  0.00  0.00     0.048 A 
ATOM     12  C   LIG d   1       9.518   2.526  -7.326  0.00  0.00    -0.040 A 
ATOM     13  C   LIG d   1       9.718   1.550  -6.369  0.00  0.00    -0.018 A 
ATOM     14  C   LIG d   1      10.081   1.904  -5.079  0.00  0.00     0.128 A 
ATOM     15  C   LIG d   1      10.246   3.257  -4.753  0.00  0.00     0.070 A 
ATOM     16  C   LIG d   1      10.668   3.651  -3.395  0.00  0.00     0.197 C 
ATOM     17  O   LIG d   1      10.637   2.851  -2.478  0.00  0.00    -0.287 OA
ATOM     18  C   LIG d   1      11.101   4.990  -3.177  0.00  0.00     0.046 C 
ATOM     19  C   LIG d   1      11.304   5.397  -1.920  0.00  0.00     0.141 C 
ATOM     20  C   LIG d   1      11.790   6.778  -1.555  0.00  0.00     0.193 C 
ATOM     21  C   LIG d   1      10.579   7.581  -1.120  0.00  0.00     0.207 C 
ATOM     22  O   LIG d   1       9.577   7.023  -0.722  0.00  0.00    -0.288 OA
ATOM     23  C   LIG d   1      10.640   9.040  -1.190  0.00  0.00     0.076 C 
ATOM     24  C   LIG d   1      11.666   9.659  -1.856  0.00  0.00    -0.066 C 
ATOM     25  O   LIG d   1      11.677  10.998  -1.924  0.00  0.00    -0.872 OA
ATOM     26 CL   LIG d   1       9.417   5.081  -8.216  0.00  0.00    -0.083 Cl
ATOM     27  H   LIG d   1      10.405   7.676  -3.603  0.00  0.00     0.028 H 
ATOM     28  H   LIG d   1      11.718   7.961  -4.774  0.00  0.00     0.028 H 
ATOM     29  H   LIG d   1       9.241   2.244  -8.330  0.00  0.00     0.063 H 
ATOM     30  H   LIG d   1       9.590   0.509  -6.627  0.00  0.00     0.066 H 
ENDROOT
BRANCH   1  31
ATOM     31  N   LIG d   1      13.950   8.905  -1.627  0.00  0.00     0.236 N 
ATOM     32  H   LIG d   1      13.751   8.369  -0.796  0.00  0.00     0.203 HD
BRANCH  31  33
ATOM     33  C   LIG d   1      15.097   8.314  -2.329  0.00  0.00    -0.043 C 
ATOM     34  H   LIG d   1      15.073   8.610  -3.378  0.00  0.00     0.078 H 
ATOM     35  H   LIG d   1      16.023   8.665  -1.873  0.00  0.00     0.078 H 
ATOM     36  H   LIG d   1      15.046   7.227  -2.257  0.00  0.00     0.078 H 
ENDBRANCH  31  33
BRANCH  31  37
ATOM     37  C   LIG d   1      14.266  10.290  -1.254  0.00  0.00    -0.043 C 
ATOM     38  H   LIG d   1      14.612  10.318  -0.219  0.00  0.00     0.078 H 
ATOM     39  H   LIG d   1      15.049  10.674  -1.908  0.00  0.00     0.078 H 
ATOM     40  H   LIG d   1      13.374  10.906  -1.354  0.00  0.00     0.078 H 
ENDBRANCH  31  37
ENDBRANCH   1  31
BRANCH  23  41
ATOM     41  C   LIG d   1       9.595   9.849  -0.542  0.00  0.00     0.244 C 
ATOM     42  O   LIG d   1       9.826  10.411   0.512  0.00  0.00    -0.270 OA
ATOM     43  N   LIG d   1       8.380   9.965  -1.115  0.00  0.00    -0.325 N 
ATOM     44  H   LIG d   1       8.167   9.450  -1.908  0.00  0.00     0.145 HD
ATOM     45  H   LIG d   1       7.719  10.563  -0.733  0.00  0.00     0.145 HD
ENDBRANCH  23  41
BRANCH  20  46
ATOM     46  O   LIG d   1      12.759   6.706  -0.507  0.00  0.00    -0.373 OA
ATOM     47  H   LIG d   1      13.504   6.121  -0.699  0.00  0.00     0.211 HD
ENDBRANCH  20  46
BRANCH  19  48
ATOM     48  O   LIG d   1      11.064   4.518  -0.926  0.00  0.00    -0.507 OA
ATOM     49  H   LIG d   1      10.338   4.775  -0.342  0.00  0.00     0.292 HD
ENDBRANCH  19  48
BRANCH   8  50
ATOM     50  O   LIG d   1       8.963   6.168  -4.797  0.00  0.00    -0.387 OA
ATOM     51  H   LIG d   1       8.202   6.124  -5.394  0.00  0.00     0.210 HD
ENDBRANCH   8  50
BRANCH  14  52
ATOM     52  O   LIG d   1      10.276   0.947  -4.137  0.00  0.00    -0.506 OA
ATOM     53  H   LIG d   1      11.051   1.095  -3.579  0.00  0.00     0.292 HD
ENDBRANCH  14  52
TORSDOF 8
ENDMDL
MODEL 6
REMARK VINA RESULT:      -6.1      3.374      5.191
REMARK  8 active torsions:
REMARK  status: ('A' for Active; 'I' for Inactive)
REMARK    1  A    between atoms: C_1  and  N_2 
REMARK    2  A    between atoms: N_2  and  C_3 
REMARK    3  A    between atoms: N_2  and  C_4 
REMARK    4  A    between atoms: C_11  and  O_36 
REMARK    5  A    between atoms: C_17  and  O_34 
REMARK    6  A    between atoms: C_22  and  O_33 
REMARK    7  A    between atoms: C_23  and  O_32 
REMARK    8  A    between atoms: C_26  and  C_29 
REMARK       I    between atoms: C_29  and  N_31 
ROOT
ATOM      1  C   LIG d   1       4.615  -0.769  -8.126  0.00  0.00    -0.002 C 
ATOM      2  H   LIG d   1       4.110  -1.290  -8.940  0.00  0.00     0.090 H 
ATOM      3  C   LIG d   1       5.538  -1.739  -7.417  0.00  0.00     0.049 C 
ATOM      4  H   LIG d   1       6.375  -1.960  -8.081  0.00  0.00     0.040 H 
ATOM      5  C   LIG d   1       4.838  -3.054  -7.085  0.00  0.00    -0.032 C 
ATOM      6  C   LIG d   1       5.908  -4.078  -6.696  0.00  0.00     0.022 C 
ATOM      7  H   LIG d   1       6.491  -4.336  -7.581  0.00  0.00     0.038 H 
ATOM      8  C   LIG d   1       5.238  -5.339  -6.157  0.00  0.00     0.089 C 
ATOM      9  H   LIG d   1       4.655  -5.806  -6.950  0.00  0.00     0.065 H 
ATOM     10  C   LIG d   1       6.279  -6.311  -5.665  0.00  0.00     0.014 A 
ATOM     11  C   LIG d   1       6.088  -7.669  -5.824  0.00  0.00     0.048 A 
ATOM     12  C   LIG d   1       7.037  -8.566  -5.359  0.00  0.00    -0.040 A 
ATOM     13  C   LIG d   1       8.182  -8.112  -4.735  0.00  0.00    -0.018 A 
ATOM     14  C   LIG d   1       8.393  -6.751  -4.572  0.00  0.00     0.128 A 
ATOM     15  C   LIG d   1       7.438  -5.842  -5.047  0.00  0.00     0.070 A 
ATOM     16  C   LIG d   1       7.662  -4.388  -4.917  0.00  0.00     0.197 C 
ATOM     17  O   LIG d   1       8.535  -3.958  -4.186  0.00  0.00    -0.287 OA
ATOM     18  C   LIG d   1       6.828  -3.501  -5.654  0.00  0.00     0.046 C 
ATOM     19  C   LIG d   1       6.906  -2.192  -5.396  0.00  0.00     0.141 C 
ATOM     20  C   LIG d   1       6.100  -1.145  -6.126  0.00  0.00     0.193 C 
ATOM     21  C   LIG d   1       4.933  -0.772  -5.232  0.00  0.00     0.207 C 
ATOM     22  O   LIG d   1       4.987  -0.958  -4.034  0.00  0.00    -0.288 OA
ATOM     23  C   LIG d   1       3.740  -0.185  -5.841  0.00  0.00     0.076 C 
ATOM     24  C   LIG d   1       3.582  -0.195  -7.202  0.00  0.00    -0.066 C 
ATOM     25  O   LIG d   1       2.464   0.328  -7.727  0.00  0.00    -0.872 OA
ATOM     26 CL   LIG d   1       4.653  -8.255  -6.605  0.00  0.00    -0.083 Cl
ATOM     27  H   LIG d   1       4.151  -2.906  -6.252  0.00  0.00     0.028 H 
ATOM     28  H   LIG d   1       4.289  -3.409  -7.957  0.00  0.00     0.028 H 
ATOM     29  H   LIG d   1       6.881  -9.626  -5.488  0.00  0.00     0.063 H 
ATOM     30  H   LIG d   1       8.914  -8.817  -4.371  0.00  0.00     0.066 H 
ENDROOT
BRANCH   1  31
ATOM     31  N   LIG d   1       5.416   0.328  -8.686  0.00  0.00     0.236 N 
ATOM     32  H   LIG d   1       6.001   0.719  -7.964  0.00  0.00     0.203 HD
BRANCH  31  33
ATOM     33  C   LIG d   1       6.258  -0.186  -9.774  0.00  0.00    -0.043 C 
ATOM     34  H   LIG d   1       5.890   0.192 -10.728  0.00  0.00     0.078 H 
ATOM     35  H   LIG d   1       7.286   0.143  -9.625  0.00  0.00     0.078 H 
ATOM     36  H   LIG d   1       6.222  -1.276  -9.777  0.00  0.00     0.078 H 
ENDBRANCH  31  33
BRANCH  31  37
ATOM     37  C   LIG d   1       4.522   1.370  -9.209  0.00  0.00    -0.043 C 
ATOM     38  H   LIG d   1       5.117   2.189  -9.616  0.00  0.00     0.078 H 
ATOM     39  H   LIG d   1       3.897   0.950  -9.998  0.00  0.00     0.078 H 
ATOM     40  H   LIG d   1       3.890   1.744  -8.405  0.00  0.00     0.078 H 
ENDBRANCH  31  37
ENDBRANCH   1  31
BRANCH  23  41
ATOM     41  C   LIG d   1       2.705   0.420  -4.988  0.00  0.00     0.244 C 
ATOM     42  O   LIG d   1       2.761   1.602  -4.707  0.00  0.00    -0.270 OA
ATOM     43  N   LIG d   1       1.693  -0.337  -4.516  0.00  0.00    -0.325 N 
ATOM     44  H   LIG d   1       1.693  -1.295  -4.667  0.00  0.00     0.145 HD
ATOM     45  H   LIG d   1       0.967   0.076  -4.024  0.00  0.00     0.145 HD
ENDBRANCH  23  41
BRANCH  20  46
ATOM     46  O   LIG d   1       6.909  -0.001  -6.412  0.00  0.00    -0.373 OA
ATOM     47  H   LIG d   1       6.494   0.635  -7.010  0.00  0.00     0.211 HD
ENDBRANCH  20  46
BRANCH  19  48
ATOM     48  O   LIG d   1       7.758  -1.789  -4.431  0.00  0.00    -0.507 OA
ATOM     49  H   LIG d   1       8.347  -2.485  -4.112  0.00  0.00     0.292 HD
ENDBRANCH  19  48
BRANCH   8  50
ATOM     50  O   LIG d   1       4.373  -4.991  -5.075  0.00  0.00    -0.387 OA
ATOM     51  H   LIG d   1       4.426  -4.061  -4.812  0.00  0.00     0.210 HD
ENDBRANCH   8  50
BRANCH  14  52
ATOM     52  O   LIG d   1       9.516  -6.302  -3.957  0.00  0.00    -0.506 OA
ATOM     53  H   LIG d   1       9.420  -6.183  -3.002  0.00  0.00     0.292 HD
ENDBRANCH  14  52
TORSDOF 8
ENDMDL
MODEL 7
REMARK VINA RESULT:      -6.0      3.688      6.817
REMARK  8 active torsions:
REMARK  status: ('A' for Active; 'I' for Inactive)
REMARK    1  A    between atoms: C_1  and  N_2 
REMARK    2  A    between atoms: N_2  and  C_3 
REMARK    3  A    between atoms: N_2  and  C_4 
REMARK    4  A    between atoms: C_11  and  O_36 
REMARK    5  A    between atoms: C_17  and  O_34 
REMARK    6  A    between atoms: C_22  and  O_33 
REMARK    7  A    between atoms: C_23  and  O_32 
REMARK    8  A    between atoms: C_26  and  C_29 
REMARK       I    between atoms: C_29  and  N_31 
ROOT
ATOM      1  C   LIG d   1       4.710  -1.244  -4.392  0.00  0.00    -0.002 C 
ATOM      2  H   LIG d   1       5.062  -0.341  -3.891  0.00  0.00     0.090 H 
ATOM      3  C   LIG d   1       5.773  -2.318  -4.275  0.00  0.00     0.049 C 
ATOM      4  H   LIG d   1       5.809  -2.650  -3.237  0.00  0.00     0.040 H 
ATOM      5  C   LIG d   1       7.156  -1.797  -4.655  0.00  0.00    -0.032 C 
ATOM      6  C   LIG d   1       8.195  -2.819  -4.187  0.00  0.00     0.022 C 
ATOM      7  H   LIG d   1       8.231  -2.816  -3.097  0.00  0.00     0.038 H 
ATOM      8  C   LIG d   1       9.570  -2.438  -4.731  0.00  0.00     0.089 C 
ATOM      9  H   LIG d   1       9.877  -1.485  -4.301  0.00  0.00     0.065 H 
ATOM     10  C   LIG d   1      10.582  -3.495  -4.374  0.00  0.00     0.014 A 
ATOM     11  C   LIG d   1      11.879  -3.137  -4.069  0.00  0.00     0.048 A 
ATOM     12  C   LIG d   1      12.816  -4.109  -3.754  0.00  0.00    -0.040 A 
ATOM     13  C   LIG d   1      12.462  -5.443  -3.741  0.00  0.00    -0.018 A 
ATOM     14  C   LIG d   1      11.161  -5.821  -4.039  0.00  0.00     0.128 A 
ATOM     15  C   LIG d   1      10.210  -4.840  -4.350  0.00  0.00     0.070 A 
ATOM     16  C   LIG d   1       8.812  -5.219  -4.633  0.00  0.00     0.197 C 
ATOM     17  O   LIG d   1       8.515  -6.380  -4.849  0.00  0.00    -0.287 OA
ATOM     18  C   LIG d   1       7.820  -4.198  -4.661  0.00  0.00     0.046 C 
ATOM     19  C   LIG d   1       6.597  -4.510  -5.098  0.00  0.00     0.141 C 
ATOM     20  C   LIG d   1       5.450  -3.530  -5.150  0.00  0.00     0.193 C 
ATOM     21  C   LIG d   1       5.328  -3.055  -6.585  0.00  0.00     0.207 C 
ATOM     22  O   LIG d   1       5.767  -3.724  -7.498  0.00  0.00    -0.288 OA
ATOM     23  C   LIG d   1       4.672  -1.775  -6.850  0.00  0.00     0.076 C 
ATOM     24  C   LIG d   1       4.393  -0.915  -5.820  0.00  0.00    -0.066 C 
ATOM     25  O   LIG d   1       3.815   0.262  -6.100  0.00  0.00    -0.872 OA
ATOM     26 CL   LIG d   1      12.340  -1.463  -4.083  0.00  0.00    -0.083 Cl
ATOM     27  H   LIG d   1       7.220  -1.675  -5.736  0.00  0.00     0.028 H 
ATOM     28  H   LIG d   1       7.335  -0.839  -4.166  0.00  0.00     0.028 H 
ATOM     29  H   LIG d   1      13.829  -3.820  -3.516  0.00  0.00     0.063 H 
ATOM     30  H   LIG d   1      13.199  -6.195  -3.500  0.00  0.00     0.066 H 
ENDROOT
BRANCH   1  31
ATOM     31  N   LIG d   1       3.486  -1.710  -3.726  0.00  0.00     0.236 N 
ATOM     32  H   LIG d   1       3.103  -2.492  -4.237  0.00  0.00     0.203 HD
BRANCH  31  33
ATOM     33  C   LIG d   1       3.803  -2.129  -2.355  0.00  0.00    -0.043 C 
ATOM     34  H   LIG d   1       4.462  -1.393  -1.893  0.00  0.00     0.078 H 
ATOM     35  H   LIG d   1       2.882  -2.206  -1.776  0.00  0.00     0.078 H 
ATOM     36  H   LIG d   1       4.300  -3.099  -2.377  0.00  0.00     0.078 H 
ENDBRANCH  31  33
BRANCH  31  37
ATOM     37  C   LIG d   1       2.502  -0.620  -3.691  0.00  0.00    -0.043 C 
ATOM     38  H   LIG d   1       2.942   0.281  -4.121  0.00  0.00     0.078 H 
ATOM     39  H   LIG d   1       1.622  -0.906  -4.268  0.00  0.00     0.078 H 
ATOM     40  H   LIG d   1       2.212  -0.426  -2.659  0.00  0.00     0.078 H 
ENDBRANCH  31  37
ENDBRANCH   1  31
BRANCH  23  41
ATOM     41  C   LIG d   1       4.310  -1.410  -8.228  0.00  0.00     0.244 C 
ATOM     42  O   LIG d   1       3.321  -1.891  -8.746  0.00  0.00    -0.270 OA
ATOM     43  N   LIG d   1       5.076  -0.541  -8.919  0.00  0.00    -0.325 N 
ATOM     44  H   LIG d   1       5.910  -0.222  -8.539  0.00  0.00     0.145 HD
ATOM     45  H   LIG d   1       4.793  -0.235  -9.794  0.00  0.00     0.145 HD
ENDBRANCH  23  41
BRANCH  20  46
ATOM     46  O   LIG d   1       4.240  -4.153  -4.713  0.00  0.00    -0.373 OA
ATOM     47  H   LIG d   1       3.617  -3.548  -4.288  0.00  0.00     0.211 HD
ENDBRANCH  20  46
BRANCH  19  48
ATOM     48  O   LIG d   1       6.378  -5.775  -5.511  0.00  0.00    -0.507 OA
ATOM     49  H   LIG d   1       5.500  -6.114  -5.288  0.00  0.00     0.292 HD
ENDBRANCH  19  48
BRANCH   8  50
ATOM     50  O   LIG d   1       9.500  -2.316  -6.153  0.00  0.00    -0.387 OA
ATOM     51  H   LIG d   1       8.801  -2.847  -6.559  0.00  0.00     0.210 HD
ENDBRANCH   8  50
BRANCH  14  52
ATOM     52  O   LIG d   1      10.811  -7.132  -4.029  0.00  0.00    -0.506 OA
ATOM     53  H   LIG d   1      11.385  -7.696  -4.564  0.00  0.00     0.292 HD
ENDBRANCH  14  52
TORSDOF 8
ENDMDL
MODEL 8
REMARK VINA RESULT:      -5.9      4.419      6.847
REMARK  8 active torsions:
REMARK  status: ('A' for Active; 'I' for Inactive)
REMARK    1  A    between atoms: C_1  and  N_2 
REMARK    2  A    between atoms: N_2  and  C_3 
REMARK    3  A    between atoms: N_2  and  C_4 
REMARK    4  A    between atoms: C_11  and  O_36 
REMARK    5  A    between atoms: C_17  and  O_34 
REMARK    6  A    between atoms: C_22  and  O_33 
REMARK    7  A    between atoms: C_23  and  O_32 
REMARK    8  A    between atoms: C_26  and  C_29 
REMARK       I    between atoms: C_29  and  N_31 
ROOT
ATOM      1  C   LIG d   1      11.521  -0.342  -6.560  0.00  0.00    -0.002 C 
ATOM      2  H   LIG d   1      11.689  -1.417  -6.624  0.00  0.00     0.090 H 
ATOM      3  C   LIG d   1      10.358  -0.079  -5.625  0.00  0.00     0.049 C 
ATOM      4  H   LIG d   1      10.680  -0.306  -4.609  0.00  0.00     0.040 H 
ATOM      5  C   LIG d   1       9.155  -0.960  -5.949  0.00  0.00    -0.032 C 
ATOM      6  C   LIG d   1       8.177  -0.882  -4.774  0.00  0.00     0.022 C 
ATOM      7  H   LIG d   1       8.616  -1.386  -3.913  0.00  0.00     0.038 H 
ATOM      8  C   LIG d   1       6.871  -1.579  -5.147  0.00  0.00     0.089 C 
ATOM      9  H   LIG d   1       7.060  -2.640  -5.305  0.00  0.00     0.065 H 
ATOM     10  C   LIG d   1       5.859  -1.412  -4.043  0.00  0.00     0.014 A 
ATOM     11  C   LIG d   1       4.977  -2.433  -3.752  0.00  0.00     0.048 A 
ATOM     12  C   LIG d   1       4.036  -2.277  -2.747  0.00  0.00    -0.040 A 
ATOM     13  C   LIG d   1       3.970  -1.101  -2.027  0.00  0.00    -0.018 A 
ATOM     14  C   LIG d   1       4.852  -0.066  -2.302  0.00  0.00     0.128 A 
ATOM     15  C   LIG d   1       5.810  -0.224  -3.313  0.00  0.00     0.070 A 
ATOM     16  C   LIG d   1       6.781   0.851  -3.595  0.00  0.00     0.197 C 
ATOM     17  O   LIG d   1       6.617   1.970  -3.145  0.00  0.00    -0.287 OA
ATOM     18  C   LIG d   1       7.907   0.555  -4.415  0.00  0.00     0.046 C 
ATOM     19  C   LIG d   1       8.681   1.566  -4.822  0.00  0.00     0.141 C 
ATOM     20  C   LIG d   1       9.918   1.385  -5.668  0.00  0.00     0.193 C 
ATOM     21  C   LIG d   1       9.539   1.721  -7.097  0.00  0.00     0.207 C 
ATOM     22  O   LIG d   1       8.581   2.429  -7.334  0.00  0.00    -0.288 OA
ATOM     23  C   LIG d   1      10.348   1.175  -8.187  0.00  0.00     0.076 C 
ATOM     24  C   LIG d   1      11.272   0.195  -7.938  0.00  0.00    -0.066 C 
ATOM     25  O   LIG d   1      11.978  -0.303  -8.964  0.00  0.00    -0.872 OA
ATOM     26 CL   LIG d   1       5.047  -3.917  -4.650  0.00  0.00    -0.083 Cl
ATOM     27  H   LIG d   1       8.669  -0.601  -6.857  0.00  0.00     0.028 H 
ATOM     28  H   LIG d   1       9.480  -1.990  -6.090  0.00  0.00     0.028 H 
ATOM     29  H   LIG d   1       3.351  -3.081  -2.525  0.00  0.00     0.063 H 
ATOM     30  H   LIG d   1       3.231  -0.985  -1.249  0.00  0.00     0.066 H 
ENDROOT
BRANCH   1  31
ATOM     31  N   LIG d   1      12.727   0.295  -6.012  0.00  0.00     0.236 N 
ATOM     32  H   LIG d   1      12.557   1.282  -5.884  0.00  0.00     0.203 HD
BRANCH  31  33
ATOM     33  C   LIG d   1      13.059  -0.316  -4.718  0.00  0.00    -0.043 C 
ATOM     34  H   LIG d   1      12.530   0.208  -3.922  0.00  0.00     0.078 H 
ATOM     35  H   LIG d   1      12.760  -1.364  -4.724  0.00  0.00     0.078 H 
ATOM     36  H   LIG d   1      14.134  -0.246  -4.548  0.00  0.00     0.078 H 
ENDBRANCH  31  33
BRANCH  31  37
ATOM     37  C   LIG d   1      13.847   0.108  -6.943  0.00  0.00    -0.043 C 
ATOM     38  H   LIG d   1      13.616   0.596  -7.892  0.00  0.00     0.078 H 
ATOM     39  H   LIG d   1      14.750   0.549  -6.520  0.00  0.00     0.078 H 
ATOM     40  H   LIG d   1      14.006  -0.956  -7.111  0.00  0.00     0.078 H 
ENDBRANCH  31  37
ENDBRANCH   1  31
BRANCH  23  41
ATOM     41  C   LIG d   1      10.168   1.683  -9.556  0.00  0.00     0.244 C 
ATOM     42  O   LIG d   1      10.815   2.638  -9.941  0.00  0.00    -0.270 OA
ATOM     43  N   LIG d   1       9.286   1.089 -10.385  0.00  0.00    -0.325 N 
ATOM     44  H   LIG d   1       8.709   0.383 -10.054  0.00  0.00     0.145 HD
ATOM     45  H   LIG d   1       9.227   1.368 -11.312  0.00  0.00     0.145 HD
ENDBRANCH  23  41
BRANCH  20  46
ATOM     46  O   LIG d   1      10.969   2.236  -5.204  0.00  0.00    -0.373 OA
ATOM     47  H   LIG d   1      10.735   2.762  -4.427  0.00  0.00     0.211 HD
ENDBRANCH  20  46
BRANCH  19  48
ATOM     48  O   LIG d   1       8.336   2.815  -4.450  0.00  0.00    -0.507 OA
ATOM     49  H   LIG d   1       7.880   2.859  -3.598  0.00  0.00     0.292 HD
ENDBRANCH  19  48
BRANCH   8  50
ATOM     50  O   LIG d   1       6.354  -1.005  -6.349  0.00  0.00    -0.387 OA
ATOM     51  H   LIG d   1       6.233  -0.046  -6.307  0.00  0.00     0.210 HD
ENDBRANCH   8  50
BRANCH  14  52
ATOM     52  O   LIG d   1       4.788   1.091  -1.597  0.00  0.00    -0.506 OA
ATOM     53  H   LIG d   1       3.964   1.208  -1.107  0.00  0.00     0.292 HD
ENDBRANCH  14  52
TORSDOF 8
ENDMDL
MODEL 9
REMARK VINA RESULT:      -5.9     10.223     13.395
REMARK  8 active torsions:
REMARK  status: ('A' for Active; 'I' for Inactive)
REMARK    1  A    between atoms: C_1  and  N_2 
REMARK    2  A    between atoms: N_2  and  C_3 
REMARK    3  A    between atoms: N_2  and  C_4 
REMARK    4  A    between atoms: C_11  and  O_36 
REMARK    5  A    between atoms: C_17  and  O_34 
REMARK    6  A    between atoms: C_22  and  O_33 
REMARK    7  A    between atoms: C_23  and  O_32 
REMARK    8  A    between atoms: C_26  and  C_29 
REMARK       I    between atoms: C_29  and  N_31 
ROOT
ATOM      1  C   LIG d   1      12.262   7.156  -8.678  0.00  0.00    -0.002 C 
ATOM      2  H   LIG d   1      12.911   6.394  -8.245  0.00  0.00     0.090 H 
ATOM      3  C   LIG d   1      11.740   8.046  -7.568  0.00  0.00     0.049 C 
ATOM      4  H   LIG d   1      12.567   8.653  -7.201  0.00  0.00     0.040 H 
ATOM      5  C   LIG d   1      11.190   7.236  -6.398  0.00  0.00    -0.032 C 
ATOM      6  C   LIG d   1      11.010   8.182  -5.207  0.00  0.00     0.022 C 
ATOM      7  H   LIG d   1      11.991   8.488  -4.844  0.00  0.00     0.038 H 
ATOM      8  C   LIG d   1      10.268   7.458  -4.086  0.00  0.00     0.089 C 
ATOM      9  H   LIG d   1      10.881   6.635  -3.720  0.00  0.00     0.065 H 
ATOM     10  C   LIG d   1       9.983   8.409  -2.953  0.00  0.00     0.014 A 
ATOM     11  C   LIG d   1      10.026   7.963  -1.648  0.00  0.00     0.048 A 
ATOM     12  C   LIG d   1       9.750   8.832  -0.604  0.00  0.00    -0.040 A 
ATOM     13  C   LIG d   1       9.430  10.152  -0.858  0.00  0.00    -0.018 A 
ATOM     14  C   LIG d   1       9.388  10.618  -2.164  0.00  0.00     0.128 A 
ATOM     15  C   LIG d   1       9.674   9.743  -3.220  0.00  0.00     0.070 A 
ATOM     16  C   LIG d   1       9.671  10.230  -4.614  0.00  0.00     0.197 C 
ATOM     17  O   LIG d   1       9.184  11.310  -4.893  0.00  0.00    -0.287 OA
ATOM     18  C   LIG d   1      10.238   9.405  -5.626  0.00  0.00     0.046 C 
ATOM     19  C   LIG d   1      10.070   9.758  -6.903  0.00  0.00     0.141 C 
ATOM     20  C   LIG d   1      10.644   8.988  -8.068  0.00  0.00     0.193 C 
ATOM     21  C   LIG d   1       9.524   8.144  -8.645  0.00  0.00     0.207 C 
ATOM     22  O   LIG d   1       8.363   8.448  -8.463  0.00  0.00    -0.288 OA
ATOM     23  C   LIG d   1       9.869   6.956  -9.425  0.00  0.00     0.076 C 
ATOM     24  C   LIG d   1      11.154   6.481  -9.430  0.00  0.00    -0.066 C 
ATOM     25  O   LIG d   1      11.431   5.373 -10.134  0.00  0.00    -0.872 OA
ATOM     26 CL   LIG d   1      10.424   6.307  -1.312  0.00  0.00    -0.083 Cl
ATOM     27  H   LIG d   1      10.229   6.799  -6.670  0.00  0.00     0.028 H 
ATOM     28  H   LIG d   1      11.892   6.445  -6.136  0.00  0.00     0.028 H 
ATOM     29  H   LIG d   1       9.786   8.476   0.415  0.00  0.00     0.063 H 
ATOM     30  H   LIG d   1       9.212  10.821  -0.040  0.00  0.00     0.066 H 
ENDROOT
BRANCH   1  31
ATOM     31  N   LIG d   1      13.046   7.973  -9.615  0.00  0.00     0.236 N 
ATOM     32  H   LIG d   1      12.482   8.741  -9.944  0.00  0.00     0.203 HD
BRANCH  31  33
ATOM     33  C   LIG d   1      14.236   8.496  -8.931  0.00  0.00    -0.043 C 
ATOM     34  H   LIG d   1      14.189   9.585  -8.902  0.00  0.00     0.078 H 
ATOM     35  H   LIG d   1      14.272   8.106  -7.914  0.00  0.00     0.078 H 
ATOM     36  H   LIG d   1      15.132   8.186  -9.470  0.00  0.00     0.078 H 
ENDBRANCH  31  33
BRANCH  31  37
ATOM     37  C   LIG d   1      13.462   7.146 -10.756  0.00  0.00    -0.043 C 
ATOM     38  H   LIG d   1      14.220   7.678 -11.333  0.00  0.00     0.078 H 
ATOM     39  H   LIG d   1      13.876   6.206 -10.392  0.00  0.00     0.078 H 
ATOM     40  H   LIG d   1      12.600   6.942 -11.390  0.00  0.00     0.078 H 
ENDBRANCH  31  37
ENDBRANCH   1  31
BRANCH  23  41
ATOM     41  C   LIG d   1       8.830   6.267 -10.207  0.00  0.00     0.244 C 
ATOM     42  O   LIG d   1       8.103   5.452  -9.670  0.00  0.00    -0.270 OA
ATOM     43  N   LIG d   1       8.684   6.537 -11.520  0.00  0.00    -0.325 N 
ATOM     44  H   LIG d   1       9.316   7.121 -11.968  0.00  0.00     0.145 HD
ATOM     45  H   LIG d   1       7.948   6.148 -12.016  0.00  0.00     0.145 HD
ENDBRANCH  23  41
BRANCH  20  46
ATOM     46  O   LIG d   1      11.166   9.885  -9.051  0.00  0.00    -0.373 OA
ATOM     47  H   LIG d   1      12.108   9.764  -9.234  0.00  0.00     0.211 HD
ENDBRANCH  20  46
BRANCH  19  48
ATOM     48  O   LIG d   1       9.350  10.868  -7.162  0.00  0.00    -0.507 OA
ATOM     49  H   LIG d   1       8.937  11.259  -6.380  0.00  0.00     0.292 HD
ENDBRANCH  19  48
BRANCH   8  50
ATOM     50  O   LIG d   1       9.034   6.943  -4.589  0.00  0.00    -0.387 OA
ATOM     51  H   LIG d   1       8.349   7.614  -4.713  0.00  0.00     0.210 HD
ENDBRANCH   8  50
BRANCH  14  52
ATOM     52  O   LIG d   1       9.072  11.913  -2.416  0.00  0.00    -0.506 OA
ATOM     53  H   LIG d   1       8.499  12.035  -3.185  0.00  0.00     0.292 HD
ENDBRANCH  14  52
TORSDOF 8
ENDMDL
MODEL 10
REMARK VINA RESULT:      -5.7      9.727     13.128
REMARK  8 active torsions:
REMARK  status: ('A' for Active; 'I' for Inactive)
REMARK    1  A    between atoms: C_1  and  N_2 
REMARK    2  A    between atoms: N_2  and  C_3 
REMARK    3  A    between atoms: N_2  and  C_4 
REMARK    4  A    between atoms: C_11  and  O_36 
REMARK    5  A    between atoms: C_17  and  O_34 
REMARK    6  A    between atoms: C_22  and  O_33 
REMARK    7  A    between atoms: C_23  and  O_32 
REMARK    8  A    between atoms: C_26  and  C_29 
REMARK       I    between atoms: C_29  and  N_31 
ROOT
ATOM      1  C   LIG d   1      13.247   4.147  -3.502  0.00  0.00    -0.002 C 
ATOM      2  H   LIG d   1      13.523   4.241  -4.553  0.00  0.00     0.090 H 
ATOM      3  C   LIG d   1      12.253   5.236  -3.153  0.00  0.00     0.049 C 
ATOM      4  H   LIG d   1      11.308   5.004  -3.644  0.00  0.00     0.040 H 
ATOM      5  C   LIG d   1      12.715   6.607  -3.639  0.00  0.00    -0.032 C 
ATOM      6  C   LIG d   1      11.525   7.567  -3.558  0.00  0.00     0.022 C 
ATOM      7  H   LIG d   1      10.788   7.284  -4.310  0.00  0.00     0.038 H 
ATOM      8  C   LIG d   1      11.996   8.992  -3.835  0.00  0.00     0.089 C 
ATOM      9  H   LIG d   1      12.362   9.060  -4.859  0.00  0.00     0.065 H 
ATOM     10  C   LIG d   1      10.859   9.962  -3.647  0.00  0.00     0.014 A 
ATOM     11  C   LIG d   1      10.752  11.070  -4.462  0.00  0.00     0.048 A 
ATOM     12  C   LIG d   1       9.715  11.971  -4.282  0.00  0.00    -0.040 A 
ATOM     13  C   LIG d   1       8.778  11.771  -3.287  0.00  0.00    -0.018 A 
ATOM     14  C   LIG d   1       8.867  10.660  -2.462  0.00  0.00     0.128 A 
ATOM     15  C   LIG d   1       9.911   9.743  -2.647  0.00  0.00     0.070 A 
ATOM     16  C   LIG d   1      10.001   8.535  -1.803  0.00  0.00     0.197 C 
ATOM     17  O   LIG d   1       9.338   8.437  -0.786  0.00  0.00    -0.287 OA
ATOM     18  C   LIG d   1      10.888   7.493  -2.196  0.00  0.00     0.046 C 
ATOM     19  C   LIG d   1      11.108   6.489  -1.342  0.00  0.00     0.141 C 
ATOM     20  C   LIG d   1      12.001   5.310  -1.647  0.00  0.00     0.193 C 
ATOM     21  C   LIG d   1      13.329   5.562  -0.960  0.00  0.00     0.207 C 
ATOM     22  O   LIG d   1      13.402   6.315  -0.010  0.00  0.00    -0.288 OA
ATOM     23  C   LIG d   1      14.521   4.881  -1.462  0.00  0.00     0.076 C 
ATOM     24  C   LIG d   1      14.489   4.226  -2.665  0.00  0.00    -0.066 C 
ATOM     25  O   LIG d   1      15.608   3.634  -3.109  0.00  0.00    -0.872 OA
ATOM     26 CL   LIG d   1      11.922  11.337  -5.716  0.00  0.00    -0.083 Cl
ATOM     27  H   LIG d   1      13.524   6.970  -3.005  0.00  0.00     0.028 H 
ATOM     28  H   LIG d   1      13.060   6.536  -4.670  0.00  0.00     0.028 H 
ATOM     29  H   LIG d   1       9.637  12.835  -4.925  0.00  0.00     0.063 H 
ATOM     30  H   LIG d   1       7.976  12.480  -3.150  0.00  0.00     0.066 H 
ENDROOT
BRANCH   1  31
ATOM     31  N   LIG d   1      12.613   2.838  -3.292  0.00  0.00     0.236 N 
ATOM     32  H   LIG d   1      12.363   2.738  -2.320  0.00  0.00     0.203 HD
BRANCH  31  33
ATOM     33  C   LIG d   1      11.405   2.741  -4.121  0.00  0.00    -0.043 C 
ATOM     34  H   LIG d   1      11.395   1.781  -4.638  0.00  0.00     0.078 H 
ATOM     35  H   LIG d   1      10.522   2.822  -3.488  0.00  0.00     0.078 H 
ATOM     36  H   LIG d   1      11.401   3.548  -4.855  0.00  0.00     0.078 H 
ENDBRANCH  31  33
BRANCH  31  37
ATOM     37  C   LIG d   1      13.552   1.773  -3.668  0.00  0.00    -0.043 C 
ATOM     38  H   LIG d   1      14.558   2.186  -3.747  0.00  0.00     0.078 H 
ATOM     39  H   LIG d   1      13.540   0.992  -2.907  0.00  0.00     0.078 H 
ATOM     40  H   LIG d   1      13.257   1.349  -4.627  0.00  0.00     0.078 H 
ENDBRANCH  31  37
ENDBRANCH   1  31
BRANCH  23  41
ATOM     41  C   LIG d   1      15.762   4.898  -0.671  0.00  0.00     0.244 C 
ATOM     42  O   LIG d   1      16.189   3.869  -0.183  0.00  0.00    -0.270 OA
ATOM     43  N   LIG d   1      16.427   6.057  -0.484  0.00  0.00    -0.325 N 
ATOM     44  H   LIG d   1      16.044   6.891  -0.799  0.00  0.00     0.145 HD
ATOM     45  H   LIG d   1      17.286   6.056  -0.036  0.00  0.00     0.145 HD
ENDBRANCH  23  41
BRANCH  20  46
ATOM     46  O   LIG d   1      11.405   4.098  -1.180  0.00  0.00    -0.373 OA
ATOM     47  H   LIG d   1      10.607   3.841  -1.661  0.00  0.00     0.211 HD
ENDBRANCH  20  46
BRANCH  19  48
ATOM     48  O   LIG d   1      10.493   6.533  -0.143  0.00  0.00    -0.507 OA
ATOM     49  H   LIG d   1      10.513   7.404   0.277  0.00  0.00     0.292 HD
ENDBRANCH  19  48
BRANCH   8  50
ATOM     50  O   LIG d   1      13.052   9.326  -2.932  0.00  0.00    -0.387 OA
ATOM     51  H   LIG d   1      13.814   9.747  -3.354  0.00  0.00     0.210 HD
ENDBRANCH   8  50
BRANCH  14  52
ATOM     52  O   LIG d   1       7.950  10.461  -1.482  0.00  0.00    -0.506 OA
ATOM     53  H   LIG d   1       7.487   9.615  -1.542  0.00  0.00     0.292 HD
ENDBRANCH  14  52
TORSDOF 8
ENDMDL
