MODEL 1
REMARK VINA RESULT:      -5.6      0.000      0.000
REMARK WARNING: 32 MAX_TORS EXCEEDED!!!
REMARK  40 active torsions:
REMARK  status: ('A' for Active; 'I' for Inactive)
REMARK    1  A    between atoms: C_1  and  C_2 
REMARK    2  A    between atoms: C_2  and  C_3 
REMARK    3  A    between atoms: C_3  and  C_4 
REMARK    4  A    between atoms: C_4  and  C_5 
REMARK    5  A    between atoms: C_5  and  C_6 
REMARK    6  A    between atoms: C_6  and  C_7 
REMARK    7  A    between atoms: C_7  and  C_8 
REMARK    8  A    between atoms: C_8  and  C_9 
REMARK    9  A    between atoms: C_9  and  C_10 
REMARK   10  A    between atoms: C_10  and  C_11 
REMARK   11  A    between atoms: C_11  and  C_12 
REMARK   12  A    between atoms: C_12  and  C_13 
REMARK   13  A    between atoms: C_13  and  C_14 
REMARK   14  A    between atoms: C_14  and  C_15 
REMARK   15  A    between atoms: C_15  and  C_16 
REMARK   16  A    between atoms: C_15  and  O_57 
REMARK       I    between atoms: C_16  and  N_18 
REMARK   17  A    between atoms: N_18  and  C_19 
REMARK   18  A    between atoms: C_19  and  C_21 
REMARK   19  A    between atoms: C_19  and  C_39 
REMARK   20  A    between atoms: C_21  and  O_22 
REMARK   21  A    between atoms: O_22  and  C_23 
REMARK   22  A    between atoms: C_25  and  O_38 
REMARK   23  A    between atoms: C_27  and  O_37 
REMARK   24  A    between atoms: C_29  and  O_36 
REMARK   25  A    between atoms: C_31  and  C_34 
REMARK   26  A    between atoms: C_34  and  O_35 
REMARK   27  A    between atoms: C_39  and  C_41 
REMARK   28  A    between atoms: C_39  and  O_56 
REMARK   29  A    between atoms: C_42  and  C_43 
REMARK   30  A    between atoms: C_43  and  C_44 
REMARK   31  A    between atoms: C_44  and  C_45 
REMARK   32  A    between atoms: C_46  and  C_47 
REMARK   33  A    between atoms: C_47  and  C_48 
REMARK   34  A    between atoms: C_48  and  C_49 
REMARK   35  A    between atoms: C_49  and  C_50 
REMARK   36  A    between atoms: C_50  and  C_51 
REMARK   37  A    between atoms: C_51  and  C_52 
REMARK   38  A    between atoms: C_52  and  C_53 
REMARK   39  A    between atoms: C_53  and  C_54 
REMARK   40  A    between atoms: C_54  and  C_55 
ROOT
ATOM      1  C   LIG d   1      10.240   6.773  -6.145  0.00  0.00     0.076 C 
ATOM      2  H   LIG d   1       9.193   6.897  -5.863  0.00  0.00     0.055 H 
ENDROOT
BRANCH   1   3
ATOM      3  N   LIG d   1      10.870   5.788  -5.263  0.00  0.00    -0.305 N 
ATOM      4  C   LIG d   1      10.298   5.476  -4.084  0.00  0.00     0.242 C 
ATOM      5  O   LIG d   1       9.260   6.010  -3.752  0.00  0.00    -0.273 OA
ATOM      6  H   LIG d   1      11.699   5.361  -5.528  0.00  0.00     0.149 HD
BRANCH   4   7
ATOM      7  C   LIG d   1      10.946   4.463  -3.176  0.00  0.00     0.131 C 
ATOM      8  H   LIG d   1      11.994   4.726  -3.028  0.00  0.00     0.069 H 
BRANCH   7   9
ATOM      9  C   LIG d   1      10.855   3.075  -3.814  0.00  0.00    -0.018 C 
ATOM     10  H   LIG d   1      11.643   2.438  -3.413  0.00  0.00     0.029 H 
ATOM     11  H   LIG d   1      10.973   3.163  -4.894  0.00  0.00     0.029 H 
BRANCH   9  12
ATOM     12  C   LIG d   1       9.490   2.458  -3.499  0.00  0.00    -0.050 C 
ATOM     13  H   LIG d   1       9.075   2.930  -2.609  0.00  0.00     0.027 H 
ATOM     14  H   LIG d   1       9.606   1.389  -3.322  0.00  0.00     0.027 H 
BRANCH  12  15
ATOM     15  C   LIG d   1       8.545   2.681  -4.681  0.00  0.00    -0.053 C 
ATOM     16  H   LIG d   1       9.114   3.041  -5.539  0.00  0.00     0.026 H 
ATOM     17  H   LIG d   1       7.790   3.419  -4.410  0.00  0.00     0.026 H 
BRANCH  15  18
ATOM     18  C   LIG d   1       7.861   1.361  -5.043  0.00  0.00    -0.053 C 
ATOM     19  H   LIG d   1       7.192   1.519  -5.889  0.00  0.00     0.026 H 
ATOM     20  H   LIG d   1       7.288   1.002  -4.188  0.00  0.00     0.026 H 
BRANCH  18  21
ATOM     21  C   LIG d   1       8.921   0.323  -5.419  0.00  0.00    -0.053 C 
ATOM     22  H   LIG d   1       9.846   0.539  -4.885  0.00  0.00     0.026 H 
ATOM     23  H   LIG d   1       9.103   0.363  -6.493  0.00  0.00     0.026 H 
BRANCH  21  24
ATOM     24  C   LIG d   1       8.425  -1.073  -5.037  0.00  0.00    -0.053 C 
ATOM     25  H   LIG d   1       9.167  -1.563  -4.406  0.00  0.00     0.026 H 
ATOM     26  H   LIG d   1       8.269  -1.664  -5.939  0.00  0.00     0.026 H 
BRANCH  24  27
ATOM     27  C   LIG d   1       7.105  -0.954  -4.271  0.00  0.00    -0.053 C 
ATOM     28  H   LIG d   1       6.477  -0.200  -4.746  0.00  0.00     0.026 H 
ATOM     29  H   LIG d   1       7.308  -0.661  -3.241  0.00  0.00     0.026 H 
BRANCH  27  30
ATOM     30  C   LIG d   1       6.384  -2.303  -4.285  0.00  0.00    -0.053 C 
ATOM     31  H   LIG d   1       7.118  -3.107  -4.251  0.00  0.00     0.026 H 
ATOM     32  H   LIG d   1       5.793  -2.389  -5.197  0.00  0.00     0.026 H 
BRANCH  30  33
ATOM     33  C   LIG d   1       5.461  -2.400  -3.068  0.00  0.00    -0.053 C 
ATOM     34  H   LIG d   1       5.732  -1.632  -2.345  0.00  0.00     0.026 H 
ATOM     35  H   LIG d   1       5.567  -3.384  -2.611  0.00  0.00     0.026 H 
BRANCH  33  36
ATOM     36  C   LIG d   1       4.011  -2.196  -3.511  0.00  0.00    -0.053 C 
ATOM     37  H   LIG d   1       3.437  -3.098  -3.301  0.00  0.00     0.026 H 
ATOM     38  H   LIG d   1       3.983  -1.988  -4.580  0.00  0.00     0.026 H 
BRANCH  36  39
ATOM     39  C   LIG d   1       3.406  -1.018  -2.746  0.00  0.00    -0.053 C 
ATOM     40  H   LIG d   1       2.475  -1.332  -2.271  0.00  0.00     0.026 H 
ATOM     41  H   LIG d   1       3.203  -0.201  -3.438  0.00  0.00     0.026 H 
BRANCH  39  42
ATOM     42  C   LIG d   1       4.390  -0.546  -1.673  0.00  0.00    -0.053 C 
ATOM     43  H   LIG d   1       5.354  -1.033  -1.825  0.00  0.00     0.026 H 
ATOM     44  H   LIG d   1       4.004  -0.804  -0.687  0.00  0.00     0.026 H 
BRANCH  42  45
ATOM     45  C   LIG d   1       4.565   0.971  -1.772  0.00  0.00    -0.056 C 
ATOM     46  H   LIG d   1       5.606   1.201  -1.999  0.00  0.00     0.026 H 
ATOM     47  H   LIG d   1       4.289   1.431  -0.824  0.00  0.00     0.026 H 
BRANCH  45  48
ATOM     48  C   LIG d   1       3.667   1.517  -2.884  0.00  0.00    -0.065 C 
ATOM     49  H   LIG d   1       3.215   2.454  -2.558  0.00  0.00     0.023 H 
ATOM     50  H   LIG d   1       4.264   1.693  -3.779  0.00  0.00     0.023 H 
ATOM     51  H   LIG d   1       2.883   0.793  -3.107  0.00  0.00     0.023 H 
ENDBRANCH  45  48
ENDBRANCH  42  45
ENDBRANCH  39  42
ENDBRANCH  36  39
ENDBRANCH  33  36
ENDBRANCH  30  33
ENDBRANCH  27  30
ENDBRANCH  24  27
ENDBRANCH  21  24
ENDBRANCH  18  21
ENDBRANCH  15  18
ENDBRANCH  12  15
ENDBRANCH   9  12
ENDBRANCH   7   9
BRANCH   7  52
ATOM     52  O   LIG d   1      10.273   4.454  -1.916  0.00  0.00    -0.383 OA
ATOM     53  H   LIG d   1       9.520   3.848  -1.876  0.00  0.00     0.210 HD
ENDBRANCH   7  52
ENDBRANCH   4   7
ENDBRANCH   1   3
BRANCH   1  54
ATOM     54  C   LIG d   1      10.964   8.115  -6.014  0.00  0.00     0.072 C 
ATOM     55  H   LIG d   1      11.660   8.072  -5.177  0.00  0.00     0.058 H 
ATOM     56  H   LIG d   1      11.515   8.321  -6.934  0.00  0.00     0.058 H 
BRANCH  54  57
ATOM     57  O   LIG d   1      10.008   9.152  -5.789  0.00  0.00    -0.347 OA
BRANCH  57  58
ATOM     58  C   LIG d   1      10.154   9.813  -4.530  0.00  0.00     0.188 C 
ATOM     59  H   LIG d   1      11.163  10.215  -4.445  0.00  0.00     0.094 H 
ATOM     60  O   LIG d   1       9.923   8.880  -3.473  0.00  0.00    -0.341 OA
ATOM     61  C   LIG d   1      10.068   9.433  -2.164  0.00  0.00     0.113 C 
ATOM     62  C   LIG d   1       9.050  10.560  -1.971  0.00  0.00     0.112 C 
ATOM     63  H   LIG d   1      11.077   9.831  -2.047  0.00  0.00     0.065 H 
ATOM     64  C   LIG d   1       9.261  11.619  -3.057  0.00  0.00     0.114 C 
ATOM     65  H   LIG d   1       8.041  10.155  -2.046  0.00  0.00     0.065 H 
ATOM     66  C   LIG d   1       9.139  10.954  -4.433  0.00  0.00     0.134 C 
ATOM     67  H   LIG d   1      10.252  12.059  -2.951  0.00  0.00     0.065 H 
ATOM     68  H   LIG d   1       8.132  10.558  -4.558  0.00  0.00     0.067 H 
BRANCH  61  69
ATOM     69  C   LIG d   1       9.827   8.342  -1.118  0.00  0.00     0.073 C 
ATOM     70  H   LIG d   1      10.270   7.407  -1.460  0.00  0.00     0.058 H 
ATOM     71  H   LIG d   1      10.286   8.638  -0.173  0.00  0.00     0.058 H 
BRANCH  69  72
ATOM     72  O   LIG d   1       8.422   8.165  -0.929  0.00  0.00    -0.392 OA
ATOM     73  H   LIG d   1       8.058   8.665  -0.186  0.00  0.00     0.209 HD
ENDBRANCH  69  72
ENDBRANCH  61  69
BRANCH  62  74
ATOM     74  O   LIG d   1       9.231  11.154  -0.684  0.00  0.00    -0.387 OA
ATOM     75  H   LIG d   1       9.995  10.815  -0.197  0.00  0.00     0.210 HD
ENDBRANCH  62  74
BRANCH  64  76
ATOM     76  O   LIG d   1       8.268  12.640  -2.930  0.00  0.00    -0.386 OA
ATOM     77  H   LIG d   1       8.523  13.366  -2.345  0.00  0.00     0.210 HD
ENDBRANCH  64  76
BRANCH  66  78
ATOM     78  O   LIG d   1       9.404  11.918  -5.455  0.00  0.00    -0.384 OA
ATOM     79  H   LIG d   1       8.933  11.752  -6.283  0.00  0.00     0.210 HD
ENDBRANCH  66  78
ENDBRANCH  57  58
ENDBRANCH  54  57
ENDBRANCH   1  54
BRANCH   1  80
ATOM     80  C   LIG d   1      10.323   6.288  -7.594  0.00  0.00     0.094 C 
ATOM     81  H   LIG d   1      11.269   6.609  -8.030  0.00  0.00     0.066 H 
BRANCH  80  82
ATOM     82  C   LIG d   1      10.239   4.784  -7.626  0.00  0.00    -0.058 C 
ATOM     83  C   LIG d   1       9.319   4.195  -8.350  0.00  0.00    -0.085 C 
ATOM     84  H   LIG d   1       8.675   4.782  -8.986  0.00  0.00     0.057 H 
ATOM     85  H   LIG d   1      10.937   4.192  -7.053  0.00  0.00     0.059 H 
BRANCH  83  86
ATOM     86  C   LIG d   1       9.161   2.697  -8.292  0.00  0.00    -0.031 C 
ATOM     87  H   LIG d   1       9.873   2.231  -8.974  0.00  0.00     0.031 H 
ATOM     88  H   LIG d   1       9.350   2.350  -7.277  0.00  0.00     0.031 H 
BRANCH  86  89
ATOM     89  C   LIG d   1       7.737   2.319  -8.705  0.00  0.00    -0.031 C 
ATOM     90  H   LIG d   1       7.165   2.041  -7.819  0.00  0.00     0.031 H 
ATOM     91  H   LIG d   1       7.262   3.169  -9.193  0.00  0.00     0.031 H 
BRANCH  89  92
ATOM     92  C   LIG d   1       7.784   1.153  -9.659  0.00  0.00    -0.088 C 
ATOM     93  C   LIG d   1       7.237   0.011  -9.325  0.00  0.00    -0.088 C 
ATOM     94  H   LIG d   1       7.389  -0.862  -9.942  0.00  0.00     0.057 H 
ATOM     95  H   LIG d   1       8.268   1.260 -10.619  0.00  0.00     0.057 H 
BRANCH  93  96
ATOM     96  C   LIG d   1       6.393  -0.085  -8.080  0.00  0.00    -0.035 C 
ATOM     97  H   LIG d   1       6.991   0.201  -7.213  0.00  0.00     0.031 H 
ATOM     98  H   LIG d   1       5.538   0.585  -8.168  0.00  0.00     0.031 H 
BRANCH  96  99
ATOM     99  C   LIG d   1       5.900  -1.523  -7.907  0.00  0.00    -0.050 C 
ATOM    100  H   LIG d   1       5.962  -2.046  -8.862  0.00  0.00     0.027 H 
ATOM    101  H   LIG d   1       6.521  -2.034  -7.171  0.00  0.00     0.027 H 
BRANCH  99 102
ATOM    102  C   LIG d   1       4.447  -1.510  -7.428  0.00  0.00    -0.053 C 
ATOM    103  H   LIG d   1       3.782  -1.438  -8.289  0.00  0.00     0.026 H 
ATOM    104  H   LIG d   1       4.236  -2.429  -6.883  0.00  0.00     0.026 H 
BRANCH 102 105
ATOM    105  C   LIG d   1       4.222  -0.308  -6.509  0.00  0.00    -0.053 C 
ATOM    106  H   LIG d   1       4.249  -0.635  -5.470  0.00  0.00     0.026 H 
ATOM    107  H   LIG d   1       5.006   0.430  -6.678  0.00  0.00     0.026 H 
BRANCH 105 108
ATOM    108  C   LIG d   1       2.860   0.318  -6.812  0.00  0.00    -0.053 C 
ATOM    109  H   LIG d   1       2.070  -0.387  -6.551  0.00  0.00     0.026 H 
ATOM    110  H   LIG d   1       2.740   1.230  -6.227  0.00  0.00     0.026 H 
BRANCH 108 111
ATOM    111  C   LIG d   1       2.772   0.654  -8.302  0.00  0.00    -0.053 C 
ATOM    112  H   LIG d   1       3.576   0.148  -8.837  0.00  0.00     0.026 H 
ATOM    113  H   LIG d   1       1.810   0.322  -8.693  0.00  0.00     0.026 H 
BRANCH 111 114
ATOM    114  C   LIG d   1       2.905   2.166  -8.493  0.00  0.00    -0.053 C 
ATOM    115  H   LIG d   1       1.969   2.568  -8.880  0.00  0.00     0.026 H 
ATOM    116  H   LIG d   1       3.133   2.634  -7.535  0.00  0.00     0.026 H 
BRANCH 114 117
ATOM    117  C   LIG d   1       4.034   2.457  -9.484  0.00  0.00    -0.056 C 
ATOM    118  H   LIG d   1       3.893   3.447  -9.915  0.00  0.00     0.026 H 
ATOM    119  H   LIG d   1       4.992   2.418  -8.966  0.00  0.00     0.026 H 
BRANCH 117 120
ATOM    120  C   LIG d   1       4.014   1.408 -10.599  0.00  0.00    -0.065 C 
ATOM    121  H   LIG d   1       3.352   1.740 -11.398  0.00  0.00     0.023 H 
ATOM    122  H   LIG d   1       5.021   1.276 -10.992  0.00  0.00     0.023 H 
ATOM    123  H   LIG d   1       3.652   0.459 -10.199  0.00  0.00     0.023 H 
ENDBRANCH 117 120
ENDBRANCH 114 117
ENDBRANCH 111 114
ENDBRANCH 108 111
ENDBRANCH 105 108
ENDBRANCH 102 105
ENDBRANCH  99 102
ENDBRANCH  96  99
ENDBRANCH  93  96
ENDBRANCH  89  92
ENDBRANCH  86  89
ENDBRANCH  83  86
ENDBRANCH  80  82
BRANCH  80 124
ATOM    124  O   LIG d   1       9.241   6.842  -8.345  0.00  0.00    -0.386 OA
ATOM    125  H   LIG d   1       8.385   6.792  -7.897  0.00  0.00     0.210 HD
ENDBRANCH  80 124
ENDBRANCH   1  80
TORSDOF 40
ENDMDL
MODEL 2
REMARK VINA RESULT:      -5.6      7.739     12.635
REMARK WARNING: 32 MAX_TORS EXCEEDED!!!
REMARK  40 active torsions:
REMARK  status: ('A' for Active; 'I' for Inactive)
REMARK    1  A    between atoms: C_1  and  C_2 
REMARK    2  A    between atoms: C_2  and  C_3 
REMARK    3  A    between atoms: C_3  and  C_4 
REMARK    4  A    between atoms: C_4  and  C_5 
REMARK    5  A    between atoms: C_5  and  C_6 
REMARK    6  A    between atoms: C_6  and  C_7 
REMARK    7  A    between atoms: C_7  and  C_8 
REMARK    8  A    between atoms: C_8  and  C_9 
REMARK    9  A    between atoms: C_9  and  C_10 
REMARK   10  A    between atoms: C_10  and  C_11 
REMARK   11  A    between atoms: C_11  and  C_12 
REMARK   12  A    between atoms: C_12  and  C_13 
REMARK   13  A    between atoms: C_13  and  C_14 
REMARK   14  A    between atoms: C_14  and  C_15 
REMARK   15  A    between atoms: C_15  and  C_16 
REMARK   16  A    between atoms: C_15  and  O_57 
REMARK       I    between atoms: C_16  and  N_18 
REMARK   17  A    between atoms: N_18  and  C_19 
REMARK   18  A    between atoms: C_19  and  C_21 
REMARK   19  A    between atoms: C_19  and  C_39 
REMARK   20  A    between atoms: C_21  and  O_22 
REMARK   21  A    between atoms: O_22  and  C_23 
REMARK   22  A    between atoms: C_25  and  O_38 
REMARK   23  A    between atoms: C_27  and  O_37 
REMARK   24  A    between atoms: C_29  and  O_36 
REMARK   25  A    between atoms: C_31  and  C_34 
REMARK   26  A    between atoms: C_34  and  O_35 
REMARK   27  A    between atoms: C_39  and  C_41 
REMARK   28  A    between atoms: C_39  and  O_56 
REMARK   29  A    between atoms: C_42  and  C_43 
REMARK   30  A    between atoms: C_43  and  C_44 
REMARK   31  A    between atoms: C_44  and  C_45 
REMARK   32  A    between atoms: C_46  and  C_47 
REMARK   33  A    between atoms: C_47  and  C_48 
REMARK   34  A    between atoms: C_48  and  C_49 
REMARK   35  A    between atoms: C_49  and  C_50 
REMARK   36  A    between atoms: C_50  and  C_51 
REMARK   37  A    between atoms: C_51  and  C_52 
REMARK   38  A    between atoms: C_52  and  C_53 
REMARK   39  A    between atoms: C_53  and  C_54 
REMARK   40  A    between atoms: C_54  and  C_55 
ROOT
ATOM      1  C   LIG d   1       2.147  -3.920 -10.310  0.00  0.00     0.076 C 
ATOM      2  H   LIG d   1       3.029  -3.615 -10.875  0.00  0.00     0.055 H 
ENDROOT
BRANCH   1   3
ATOM      3  N   LIG d   1       2.546  -4.305  -8.954  0.00  0.00    -0.305 N 
ATOM      4  C   LIG d   1       3.740  -3.917  -8.466  0.00  0.00     0.242 C 
ATOM      5  O   LIG d   1       4.486  -3.247  -9.150  0.00  0.00    -0.273 OA
ATOM      6  H   LIG d   1       1.951  -4.841  -8.407  0.00  0.00     0.149 HD
BRANCH   4   7
ATOM      7  C   LIG d   1       4.151  -4.314  -7.072  0.00  0.00     0.131 C 
ATOM      8  H   LIG d   1       4.280  -3.418  -6.463  0.00  0.00     0.069 H 
BRANCH   7   9
ATOM      9  C   LIG d   1       5.472  -5.085  -7.130  0.00  0.00    -0.018 C 
ATOM     10  H   LIG d   1       6.268  -4.417  -7.459  0.00  0.00     0.029 H 
ATOM     11  H   LIG d   1       5.379  -5.912  -7.833  0.00  0.00     0.029 H 
BRANCH   9  12
ATOM     12  C   LIG d   1       5.805  -5.631  -5.740  0.00  0.00    -0.050 C 
ATOM     13  H   LIG d   1       5.729  -6.718  -5.749  0.00  0.00     0.027 H 
ATOM     14  H   LIG d   1       5.103  -5.224  -5.012  0.00  0.00     0.027 H 
BRANCH  12  15
ATOM     15  C   LIG d   1       7.229  -5.222  -5.359  0.00  0.00    -0.053 C 
ATOM     16  H   LIG d   1       7.883  -6.092  -5.412  0.00  0.00     0.026 H 
ATOM     17  H   LIG d   1       7.234  -4.825  -4.344  0.00  0.00     0.026 H 
BRANCH  15  18
ATOM     18  C   LIG d   1       7.728  -4.150  -6.329  0.00  0.00    -0.053 C 
ATOM     19  H   LIG d   1       6.934  -3.898  -7.034  0.00  0.00     0.026 H 
ATOM     20  H   LIG d   1       8.592  -4.528  -6.876  0.00  0.00     0.026 H 
BRANCH  18  21
ATOM     21  C   LIG d   1       8.129  -2.898  -5.546  0.00  0.00    -0.053 C 
ATOM     22  H   LIG d   1       7.578  -2.039  -5.928  0.00  0.00     0.026 H 
ATOM     23  H   LIG d   1       9.199  -2.724  -5.662  0.00  0.00     0.026 H 
BRANCH  21  24
ATOM     24  C   LIG d   1       7.802  -3.097  -4.065  0.00  0.00    -0.053 C 
ATOM     25  H   LIG d   1       8.726  -3.107  -3.487  0.00  0.00     0.026 H 
ATOM     26  H   LIG d   1       7.279  -4.044  -3.932  0.00  0.00     0.026 H 
BRANCH  24  27
ATOM     27  C   LIG d   1       6.911  -1.950  -3.581  0.00  0.00    -0.053 C 
ATOM     28  H   LIG d   1       7.442  -1.005  -3.691  0.00  0.00     0.026 H 
ATOM     29  H   LIG d   1       6.658  -2.105  -2.532  0.00  0.00     0.026 H 
BRANCH  27  30
ATOM     30  C   LIG d   1       5.628  -1.915  -4.415  0.00  0.00    -0.053 C 
ATOM     31  H   LIG d   1       5.824  -2.335  -5.401  0.00  0.00     0.026 H 
ATOM     32  H   LIG d   1       5.291  -0.884  -4.520  0.00  0.00     0.026 H 
BRANCH  30  33
ATOM     33  C   LIG d   1       4.543  -2.737  -3.716  0.00  0.00    -0.053 C 
ATOM     34  H   LIG d   1       4.951  -3.705  -3.425  0.00  0.00     0.026 H 
ATOM     35  H   LIG d   1       3.704  -2.885  -4.396  0.00  0.00     0.026 H 
BRANCH  33  36
ATOM     36  C   LIG d   1       4.063  -1.991  -2.469  0.00  0.00    -0.053 C 
ATOM     37  H   LIG d   1       4.854  -1.331  -2.114  0.00  0.00     0.026 H 
ATOM     38  H   LIG d   1       3.812  -2.710  -1.689  0.00  0.00     0.026 H 
BRANCH  36  39
ATOM     39  C   LIG d   1       2.825  -1.163  -2.816  0.00  0.00    -0.053 C 
ATOM     40  H   LIG d   1       2.019  -1.404  -2.122  0.00  0.00     0.026 H 
ATOM     41  H   LIG d   1       2.508  -1.391  -3.834  0.00  0.00     0.026 H 
BRANCH  39  42
ATOM     42  C   LIG d   1       3.161   0.326  -2.708  0.00  0.00    -0.053 C 
ATOM     43  H   LIG d   1       2.329   0.853  -2.239  0.00  0.00     0.026 H 
ATOM     44  H   LIG d   1       3.332   0.733  -3.705  0.00  0.00     0.026 H 
BRANCH  42  45
ATOM     45  C   LIG d   1       4.422   0.506  -1.860  0.00  0.00    -0.056 C 
ATOM     46  H   LIG d   1       4.849  -0.472  -1.637  0.00  0.00     0.026 H 
ATOM     47  H   LIG d   1       4.165   1.011  -0.930  0.00  0.00     0.026 H 
BRANCH  45  48
ATOM     48  C   LIG d   1       5.441   1.345  -2.633  0.00  0.00    -0.065 C 
ATOM     49  H   LIG d   1       5.849   2.115  -1.977  0.00  0.00     0.023 H 
ATOM     50  H   LIG d   1       6.249   0.703  -2.985  0.00  0.00     0.023 H 
ATOM     51  H   LIG d   1       4.953   1.815  -3.486  0.00  0.00     0.023 H 
ENDBRANCH  45  48
ENDBRANCH  42  45
ENDBRANCH  39  42
ENDBRANCH  36  39
ENDBRANCH  33  36
ENDBRANCH  30  33
ENDBRANCH  27  30
ENDBRANCH  24  27
ENDBRANCH  21  24
ENDBRANCH  18  21
ENDBRANCH  15  18
ENDBRANCH  12  15
ENDBRANCH   9  12
ENDBRANCH   7   9
BRANCH   7  52
ATOM     52  O   LIG d   1       3.140  -5.142  -6.495  0.00  0.00    -0.383 OA
ATOM     53  H   LIG d   1       3.225  -5.258  -5.539  0.00  0.00     0.210 HD
ENDBRANCH   7  52
ENDBRANCH   4   7
ENDBRANCH   1   3
BRANCH   1  54
ATOM     54  C   LIG d   1       1.483  -5.111 -11.005  0.00  0.00     0.072 C 
ATOM     55  H   LIG d   1       0.844  -4.751 -11.811  0.00  0.00     0.058 H 
ATOM     56  H   LIG d   1       2.252  -5.766 -11.416  0.00  0.00     0.058 H 
BRANCH  54  57
ATOM     57  O   LIG d   1       0.696  -5.836 -10.058  0.00  0.00    -0.347 OA
BRANCH  57  58
ATOM     58  C   LIG d   1      -0.639  -6.101 -10.495  0.00  0.00     0.188 C 
ATOM     59  H   LIG d   1      -0.763  -7.172 -10.655  0.00  0.00     0.094 H 
ATOM     60  O   LIG d   1      -0.887  -5.406 -11.718  0.00  0.00    -0.341 OA
ATOM     61  C   LIG d   1      -2.191  -5.622 -12.258  0.00  0.00     0.113 C 
ATOM     62  C   LIG d   1      -3.244  -5.128 -11.263  0.00  0.00     0.112 C 
ATOM     63  H   LIG d   1      -2.337  -6.687 -12.442  0.00  0.00     0.065 H 
ATOM     64  C   LIG d   1      -3.058  -5.858  -9.930  0.00  0.00     0.114 C 
ATOM     65  H   LIG d   1      -3.125  -4.054 -11.111  0.00  0.00     0.065 H 
ATOM     66  C   LIG d   1      -1.628  -5.626  -9.428  0.00  0.00     0.134 C 
ATOM     67  H   LIG d   1      -3.225  -6.926 -10.072  0.00  0.00     0.065 H 
ATOM     68  H   LIG d   1      -1.477  -4.563  -9.239  0.00  0.00     0.067 H 
BRANCH  61  69
ATOM     69  C   LIG d   1      -2.334  -4.855 -13.575  0.00  0.00     0.073 C 
ATOM     70  H   LIG d   1      -2.276  -5.552 -14.410  0.00  0.00     0.058 H 
ATOM     71  H   LIG d   1      -3.297  -4.343 -13.594  0.00  0.00     0.058 H 
BRANCH  69  72
ATOM     72  O   LIG d   1      -1.282  -3.894 -13.682  0.00  0.00    -0.392 OA
ATOM     73  H   LIG d   1      -0.872  -3.854 -14.557  0.00  0.00     0.209 HD
ENDBRANCH  69  72
ENDBRANCH  61  69
BRANCH  62  74
ATOM     74  O   LIG d   1      -4.551  -5.395 -11.775  0.00  0.00    -0.387 OA
ATOM     75  H   LIG d   1      -5.199  -5.632 -11.098  0.00  0.00     0.210 HD
ENDBRANCH  62  74
BRANCH  64  76
ATOM     76  O   LIG d   1      -3.989  -5.352  -8.971  0.00  0.00    -0.386 OA
ATOM     77  H   LIG d   1      -4.612  -4.706  -9.331  0.00  0.00     0.210 HD
ENDBRANCH  64  76
BRANCH  66  78
ATOM     78  O   LIG d   1      -1.419  -6.361  -8.221  0.00  0.00    -0.384 OA
ATOM     79  H   LIG d   1      -0.650  -6.946  -8.245  0.00  0.00     0.210 HD
ENDBRANCH  66  78
ENDBRANCH  57  58
ENDBRANCH  54  57
ENDBRANCH   1  54
BRANCH   1  80
ATOM     80  C   LIG d   1       1.158  -2.754 -10.239  0.00  0.00     0.094 C 
ATOM     81  H   LIG d   1       0.699  -2.728  -9.251  0.00  0.00     0.066 H 
BRANCH  80  82
ATOM     82  C   LIG d   1       1.888  -1.460 -10.489  0.00  0.00    -0.058 C 
ATOM     83  C   LIG d   1       1.823  -0.491  -9.610  0.00  0.00    -0.085 C 
ATOM     84  H   LIG d   1       1.316  -0.648  -8.670  0.00  0.00     0.057 H 
ATOM     85  H   LIG d   1       2.464  -1.331 -11.393  0.00  0.00     0.059 H 
BRANCH  83  86
ATOM     86  C   LIG d   1       2.456   0.843  -9.911  0.00  0.00    -0.031 C 
ATOM     87  H   LIG d   1       3.179   0.727 -10.720  0.00  0.00     0.031 H 
ATOM     88  H   LIG d   1       1.685   1.551 -10.213  0.00  0.00     0.031 H 
BRANCH  86  89
ATOM     89  C   LIG d   1       3.168   1.364  -8.661  0.00  0.00    -0.031 C 
ATOM     90  H   LIG d   1       2.482   1.988  -8.087  0.00  0.00     0.031 H 
ATOM     91  H   LIG d   1       3.492   0.522  -8.051  0.00  0.00     0.031 H 
BRANCH  89  92
ATOM     92  C   LIG d   1       4.367   2.180  -9.071  0.00  0.00    -0.088 C 
ATOM     93  C   LIG d   1       5.565   1.653  -9.023  0.00  0.00    -0.088 C 
ATOM     94  H   LIG d   1       6.435   2.273  -9.180  0.00  0.00     0.057 H 
ATOM     95  H   LIG d   1       4.238   3.199  -9.405  0.00  0.00     0.057 H 
BRANCH  93  96
ATOM     96  C   LIG d   1       5.730   0.180  -8.749  0.00  0.00    -0.035 C 
ATOM     97  H   LIG d   1       4.753  -0.265  -8.555  0.00  0.00     0.031 H 
ATOM     98  H   LIG d   1       6.182  -0.302  -9.616  0.00  0.00     0.031 H 
BRANCH  96  99
ATOM     99  C   LIG d   1       6.630  -0.015  -7.529  0.00  0.00    -0.050 C 
ATOM    100  H   LIG d   1       6.508   0.828  -6.848  0.00  0.00     0.027 H 
ATOM    101  H   LIG d   1       6.356  -0.937  -7.018  0.00  0.00     0.027 H 
BRANCH  99 102
ATOM    102  C   LIG d   1       8.091  -0.096  -7.979  0.00  0.00    -0.053 C 
ATOM    103  H   LIG d   1       8.367  -1.140  -8.127  0.00  0.00     0.026 H 
ATOM    104  H   LIG d   1       8.213   0.448  -8.915  0.00  0.00     0.026 H 
BRANCH 102 105
ATOM    105  C   LIG d   1       8.990   0.522  -6.907  0.00  0.00    -0.053 C 
ATOM    106  H   LIG d   1       9.589  -0.260  -6.441  0.00  0.00     0.026 H 
ATOM    107  H   LIG d   1       9.648   1.259  -7.365  0.00  0.00     0.026 H 
BRANCH 105 108
ATOM    108  C   LIG d   1       8.124   1.201  -5.845  0.00  0.00    -0.053 C 
ATOM    109  H   LIG d   1       7.988   2.251  -6.104  0.00  0.00     0.026 H 
ATOM    110  H   LIG d   1       7.152   0.710  -5.798  0.00  0.00     0.026 H 
BRANCH 108 111
ATOM    111  C   LIG d   1       8.813   1.097  -4.482  0.00  0.00    -0.053 C 
ATOM    112  H   LIG d   1       8.344   0.305  -3.898  0.00  0.00     0.026 H 
ATOM    113  H   LIG d   1       9.868   0.867  -4.626  0.00  0.00     0.026 H 
BRANCH 111 114
ATOM    114  C   LIG d   1       8.677   2.428  -3.738  0.00  0.00    -0.053 C 
ATOM    115  H   LIG d   1       7.743   2.910  -4.025  0.00  0.00     0.026 H 
ATOM    116  H   LIG d   1       8.677   2.245  -2.663  0.00  0.00     0.026 H 
BRANCH 114 117
ATOM    117  C   LIG d   1       9.854   3.335  -4.102  0.00  0.00    -0.056 C 
ATOM    118  H   LIG d   1      10.378   3.632  -3.194  0.00  0.00     0.026 H 
ATOM    119  H   LIG d   1      10.538   2.798  -4.758  0.00  0.00     0.026 H 
BRANCH 117 120
ATOM    120  C   LIG d   1       9.332   4.582  -4.819  0.00  0.00    -0.065 C 
ATOM    121  H   LIG d   1       9.740   5.473  -4.343  0.00  0.00     0.023 H 
ATOM    122  H   LIG d   1       9.638   4.556  -5.864  0.00  0.00     0.023 H 
ATOM    123  H   LIG d   1       8.243   4.606  -4.761  0.00  0.00     0.023 H 
ENDBRANCH 117 120
ENDBRANCH 114 117
ENDBRANCH 111 114
ENDBRANCH 108 111
ENDBRANCH 105 108
ENDBRANCH 102 105
ENDBRANCH  99 102
ENDBRANCH  96  99
ENDBRANCH  93  96
ENDBRANCH  89  92
ENDBRANCH  86  89
ENDBRANCH  83  86
ENDBRANCH  80  82
BRANCH  80 124
ATOM    124  O   LIG d   1       0.144  -2.930 -11.230  0.00  0.00    -0.386 OA
ATOM    125  H   LIG d   1      -0.613  -3.452 -10.931  0.00  0.00     0.210 HD
ENDBRANCH  80 124
ENDBRANCH   1  80
TORSDOF 40
ENDMDL
MODEL 3
REMARK VINA RESULT:      -5.5      7.538     12.293
REMARK WARNING: 32 MAX_TORS EXCEEDED!!!
REMARK  40 active torsions:
REMARK  status: ('A' for Active; 'I' for Inactive)
REMARK    1  A    between atoms: C_1  and  C_2 
REMARK    2  A    between atoms: C_2  and  C_3 
REMARK    3  A    between atoms: C_3  and  C_4 
REMARK    4  A    between atoms: C_4  and  C_5 
REMARK    5  A    between atoms: C_5  and  C_6 
REMARK    6  A    between atoms: C_6  and  C_7 
REMARK    7  A    between atoms: C_7  and  C_8 
REMARK    8  A    between atoms: C_8  and  C_9 
REMARK    9  A    between atoms: C_9  and  C_10 
REMARK   10  A    between atoms: C_10  and  C_11 
REMARK   11  A    between atoms: C_11  and  C_12 
REMARK   12  A    between atoms: C_12  and  C_13 
REMARK   13  A    between atoms: C_13  and  C_14 
REMARK   14  A    between atoms: C_14  and  C_15 
REMARK   15  A    between atoms: C_15  and  C_16 
REMARK   16  A    between atoms: C_15  and  O_57 
REMARK       I    between atoms: C_16  and  N_18 
REMARK   17  A    between atoms: N_18  and  C_19 
REMARK   18  A    between atoms: C_19  and  C_21 
REMARK   19  A    between atoms: C_19  and  C_39 
REMARK   20  A    between atoms: C_21  and  O_22 
REMARK   21  A    between atoms: O_22  and  C_23 
REMARK   22  A    between atoms: C_25  and  O_38 
REMARK   23  A    between atoms: C_27  and  O_37 
REMARK   24  A    between atoms: C_29  and  O_36 
REMARK   25  A    between atoms: C_31  and  C_34 
REMARK   26  A    between atoms: C_34  and  O_35 
REMARK   27  A    between atoms: C_39  and  C_41 
REMARK   28  A    between atoms: C_39  and  O_56 
REMARK   29  A    between atoms: C_42  and  C_43 
REMARK   30  A    between atoms: C_43  and  C_44 
REMARK   31  A    between atoms: C_44  and  C_45 
REMARK   32  A    between atoms: C_46  and  C_47 
REMARK   33  A    between atoms: C_47  and  C_48 
REMARK   34  A    between atoms: C_48  and  C_49 
REMARK   35  A    between atoms: C_49  and  C_50 
REMARK   36  A    between atoms: C_50  and  C_51 
REMARK   37  A    between atoms: C_51  and  C_52 
REMARK   38  A    between atoms: C_52  and  C_53 
REMARK   39  A    between atoms: C_53  and  C_54 
REMARK   40  A    between atoms: C_54  and  C_55 
ROOT
ATOM      1  C   LIG d   1       2.641  -3.438 -11.070  0.00  0.00     0.076 C 
ATOM      2  H   LIG d   1       3.015  -4.393 -11.442  0.00  0.00     0.055 H 
ENDROOT
BRANCH   1   3
ATOM      3  N   LIG d   1       3.063  -3.259  -9.678  0.00  0.00    -0.305 N 
ATOM      4  C   LIG d   1       3.430  -4.326  -8.942  0.00  0.00     0.242 C 
ATOM      5  O   LIG d   1       3.413  -5.436  -9.432  0.00  0.00    -0.273 OA
ATOM      6  H   LIG d   1       3.077  -2.372  -9.286  0.00  0.00     0.149 HD
BRANCH   4   7
ATOM      7  C   LIG d   1       3.863  -4.142  -7.510  0.00  0.00     0.131 C 
ATOM      8  H   LIG d   1       3.692  -3.108  -7.210  0.00  0.00     0.069 H 
BRANCH   7   9
ATOM      9  C   LIG d   1       5.353  -4.470  -7.382  0.00  0.00    -0.018 C 
ATOM     10  H   LIG d   1       5.838  -3.718  -6.761  0.00  0.00     0.029 H 
ATOM     11  H   LIG d   1       5.810  -4.474  -8.372  0.00  0.00     0.029 H 
BRANCH   9  12
ATOM     12  C   LIG d   1       5.517  -5.849  -6.739  0.00  0.00    -0.050 C 
ATOM     13  H   LIG d   1       5.810  -6.572  -7.499  0.00  0.00     0.027 H 
ATOM     14  H   LIG d   1       4.572  -6.156  -6.291  0.00  0.00     0.027 H 
BRANCH  12  15
ATOM     15  C   LIG d   1       6.596  -5.780  -5.657  0.00  0.00    -0.053 C 
ATOM     16  H   LIG d   1       7.545  -6.127  -6.067  0.00  0.00     0.026 H 
ATOM     17  H   LIG d   1       6.309  -6.414  -4.817  0.00  0.00     0.026 H 
BRANCH  15  18
ATOM     18  C   LIG d   1       6.747  -4.336  -5.177  0.00  0.00    -0.053 C 
ATOM     19  H   LIG d   1       6.035  -4.143  -4.373  0.00  0.00     0.026 H 
ATOM     20  H   LIG d   1       6.550  -3.655  -6.005  0.00  0.00     0.026 H 
BRANCH  18  21
ATOM     21  C   LIG d   1       8.170  -4.114  -4.662  0.00  0.00    -0.053 C 
ATOM     22  H   LIG d   1       8.849  -4.007  -5.507  0.00  0.00     0.026 H 
ATOM     23  H   LIG d   1       8.474  -4.969  -4.058  0.00  0.00     0.026 H 
BRANCH  21  24
ATOM     24  C   LIG d   1       8.212  -2.846  -3.808  0.00  0.00    -0.053 C 
ATOM     25  H   LIG d   1       8.894  -2.126  -4.260  0.00  0.00     0.026 H 
ATOM     26  H   LIG d   1       8.559  -3.093  -2.805  0.00  0.00     0.026 H 
BRANCH  24  27
ATOM     27  C   LIG d   1       6.810  -2.239  -3.727  0.00  0.00    -0.053 C 
ATOM     28  H   LIG d   1       6.482  -2.218  -2.688  0.00  0.00     0.026 H 
ATOM     29  H   LIG d   1       6.118  -2.843  -4.314  0.00  0.00     0.026 H 
BRANCH  27  30
ATOM     30  C   LIG d   1       6.838  -0.813  -4.282  0.00  0.00    -0.053 C 
ATOM     31  H   LIG d   1       5.922  -0.622  -4.840  0.00  0.00     0.026 H 
ATOM     32  H   LIG d   1       7.697  -0.698  -4.944  0.00  0.00     0.026 H 
BRANCH  30  33
ATOM     33  C   LIG d   1       6.948   0.182  -3.125  0.00  0.00    -0.053 C 
ATOM     34  H   LIG d   1       7.798   0.843  -3.294  0.00  0.00     0.026 H 
ATOM     35  H   LIG d   1       7.090  -0.362  -2.191  0.00  0.00     0.026 H 
BRANCH  33  36
ATOM     36  C   LIG d   1       5.665   1.011  -3.043  0.00  0.00    -0.053 C 
ATOM     37  H   LIG d   1       5.188   1.040  -4.022  0.00  0.00     0.026 H 
ATOM     38  H   LIG d   1       5.908   2.026  -2.727  0.00  0.00     0.026 H 
BRANCH  36  39
ATOM     39  C   LIG d   1       4.712   0.376  -2.030  0.00  0.00    -0.053 C 
ATOM     40  H   LIG d   1       4.746   0.938  -1.095  0.00  0.00     0.026 H 
ATOM     41  H   LIG d   1       5.013  -0.655  -1.844  0.00  0.00     0.026 H 
BRANCH  39  42
ATOM     42  C   LIG d   1       3.287   0.399  -2.586  0.00  0.00    -0.053 C 
ATOM     43  H   LIG d   1       3.235   1.093  -3.426  0.00  0.00     0.026 H 
ATOM     44  H   LIG d   1       2.597   0.722  -1.806  0.00  0.00     0.026 H 
BRANCH  42  45
ATOM     45  C   LIG d   1       2.899  -1.003  -3.059  0.00  0.00    -0.056 C 
ATOM     46  H   LIG d   1       3.083  -1.087  -4.130  0.00  0.00     0.026 H 
ATOM     47  H   LIG d   1       1.843  -1.176  -2.857  0.00  0.00     0.026 H 
BRANCH  45  48
ATOM     48  C   LIG d   1       3.738  -2.044  -2.314  0.00  0.00    -0.065 C 
ATOM     49  H   LIG d   1       4.056  -2.820  -3.010  0.00  0.00     0.023 H 
ATOM     50  H   LIG d   1       4.615  -1.561  -1.882  0.00  0.00     0.023 H 
ATOM     51  H   LIG d   1       3.141  -2.490  -1.519  0.00  0.00     0.023 H 
ENDBRANCH  45  48
ENDBRANCH  42  45
ENDBRANCH  39  42
ENDBRANCH  36  39
ENDBRANCH  33  36
ENDBRANCH  30  33
ENDBRANCH  27  30
ENDBRANCH  24  27
ENDBRANCH  21  24
ENDBRANCH  18  21
ENDBRANCH  15  18
ENDBRANCH  12  15
ENDBRANCH   9  12
ENDBRANCH   7   9
BRANCH   7  52
ATOM     52  O   LIG d   1       3.108  -5.015  -6.669  0.00  0.00    -0.383 OA
ATOM     53  H   LIG d   1       2.464  -5.558  -7.143  0.00  0.00     0.210 HD
ENDBRANCH   7  52
ENDBRANCH   4   7
ENDBRANCH   1   3
BRANCH   1  54
ATOM     54  C   LIG d   1       1.113  -3.424 -11.147  0.00  0.00     0.072 C 
ATOM     55  H   LIG d   1       0.697  -3.585 -10.153  0.00  0.00     0.058 H 
ATOM     56  H   LIG d   1       0.778  -2.459 -11.530  0.00  0.00     0.058 H 
BRANCH  54  57
ATOM     57  O   LIG d   1       0.671  -4.462 -12.024  0.00  0.00    -0.347 OA
BRANCH  57  58
ATOM     58  C   LIG d   1      -0.510  -5.133 -11.581  0.00  0.00     0.188 C 
ATOM     59  H   LIG d   1      -0.613  -6.079 -12.111  0.00  0.00     0.094 H 
ATOM     60  O   LIG d   1      -1.651  -4.313 -11.844  0.00  0.00    -0.341 OA
ATOM     61  C   LIG d   1      -2.894  -4.901 -11.460  0.00  0.00     0.113 C 
ATOM     62  C   LIG d   1      -2.892  -5.158  -9.951  0.00  0.00     0.112 C 
ATOM     63  H   LIG d   1      -3.029  -5.845 -11.990  0.00  0.00     0.065 H 
ATOM     64  C   LIG d   1      -1.708  -6.062  -9.597  0.00  0.00     0.114 C 
ATOM     65  H   LIG d   1      -2.799  -4.210  -9.421  0.00  0.00     0.065 H 
ATOM     66  C   LIG d   1      -0.412  -5.399 -10.076  0.00  0.00     0.134 C 
ATOM     67  H   LIG d   1      -1.825  -7.028 -10.089  0.00  0.00     0.065 H 
ATOM     68  H   LIG d   1      -0.269  -4.456  -9.548  0.00  0.00     0.067 H 
BRANCH  61  69
ATOM     69  C   LIG d   1      -4.041  -3.951 -11.814  0.00  0.00     0.073 C 
ATOM     70  H   LIG d   1      -3.698  -3.227 -12.554  0.00  0.00     0.058 H 
ATOM     71  H   LIG d   1      -4.873  -4.524 -12.225  0.00  0.00     0.058 H 
BRANCH  69  72
ATOM     72  O   LIG d   1      -4.470  -3.264 -10.638  0.00  0.00    -0.392 OA
ATOM     73  H   LIG d   1      -4.287  -2.314 -10.647  0.00  0.00     0.209 HD
ENDBRANCH  69  72
ENDBRANCH  61  69
BRANCH  62  74
ATOM     74  O   LIG d   1      -4.112  -5.799  -9.572  0.00  0.00    -0.387 OA
ATOM     75  H   LIG d   1      -4.765  -5.853 -10.282  0.00  0.00     0.210 HD
ENDBRANCH  62  74
BRANCH  64  76
ATOM     76  O   LIG d   1      -1.653  -6.250  -8.182  0.00  0.00    -0.386 OA
ATOM     77  H   LIG d   1      -0.760  -6.389  -7.837  0.00  0.00     0.210 HD
ENDBRANCH  64  76
BRANCH  66  78
ATOM     78  O   LIG d   1       0.695  -6.265  -9.816  0.00  0.00    -0.384 OA
ATOM     79  H   LIG d   1       1.136  -6.096  -8.973  0.00  0.00     0.210 HD
ENDBRANCH  66  78
ENDBRANCH  57  58
ENDBRANCH  54  57
ENDBRANCH   1  54
BRANCH   1  80
ATOM     80  C   LIG d   1       3.206  -2.302 -11.924  0.00  0.00     0.094 C 
ATOM     81  H   LIG d   1       2.637  -2.228 -12.851  0.00  0.00     0.066 H 
BRANCH  80  82
ATOM     82  C   LIG d   1       3.103  -1.004 -11.166  0.00  0.00    -0.058 C 
ATOM     83  C   LIG d   1       3.834   0.024 -11.523  0.00  0.00    -0.085 C 
ATOM     84  H   LIG d   1       4.448  -0.034 -12.409  0.00  0.00     0.057 H 
ATOM     85  H   LIG d   1       2.425  -0.919 -10.329  0.00  0.00     0.059 H 
BRANCH  83  86
ATOM     86  C   LIG d   1       3.816   1.284 -10.697  0.00  0.00    -0.031 C 
ATOM     87  H   LIG d   1       4.716   1.326 -10.081  0.00  0.00     0.031 H 
ATOM     88  H   LIG d   1       3.788   2.151 -11.356  0.00  0.00     0.031 H 
BRANCH  86  89
ATOM     89  C   LIG d   1       2.580   1.285  -9.796  0.00  0.00    -0.031 C 
ATOM     90  H   LIG d   1       1.754   1.772 -10.314  0.00  0.00     0.031 H 
ATOM     91  H   LIG d   1       2.305   0.259  -9.555  0.00  0.00     0.031 H 
BRANCH  89  92
ATOM     92  C   LIG d   1       2.887   2.035  -8.525  0.00  0.00    -0.088 C 
ATOM     93  C   LIG d   1       2.921   1.398  -7.381  0.00  0.00    -0.088 C 
ATOM     94  H   LIG d   1       3.002   1.951  -6.457  0.00  0.00     0.057 H 
ATOM     95  H   LIG d   1       3.081   3.097  -8.557  0.00  0.00     0.057 H 
BRANCH  93  96
ATOM     96  C   LIG d   1       2.849  -0.107  -7.354  0.00  0.00    -0.035 C 
ATOM     97  H   LIG d   1       2.028  -0.420  -6.706  0.00  0.00     0.031 H 
ATOM     98  H   LIG d   1       2.676  -0.481  -8.363  0.00  0.00     0.031 H 
BRANCH  96  99
ATOM     99  C   LIG d   1       4.165  -0.672  -6.817  0.00  0.00    -0.050 C 
ATOM    100  H   LIG d   1       4.540  -0.027  -6.022  0.00  0.00     0.027 H 
ATOM    101  H   LIG d   1       3.997  -1.674  -6.424  0.00  0.00     0.027 H 
BRANCH  99 102
ATOM    102  C   LIG d   1       5.193  -0.733  -7.949  0.00  0.00    -0.053 C 
ATOM    103  H   LIG d   1       5.451  -1.774  -8.149  0.00  0.00     0.026 H 
ATOM    104  H   LIG d   1       4.772  -0.285  -8.848  0.00  0.00     0.026 H 
BRANCH 102 105
ATOM    105  C   LIG d   1       6.451   0.033  -7.537  0.00  0.00    -0.053 C 
ATOM    106  H   LIG d   1       6.307   0.462  -6.546  0.00  0.00     0.026 H 
ATOM    107  H   LIG d   1       7.302  -0.647  -7.519  0.00  0.00     0.026 H 
BRANCH 105 108
ATOM    108  C   LIG d   1       6.717   1.155  -8.543  0.00  0.00    -0.053 C 
ATOM    109  H   LIG d   1       6.941   0.723  -9.519  0.00  0.00     0.026 H 
ATOM    110  H   LIG d   1       5.835   1.790  -8.622  0.00  0.00     0.026 H 
BRANCH 108 111
ATOM    111  C   LIG d   1       7.907   1.993  -8.070  0.00  0.00    -0.053 C 
ATOM    112  H   LIG d   1       8.646   2.058  -8.869  0.00  0.00     0.026 H 
ATOM    113  H   LIG d   1       7.564   2.994  -7.809  0.00  0.00     0.026 H 
BRANCH 111 114
ATOM    114  C   LIG d   1       8.540   1.334  -6.843  0.00  0.00    -0.053 C 
ATOM    115  H   LIG d   1       7.909   0.512  -6.506  0.00  0.00     0.026 H 
ATOM    116  H   LIG d   1       9.527   0.951  -7.104  0.00  0.00     0.026 H 
BRANCH 114 117
ATOM    117  C   LIG d   1       8.673   2.367  -5.723  0.00  0.00    -0.056 C 
ATOM    118  H   LIG d   1       7.689   2.763  -5.474  0.00  0.00     0.026 H 
ATOM    119  H   LIG d   1       9.108   1.895  -4.842  0.00  0.00     0.026 H 
BRANCH 117 120
ATOM    120  C   LIG d   1       9.579   3.510  -6.190  0.00  0.00    -0.065 C 
ATOM    121  H   LIG d   1       9.300   4.428  -5.673  0.00  0.00     0.023 H 
ATOM    122  H   LIG d   1      10.616   3.266  -5.965  0.00  0.00     0.023 H 
ATOM    123  H   LIG d   1       9.462   3.649  -7.265  0.00  0.00     0.023 H 
ENDBRANCH 117 120
ENDBRANCH 114 117
ENDBRANCH 111 114
ENDBRANCH 108 111
ENDBRANCH 105 108
ENDBRANCH 102 105
ENDBRANCH  99 102
ENDBRANCH  96  99
ENDBRANCH  93  96
ENDBRANCH  89  92
ENDBRANCH  86  89
ENDBRANCH  83  86
ENDBRANCH  80  82
BRANCH  80 124
ATOM    124  O   LIG d   1       4.576  -2.569 -12.227  0.00  0.00    -0.386 OA
ATOM    125  H   LIG d   1       4.901  -2.117 -13.018  0.00  0.00     0.210 HD
ENDBRANCH  80 124
ENDBRANCH   1  80
TORSDOF 40
ENDMDL
MODEL 4
REMARK VINA RESULT:      -5.5      1.670      5.600
REMARK WARNING: 32 MAX_TORS EXCEEDED!!!
REMARK  40 active torsions:
REMARK  status: ('A' for Active; 'I' for Inactive)
REMARK    1  A    between atoms: C_1  and  C_2 
REMARK    2  A    between atoms: C_2  and  C_3 
REMARK    3  A    between atoms: C_3  and  C_4 
REMARK    4  A    between atoms: C_4  and  C_5 
REMARK    5  A    between atoms: C_5  and  C_6 
REMARK    6  A    between atoms: C_6  and  C_7 
REMARK    7  A    between atoms: C_7  and  C_8 
REMARK    8  A    between atoms: C_8  and  C_9 
REMARK    9  A    between atoms: C_9  and  C_10 
REMARK   10  A    between atoms: C_10  and  C_11 
REMARK   11  A    between atoms: C_11  and  C_12 
REMARK   12  A    between atoms: C_12  and  C_13 
REMARK   13  A    between atoms: C_13  and  C_14 
REMARK   14  A    between atoms: C_14  and  C_15 
REMARK   15  A    between atoms: C_15  and  C_16 
REMARK   16  A    between atoms: C_15  and  O_57 
REMARK       I    between atoms: C_16  and  N_18 
REMARK   17  A    between atoms: N_18  and  C_19 
REMARK   18  A    between atoms: C_19  and  C_21 
REMARK   19  A    between atoms: C_19  and  C_39 
REMARK   20  A    between atoms: C_21  and  O_22 
REMARK   21  A    between atoms: O_22  and  C_23 
REMARK   22  A    between atoms: C_25  and  O_38 
REMARK   23  A    between atoms: C_27  and  O_37 
REMARK   24  A    between atoms: C_29  and  O_36 
REMARK   25  A    between atoms: C_31  and  C_34 
REMARK   26  A    between atoms: C_34  and  O_35 
REMARK   27  A    between atoms: C_39  and  C_41 
REMARK   28  A    between atoms: C_39  and  O_56 
REMARK   29  A    between atoms: C_42  and  C_43 
REMARK   30  A    between atoms: C_43  and  C_44 
REMARK   31  A    between atoms: C_44  and  C_45 
REMARK   32  A    between atoms: C_46  and  C_47 
REMARK   33  A    between atoms: C_47  and  C_48 
REMARK   34  A    between atoms: C_48  and  C_49 
REMARK   35  A    between atoms: C_49  and  C_50 
REMARK   36  A    between atoms: C_50  and  C_51 
REMARK   37  A    between atoms: C_51  and  C_52 
REMARK   38  A    between atoms: C_52  and  C_53 
REMARK   39  A    between atoms: C_53  and  C_54 
REMARK   40  A    between atoms: C_54  and  C_55 
ROOT
ATOM      1  C   LIG d   1      10.711   4.188  -4.034  0.00  0.00     0.076 C 
ATOM      2  H   LIG d   1      11.751   4.059  -4.335  0.00  0.00     0.055 H 
ENDROOT
BRANCH   1   3
ATOM      3  N   LIG d   1       9.862   4.242  -5.226  0.00  0.00    -0.305 N 
ATOM      4  C   LIG d   1      10.416   4.185  -6.452  0.00  0.00     0.242 C 
ATOM      5  O   LIG d   1      11.620   4.088  -6.570  0.00  0.00    -0.273 OA
ATOM      6  H   LIG d   1       8.900   4.320  -5.132  0.00  0.00     0.149 HD
BRANCH   4   7
ATOM      7  C   LIG d   1       9.543   4.242  -7.679  0.00  0.00     0.131 C 
ATOM      8  H   LIG d   1       8.501   4.357  -7.378  0.00  0.00     0.069 H 
BRANCH   7   9
ATOM      9  C   LIG d   1       9.702   2.947  -8.478  0.00  0.00    -0.018 C 
ATOM     10  H   LIG d   1      10.758   2.773  -8.682  0.00  0.00     0.029 H 
ATOM     11  H   LIG d   1       9.160   3.032  -9.420  0.00  0.00     0.029 H 
BRANCH   9  12
ATOM     12  C   LIG d   1       9.138   1.777  -7.669  0.00  0.00    -0.050 C 
ATOM     13  H   LIG d   1       9.286   1.966  -6.606  0.00  0.00     0.027 H 
ATOM     14  H   LIG d   1       9.653   0.859  -7.950  0.00  0.00     0.027 H 
BRANCH  12  15
ATOM     15  C   LIG d   1       7.643   1.632  -7.957  0.00  0.00    -0.053 C 
ATOM     16  H   LIG d   1       7.199   2.620  -8.085  0.00  0.00     0.026 H 
ATOM     17  H   LIG d   1       7.159   1.121  -7.124  0.00  0.00     0.026 H 
BRANCH  15  18
ATOM     18  C   LIG d   1       7.446   0.817  -9.237  0.00  0.00    -0.053 C 
ATOM     19  H   LIG d   1       7.598  -0.241  -9.021  0.00  0.00     0.026 H 
ATOM     20  H   LIG d   1       8.167   1.141  -9.988  0.00  0.00     0.026 H 
BRANCH  18  21
ATOM     21  C   LIG d   1       6.027   1.031  -9.767  0.00  0.00    -0.053 C 
ATOM     22  H   LIG d   1       5.422   0.151  -9.548  0.00  0.00     0.026 H 
ATOM     23  H   LIG d   1       6.062   1.188 -10.845  0.00  0.00     0.026 H 
BRANCH  21  24
ATOM     24  C   LIG d   1       5.410   2.256  -9.091  0.00  0.00    -0.053 C 
ATOM     25  H   LIG d   1       6.037   3.128  -9.275  0.00  0.00     0.026 H 
ATOM     26  H   LIG d   1       5.336   2.082  -8.018  0.00  0.00     0.026 H 
BRANCH  24  27
ATOM     27  C   LIG d   1       4.012   2.505  -9.664  0.00  0.00    -0.053 C 
ATOM     28  H   LIG d   1       3.899   1.955 -10.598  0.00  0.00     0.026 H 
ATOM     29  H   LIG d   1       3.881   3.570  -9.852  0.00  0.00     0.026 H 
BRANCH  27  30
ATOM     30  C   LIG d   1       2.958   2.029  -8.661  0.00  0.00    -0.053 C 
ATOM     31  H   LIG d   1       2.235   2.826  -8.490  0.00  0.00     0.026 H 
ATOM     32  H   LIG d   1       3.443   1.770  -7.721  0.00  0.00     0.026 H 
BRANCH  30  33
ATOM     33  C   LIG d   1       2.240   0.800  -9.222  0.00  0.00    -0.053 C 
ATOM     34  H   LIG d   1       2.687   0.520 -10.175  0.00  0.00     0.026 H 
ATOM     35  H   LIG d   1       1.185   1.032  -9.368  0.00  0.00     0.026 H 
BRANCH  33  36
ATOM     36  C   LIG d   1       2.374  -0.362  -8.235  0.00  0.00    -0.053 C 
ATOM     37  H   LIG d   1       2.790  -1.228  -8.749  0.00  0.00     0.026 H 
ATOM     38  H   LIG d   1       1.392  -0.614  -7.835  0.00  0.00     0.026 H 
BRANCH  36  39
ATOM     39  C   LIG d   1       3.303   0.046  -7.090  0.00  0.00    -0.053 C 
ATOM     40  H   LIG d   1       2.779  -0.062  -6.140  0.00  0.00     0.026 H 
ATOM     41  H   LIG d   1       3.607   1.085  -7.222  0.00  0.00     0.026 H 
BRANCH  39  42
ATOM     42  C   LIG d   1       4.541  -0.852  -7.093  0.00  0.00    -0.053 C 
ATOM     43  H   LIG d   1       4.778  -1.148  -6.070  0.00  0.00     0.026 H 
ATOM     44  H   LIG d   1       5.384  -0.308  -7.519  0.00  0.00     0.026 H 
BRANCH  42  45
ATOM     45  C   LIG d   1       4.264  -2.101  -7.932  0.00  0.00    -0.056 C 
ATOM     46  H   LIG d   1       3.394  -1.927  -8.565  0.00  0.00     0.026 H 
ATOM     47  H   LIG d   1       4.071  -2.947  -7.273  0.00  0.00     0.026 H 
BRANCH  45  48
ATOM     48  C   LIG d   1       5.480  -2.407  -8.810  0.00  0.00    -0.065 C 
ATOM     49  H   LIG d   1       5.921  -3.355  -8.503  0.00  0.00     0.023 H 
ATOM     50  H   LIG d   1       5.168  -2.471  -9.853  0.00  0.00     0.023 H 
ATOM     51  H   LIG d   1       6.217  -1.611  -8.700  0.00  0.00     0.023 H 
ENDBRANCH  45  48
ENDBRANCH  42  45
ENDBRANCH  39  42
ENDBRANCH  36  39
ENDBRANCH  33  36
ENDBRANCH  30  33
ENDBRANCH  27  30
ENDBRANCH  24  27
ENDBRANCH  21  24
ENDBRANCH  18  21
ENDBRANCH  15  18
ENDBRANCH  12  15
ENDBRANCH   9  12
ENDBRANCH   7   9
BRANCH   7  52
ATOM     52  O   LIG d   1       9.931   5.353  -8.489  0.00  0.00    -0.383 OA
ATOM     53  H   LIG d   1      10.290   6.099  -7.988  0.00  0.00     0.210 HD
ENDBRANCH   7  52
ENDBRANCH   4   7
ENDBRANCH   1   3
BRANCH   1  54
ATOM     54  C   LIG d   1      10.567   5.490  -3.243  0.00  0.00     0.072 C 
ATOM     55  H   LIG d   1      11.463   6.095  -3.372  0.00  0.00     0.058 H 
ATOM     56  H   LIG d   1       9.700   6.042  -3.609  0.00  0.00     0.058 H 
BRANCH  54  57
ATOM     57  O   LIG d   1      10.389   5.188  -1.858  0.00  0.00    -0.347 OA
BRANCH  57  58
ATOM     58  C   LIG d   1      10.102   6.329  -1.047  0.00  0.00     0.188 C 
ATOM     59  H   LIG d   1       9.143   6.190  -0.549  0.00  0.00     0.094 H 
ATOM     60  O   LIG d   1      10.046   7.496  -1.870  0.00  0.00    -0.341 OA
ATOM     61  C   LIG d   1       9.740   8.697  -1.159  0.00  0.00     0.113 C 
ATOM     62  C   LIG d   1      10.826   8.962  -0.114  0.00  0.00     0.112 C 
ATOM     63  H   LIG d   1       8.775   8.589  -0.662  0.00  0.00     0.065 H 
ATOM     64  C   LIG d   1      10.921   7.758   0.828  0.00  0.00     0.114 C 
ATOM     65  H   LIG d   1      11.784   9.111  -0.613  0.00  0.00     0.065 H 
ATOM     66  C   LIG d   1      11.203   6.498   0.003  0.00  0.00     0.134 C 
ATOM     67  H   LIG d   1       9.980   7.639   1.365  0.00  0.00     0.065 H 
ATOM     68  H   LIG d   1      12.168   6.597  -0.494  0.00  0.00     0.067 H 
BRANCH  61  69
ATOM     69  C   LIG d   1       9.679   9.870  -2.141  0.00  0.00     0.073 C 
ATOM     70  H   LIG d   1      10.562  10.496  -2.013  0.00  0.00     0.058 H 
ATOM     71  H   LIG d   1       9.649   9.487  -3.162  0.00  0.00     0.058 H 
BRANCH  69  72
ATOM     72  O   LIG d   1       8.505  10.642  -1.887  0.00  0.00    -0.392 OA
ATOM     73  H   LIG d   1       8.244  10.670  -0.956  0.00  0.00     0.209 HD
ENDBRANCH  69  72
ENDBRANCH  61  69
BRANCH  62  74
ATOM     74  O   LIG d   1      10.493  10.131   0.637  0.00  0.00    -0.387 OA
ATOM     75  H   LIG d   1      10.332   9.964   1.576  0.00  0.00     0.210 HD
ENDBRANCH  62  74
BRANCH  64  76
ATOM     76  O   LIG d   1      11.982   7.964   1.764  0.00  0.00    -0.386 OA
ATOM     77  H   LIG d   1      11.920   8.797   2.252  0.00  0.00     0.210 HD
ENDBRANCH  64  76
BRANCH  66  78
ATOM     78  O   LIG d   1      11.223   5.357   0.863  0.00  0.00    -0.384 OA
ATOM     79  H   LIG d   1      12.110   5.019   1.046  0.00  0.00     0.210 HD
ENDBRANCH  66  78
ENDBRANCH  57  58
ENDBRANCH  54  57
ENDBRANCH   1  54
BRANCH   1  80
ATOM     80  C   LIG d   1      10.285   3.008  -3.157  0.00  0.00     0.094 C 
ATOM     81  H   LIG d   1       9.731   3.379  -2.295  0.00  0.00     0.066 H 
BRANCH  80  82
ATOM     82  C   LIG d   1       9.408   2.079  -3.955  0.00  0.00    -0.058 C 
ATOM     83  C   LIG d   1       8.125   2.005  -3.698  0.00  0.00    -0.085 C 
ATOM     84  H   LIG d   1       7.682   2.669  -2.970  0.00  0.00     0.057 H 
ATOM     85  H   LIG d   1       9.836   1.474  -4.740  0.00  0.00     0.059 H 
BRANCH  83  86
ATOM     86  C   LIG d   1       7.270   0.994  -4.417  0.00  0.00    -0.031 C 
ATOM     87  H   LIG d   1       6.620   1.508  -5.126  0.00  0.00     0.031 H 
ATOM     88  H   LIG d   1       7.909   0.292  -4.952  0.00  0.00     0.031 H 
BRANCH  86  89
ATOM     89  C   LIG d   1       6.415   0.235  -3.400  0.00  0.00    -0.031 C 
ATOM     90  H   LIG d   1       5.803  -0.503  -3.919  0.00  0.00     0.031 H 
ATOM     91  H   LIG d   1       7.064  -0.270  -2.685  0.00  0.00     0.031 H 
BRANCH  89  92
ATOM     92  C   LIG d   1       5.523   1.205  -2.670  0.00  0.00    -0.088 C 
ATOM     93  C   LIG d   1       4.485   0.766  -2.002  0.00  0.00    -0.088 C 
ATOM     94  H   LIG d   1       3.768   1.465  -1.598  0.00  0.00     0.057 H 
ATOM     95  H   LIG d   1       5.739   2.264  -2.697  0.00  0.00     0.057 H 
BRANCH  93  96
ATOM     96  C   LIG d   1       4.292  -0.714  -1.798  0.00  0.00    -0.035 C 
ATOM     97  H   LIG d   1       5.187  -1.246  -2.124  0.00  0.00     0.031 H 
ATOM     98  H   LIG d   1       4.116  -0.915  -0.740  0.00  0.00     0.031 H 
BRANCH  96  99
ATOM     99  C   LIG d   1       3.091  -1.191  -2.615  0.00  0.00    -0.050 C 
ATOM    100  H   LIG d   1       2.502  -1.892  -2.022  0.00  0.00     0.027 H 
ATOM    101  H   LIG d   1       2.473  -0.335  -2.886  0.00  0.00     0.027 H 
BRANCH  99 102
ATOM    102  C   LIG d   1       3.582  -1.888  -3.886  0.00  0.00    -0.053 C 
ATOM    103  H   LIG d   1       2.788  -2.522  -4.282  0.00  0.00     0.026 H 
ATOM    104  H   LIG d   1       3.852  -1.139  -4.630  0.00  0.00     0.026 H 
BRANCH 102 105
ATOM    105  C   LIG d   1       4.805  -2.746  -3.558  0.00  0.00    -0.053 C 
ATOM    106  H   LIG d   1       5.686  -2.110  -3.484  0.00  0.00     0.026 H 
ATOM    107  H   LIG d   1       4.646  -3.258  -2.609  0.00  0.00     0.026 H 
BRANCH 105 108
ATOM    108  C   LIG d   1       5.014  -3.780  -4.665  0.00  0.00    -0.053 C 
ATOM    109  H   LIG d   1       4.995  -4.782  -4.236  0.00  0.00     0.026 H 
ATOM    110  H   LIG d   1       4.218  -3.688  -5.405  0.00  0.00     0.026 H 
BRANCH 108 111
ATOM    111  C   LIG d   1       6.366  -3.539  -5.340  0.00  0.00    -0.053 C 
ATOM    112  H   LIG d   1       6.608  -4.386  -5.982  0.00  0.00     0.026 H 
ATOM    113  H   LIG d   1       6.314  -2.630  -5.940  0.00  0.00     0.026 H 
BRANCH 111 114
ATOM    114  C   LIG d   1       7.449  -3.384  -4.271  0.00  0.00    -0.053 C 
ATOM    115  H   LIG d   1       7.004  -2.990  -3.357  0.00  0.00     0.026 H 
ATOM    116  H   LIG d   1       7.900  -4.356  -4.067  0.00  0.00     0.026 H 
BRANCH 114 117
ATOM    117  C   LIG d   1       8.524  -2.418  -4.772  0.00  0.00    -0.056 C 
ATOM    118  H   LIG d   1       8.491  -1.500  -4.186  0.00  0.00     0.026 H 
ATOM    119  H   LIG d   1       9.506  -2.880  -4.670  0.00  0.00     0.026 H 
BRANCH 117 120
ATOM    120  C   LIG d   1       8.266  -2.090  -6.245  0.00  0.00    -0.065 C 
ATOM    121  H   LIG d   1       7.215  -1.838  -6.383  0.00  0.00     0.023 H 
ATOM    122  H   LIG d   1       8.886  -1.245  -6.544  0.00  0.00     0.023 H 
ATOM    123  H   LIG d   1       8.514  -2.957  -6.859  0.00  0.00     0.023 H 
ENDBRANCH 117 120
ENDBRANCH 114 117
ENDBRANCH 111 114
ENDBRANCH 108 111
ENDBRANCH 105 108
ENDBRANCH 102 105
ENDBRANCH  99 102
ENDBRANCH  96  99
ENDBRANCH  93  96
ENDBRANCH  89  92
ENDBRANCH  86  89
ENDBRANCH  83  86
ENDBRANCH  80  82
BRANCH  80 124
ATOM    124  O   LIG d   1      11.444   2.303  -2.710  0.00  0.00    -0.386 OA
ATOM    125  H   LIG d   1      11.946   1.880  -3.421  0.00  0.00     0.210 HD
ENDBRANCH  80 124
ENDBRANCH   1  80
TORSDOF 40
ENDMDL
MODEL 5
REMARK VINA RESULT:      -5.4      1.636      4.625
REMARK WARNING: 32 MAX_TORS EXCEEDED!!!
REMARK  40 active torsions:
REMARK  status: ('A' for Active; 'I' for Inactive)
REMARK    1  A    between atoms: C_1  and  C_2 
REMARK    2  A    between atoms: C_2  and  C_3 
REMARK    3  A    between atoms: C_3  and  C_4 
REMARK    4  A    between atoms: C_4  and  C_5 
REMARK    5  A    between atoms: C_5  and  C_6 
REMARK    6  A    between atoms: C_6  and  C_7 
REMARK    7  A    between atoms: C_7  and  C_8 
REMARK    8  A    between atoms: C_8  and  C_9 
REMARK    9  A    between atoms: C_9  and  C_10 
REMARK   10  A    between atoms: C_10  and  C_11 
REMARK   11  A    between atoms: C_11  and  C_12 
REMARK   12  A    between atoms: C_12  and  C_13 
REMARK   13  A    between atoms: C_13  and  C_14 
REMARK   14  A    between atoms: C_14  and  C_15 
REMARK   15  A    between atoms: C_15  and  C_16 
REMARK   16  A    between atoms: C_15  and  O_57 
REMARK       I    between atoms: C_16  and  N_18 
REMARK   17  A    between atoms: N_18  and  C_19 
REMARK   18  A    between atoms: C_19  and  C_21 
REMARK   19  A    between atoms: C_19  and  C_39 
REMARK   20  A    between atoms: C_21  and  O_22 
REMARK   21  A    between atoms: O_22  and  C_23 
REMARK   22  A    between atoms: C_25  and  O_38 
REMARK   23  A    between atoms: C_27  and  O_37 
REMARK   24  A    between atoms: C_29  and  O_36 
REMARK   25  A    between atoms: C_31  and  C_34 
REMARK   26  A    between atoms: C_34  and  O_35 
REMARK   27  A    between atoms: C_39  and  C_41 
REMARK   28  A    between atoms: C_39  and  O_56 
REMARK   29  A    between atoms: C_42  and  C_43 
REMARK   30  A    between atoms: C_43  and  C_44 
REMARK   31  A    between atoms: C_44  and  C_45 
REMARK   32  A    between atoms: C_46  and  C_47 
REMARK   33  A    between atoms: C_47  and  C_48 
REMARK   34  A    between atoms: C_48  and  C_49 
REMARK   35  A    between atoms: C_49  and  C_50 
REMARK   36  A    between atoms: C_50  and  C_51 
REMARK   37  A    between atoms: C_51  and  C_52 
REMARK   38  A    between atoms: C_52  and  C_53 
REMARK   39  A    between atoms: C_53  and  C_54 
REMARK   40  A    between atoms: C_54  and  C_55 
ROOT
ATOM      1  C   LIG d   1      10.389   4.676  -4.047  0.00  0.00     0.076 C 
ATOM      2  H   LIG d   1      11.436   4.424  -4.216  0.00  0.00     0.055 H 
ENDROOT
BRANCH   1   3
ATOM      3  N   LIG d   1       9.654   4.578  -5.312  0.00  0.00    -0.305 N 
ATOM      4  C   LIG d   1      10.325   4.469  -6.474  0.00  0.00     0.242 C 
ATOM      5  O   LIG d   1      11.538   4.451  -6.476  0.00  0.00    -0.273 OA
ATOM      6  H   LIG d   1       8.684   4.593  -5.310  0.00  0.00     0.149 HD
BRANCH   4   7
ATOM      7  C   LIG d   1       9.569   4.370  -7.775  0.00  0.00     0.131 C 
ATOM      8  H   LIG d   1       8.539   4.692  -7.621  0.00  0.00     0.069 H 
BRANCH   7   9
ATOM      9  C   LIG d   1       9.583   2.919  -8.262  0.00  0.00    -0.018 C 
ATOM     10  H   LIG d   1      10.513   2.441  -7.955  0.00  0.00     0.029 H 
ATOM     11  H   LIG d   1       9.507   2.900  -9.349  0.00  0.00     0.029 H 
BRANCH   9  12
ATOM     12  C   LIG d   1       8.397   2.167  -7.654  0.00  0.00    -0.050 C 
ATOM     13  H   LIG d   1       8.054   2.690  -6.762  0.00  0.00     0.027 H 
ATOM     14  H   LIG d   1       8.707   1.156  -7.387  0.00  0.00     0.027 H 
BRANCH  12  15
ATOM     15  C   LIG d   1       7.260   2.098  -8.675  0.00  0.00    -0.053 C 
ATOM     16  H   LIG d   1       7.552   2.630  -9.581  0.00  0.00     0.026 H 
ATOM     17  H   LIG d   1       6.366   2.559  -8.255  0.00  0.00     0.026 H 
BRANCH  15  18
ATOM     18  C   LIG d   1       6.967   0.636  -9.016  0.00  0.00    -0.053 C 
ATOM     19  H   LIG d   1       7.753   0.250  -9.668  0.00  0.00     0.026 H 
ATOM     20  H   LIG d   1       6.006   0.567  -9.525  0.00  0.00     0.026 H 
BRANCH  18  21
ATOM     21  C   LIG d   1       6.923  -0.190  -7.729  0.00  0.00    -0.053 C 
ATOM     22  H   LIG d   1       5.887  -0.416  -7.479  0.00  0.00     0.026 H 
ATOM     23  H   LIG d   1       7.376   0.379  -6.917  0.00  0.00     0.026 H 
BRANCH  21  24
ATOM     24  C   LIG d   1       7.696  -1.494  -7.932  0.00  0.00    -0.053 C 
ATOM     25  H   LIG d   1       7.955  -1.603  -8.985  0.00  0.00     0.026 H 
ATOM     26  H   LIG d   1       7.078  -2.336  -7.621  0.00  0.00     0.026 H 
BRANCH  24  27
ATOM     27  C   LIG d   1       8.976  -1.464  -7.093  0.00  0.00    -0.053 C 
ATOM     28  H   LIG d   1       8.940  -0.619  -6.406  0.00  0.00     0.026 H 
ATOM     29  H   LIG d   1       9.839  -1.360  -7.751  0.00  0.00     0.026 H 
BRANCH  27  30
ATOM     30  C   LIG d   1       9.095  -2.766  -6.298  0.00  0.00    -0.053 C 
ATOM     31  H   LIG d   1       9.948  -3.337  -6.663  0.00  0.00     0.026 H 
ATOM     32  H   LIG d   1       8.185  -3.352  -6.423  0.00  0.00     0.026 H 
BRANCH  30  33
ATOM     33  C   LIG d   1       9.294  -2.441  -4.816  0.00  0.00    -0.053 C 
ATOM     34  H   LIG d   1       9.077  -1.387  -4.642  0.00  0.00     0.026 H 
ATOM     35  H   LIG d   1      10.325  -2.652  -4.533  0.00  0.00     0.026 H 
BRANCH  33  36
ATOM     36  C   LIG d   1       8.348  -3.301  -3.975  0.00  0.00    -0.053 C 
ATOM     37  H   LIG d   1       7.880  -2.683  -3.210  0.00  0.00     0.026 H 
ATOM     38  H   LIG d   1       8.913  -4.102  -3.499  0.00  0.00     0.026 H 
BRANCH  36  39
ATOM     39  C   LIG d   1       7.269  -3.902  -4.876  0.00  0.00    -0.053 C 
ATOM     40  H   LIG d   1       7.201  -4.976  -4.696  0.00  0.00     0.026 H 
ATOM     41  H   LIG d   1       7.526  -3.724  -5.920  0.00  0.00     0.026 H 
BRANCH  39  42
ATOM     42  C   LIG d   1       5.921  -3.248  -4.564  0.00  0.00    -0.053 C 
ATOM     43  H   LIG d   1       5.951  -2.197  -4.855  0.00  0.00     0.026 H 
ATOM     44  H   LIG d   1       5.719  -3.324  -3.496  0.00  0.00     0.026 H 
BRANCH  42  45
ATOM     45  C   LIG d   1       4.814  -3.961  -5.344  0.00  0.00    -0.056 C 
ATOM     46  H   LIG d   1       3.850  -3.745  -4.884  0.00  0.00     0.026 H 
ATOM     47  H   LIG d   1       4.993  -5.036  -5.328  0.00  0.00     0.026 H 
BRANCH  45  48
ATOM     48  C   LIG d   1       4.811  -3.467  -6.793  0.00  0.00    -0.065 C 
ATOM     49  H   LIG d   1       5.387  -4.153  -7.412  0.00  0.00     0.023 H 
ATOM     50  H   LIG d   1       3.785  -3.421  -7.158  0.00  0.00     0.023 H 
ATOM     51  H   LIG d   1       5.258  -2.474  -6.839  0.00  0.00     0.023 H 
ENDBRANCH  45  48
ENDBRANCH  42  45
ENDBRANCH  39  42
ENDBRANCH  36  39
ENDBRANCH  33  36
ENDBRANCH  30  33
ENDBRANCH  27  30
ENDBRANCH  24  27
ENDBRANCH  21  24
ENDBRANCH  18  21
ENDBRANCH  15  18
ENDBRANCH  12  15
ENDBRANCH   9  12
ENDBRANCH   7   9
BRANCH   7  52
ATOM     52  O   LIG d   1      10.190   5.207  -8.751  0.00  0.00    -0.383 OA
ATOM     53  H   LIG d   1       9.857   5.077  -9.650  0.00  0.00     0.210 HD
ENDBRANCH   7  52
ENDBRANCH   4   7
ENDBRANCH   1   3
BRANCH   1  54
ATOM     54  C   LIG d   1      10.289   6.104  -3.506  0.00  0.00     0.072 C 
ATOM     55  H   LIG d   1      11.250   6.404  -3.093  0.00  0.00     0.058 H 
ATOM     56  H   LIG d   1      10.013   6.780  -4.317  0.00  0.00     0.058 H 
BRANCH  54  57
ATOM     57  O   LIG d   1       9.292   6.156  -2.484  0.00  0.00    -0.347 OA
BRANCH  57  58
ATOM     58  C   LIG d   1       9.516   7.175  -1.507  0.00  0.00     0.188 C 
ATOM     59  H   LIG d   1       8.630   7.281  -0.881  0.00  0.00     0.094 H 
ATOM     60  O   LIG d   1       9.784   8.415  -2.165  0.00  0.00    -0.341 OA
ATOM     61  C   LIG d   1      10.000   9.512  -1.277  0.00  0.00     0.113 C 
ATOM     62  C   LIG d   1      11.217   9.223  -0.394  0.00  0.00     0.112 C 
ATOM     63  H   LIG d   1       9.120   9.649  -0.648  0.00  0.00     0.065 H 
ATOM     64  C   LIG d   1      10.985   7.916   0.370  0.00  0.00     0.114 C 
ATOM     65  H   LIG d   1      12.105   9.127  -1.020  0.00  0.00     0.065 H 
ATOM     66  C   LIG d   1      10.713   6.791  -0.635  0.00  0.00     0.134 C 
ATOM     67  H   LIG d   1      10.127   8.028   1.032  0.00  0.00     0.065 H 
ATOM     68  H   LIG d   1      11.591   6.646  -1.265  0.00  0.00     0.067 H 
BRANCH  61  69
ATOM     69  C   LIG d   1      10.249  10.786  -2.088  0.00  0.00     0.073 C 
ATOM     70  H   LIG d   1      11.156  11.273  -1.731  0.00  0.00     0.058 H 
ATOM     71  H   LIG d   1      10.365  10.528  -3.141  0.00  0.00     0.058 H 
BRANCH  69  72
ATOM     72  O   LIG d   1       9.139  11.673  -1.935  0.00  0.00    -0.392 OA
ATOM     73  H   LIG d   1       8.662  11.567  -1.100  0.00  0.00     0.209 HD
ENDBRANCH  69  72
ENDBRANCH  61  69
BRANCH  62  74
ATOM     74  O   LIG d   1      11.401  10.293   0.534  0.00  0.00    -0.387 OA
ATOM     75  H   LIG d   1      12.248  10.751   0.445  0.00  0.00     0.210 HD
ENDBRANCH  62  74
BRANCH  64  76
ATOM     76  O   LIG d   1      12.146   7.599   1.141  0.00  0.00    -0.386 OA
ATOM     77  H   LIG d   1      12.943   7.459   0.612  0.00  0.00     0.210 HD
ENDBRANCH  64  76
BRANCH  66  78
ATOM     78  O   LIG d   1      10.424   5.581   0.068  0.00  0.00    -0.384 OA
ATOM     79  H   LIG d   1      11.192   5.188   0.507  0.00  0.00     0.210 HD
ENDBRANCH  66  78
ENDBRANCH  57  58
ENDBRANCH  54  57
ENDBRANCH   1  54
BRANCH   1  80
ATOM     80  C   LIG d   1       9.787   3.702  -3.031  0.00  0.00     0.094 C 
ATOM     81  H   LIG d   1       8.932   4.169  -2.544  0.00  0.00     0.066 H 
BRANCH  80  82
ATOM     82  C   LIG d   1       9.340   2.449  -3.739  0.00  0.00    -0.058 C 
ATOM     83  C   LIG d   1       8.079   2.095  -3.711  0.00  0.00    -0.085 C 
ATOM     84  H   LIG d   1       7.348   2.742  -3.251  0.00  0.00     0.057 H 
ATOM     85  H   LIG d   1      10.059   1.843  -4.270  0.00  0.00     0.059 H 
BRANCH  83  86
ATOM     86  C   LIG d   1       7.651   0.784  -4.319  0.00  0.00    -0.031 C 
ATOM     87  H   LIG d   1       7.149   0.973  -5.269  0.00  0.00     0.031 H 
ATOM     88  H   LIG d   1       8.527   0.160  -4.489  0.00  0.00     0.031 H 
BRANCH  86  89
ATOM     89  C   LIG d   1       6.691   0.070  -3.366  0.00  0.00    -0.031 C 
ATOM     90  H   LIG d   1       6.092  -0.649  -3.927  0.00  0.00     0.031 H 
ATOM     91  H   LIG d   1       7.261  -0.451  -2.599  0.00  0.00     0.031 H 
BRANCH  89  92
ATOM     92  C   LIG d   1       5.783   1.083  -2.717  0.00  0.00    -0.088 C 
ATOM     93  C   LIG d   1       4.664   0.695  -2.158  0.00  0.00    -0.088 C 
ATOM     94  H   LIG d   1       3.948   1.428  -1.817  0.00  0.00     0.057 H 
ATOM     95  H   LIG d   1       6.055   2.128  -2.713  0.00  0.00     0.057 H 
BRANCH  93  96
ATOM     96  C   LIG d   1       4.375  -0.774  -1.987  0.00  0.00    -0.035 C 
ATOM     97  H   LIG d   1       5.202  -1.356  -2.396  0.00  0.00     0.031 H 
ATOM     98  H   LIG d   1       4.261  -1.001  -0.927  0.00  0.00     0.031 H 
BRANCH  96  99
ATOM     99  C   LIG d   1       3.086  -1.131  -2.728  0.00  0.00    -0.050 C 
ATOM    100  H   LIG d   1       2.881  -2.196  -2.610  0.00  0.00     0.027 H 
ATOM    101  H   LIG d   1       2.258  -0.553  -2.317  0.00  0.00     0.027 H 
BRANCH  99 102
ATOM    102  C   LIG d   1       3.245  -0.807  -4.215  0.00  0.00    -0.053 C 
ATOM    103  H   LIG d   1       4.220  -0.349  -4.385  0.00  0.00     0.026 H 
ATOM    104  H   LIG d   1       3.169  -1.724  -4.798  0.00  0.00     0.026 H 
BRANCH 102 105
ATOM    105  C   LIG d   1       2.145   0.165  -4.646  0.00  0.00    -0.053 C 
ATOM    106  H   LIG d   1       1.220  -0.386  -4.816  0.00  0.00     0.026 H 
ATOM    107  H   LIG d   1       1.988   0.907  -3.864  0.00  0.00     0.026 H 
BRANCH 105 108
ATOM    108  C   LIG d   1       2.564   0.868  -5.938  0.00  0.00    -0.053 C 
ATOM    109  H   LIG d   1       1.675   1.198  -6.478  0.00  0.00     0.026 H 
ATOM    110  H   LIG d   1       3.183   1.733  -5.698  0.00  0.00     0.026 H 
BRANCH 108 111
ATOM    111  C   LIG d   1       3.362  -0.102  -6.813  0.00  0.00    -0.053 C 
ATOM    112  H   LIG d   1       4.409  -0.085  -6.512  0.00  0.00     0.026 H 
ATOM    113  H   LIG d   1       2.964  -1.110  -6.691  0.00  0.00     0.026 H 
BRANCH 111 114
ATOM    114  C   LIG d   1       3.245   0.319  -8.279  0.00  0.00    -0.053 C 
ATOM    115  H   LIG d   1       4.185   0.115  -8.791  0.00  0.00     0.026 H 
ATOM    116  H   LIG d   1       2.442  -0.243  -8.756  0.00  0.00     0.026 H 
BRANCH 114 117
ATOM    117  C   LIG d   1       2.937   1.815  -8.356  0.00  0.00    -0.056 C 
ATOM    118  H   LIG d   1       1.864   1.959  -8.482  0.00  0.00     0.026 H 
ATOM    119  H   LIG d   1       3.263   2.302  -7.437  0.00  0.00     0.026 H 
BRANCH 117 120
ATOM    120  C   LIG d   1       3.677   2.427  -9.548  0.00  0.00    -0.065 C 
ATOM    121  H   LIG d   1       4.741   2.209  -9.466  0.00  0.00     0.023 H 
ATOM    122  H   LIG d   1       3.289   2.003 -10.473  0.00  0.00     0.023 H 
ATOM    123  H   LIG d   1       3.528   3.508  -9.553  0.00  0.00     0.023 H 
ENDBRANCH 117 120
ENDBRANCH 114 117
ENDBRANCH 111 114
ENDBRANCH 108 111
ENDBRANCH 105 108
ENDBRANCH 102 105
ENDBRANCH  99 102
ENDBRANCH  96  99
ENDBRANCH  93  96
ENDBRANCH  89  92
ENDBRANCH  86  89
ENDBRANCH  83  86
ENDBRANCH  80  82
BRANCH  80 124
ATOM    124  O   LIG d   1      10.772   3.370  -2.051  0.00  0.00    -0.386 OA
ATOM    125  H   LIG d   1      10.667   2.486  -1.671  0.00  0.00     0.210 HD
ENDBRANCH  80 124
ENDBRANCH   1  80
TORSDOF 40
ENDMDL
MODEL 6
REMARK VINA RESULT:      -5.4      1.803      5.010
REMARK WARNING: 32 MAX_TORS EXCEEDED!!!
REMARK  40 active torsions:
REMARK  status: ('A' for Active; 'I' for Inactive)
REMARK    1  A    between atoms: C_1  and  C_2 
REMARK    2  A    between atoms: C_2  and  C_3 
REMARK    3  A    between atoms: C_3  and  C_4 
REMARK    4  A    between atoms: C_4  and  C_5 
REMARK    5  A    between atoms: C_5  and  C_6 
REMARK    6  A    between atoms: C_6  and  C_7 
REMARK    7  A    between atoms: C_7  and  C_8 
REMARK    8  A    between atoms: C_8  and  C_9 
REMARK    9  A    between atoms: C_9  and  C_10 
REMARK   10  A    between atoms: C_10  and  C_11 
REMARK   11  A    between atoms: C_11  and  C_12 
REMARK   12  A    between atoms: C_12  and  C_13 
REMARK   13  A    between atoms: C_13  and  C_14 
REMARK   14  A    between atoms: C_14  and  C_15 
REMARK   15  A    between atoms: C_15  and  C_16 
REMARK   16  A    between atoms: C_15  and  O_57 
REMARK       I    between atoms: C_16  and  N_18 
REMARK   17  A    between atoms: N_18  and  C_19 
REMARK   18  A    between atoms: C_19  and  C_21 
REMARK   19  A    between atoms: C_19  and  C_39 
REMARK   20  A    between atoms: C_21  and  O_22 
REMARK   21  A    between atoms: O_22  and  C_23 
REMARK   22  A    between atoms: C_25  and  O_38 
REMARK   23  A    between atoms: C_27  and  O_37 
REMARK   24  A    between atoms: C_29  and  O_36 
REMARK   25  A    between atoms: C_31  and  C_34 
REMARK   26  A    between atoms: C_34  and  O_35 
REMARK   27  A    between atoms: C_39  and  C_41 
REMARK   28  A    between atoms: C_39  and  O_56 
REMARK   29  A    between atoms: C_42  and  C_43 
REMARK   30  A    between atoms: C_43  and  C_44 
REMARK   31  A    between atoms: C_44  and  C_45 
REMARK   32  A    between atoms: C_46  and  C_47 
REMARK   33  A    between atoms: C_47  and  C_48 
REMARK   34  A    between atoms: C_48  and  C_49 
REMARK   35  A    between atoms: C_49  and  C_50 
REMARK   36  A    between atoms: C_50  and  C_51 
REMARK   37  A    between atoms: C_51  and  C_52 
REMARK   38  A    between atoms: C_52  and  C_53 
REMARK   39  A    between atoms: C_53  and  C_54 
REMARK   40  A    between atoms: C_54  and  C_55 
ROOT
ATOM      1  C   LIG d   1      10.465   3.467  -5.442  0.00  0.00     0.076 C 
ATOM      2  H   LIG d   1      11.285   2.903  -5.889  0.00  0.00     0.055 H 
ENDROOT
BRANCH   1   3
ATOM      3  N   LIG d   1       9.349   3.538  -6.388  0.00  0.00    -0.305 N 
ATOM      4  C   LIG d   1       9.481   3.022  -7.626  0.00  0.00     0.242 C 
ATOM      5  O   LIG d   1      10.524   2.498  -7.957  0.00  0.00    -0.273 OA
ATOM      6  H   LIG d   1       8.516   3.956  -6.123  0.00  0.00     0.149 HD
BRANCH   4   7
ATOM      7  C   LIG d   1       8.332   3.095  -8.599  0.00  0.00     0.131 C 
ATOM      8  H   LIG d   1       7.498   3.624  -8.137  0.00  0.00     0.069 H 
BRANCH   7   9
ATOM      9  C   LIG d   1       7.893   1.679  -8.976  0.00  0.00    -0.018 C 
ATOM     10  H   LIG d   1       8.606   0.958  -8.576  0.00  0.00     0.029 H 
ATOM     11  H   LIG d   1       7.854   1.587 -10.061  0.00  0.00     0.029 H 
BRANCH   9  12
ATOM     12  C   LIG d   1       6.506   1.403  -8.391  0.00  0.00    -0.050 C 
ATOM     13  H   LIG d   1       6.274   2.156  -7.638  0.00  0.00     0.027 H 
ATOM     14  H   LIG d   1       6.496   0.415  -7.931  0.00  0.00     0.027 H 
BRANCH  12  15
ATOM     15  C   LIG d   1       5.462   1.458  -9.507  0.00  0.00    -0.053 C 
ATOM     16  H   LIG d   1       4.893   0.528  -9.520  0.00  0.00     0.026 H 
ATOM     17  H   LIG d   1       5.962   1.592 -10.466  0.00  0.00     0.026 H 
BRANCH  15  18
ATOM     18  C   LIG d   1       4.512   2.632  -9.259  0.00  0.00    -0.053 C 
ATOM     19  H   LIG d   1       4.270   3.110 -10.209  0.00  0.00     0.026 H 
ATOM     20  H   LIG d   1       4.991   3.355  -8.600  0.00  0.00     0.026 H 
BRANCH  18  21
ATOM     21  C   LIG d   1       3.227   2.119  -8.606  0.00  0.00    -0.053 C 
ATOM     22  H   LIG d   1       2.424   2.837  -8.773  0.00  0.00     0.026 H 
ATOM     23  H   LIG d   1       3.388   1.999  -7.534  0.00  0.00     0.026 H 
BRANCH  21  24
ATOM     24  C   LIG d   1       2.844   0.772  -9.220  0.00  0.00    -0.053 C 
ATOM     25  H   LIG d   1       3.681   0.385  -9.800  0.00  0.00     0.026 H 
ATOM     26  H   LIG d   1       1.980   0.901  -9.872  0.00  0.00     0.026 H 
BRANCH  24  27
ATOM     27  C   LIG d   1       2.496  -0.217  -8.105  0.00  0.00    -0.053 C 
ATOM     28  H   LIG d   1       2.595  -1.235  -8.479  0.00  0.00     0.026 H 
ATOM     29  H   LIG d   1       1.471  -0.048  -7.776  0.00  0.00     0.026 H 
BRANCH  27  30
ATOM     30  C   LIG d   1       3.449  -0.011  -6.925  0.00  0.00    -0.053 C 
ATOM     31  H   LIG d   1       3.810   1.017  -6.925  0.00  0.00     0.026 H 
ATOM     32  H   LIG d   1       4.295  -0.692  -7.018  0.00  0.00     0.026 H 
BRANCH  30  33
ATOM     33  C   LIG d   1       2.709  -0.293  -5.616  0.00  0.00    -0.053 C 
ATOM     34  H   LIG d   1       3.309  -0.956  -4.994  0.00  0.00     0.026 H 
ATOM     35  H   LIG d   1       1.752  -0.768  -5.836  0.00  0.00     0.026 H 
BRANCH  33  36
ATOM     36  C   LIG d   1       2.466   1.023  -4.874  0.00  0.00    -0.053 C 
ATOM     37  H   LIG d   1       1.395   1.178  -4.750  0.00  0.00     0.026 H 
ATOM     38  H   LIG d   1       2.889   1.847  -5.449  0.00  0.00     0.026 H 
BRANCH  36  39
ATOM     39  C   LIG d   1       3.136   0.963  -3.500  0.00  0.00    -0.053 C 
ATOM     40  H   LIG d   1       2.579   1.585  -2.798  0.00  0.00     0.026 H 
ATOM     41  H   LIG d   1       4.159   1.330  -3.578  0.00  0.00     0.026 H 
BRANCH  39  42
ATOM     42  C   LIG d   1       3.147  -0.483  -3.000  0.00  0.00    -0.053 C 
ATOM     43  H   LIG d   1       3.384  -1.152  -3.829  0.00  0.00     0.026 H 
ATOM     44  H   LIG d   1       2.167  -0.736  -2.598  0.00  0.00     0.026 H 
BRANCH  42  45
ATOM     45  C   LIG d   1       4.204  -0.636  -1.904  0.00  0.00    -0.056 C 
ATOM     46  H   LIG d   1       5.047  -1.209  -2.291  0.00  0.00     0.026 H 
ATOM     47  H   LIG d   1       3.770  -1.158  -1.052  0.00  0.00     0.026 H 
BRANCH  45  48
ATOM     48  C   LIG d   1       4.686   0.748  -1.463  0.00  0.00    -0.065 C 
ATOM     49  H   LIG d   1       3.871   1.465  -1.561  0.00  0.00     0.023 H 
ATOM     50  H   LIG d   1       5.009   0.705  -0.422  0.00  0.00     0.023 H 
ATOM     51  H   LIG d   1       5.521   1.058  -2.089  0.00  0.00     0.023 H 
ENDBRANCH  45  48
ENDBRANCH  42  45
ENDBRANCH  39  42
ENDBRANCH  36  39
ENDBRANCH  33  36
ENDBRANCH  30  33
ENDBRANCH  27  30
ENDBRANCH  24  27
ENDBRANCH  21  24
ENDBRANCH  18  21
ENDBRANCH  15  18
ENDBRANCH  12  15
ENDBRANCH   9  12
ENDBRANCH   7   9
BRANCH   7  52
ATOM     52  O   LIG d   1       8.748   3.794  -9.774  0.00  0.00    -0.383 OA
ATOM     53  H   LIG d   1       9.455   3.352 -10.265  0.00  0.00     0.210 HD
ENDBRANCH   7  52
ENDBRANCH   4   7
ENDBRANCH   1   3
BRANCH   1  54
ATOM     54  C   LIG d   1      10.944   4.882  -5.108  0.00  0.00     0.072 C 
ATOM     55  H   LIG d   1      11.386   4.891  -4.113  0.00  0.00     0.058 H 
ATOM     56  H   LIG d   1      11.689   5.195  -5.841  0.00  0.00     0.058 H 
BRANCH  54  57
ATOM     57  O   LIG d   1       9.833   5.780  -5.146  0.00  0.00    -0.347 OA
BRANCH  57  58
ATOM     58  C   LIG d   1      10.143   7.063  -5.693  0.00  0.00     0.188 C 
ATOM     59  H   LIG d   1      11.196   7.097  -5.969  0.00  0.00     0.094 H 
ATOM     60  O   LIG d   1       9.874   8.074  -4.719  0.00  0.00    -0.341 OA
ATOM     61  C   LIG d   1      10.173   9.400  -5.156  0.00  0.00     0.113 C 
ATOM     62  C   LIG d   1       9.313   9.742  -6.376  0.00  0.00     0.112 C 
ATOM     63  H   LIG d   1      11.228   9.465  -5.426  0.00  0.00     0.065 H 
ATOM     64  C   LIG d   1       9.575   8.712  -7.479  0.00  0.00     0.114 C 
ATOM     65  H   LIG d   1       8.260   9.718  -6.096  0.00  0.00     0.065 H 
ATOM     66  C   LIG d   1       9.281   7.310  -6.934  0.00  0.00     0.134 C 
ATOM     67  H   LIG d   1      10.616   8.769  -7.793  0.00  0.00     0.065 H 
ATOM     68  H   LIG d   1       8.227   7.237  -6.666  0.00  0.00     0.067 H 
BRANCH  61  69
ATOM     69  C   LIG d   1       9.875  10.391  -4.028  0.00  0.00     0.073 C 
ATOM     70  H   LIG d   1      10.000   9.894  -3.066  0.00  0.00     0.058 H 
ATOM     71  H   LIG d   1      10.563  11.234  -4.095  0.00  0.00     0.058 H 
BRANCH  69  72
ATOM     72  O   LIG d   1       8.532  10.862  -4.151  0.00  0.00    -0.392 OA
ATOM     73  H   LIG d   1       8.281  11.110  -5.051  0.00  0.00     0.209 HD
ENDBRANCH  69  72
ENDBRANCH  61  69
BRANCH  62  74
ATOM     74  O   LIG d   1       9.651  11.046  -6.851  0.00  0.00    -0.387 OA
ATOM     75  H   LIG d   1       8.921  11.678  -6.820  0.00  0.00     0.210 HD
ENDBRANCH  62  74
BRANCH  64  76
ATOM     76  O   LIG d   1       8.723   8.978  -8.595  0.00  0.00    -0.386 OA
ATOM     77  H   LIG d   1       8.711   9.906  -8.869  0.00  0.00     0.210 HD
ENDBRANCH  64  76
BRANCH  66  78
ATOM     78  O   LIG d   1       9.589   6.334  -7.931  0.00  0.00    -0.384 OA
ATOM     79  H   LIG d   1       8.927   6.265  -8.632  0.00  0.00     0.210 HD
ENDBRANCH  66  78
ENDBRANCH  57  58
ENDBRANCH  54  57
ENDBRANCH   1  54
BRANCH   1  80
ATOM     80  C   LIG d   1      10.005   2.769  -4.160  0.00  0.00     0.094 C 
ATOM     81  H   LIG d   1      10.171   3.428  -3.309  0.00  0.00     0.066 H 
BRANCH  80  82
ATOM     82  C   LIG d   1       8.537   2.443  -4.265  0.00  0.00    -0.058 C 
ATOM     83  C   LIG d   1       8.119   1.222  -4.038  0.00  0.00    -0.085 C 
ATOM     84  H   LIG d   1       8.814   0.469  -3.697  0.00  0.00     0.057 H 
ATOM     85  H   LIG d   1       7.830   3.217  -4.526  0.00  0.00     0.059 H 
BRANCH  83  86
ATOM     86  C   LIG d   1       6.670   0.870  -4.254  0.00  0.00    -0.031 C 
ATOM     87  H   LIG d   1       6.177   0.754  -3.288  0.00  0.00     0.031 H 
ATOM     88  H   LIG d   1       6.183   1.666  -4.816  0.00  0.00     0.031 H 
BRANCH  86  89
ATOM     89  C   LIG d   1       6.575  -0.441  -5.037  0.00  0.00    -0.031 C 
ATOM     90  H   LIG d   1       5.540  -0.613  -5.331  0.00  0.00     0.031 H 
ATOM     91  H   LIG d   1       7.201  -0.379  -5.926  0.00  0.00     0.031 H 
BRANCH  89  92
ATOM     92  C   LIG d   1       7.047  -1.578  -4.168  0.00  0.00    -0.088 C 
ATOM     93  C   LIG d   1       6.355  -2.688  -4.110  0.00  0.00    -0.088 C 
ATOM     94  H   LIG d   1       6.612  -3.448  -3.386  0.00  0.00     0.057 H 
ATOM     95  H   LIG d   1       7.958  -1.478  -3.595  0.00  0.00     0.057 H 
BRANCH  93  96
ATOM     96  C   LIG d   1       5.200  -2.907  -5.052  0.00  0.00    -0.035 C 
ATOM     97  H   LIG d   1       4.297  -2.464  -4.630  0.00  0.00     0.031 H 
ATOM     98  H   LIG d   1       5.420  -2.438  -6.011  0.00  0.00     0.031 H 
BRANCH  96  99
ATOM     99  C   LIG d   1       4.984  -4.407  -5.255  0.00  0.00    -0.050 C 
ATOM    100  H   LIG d   1       5.807  -4.958  -4.800  0.00  0.00     0.027 H 
ATOM    101  H   LIG d   1       4.045  -4.706  -4.789  0.00  0.00     0.027 H 
BRANCH  99 102
ATOM    102  C   LIG d   1       4.931  -4.718  -6.753  0.00  0.00    -0.053 C 
ATOM    103  H   LIG d   1       5.946  -4.782  -7.146  0.00  0.00     0.026 H 
ATOM    104  H   LIG d   1       4.420  -5.667  -6.910  0.00  0.00     0.026 H 
BRANCH 102 105
ATOM    105  C   LIG d   1       4.173  -3.604  -7.478  0.00  0.00    -0.053 C 
ATOM    106  H   LIG d   1       3.135  -3.903  -7.619  0.00  0.00     0.026 H 
ATOM    107  H   LIG d   1       4.212  -2.691  -6.885  0.00  0.00     0.026 H 
BRANCH 105 108
ATOM    108  C   LIG d   1       4.819  -3.353  -8.842  0.00  0.00    -0.053 C 
ATOM    109  H   LIG d   1       5.394  -4.230  -9.139  0.00  0.00     0.026 H 
ATOM    110  H   LIG d   1       4.043  -3.160  -9.583  0.00  0.00     0.026 H 
BRANCH 108 111
ATOM    111  C   LIG d   1       5.748  -2.140  -8.751  0.00  0.00    -0.053 C 
ATOM    112  H   LIG d   1       5.470  -1.411  -9.512  0.00  0.00     0.026 H 
ATOM    113  H   LIG d   1       5.658  -1.688  -7.763  0.00  0.00     0.026 H 
BRANCH 111 114
ATOM    114  C   LIG d   1       7.194  -2.587  -8.977  0.00  0.00    -0.053 C 
ATOM    115  H   LIG d   1       7.214  -3.652  -9.204  0.00  0.00     0.026 H 
ATOM    116  H   LIG d   1       7.621  -2.029  -9.811  0.00  0.00     0.026 H 
BRANCH 114 117
ATOM    117  C   LIG d   1       8.013  -2.319  -7.713  0.00  0.00    -0.056 C 
ATOM    118  H   LIG d   1       8.888  -1.721  -7.966  0.00  0.00     0.026 H 
ATOM    119  H   LIG d   1       7.400  -1.780  -6.990  0.00  0.00     0.026 H 
BRANCH 117 120
ATOM    120  C   LIG d   1       8.463  -3.651  -7.107  0.00  0.00    -0.065 C 
ATOM    121  H   LIG d   1       8.951  -4.252  -7.874  0.00  0.00     0.023 H 
ATOM    122  H   LIG d   1       9.162  -3.462  -6.293  0.00  0.00     0.023 H 
ATOM    123  H   LIG d   1       7.595  -4.188  -6.723  0.00  0.00     0.023 H 
ENDBRANCH 117 120
ENDBRANCH 114 117
ENDBRANCH 111 114
ENDBRANCH 108 111
ENDBRANCH 105 108
ENDBRANCH 102 105
ENDBRANCH  99 102
ENDBRANCH  96  99
ENDBRANCH  93  96
ENDBRANCH  89  92
ENDBRANCH  86  89
ENDBRANCH  83  86
ENDBRANCH  80  82
BRANCH  80 124
ATOM    124  O   LIG d   1      10.749   1.562  -3.982  0.00  0.00    -0.386 OA
ATOM    125  H   LIG d   1      11.170   1.236  -4.789  0.00  0.00     0.210 HD
ENDBRANCH  80 124
ENDBRANCH   1  80
TORSDOF 40
ENDMDL
MODEL 7
REMARK VINA RESULT:      -5.4      8.659     13.847
REMARK WARNING: 32 MAX_TORS EXCEEDED!!!
REMARK  40 active torsions:
REMARK  status: ('A' for Active; 'I' for Inactive)
REMARK    1  A    between atoms: C_1  and  C_2 
REMARK    2  A    between atoms: C_2  and  C_3 
REMARK    3  A    between atoms: C_3  and  C_4 
REMARK    4  A    between atoms: C_4  and  C_5 
REMARK    5  A    between atoms: C_5  and  C_6 
REMARK    6  A    between atoms: C_6  and  C_7 
REMARK    7  A    between atoms: C_7  and  C_8 
REMARK    8  A    between atoms: C_8  and  C_9 
REMARK    9  A    between atoms: C_9  and  C_10 
REMARK   10  A    between atoms: C_10  and  C_11 
REMARK   11  A    between atoms: C_11  and  C_12 
REMARK   12  A    between atoms: C_12  and  C_13 
REMARK   13  A    between atoms: C_13  and  C_14 
REMARK   14  A    between atoms: C_14  and  C_15 
REMARK   15  A    between atoms: C_15  and  C_16 
REMARK   16  A    between atoms: C_15  and  O_57 
REMARK       I    between atoms: C_16  and  N_18 
REMARK   17  A    between atoms: N_18  and  C_19 
REMARK   18  A    between atoms: C_19  and  C_21 
REMARK   19  A    between atoms: C_19  and  C_39 
REMARK   20  A    between atoms: C_21  and  O_22 
REMARK   21  A    between atoms: O_22  and  C_23 
REMARK   22  A    between atoms: C_25  and  O_38 
REMARK   23  A    between atoms: C_27  and  O_37 
REMARK   24  A    between atoms: C_29  and  O_36 
REMARK   25  A    between atoms: C_31  and  C_34 
REMARK   26  A    between atoms: C_34  and  O_35 
REMARK   27  A    between atoms: C_39  and  C_41 
REMARK   28  A    between atoms: C_39  and  O_56 
REMARK   29  A    between atoms: C_42  and  C_43 
REMARK   30  A    between atoms: C_43  and  C_44 
REMARK   31  A    between atoms: C_44  and  C_45 
REMARK   32  A    between atoms: C_46  and  C_47 
REMARK   33  A    between atoms: C_47  and  C_48 
REMARK   34  A    between atoms: C_48  and  C_49 
REMARK   35  A    between atoms: C_49  and  C_50 
REMARK   36  A    between atoms: C_50  and  C_51 
REMARK   37  A    between atoms: C_51  and  C_52 
REMARK   38  A    between atoms: C_52  and  C_53 
REMARK   39  A    between atoms: C_53  and  C_54 
REMARK   40  A    between atoms: C_54  and  C_55 
ROOT
ATOM      1  C   LIG d   1       1.450  -5.543 -10.463  0.00  0.00     0.076 C 
ATOM      2  H   LIG d   1       0.867  -5.163  -9.623  0.00  0.00     0.055 H 
ENDROOT
BRANCH   1   3
ATOM      3  N   LIG d   1       1.528  -4.517 -11.506  0.00  0.00    -0.305 N 
ATOM      4  C   LIG d   1       1.002  -3.295 -11.290  0.00  0.00     0.242 C 
ATOM      5  O   LIG d   1       0.464  -3.044 -10.232  0.00  0.00    -0.273 OA
ATOM      6  H   LIG d   1       1.959  -4.717 -12.351  0.00  0.00     0.149 HD
BRANCH   4   7
ATOM      7  C   LIG d   1       1.083  -2.240 -12.363  0.00  0.00     0.131 C 
ATOM      8  H   LIG d   1       0.924  -2.701 -13.338  0.00  0.00     0.069 H 
BRANCH   7   9
ATOM      9  C   LIG d   1       2.464  -1.583 -12.329  0.00  0.00    -0.018 C 
ATOM     10  H   LIG d   1       2.679  -1.138 -13.300  0.00  0.00     0.029 H 
ATOM     11  H   LIG d   1       3.219  -2.335 -12.098  0.00  0.00     0.029 H 
BRANCH   9  12
ATOM     12  C   LIG d   1       2.484  -0.494 -11.253  0.00  0.00    -0.050 C 
ATOM     13  H   LIG d   1       2.146  -0.914 -10.306  0.00  0.00     0.027 H 
ATOM     14  H   LIG d   1       1.821   0.319 -11.548  0.00  0.00     0.027 H 
BRANCH  12  15
ATOM     15  C   LIG d   1       3.908   0.040 -11.095  0.00  0.00    -0.053 C 
ATOM     16  H   LIG d   1       4.394   0.075 -12.071  0.00  0.00     0.026 H 
ATOM     17  H   LIG d   1       4.471  -0.616 -10.432  0.00  0.00     0.026 H 
BRANCH  15  18
ATOM     18  C   LIG d   1       3.861   1.449 -10.500  0.00  0.00    -0.053 C 
ATOM     19  H   LIG d   1       3.503   2.151 -11.254  0.00  0.00     0.026 H 
ATOM     20  H   LIG d   1       4.861   1.741 -10.178  0.00  0.00     0.026 H 
BRANCH  18  21
ATOM     21  C   LIG d   1       2.914   1.464  -9.298  0.00  0.00    -0.053 C 
ATOM     22  H   LIG d   1       2.082   0.786  -9.484  0.00  0.00     0.026 H 
ATOM     23  H   LIG d   1       2.533   2.475  -9.150  0.00  0.00     0.026 H 
BRANCH  21  24
ATOM     24  C   LIG d   1       3.670   1.015  -8.047  0.00  0.00    -0.053 C 
ATOM     25  H   LIG d   1       3.913   1.884  -7.436  0.00  0.00     0.026 H 
ATOM     26  H   LIG d   1       4.591   0.509  -8.340  0.00  0.00     0.026 H 
BRANCH  24  27
ATOM     27  C   LIG d   1       2.795   0.053  -7.240  0.00  0.00    -0.053 C 
ATOM     28  H   LIG d   1       2.756  -0.912  -7.745  0.00  0.00     0.026 H 
ATOM     29  H   LIG d   1       1.788   0.460  -7.158  0.00  0.00     0.026 H 
BRANCH  27  30
ATOM     30  C   LIG d   1       3.389  -0.126  -5.841  0.00  0.00    -0.053 C 
ATOM     31  H   LIG d   1       4.333   0.413  -5.776  0.00  0.00     0.026 H 
ATOM     32  H   LIG d   1       3.562  -1.186  -5.653  0.00  0.00     0.026 H 
BRANCH  30  33
ATOM     33  C   LIG d   1       2.413   0.425  -4.799  0.00  0.00    -0.053 C 
ATOM     34  H   LIG d   1       1.411   0.466  -5.225  0.00  0.00     0.026 H 
ATOM     35  H   LIG d   1       2.725   1.427  -4.504  0.00  0.00     0.026 H 
BRANCH  33  36
ATOM     36  C   LIG d   1       2.408  -0.490  -3.572  0.00  0.00    -0.053 C 
ATOM     37  H   LIG d   1       1.664  -1.274  -3.707  0.00  0.00     0.026 H 
ATOM     38  H   LIG d   1       2.164   0.094  -2.685  0.00  0.00     0.026 H 
BRANCH  36  39
ATOM     39  C   LIG d   1       3.791  -1.122  -3.402  0.00  0.00    -0.053 C 
ATOM     40  H   LIG d   1       4.487  -0.671  -4.111  0.00  0.00     0.026 H 
ATOM     41  H   LIG d   1       3.726  -2.193  -3.589  0.00  0.00     0.026 H 
BRANCH  39  42
ATOM     42  C   LIG d   1       4.290  -0.881  -1.977  0.00  0.00    -0.053 C 
ATOM     43  H   LIG d   1       5.255  -1.372  -1.841  0.00  0.00     0.026 H 
ATOM     44  H   LIG d   1       3.572  -1.289  -1.266  0.00  0.00     0.026 H 
BRANCH  42  45
ATOM     45  C   LIG d   1       4.446   0.622  -1.737  0.00  0.00    -0.056 C 
ATOM     46  H   LIG d   1       4.767   0.793  -0.709  0.00  0.00     0.026 H 
ATOM     47  H   LIG d   1       3.491   1.118  -1.907  0.00  0.00     0.026 H 
BRANCH  45  48
ATOM     48  C   LIG d   1       5.493   1.187  -2.699  0.00  0.00    -0.065 C 
ATOM     49  H   LIG d   1       6.127   0.378  -3.061  0.00  0.00     0.023 H 
ATOM     50  H   LIG d   1       4.992   1.662  -3.543  0.00  0.00     0.023 H 
ATOM     51  H   LIG d   1       6.105   1.923  -2.179  0.00  0.00     0.023 H 
ENDBRANCH  45  48
ENDBRANCH  42  45
ENDBRANCH  39  42
ENDBRANCH  36  39
ENDBRANCH  33  36
ENDBRANCH  30  33
ENDBRANCH  27  30
ENDBRANCH  24  27
ENDBRANCH  21  24
ENDBRANCH  18  21
ENDBRANCH  15  18
ENDBRANCH  12  15
ENDBRANCH   9  12
ENDBRANCH   7   9
BRANCH   7  52
ATOM     52  O   LIG d   1       0.078  -1.251 -12.134  0.00  0.00    -0.383 OA
ATOM     53  H   LIG d   1      -0.655  -1.556 -11.582  0.00  0.00     0.210 HD
ENDBRANCH   7  52
ENDBRANCH   4   7
ENDBRANCH   1   3
BRANCH   1  54
ATOM     54  C   LIG d   1       0.773  -6.794 -11.027  0.00  0.00     0.072 C 
ATOM     55  H   LIG d   1      -0.005  -6.502 -11.730  0.00  0.00     0.058 H 
ATOM     56  H   LIG d   1       1.515  -7.408 -11.540  0.00  0.00     0.058 H 
BRANCH  54  57
ATOM     57  O   LIG d   1       0.193  -7.544  -9.958  0.00  0.00    -0.347 OA
BRANCH  57  58
ATOM     58  C   LIG d   1      -1.232  -7.634 -10.018  0.00  0.00     0.188 C 
ATOM     59  H   LIG d   1      -1.562  -8.536  -9.504  0.00  0.00     0.094 H 
ATOM     60  O   LIG d   1      -1.648  -7.687 -11.384  0.00  0.00    -0.341 OA
ATOM     61  C   LIG d   1      -3.061  -7.802 -11.560  0.00  0.00     0.113 C 
ATOM     62  C   LIG d   1      -3.753  -6.582 -10.948  0.00  0.00     0.112 C 
ATOM     63  H   LIG d   1      -3.416  -8.707 -11.065  0.00  0.00     0.065 H 
ATOM     64  C   LIG d   1      -3.375  -6.480  -9.468  0.00  0.00     0.114 C 
ATOM     65  H   LIG d   1      -3.429  -5.681 -11.470  0.00  0.00     0.065 H 
ATOM     66  C   LIG d   1      -1.849  -6.406  -9.344  0.00  0.00     0.134 C 
ATOM     67  H   LIG d   1      -3.742  -7.358  -8.936  0.00  0.00     0.065 H 
ATOM     68  H   LIG d   1      -1.488  -5.502  -9.834  0.00  0.00     0.067 H 
BRANCH  61  69
ATOM     69  C   LIG d   1      -3.386  -7.878 -13.054  0.00  0.00     0.073 C 
ATOM     70  H   LIG d   1      -3.507  -6.871 -13.451  0.00  0.00     0.058 H 
ATOM     71  H   LIG d   1      -2.572  -8.380 -13.577  0.00  0.00     0.058 H 
BRANCH  69  72
ATOM     72  O   LIG d   1      -4.597  -8.613 -13.241  0.00  0.00    -0.392 OA
ATOM     73  H   LIG d   1      -5.067  -8.396 -14.058  0.00  0.00     0.209 HD
ENDBRANCH  69  72
ENDBRANCH  61  69
BRANCH  62  74
ATOM     74  O   LIG d   1      -5.170  -6.722 -11.071  0.00  0.00    -0.387 OA
ATOM     75  H   LIG d   1      -5.658  -6.504 -10.266  0.00  0.00     0.210 HD
ENDBRANCH  62  74
BRANCH  64  76
ATOM     76  O   LIG d   1      -3.957  -5.302  -8.904  0.00  0.00    -0.386 OA
ATOM     77  H   LIG d   1      -3.876  -5.245  -7.942  0.00  0.00     0.210 HD
ENDBRANCH  64  76
BRANCH  66  78
ATOM     78  O   LIG d   1      -1.481  -6.383  -7.964  0.00  0.00    -0.384 OA
ATOM     79  H   LIG d   1      -0.714  -6.933  -7.752  0.00  0.00     0.210 HD
ENDBRANCH  66  78
ENDBRANCH  57  58
ENDBRANCH  54  57
ENDBRANCH   1  54
BRANCH   1  80
ATOM     80  C   LIG d   1       2.861  -5.897  -9.987  0.00  0.00     0.094 C 
ATOM     81  H   LIG d   1       3.450  -6.252 -10.832  0.00  0.00     0.066 H 
BRANCH  80  82
ATOM     82  C   LIG d   1       3.514  -4.673  -9.398  0.00  0.00    -0.058 C 
ATOM     83  C   LIG d   1       3.725  -4.600  -8.107  0.00  0.00    -0.085 C 
ATOM     84  H   LIG d   1       3.507  -5.449  -7.476  0.00  0.00     0.057 H 
ATOM     85  H   LIG d   1       3.808  -3.856 -10.040  0.00  0.00     0.059 H 
BRANCH  83  86
ATOM     86  C   LIG d   1       4.272  -3.332  -7.504  0.00  0.00    -0.031 C 
ATOM     87  H   LIG d   1       3.446  -2.713  -7.151  0.00  0.00     0.031 H 
ATOM     88  H   LIG d   1       4.923  -3.579  -6.666  0.00  0.00     0.031 H 
BRANCH  86  89
ATOM     89  C   LIG d   1       5.068  -2.566  -8.562  0.00  0.00    -0.031 C 
ATOM     90  H   LIG d   1       4.767  -2.901  -9.555  0.00  0.00     0.031 H 
ATOM     91  H   LIG d   1       4.871  -1.499  -8.462  0.00  0.00     0.031 H 
BRANCH  89  92
ATOM     92  C   LIG d   1       6.539  -2.827  -8.368  0.00  0.00    -0.088 C 
ATOM     93  C   LIG d   1       7.409  -1.874  -8.597  0.00  0.00    -0.088 C 
ATOM     94  H   LIG d   1       8.466  -2.095  -8.595  0.00  0.00     0.057 H 
ATOM     95  H   LIG d   1       6.877  -3.799  -8.039  0.00  0.00     0.057 H 
BRANCH  93  96
ATOM     96  C   LIG d   1       6.934  -0.469  -8.863  0.00  0.00    -0.035 C 
ATOM     97  H   LIG d   1       7.432  -0.080  -9.752  0.00  0.00     0.031 H 
ATOM     98  H   LIG d   1       5.856  -0.474  -9.023  0.00  0.00     0.031 H 
BRANCH  96  99
ATOM     99  C   LIG d   1       7.268   0.419  -7.663  0.00  0.00    -0.050 C 
ATOM    100  H   LIG d   1       7.492   1.429  -8.009  0.00  0.00     0.027 H 
ATOM    101  H   LIG d   1       6.417   0.447  -6.983  0.00  0.00     0.027 H 
BRANCH  99 102
ATOM    102  C   LIG d   1       8.487  -0.149  -6.932  0.00  0.00    -0.053 C 
ATOM    103  H   LIG d   1       8.660  -1.175  -7.257  0.00  0.00     0.026 H 
ATOM    104  H   LIG d   1       9.364   0.456  -7.161  0.00  0.00     0.026 H 
BRANCH 102 105
ATOM    105  C   LIG d   1       8.233  -0.128  -5.424  0.00  0.00    -0.053 C 
ATOM    106  H   LIG d   1       9.084  -0.568  -4.905  0.00  0.00     0.026 H 
ATOM    107  H   LIG d   1       8.097   0.901  -5.092  0.00  0.00     0.026 H 
BRANCH 105 108
ATOM    108  C   LIG d   1       6.972  -0.935  -5.108  0.00  0.00    -0.053 C 
ATOM    109  H   LIG d   1       6.248  -0.296  -4.603  0.00  0.00     0.026 H 
ATOM    110  H   LIG d   1       6.539  -1.311  -6.035  0.00  0.00     0.026 H 
BRANCH 108 111
ATOM    111  C   LIG d   1       7.334  -2.113  -4.201  0.00  0.00    -0.053 C 
ATOM    112  H   LIG d   1       8.399  -2.326  -4.289  0.00  0.00     0.026 H 
ATOM    113  H   LIG d   1       7.097  -1.860  -3.167  0.00  0.00     0.026 H 
BRANCH 111 114
ATOM    114  C   LIG d   1       6.530  -3.346  -4.621  0.00  0.00    -0.053 C 
ATOM    115  H   LIG d   1       5.949  -3.707  -3.773  0.00  0.00     0.026 H 
ATOM    116  H   LIG d   1       5.857  -3.080  -5.437  0.00  0.00     0.026 H 
BRANCH 114 117
ATOM    117  C   LIG d   1       7.489  -4.443  -5.088  0.00  0.00    -0.056 C 
ATOM    118  H   LIG d   1       8.204  -4.024  -5.795  0.00  0.00     0.026 H 
ATOM    119  H   LIG d   1       8.023  -4.849  -4.229  0.00  0.00     0.026 H 
BRANCH 117 120
ATOM    120  C   LIG d   1       6.692  -5.559  -5.768  0.00  0.00    -0.065 C 
ATOM    121  H   LIG d   1       7.050  -6.526  -5.417  0.00  0.00     0.023 H 
ATOM    122  H   LIG d   1       5.636  -5.452  -5.525  0.00  0.00     0.023 H 
ATOM    123  H   LIG d   1       6.825  -5.494  -6.849  0.00  0.00     0.023 H 
ENDBRANCH 117 120
ENDBRANCH 114 117
ENDBRANCH 111 114
ENDBRANCH 108 111
ENDBRANCH 105 108
ENDBRANCH 102 105
ENDBRANCH  99 102
ENDBRANCH  96  99
ENDBRANCH  93  96
ENDBRANCH  89  92
ENDBRANCH  86  89
ENDBRANCH  83  86
ENDBRANCH  80  82
BRANCH  80 124
ATOM    124  O   LIG d   1       2.785  -6.921  -8.994  0.00  0.00    -0.386 OA
ATOM    125  H   LIG d   1       1.891  -7.085  -8.664  0.00  0.00     0.210 HD
ENDBRANCH  80 124
ENDBRANCH   1  80
TORSDOF 40
ENDMDL
MODEL 8
REMARK VINA RESULT:      -5.4      8.584     13.325
REMARK WARNING: 32 MAX_TORS EXCEEDED!!!
REMARK  40 active torsions:
REMARK  status: ('A' for Active; 'I' for Inactive)
REMARK    1  A    between atoms: C_1  and  C_2 
REMARK    2  A    between atoms: C_2  and  C_3 
REMARK    3  A    between atoms: C_3  and  C_4 
REMARK    4  A    between atoms: C_4  and  C_5 
REMARK    5  A    between atoms: C_5  and  C_6 
REMARK    6  A    between atoms: C_6  and  C_7 
REMARK    7  A    between atoms: C_7  and  C_8 
REMARK    8  A    between atoms: C_8  and  C_9 
REMARK    9  A    between atoms: C_9  and  C_10 
REMARK   10  A    between atoms: C_10  and  C_11 
REMARK   11  A    between atoms: C_11  and  C_12 
REMARK   12  A    between atoms: C_12  and  C_13 
REMARK   13  A    between atoms: C_13  and  C_14 
REMARK   14  A    between atoms: C_14  and  C_15 
REMARK   15  A    between atoms: C_15  and  C_16 
REMARK   16  A    between atoms: C_15  and  O_57 
REMARK       I    between atoms: C_16  and  N_18 
REMARK   17  A    between atoms: N_18  and  C_19 
REMARK   18  A    between atoms: C_19  and  C_21 
REMARK   19  A    between atoms: C_19  and  C_39 
REMARK   20  A    between atoms: C_21  and  O_22 
REMARK   21  A    between atoms: O_22  and  C_23 
REMARK   22  A    between atoms: C_25  and  O_38 
REMARK   23  A    between atoms: C_27  and  O_37 
REMARK   24  A    between atoms: C_29  and  O_36 
REMARK   25  A    between atoms: C_31  and  C_34 
REMARK   26  A    between atoms: C_34  and  O_35 
REMARK   27  A    between atoms: C_39  and  C_41 
REMARK   28  A    between atoms: C_39  and  O_56 
REMARK   29  A    between atoms: C_42  and  C_43 
REMARK   30  A    between atoms: C_43  and  C_44 
REMARK   31  A    between atoms: C_44  and  C_45 
REMARK   32  A    between atoms: C_46  and  C_47 
REMARK   33  A    between atoms: C_47  and  C_48 
REMARK   34  A    between atoms: C_48  and  C_49 
REMARK   35  A    between atoms: C_49  and  C_50 
REMARK   36  A    between atoms: C_50  and  C_51 
REMARK   37  A    between atoms: C_51  and  C_52 
REMARK   38  A    between atoms: C_52  and  C_53 
REMARK   39  A    between atoms: C_53  and  C_54 
REMARK   40  A    between atoms: C_54  and  C_55 
ROOT
ATOM      1  C   LIG d   1       2.197  -5.761 -10.481  0.00  0.00     0.076 C 
ATOM      2  H   LIG d   1       2.666  -6.744 -10.424  0.00  0.00     0.055 H 
ENDROOT
BRANCH   1   3
ATOM      3  N   LIG d   1       2.490  -5.009  -9.258  0.00  0.00    -0.305 N 
ATOM      4  C   LIG d   1       3.567  -5.326  -8.514  0.00  0.00     0.242 C 
ATOM      5  O   LIG d   1       4.296  -6.234  -8.856  0.00  0.00    -0.273 OA
ATOM      6  H   LIG d   1       1.908  -4.284  -8.984  0.00  0.00     0.149 HD
BRANCH   4   7
ATOM      7  C   LIG d   1       3.868  -4.554  -7.255  0.00  0.00     0.131 C 
ATOM      8  H   LIG d   1       3.560  -3.516  -7.384  0.00  0.00     0.069 H 
BRANCH   7   9
ATOM      9  C   LIG d   1       5.371  -4.607  -6.971  0.00  0.00    -0.018 C 
ATOM     10  H   LIG d   1       5.747  -3.597  -6.810  0.00  0.00     0.029 H 
ATOM     11  H   LIG d   1       5.886  -5.054  -7.822  0.00  0.00     0.029 H 
BRANCH   9  12
ATOM     12  C   LIG d   1       5.624  -5.452  -5.721  0.00  0.00    -0.050 C 
ATOM     13  H   LIG d   1       5.323  -6.482  -5.912  0.00  0.00     0.027 H 
ATOM     14  H   LIG d   1       5.044  -5.053  -4.889  0.00  0.00     0.027 H 
BRANCH  12  15
ATOM     15  C   LIG d   1       7.112  -5.412  -5.371  0.00  0.00    -0.053 C 
ATOM     16  H   LIG d   1       7.564  -6.380  -5.590  0.00  0.00     0.026 H 
ATOM     17  H   LIG d   1       7.231  -5.188  -4.311  0.00  0.00     0.026 H 
BRANCH  15  18
ATOM     18  C   LIG d   1       7.803  -4.329  -6.202  0.00  0.00    -0.053 C 
ATOM     19  H   LIG d   1       7.063  -3.818  -6.820  0.00  0.00     0.026 H 
ATOM     20  H   LIG d   1       8.557  -4.787  -6.842  0.00  0.00     0.026 H 
BRANCH  18  21
ATOM     21  C   LIG d   1       8.472  -3.318  -5.269  0.00  0.00    -0.053 C 
ATOM     22  H   LIG d   1       9.554  -3.374  -5.389  0.00  0.00     0.026 H 
ATOM     23  H   LIG d   1       8.209  -3.548  -4.236  0.00  0.00     0.026 H 
BRANCH  21  24
ATOM     24  C   LIG d   1       7.993  -1.908  -5.616  0.00  0.00    -0.053 C 
ATOM     25  H   LIG d   1       7.108  -1.970  -6.250  0.00  0.00     0.026 H 
ATOM     26  H   LIG d   1       8.782  -1.375  -6.145  0.00  0.00     0.026 H 
BRANCH  24  27
ATOM     27  C   LIG d   1       7.645  -1.156  -4.329  0.00  0.00    -0.053 C 
ATOM     28  H   LIG d   1       7.181  -0.202  -4.579  0.00  0.00     0.026 H 
ATOM     29  H   LIG d   1       8.555  -0.977  -3.756  0.00  0.00     0.026 H 
BRANCH  27  30
ATOM     30  C   LIG d   1       6.675  -1.994  -3.494  0.00  0.00    -0.053 C 
ATOM     31  H   LIG d   1       6.549  -1.535  -2.514  0.00  0.00     0.026 H 
ATOM     32  H   LIG d   1       7.073  -3.001  -3.376  0.00  0.00     0.026 H 
BRANCH  30  33
ATOM     33  C   LIG d   1       5.320  -2.061  -4.204  0.00  0.00    -0.053 C 
ATOM     34  H   LIG d   1       5.409  -2.678  -5.098  0.00  0.00     0.026 H 
ATOM     35  H   LIG d   1       5.007  -1.055  -4.484  0.00  0.00     0.026 H 
BRANCH  33  36
ATOM     36  C   LIG d   1       4.282  -2.675  -3.262  0.00  0.00    -0.053 C 
ATOM     37  H   LIG d   1       4.726  -3.517  -2.732  0.00  0.00     0.026 H 
ATOM     38  H   LIG d   1       3.426  -3.020  -3.841  0.00  0.00     0.026 H 
BRANCH  36  39
ATOM     39  C   LIG d   1       3.825  -1.621  -2.252  0.00  0.00    -0.053 C 
ATOM     40  H   LIG d   1       4.696  -1.121  -1.828  0.00  0.00     0.026 H 
ATOM     41  H   LIG d   1       3.258  -2.103  -1.455  0.00  0.00     0.026 H 
BRANCH  39  42
ATOM     42  C   LIG d   1       2.940  -0.590  -2.955  0.00  0.00    -0.053 C 
ATOM     43  H   LIG d   1       1.909  -0.705  -2.618  0.00  0.00     0.026 H 
ATOM     44  H   LIG d   1       2.988  -0.745  -4.033  0.00  0.00     0.026 H 
BRANCH  42  45
ATOM     45  C   LIG d   1       3.431   0.819  -2.619  0.00  0.00    -0.056 C 
ATOM     46  H   LIG d   1       2.630   1.375  -2.131  0.00  0.00     0.026 H 
ATOM     47  H   LIG d   1       3.721   1.331  -3.537  0.00  0.00     0.026 H 
BRANCH  45  48
ATOM     48  C   LIG d   1       4.637   0.730  -1.682  0.00  0.00    -0.065 C 
ATOM     49  H   LIG d   1       4.313   0.366  -0.707  0.00  0.00     0.023 H 
ATOM     50  H   LIG d   1       5.372   0.042  -2.101  0.00  0.00     0.023 H 
ATOM     51  H   LIG d   1       5.085   1.717  -1.571  0.00  0.00     0.023 H 
ENDBRANCH  45  48
ENDBRANCH  42  45
ENDBRANCH  39  42
ENDBRANCH  36  39
ENDBRANCH  33  36
ENDBRANCH  30  33
ENDBRANCH  27  30
ENDBRANCH  24  27
ENDBRANCH  21  24
ENDBRANCH  18  21
ENDBRANCH  15  18
ENDBRANCH  12  15
ENDBRANCH   9  12
ENDBRANCH   7   9
BRANCH   7  52
ATOM     52  O   LIG d   1       3.155  -5.131  -6.160  0.00  0.00    -0.383 OA
ATOM     53  H   LIG d   1       3.687  -5.245  -5.360  0.00  0.00     0.210 HD
ENDBRANCH   7  52
ENDBRANCH   4   7
ENDBRANCH   1   3
BRANCH   1  54
ATOM     54  C   LIG d   1       0.684  -5.925 -10.630  0.00  0.00     0.072 C 
ATOM     55  H   LIG d   1       0.177  -5.105 -10.124  0.00  0.00     0.058 H 
ATOM     56  H   LIG d   1       0.420  -5.918 -11.689  0.00  0.00     0.058 H 
BRANCH  54  57
ATOM     57  O   LIG d   1       0.280  -7.167 -10.048  0.00  0.00    -0.347 OA
BRANCH  57  58
ATOM     58  C   LIG d   1      -1.130  -7.391 -10.079  0.00  0.00     0.188 C 
ATOM     59  H   LIG d   1      -1.360  -8.334  -9.584  0.00  0.00     0.094 H 
ATOM     60  O   LIG d   1      -1.575  -7.445 -11.436  0.00  0.00    -0.341 OA
ATOM     61  C   LIG d   1      -2.975  -7.691 -11.582  0.00  0.00     0.113 C 
ATOM     62  C   LIG d   1      -3.763  -6.559 -10.917  0.00  0.00     0.112 C 
ATOM     63  H   LIG d   1      -3.229  -8.639 -11.107  0.00  0.00     0.065 H 
ATOM     64  C   LIG d   1      -3.359  -6.463  -9.444  0.00  0.00     0.114 C 
ATOM     65  H   LIG d   1      -3.541  -5.617 -11.419  0.00  0.00     0.065 H 
ATOM     66  C   LIG d   1      -1.844  -6.248  -9.354  0.00  0.00     0.134 C 
ATOM     67  H   LIG d   1      -3.626  -7.387  -8.930  0.00  0.00     0.065 H 
ATOM     68  H   LIG d   1      -1.583  -5.299  -9.823  0.00  0.00     0.067 H 
BRANCH  61  69
ATOM     69  C   LIG d   1      -3.330  -7.755 -13.069  0.00  0.00     0.073 C 
ATOM     70  H   LIG d   1      -4.088  -7.006 -13.295  0.00  0.00     0.058 H 
ATOM     71  H   LIG d   1      -2.437  -7.559 -13.664  0.00  0.00     0.058 H 
BRANCH  69  72
ATOM     72  O   LIG d   1      -3.835  -9.054 -13.383  0.00  0.00    -0.392 OA
ATOM     73  H   LIG d   1      -4.021  -9.602 -12.608  0.00  0.00     0.209 HD
ENDBRANCH  69  72
ENDBRANCH  61  69
BRANCH  62  74
ATOM     74  O   LIG d   1      -5.163  -6.831 -11.012  0.00  0.00    -0.387 OA
ATOM     75  H   LIG d   1      -5.720  -6.041 -10.988  0.00  0.00     0.210 HD
ENDBRANCH  62  74
BRANCH  64  76
ATOM     76  O   LIG d   1      -4.035  -5.363  -8.831  0.00  0.00    -0.386 OA
ATOM     77  H   LIG d   1      -4.073  -5.413  -7.866  0.00  0.00     0.210 HD
ENDBRANCH  64  76
BRANCH  66  78
ATOM     78  O   LIG d   1      -1.444  -6.228  -7.982  0.00  0.00    -0.384 OA
ATOM     79  H   LIG d   1      -1.986  -5.655  -7.423  0.00  0.00     0.210 HD
ENDBRANCH  66  78
ENDBRANCH  57  58
ENDBRANCH  54  57
ENDBRANCH   1  54
BRANCH   1  80
ATOM     80  C   LIG d   1       2.750  -5.003 -11.690  0.00  0.00     0.094 C 
ATOM     81  H   LIG d   1       2.157  -5.246 -12.572  0.00  0.00     0.066 H 
BRANCH  80  82
ATOM     82  C   LIG d   1       2.678  -3.521 -11.430  0.00  0.00    -0.058 C 
ATOM     83  C   LIG d   1       2.387  -2.697 -12.407  0.00  0.00    -0.085 C 
ATOM     84  H   LIG d   1       2.117  -3.085 -13.377  0.00  0.00     0.057 H 
ATOM     85  H   LIG d   1       2.867  -3.137 -10.438  0.00  0.00     0.059 H 
BRANCH  83  86
ATOM     86  C   LIG d   1       2.428  -1.208 -12.174  0.00  0.00    -0.031 C 
ATOM     87  H   LIG d   1       3.410  -0.825 -12.458  0.00  0.00     0.031 H 
ATOM     88  H   LIG d   1       1.661  -0.725 -12.778  0.00  0.00     0.031 H 
BRANCH  86  89
ATOM     89  C   LIG d   1       2.174  -0.916 -10.694  0.00  0.00    -0.031 C 
ATOM     90  H   LIG d   1       1.100  -0.906 -10.506  0.00  0.00     0.031 H 
ATOM     91  H   LIG d   1       2.643  -1.689 -10.086  0.00  0.00     0.031 H 
BRANCH  89  92
ATOM     92  C   LIG d   1       2.760   0.426 -10.340  0.00  0.00    -0.088 C 
ATOM     93  C   LIG d   1       2.779   0.824  -9.092  0.00  0.00    -0.088 C 
ATOM     94  H   LIG d   1       3.068   1.836  -8.852  0.00  0.00     0.057 H 
ATOM     95  H   LIG d   1       3.166   1.060 -11.115  0.00  0.00     0.057 H 
BRANCH  93  96
ATOM     96  C   LIG d   1       2.399  -0.132  -7.991  0.00  0.00    -0.035 C 
ATOM     97  H   LIG d   1       1.413   0.132  -7.606  0.00  0.00     0.031 H 
ATOM     98  H   LIG d   1       2.375  -1.148  -8.384  0.00  0.00     0.031 H 
BRANCH  96  99
ATOM     99  C   LIG d   1       3.426  -0.044  -6.862  0.00  0.00    -0.050 C 
ATOM    100  H   LIG d   1       3.723   0.995  -6.720  0.00  0.00     0.027 H 
ATOM    101  H   LIG d   1       2.988  -0.427  -5.941  0.00  0.00     0.027 H 
BRANCH  99 102
ATOM    102  C   LIG d   1       4.657  -0.879  -7.226  0.00  0.00    -0.053 C 
ATOM    103  H   LIG d   1       4.919  -1.523  -6.386  0.00  0.00     0.026 H 
ATOM    104  H   LIG d   1       4.435  -1.493  -8.098  0.00  0.00     0.026 H 
BRANCH 102 105
ATOM    105  C   LIG d   1       5.829   0.052  -7.540  0.00  0.00    -0.053 C 
ATOM    106  H   LIG d   1       5.458   1.064  -7.697  0.00  0.00     0.026 H 
ATOM    107  H   LIG d   1       6.531   0.048  -6.707  0.00  0.00     0.026 H 
BRANCH 105 108
ATOM    108  C   LIG d   1       6.539  -0.432  -8.806  0.00  0.00    -0.053 C 
ATOM    109  H   LIG d   1       6.505   0.350  -9.564  0.00  0.00     0.026 H 
ATOM    110  H   LIG d   1       7.578  -0.667  -8.574  0.00  0.00     0.026 H 
BRANCH 108 111
ATOM    111  C   LIG d   1       5.840  -1.686  -9.335  0.00  0.00    -0.053 C 
ATOM    112  H   LIG d   1       6.361  -2.573  -8.974  0.00  0.00     0.026 H 
ATOM    113  H   LIG d   1       4.808  -1.702  -8.983  0.00  0.00     0.026 H 
BRANCH 111 114
ATOM    114  C   LIG d   1       5.856  -1.672 -10.865  0.00  0.00    -0.053 C 
ATOM    115  H   LIG d   1       4.833  -1.696 -11.240  0.00  0.00     0.026 H 
ATOM    116  H   LIG d   1       6.351  -0.766 -11.215  0.00  0.00     0.026 H 
BRANCH 114 117
ATOM    117  C   LIG d   1       6.615  -2.898 -11.377  0.00  0.00    -0.056 C 
ATOM    118  H   LIG d   1       6.040  -3.379 -12.167  0.00  0.00     0.026 H 
ATOM    119  H   LIG d   1       7.584  -2.589 -11.769  0.00  0.00     0.026 H 
BRANCH 117 120
ATOM    120  C   LIG d   1       6.823  -3.885 -10.225  0.00  0.00    -0.065 C 
ATOM    121  H   LIG d   1       6.618  -3.387  -9.279  0.00  0.00     0.023 H 
ATOM    122  H   LIG d   1       6.148  -4.731 -10.346  0.00  0.00     0.023 H 
ATOM    123  H   LIG d   1       7.855  -4.239 -10.232  0.00  0.00     0.023 H 
ENDBRANCH 117 120
ENDBRANCH 114 117
ENDBRANCH 111 114
ENDBRANCH 108 111
ENDBRANCH 105 108
ENDBRANCH 102 105
ENDBRANCH  99 102
ENDBRANCH  96  99
ENDBRANCH  93  96
ENDBRANCH  89  92
ENDBRANCH  86  89
ENDBRANCH  83  86
ENDBRANCH  80  82
BRANCH  80 124
ATOM    124  O   LIG d   1       4.109  -5.384 -11.910  0.00  0.00    -0.386 OA
ATOM    125  H   LIG d   1       4.212  -6.192 -12.431  0.00  0.00     0.210 HD
ENDBRANCH  80 124
ENDBRANCH   1  80
TORSDOF 40
ENDMDL
MODEL 9
REMARK VINA RESULT:      -5.3      2.249      5.205
REMARK WARNING: 32 MAX_TORS EXCEEDED!!!
REMARK  40 active torsions:
REMARK  status: ('A' for Active; 'I' for Inactive)
REMARK    1  A    between atoms: C_1  and  C_2 
REMARK    2  A    between atoms: C_2  and  C_3 
REMARK    3  A    between atoms: C_3  and  C_4 
REMARK    4  A    between atoms: C_4  and  C_5 
REMARK    5  A    between atoms: C_5  and  C_6 
REMARK    6  A    between atoms: C_6  and  C_7 
REMARK    7  A    between atoms: C_7  and  C_8 
REMARK    8  A    between atoms: C_8  and  C_9 
REMARK    9  A    between atoms: C_9  and  C_10 
REMARK   10  A    between atoms: C_10  and  C_11 
REMARK   11  A    between atoms: C_11  and  C_12 
REMARK   12  A    between atoms: C_12  and  C_13 
REMARK   13  A    between atoms: C_13  and  C_14 
REMARK   14  A    between atoms: C_14  and  C_15 
REMARK   15  A    between atoms: C_15  and  C_16 
REMARK   16  A    between atoms: C_15  and  O_57 
REMARK       I    between atoms: C_16  and  N_18 
REMARK   17  A    between atoms: N_18  and  C_19 
REMARK   18  A    between atoms: C_19  and  C_21 
REMARK   19  A    between atoms: C_19  and  C_39 
REMARK   20  A    between atoms: C_21  and  O_22 
REMARK   21  A    between atoms: O_22  and  C_23 
REMARK   22  A    between atoms: C_25  and  O_38 
REMARK   23  A    between atoms: C_27  and  O_37 
REMARK   24  A    between atoms: C_29  and  O_36 
REMARK   25  A    between atoms: C_31  and  C_34 
REMARK   26  A    between atoms: C_34  and  O_35 
REMARK   27  A    between atoms: C_39  and  C_41 
REMARK   28  A    between atoms: C_39  and  O_56 
REMARK   29  A    between atoms: C_42  and  C_43 
REMARK   30  A    between atoms: C_43  and  C_44 
REMARK   31  A    between atoms: C_44  and  C_45 
REMARK   32  A    between atoms: C_46  and  C_47 
REMARK   33  A    between atoms: C_47  and  C_48 
REMARK   34  A    between atoms: C_48  and  C_49 
REMARK   35  A    between atoms: C_49  and  C_50 
REMARK   36  A    between atoms: C_50  and  C_51 
REMARK   37  A    between atoms: C_51  and  C_52 
REMARK   38  A    between atoms: C_52  and  C_53 
REMARK   39  A    between atoms: C_53  and  C_54 
REMARK   40  A    between atoms: C_54  and  C_55 
ROOT
ATOM      1  C   LIG d   1       9.896   2.880  -5.312  0.00  0.00     0.076 C 
ATOM      2  H   LIG d   1      10.725   2.262  -5.658  0.00  0.00     0.055 H 
ENDROOT
BRANCH   1   3
ATOM      3  N   LIG d   1       8.917   3.030  -6.392  0.00  0.00    -0.305 N 
ATOM      4  C   LIG d   1       9.164   2.499  -7.605  0.00  0.00     0.242 C 
ATOM      5  O   LIG d   1      10.199   1.897  -7.805  0.00  0.00    -0.273 OA
ATOM      6  H   LIG d   1       8.090   3.511  -6.232  0.00  0.00     0.149 HD
BRANCH   4   7
ATOM      7  C   LIG d   1       8.157   2.654  -8.715  0.00  0.00     0.131 C 
ATOM      8  H   LIG d   1       7.310   3.240  -8.358  0.00  0.00     0.069 H 
BRANCH   7   9
ATOM      9  C   LIG d   1       7.671   1.272  -9.157  0.00  0.00    -0.018 C 
ATOM     10  H   LIG d   1       8.530   0.632  -9.361  0.00  0.00     0.029 H 
ATOM     11  H   LIG d   1       7.069   1.370 -10.061  0.00  0.00     0.029 H 
BRANCH   9  12
ATOM     12  C   LIG d   1       6.823   0.650  -8.045  0.00  0.00    -0.050 C 
ATOM     13  H   LIG d   1       5.780   0.937  -8.180  0.00  0.00     0.027 H 
ATOM     14  H   LIG d   1       7.176   1.006  -7.078  0.00  0.00     0.027 H 
BRANCH  12  15
ATOM     15  C   LIG d   1       6.944  -0.874  -8.103  0.00  0.00    -0.053 C 
ATOM     16  H   LIG d   1       6.519  -1.307  -7.197  0.00  0.00     0.026 H 
ATOM     17  H   LIG d   1       7.994  -1.152  -8.182  0.00  0.00     0.026 H 
BRANCH  15  18
ATOM     18  C   LIG d   1       6.184  -1.400  -9.323  0.00  0.00    -0.053 C 
ATOM     19  H   LIG d   1       6.821  -2.089  -9.878  0.00  0.00     0.026 H 
ATOM     20  H   LIG d   1       5.905  -0.565  -9.965  0.00  0.00     0.026 H 
BRANCH  18  21
ATOM     21  C   LIG d   1       4.921  -2.131  -8.861  0.00  0.00    -0.053 C 
ATOM     22  H   LIG d   1       4.239  -2.244  -9.704  0.00  0.00     0.026 H 
ATOM     23  H   LIG d   1       4.435  -1.554  -8.075  0.00  0.00     0.026 H 
BRANCH  21  24
ATOM     24  C   LIG d   1       5.300  -3.511  -8.323  0.00  0.00    -0.053 C 
ATOM     25  H   LIG d   1       6.369  -3.673  -8.455  0.00  0.00     0.026 H 
ATOM     26  H   LIG d   1       4.746  -4.278  -8.865  0.00  0.00     0.026 H 
BRANCH  24  27
ATOM     27  C   LIG d   1       4.953  -3.590  -6.834  0.00  0.00    -0.053 C 
ATOM     28  H   LIG d   1       3.914  -3.899  -6.719  0.00  0.00     0.026 H 
ATOM     29  H   LIG d   1       5.093  -2.611  -6.376  0.00  0.00     0.026 H 
BRANCH  27  30
ATOM     30  C   LIG d   1       5.868  -4.608  -6.150  0.00  0.00    -0.053 C 
ATOM     31  H   LIG d   1       5.475  -5.612  -6.306  0.00  0.00     0.026 H 
ATOM     32  H   LIG d   1       5.912  -4.397  -5.082  0.00  0.00     0.026 H 
BRANCH  30  33
ATOM     33  C   LIG d   1       7.274  -4.512  -6.748  0.00  0.00    -0.053 C 
ATOM     34  H   LIG d   1       7.228  -3.984  -7.700  0.00  0.00     0.026 H 
ATOM     35  H   LIG d   1       7.671  -5.514  -6.905  0.00  0.00     0.026 H 
BRANCH  33  36
ATOM     36  C   LIG d   1       8.185  -3.748  -5.785  0.00  0.00    -0.053 C 
ATOM     37  H   LIG d   1       7.815  -2.730  -5.665  0.00  0.00     0.026 H 
ATOM     38  H   LIG d   1       9.198  -3.721  -6.187  0.00  0.00     0.026 H 
BRANCH  36  39
ATOM     39  C   LIG d   1       8.193  -4.450  -4.426  0.00  0.00    -0.053 C 
ATOM     40  H   LIG d   1       7.655  -5.395  -4.501  0.00  0.00     0.026 H 
ATOM     41  H   LIG d   1       7.709  -3.814  -3.685  0.00  0.00     0.026 H 
BRANCH  39  42
ATOM     42  C   LIG d   1       9.637  -4.720  -4.000  0.00  0.00    -0.053 C 
ATOM     43  H   LIG d   1      10.317  -4.161  -4.645  0.00  0.00     0.026 H 
ATOM     44  H   LIG d   1       9.849  -5.786  -4.086  0.00  0.00     0.026 H 
BRANCH  42  45
ATOM     45  C   LIG d   1       9.834  -4.278  -2.548  0.00  0.00    -0.056 C 
ATOM     46  H   LIG d   1       9.094  -3.517  -2.299  0.00  0.00     0.026 H 
ATOM     47  H   LIG d   1      10.835  -3.865  -2.426  0.00  0.00     0.026 H 
BRANCH  45  48
ATOM     48  C   LIG d   1       9.661  -5.482  -1.620  0.00  0.00    -0.065 C 
ATOM     49  H   LIG d   1      10.632  -5.772  -1.218  0.00  0.00     0.023 H 
ATOM     50  H   LIG d   1       8.993  -5.216  -0.800  0.00  0.00     0.023 H 
ATOM     51  H   LIG d   1       9.236  -6.314  -2.180  0.00  0.00     0.023 H 
ENDBRANCH  45  48
ENDBRANCH  42  45
ENDBRANCH  39  42
ENDBRANCH  36  39
ENDBRANCH  33  36
ENDBRANCH  30  33
ENDBRANCH  27  30
ENDBRANCH  24  27
ENDBRANCH  21  24
ENDBRANCH  18  21
ENDBRANCH  15  18
ENDBRANCH  12  15
ENDBRANCH   9  12
ENDBRANCH   7   9
BRANCH   7  52
ATOM     52  O   LIG d   1       8.766   3.321  -9.821  0.00  0.00    -0.383 OA
ATOM     53  H   LIG d   1       8.136   3.685 -10.458  0.00  0.00     0.210 HD
ENDBRANCH   7  52
ENDBRANCH   4   7
ENDBRANCH   1   3
BRANCH   1  54
ATOM     54  C   LIG d   1      10.423   4.258  -4.906  0.00  0.00     0.072 C 
ATOM     55  H   LIG d   1      11.458   4.170  -4.577  0.00  0.00     0.058 H 
ATOM     56  H   LIG d   1      10.370   4.934  -5.761  0.00  0.00     0.058 H 
BRANCH  54  57
ATOM     57  O   LIG d   1       9.626   4.776  -3.839  0.00  0.00    -0.347 OA
BRANCH  57  58
ATOM     58  C   LIG d   1      10.278   5.783  -3.063  0.00  0.00     0.188 C 
ATOM     59  H   LIG d   1      11.182   6.110  -3.576  0.00  0.00     0.094 H 
ATOM     60  O   LIG d   1      10.625   5.250  -1.784  0.00  0.00    -0.341 OA
ATOM     61  C   LIG d   1      11.307   6.171  -0.932  0.00  0.00     0.113 C 
ATOM     62  C   LIG d   1      10.407   7.379  -0.662  0.00  0.00     0.112 C 
ATOM     63  H   LIG d   1      12.226   6.503  -1.417  0.00  0.00     0.065 H 
ATOM     64  C   LIG d   1      10.020   8.025  -1.995  0.00  0.00     0.114 C 
ATOM     65  H   LIG d   1       9.507   7.053  -0.139  0.00  0.00     0.065 H 
ATOM     66  C   LIG d   1       9.336   6.976  -2.879  0.00  0.00     0.134 C 
ATOM     67  H   LIG d   1      10.914   8.395  -2.496  0.00  0.00     0.065 H 
ATOM     68  H   LIG d   1       8.415   6.642  -2.401  0.00  0.00     0.067 H 
BRANCH  61  69
ATOM     69  C   LIG d   1      11.652   5.485   0.392  0.00  0.00     0.073 C 
ATOM     70  H   LIG d   1      11.928   4.448   0.203  0.00  0.00     0.058 H 
ATOM     71  H   LIG d   1      12.488   6.003   0.863  0.00  0.00     0.058 H 
BRANCH  69  72
ATOM     72  O   LIG d   1      10.517   5.526   1.259  0.00  0.00    -0.392 OA
ATOM     73  H   LIG d   1       9.683   5.293   0.829  0.00  0.00     0.209 HD
ENDBRANCH  69  72
ENDBRANCH  61  69
BRANCH  62  74
ATOM     74  O   LIG d   1      11.108   8.329   0.143  0.00  0.00    -0.387 OA
ATOM     75  H   LIG d   1      10.555   9.049   0.475  0.00  0.00     0.210 HD
ENDBRANCH  62  74
BRANCH  64  76
ATOM     76  O   LIG d   1       9.120   9.110  -1.759  0.00  0.00    -0.386 OA
ATOM     77  H   LIG d   1       9.314   9.615  -0.958  0.00  0.00     0.210 HD
ENDBRANCH  64  76
BRANCH  66  78
ATOM     78  O   LIG d   1       9.033   7.547  -4.154  0.00  0.00    -0.384 OA
ATOM     79  H   LIG d   1       8.633   8.426  -4.105  0.00  0.00     0.210 HD
ENDBRANCH  66  78
ENDBRANCH  57  58
ENDBRANCH  54  57
ENDBRANCH   1  54
BRANCH   1  80
ATOM     80  C   LIG d   1       9.230   2.213  -4.107  0.00  0.00     0.094 C 
ATOM     81  H   LIG d   1       8.475   2.881  -3.694  0.00  0.00     0.066 H 
BRANCH  80  82
ATOM     82  C   LIG d   1       8.579   0.925  -4.541  0.00  0.00    -0.058 C 
ATOM     83  C   LIG d   1       7.355   0.650  -4.162  0.00  0.00    -0.085 C 
ATOM     84  H   LIG d   1       6.785   1.380  -3.608  0.00  0.00     0.057 H 
ATOM     85  H   LIG d   1       9.121   0.230  -5.166  0.00  0.00     0.059 H 
BRANCH  83  86
ATOM     86  C   LIG d   1       6.746  -0.687  -4.500  0.00  0.00    -0.031 C 
ATOM     87  H   LIG d   1       5.775  -0.534  -4.972  0.00  0.00     0.031 H 
ATOM     88  H   LIG d   1       7.402  -1.223  -5.184  0.00  0.00     0.031 H 
BRANCH  86  89
ATOM     89  C   LIG d   1       6.567  -1.503  -3.218  0.00  0.00    -0.031 C 
ATOM     90  H   LIG d   1       7.415  -2.178  -3.097  0.00  0.00     0.031 H 
ATOM     91  H   LIG d   1       6.512  -0.830  -2.364  0.00  0.00     0.031 H 
BRANCH  89  92
ATOM     92  C   LIG d   1       5.295  -2.306  -3.309  0.00  0.00    -0.088 C 
ATOM     93  C   LIG d   1       4.257  -1.972  -2.583  0.00  0.00    -0.088 C 
ATOM     94  H   LIG d   1       3.396  -2.623  -2.540  0.00  0.00     0.057 H 
ATOM     95  H   LIG d   1       5.238  -3.156  -3.974  0.00  0.00     0.057 H 
BRANCH  93  96
ATOM     96  C   LIG d   1       4.263  -0.680  -1.808  0.00  0.00    -0.035 C 
ATOM     97  H   LIG d   1       3.818  -0.844  -0.826  0.00  0.00     0.031 H 
ATOM     98  H   LIG d   1       5.290  -0.333  -1.688  0.00  0.00     0.031 H 
BRANCH  96  99
ATOM     99  C   LIG d   1       3.453   0.373  -2.565  0.00  0.00    -0.050 C 
ATOM    100  H   LIG d   1       2.878   0.970  -1.856  0.00  0.00     0.027 H 
ATOM    101  H   LIG d   1       4.130   1.022  -3.121  0.00  0.00     0.027 H 
BRANCH  99 102
ATOM    102  C   LIG d   1       2.496  -0.320  -3.538  0.00  0.00    -0.053 C 
ATOM    103  H   LIG d   1       2.857  -1.328  -3.745  0.00  0.00     0.026 H 
ATOM    104  H   LIG d   1       1.503  -0.374  -3.094  0.00  0.00     0.026 H 
BRANCH 102 105
ATOM    105  C   LIG d   1       2.431   0.475  -4.843  0.00  0.00    -0.053 C 
ATOM    106  H   LIG d   1       1.426   0.407  -5.260  0.00  0.00     0.026 H 
ATOM    107  H   LIG d   1       2.673   1.519  -4.646  0.00  0.00     0.026 H 
BRANCH 105 108
ATOM    108  C   LIG d   1       3.436  -0.101  -5.842  0.00  0.00    -0.053 C 
ATOM    109  H   LIG d   1       4.359   0.478  -5.804  0.00  0.00     0.026 H 
ATOM    110  H   LIG d   1       3.649  -1.139  -5.587  0.00  0.00     0.026 H 
BRANCH 108 111
ATOM    111  C   LIG d   1       2.848  -0.034  -7.254  0.00  0.00    -0.053 C 
ATOM    112  H   LIG d   1       3.474  -0.609  -7.935  0.00  0.00     0.026 H 
ATOM    113  H   LIG d   1       1.840  -0.448  -7.246  0.00  0.00     0.026 H 
BRANCH 111 114
ATOM    114  C   LIG d   1       2.797   1.424  -7.716  0.00  0.00    -0.053 C 
ATOM    115  H   LIG d   1       1.782   1.805  -7.606  0.00  0.00     0.026 H 
ATOM    116  H   LIG d   1       3.478   2.022  -7.110  0.00  0.00     0.026 H 
BRANCH 114 117
ATOM    117  C   LIG d   1       3.216   1.507  -9.185  0.00  0.00    -0.056 C 
ATOM    118  H   LIG d   1       3.738   0.592  -9.466  0.00  0.00     0.026 H 
ATOM    119  H   LIG d   1       2.332   1.627  -9.810  0.00  0.00     0.026 H 
BRANCH 117 120
ATOM    120  C   LIG d   1       4.147   2.706  -9.382  0.00  0.00    -0.065 C 
ATOM    121  H   LIG d   1       4.793   2.527 -10.241  0.00  0.00     0.023 H 
ATOM    122  H   LIG d   1       3.554   3.603  -9.553  0.00  0.00     0.023 H 
ATOM    123  H   LIG d   1       4.761   2.840  -8.490  0.00  0.00     0.023 H 
ENDBRANCH 117 120
ENDBRANCH 114 117
ENDBRANCH 111 114
ENDBRANCH 108 111
ENDBRANCH 105 108
ENDBRANCH 102 105
ENDBRANCH  99 102
ENDBRANCH  96  99
ENDBRANCH  93  96
ENDBRANCH  89  92
ENDBRANCH  86  89
ENDBRANCH  83  86
ENDBRANCH  80  82
BRANCH  80 124
ATOM    124  O   LIG d   1      10.216   1.936  -3.111  0.00  0.00    -0.386 OA
ATOM    125  H   LIG d   1       9.956   1.252  -2.479  0.00  0.00     0.210 HD
ENDBRANCH  80 124
ENDBRANCH   1  80
TORSDOF 40
ENDMDL
