MODEL 1
REMARK VINA RESULT:      -6.0      0.000      0.000
REMARK  7 active torsions:
REMARK  status: ('A' for Active; 'I' for Inactive)
REMARK    1  A    between atoms: C_1  and  O_2 
REMARK    2  A    between atoms: O_2  and  C_3 
REMARK    3  A    between atoms: C_6  and  C_11 
REMARK    4  A    between atoms: C_8  and  O_9 
REMARK    5  A    between atoms: O_9  and  C_10 
REMARK    6  A    between atoms: C_12  and  O_23 
REMARK    7  A    between atoms: C_18  and  O_22 
ROOT
ATOM      1  C   LIG d   1       3.740  -0.217  -3.581  0.00  0.00     0.162 A 
ATOM      2  C   LIG d   1       2.781   0.545  -4.234  0.00  0.00    -0.016 A 
ATOM      3  C   LIG d   1       2.686   0.509  -5.608  0.00  0.00    -0.047 A 
ATOM      4  C   LIG d   1       3.558  -0.295  -6.349  0.00  0.00     0.025 A 
ATOM      5  C   LIG d   1       4.520  -1.066  -5.690  0.00  0.00    -0.005 A 
ATOM      6  C   LIG d   1       4.613  -1.021  -4.312  0.00  0.00     0.162 A 
ATOM      7  H   LIG d   1       2.107   1.166  -3.663  0.00  0.00     0.066 H 
ATOM      8  H   LIG d   1       1.938   1.102  -6.113  0.00  0.00     0.063 H 
ATOM      9  H   LIG d   1       5.192  -1.692  -6.258  0.00  0.00     0.066 H 
ENDROOT
BRANCH   4  10
ATOM     10  C   LIG d   1       3.458  -0.334  -7.819  0.00  0.00     0.181 A 
ATOM     11  O   LIG d   1       2.577  -1.177  -8.384  0.00  0.00    -0.451 OA
ATOM     12  C   LIG d   1       2.422  -1.268  -9.721  0.00  0.00     0.143 A 
ATOM     13  C   LIG d   1       3.206  -0.471 -10.573  0.00  0.00     0.068 A 
ATOM     14  C   LIG d   1       1.498  -2.145 -10.272  0.00  0.00     0.023 A 
ATOM     15  C   LIG d   1       4.182   0.453  -9.970  0.00  0.00     0.234 A 
ATOM     16  C   LIG d   1       3.056  -0.564 -11.958  0.00  0.00    -0.044 A 
ATOM     17  C   LIG d   1       4.266   0.481  -8.554  0.00  0.00     0.208 A 
ATOM     18  O   LIG d   1       4.889   1.169 -10.661  0.00  0.00    -0.283 OA
ATOM     19  C   LIG d   1       2.142  -1.431 -12.484  0.00  0.00    -0.019 A 
ATOM     20  H   LIG d   1       3.659   0.049 -12.610  0.00  0.00     0.063 H 
ATOM     21  C   LIG d   1       1.360  -2.225 -11.647  0.00  0.00     0.120 A 
ATOM     22  H   LIG d   1       2.025  -1.504 -13.555  0.00  0.00     0.065 H 
ATOM     23  H   LIG d   1       0.888  -2.764  -9.630  0.00  0.00     0.069 H 
BRANCH  17  24
ATOM     24  O   LIG d   1       5.147   1.313  -7.935  0.00  0.00    -0.501 OA
ATOM     25  H   LIG d   1       6.039   1.288  -8.307  0.00  0.00     0.292 HD
ENDBRANCH  17  24
BRANCH  21  26
ATOM     26  O   LIG d   1       0.456  -3.083 -12.185  0.00  0.00    -0.507 OA
ATOM     27  H   LIG d   1      -0.438  -2.720 -12.256  0.00  0.00     0.292 HD
ENDBRANCH  21  26
ENDBRANCH   4  10
BRANCH   6  28
ATOM     28  O   LIG d   1       5.552  -1.766  -3.670  0.00  0.00    -0.491 OA
BRANCH  28  29
ATOM     29  C   LIG d   1       6.889  -1.265  -3.669  0.00  0.00     0.079 C 
ATOM     30  H   LIG d   1       6.878  -0.197  -3.889  0.00  0.00     0.066 H 
ATOM     31  H   LIG d   1       7.339  -1.428  -2.690  0.00  0.00     0.066 H 
ATOM     32  H   LIG d   1       7.473  -1.785  -4.429  0.00  0.00     0.066 H 
ENDBRANCH  28  29
ENDBRANCH   6  28
BRANCH   1  33
ATOM     33  O   LIG d   1       3.829  -0.179  -2.226  0.00  0.00    -0.491 OA
BRANCH  33  34
ATOM     34  C   LIG d   1       4.519   0.933  -1.652  0.00  0.00     0.079 C 
ATOM     35  H   LIG d   1       5.591   0.820  -1.815  0.00  0.00     0.066 H 
ATOM     36  H   LIG d   1       4.176   1.855  -2.122  0.00  0.00     0.066 H 
ATOM     37  H   LIG d   1       4.317   0.974  -0.583  0.00  0.00     0.066 H 
ENDBRANCH  33  34
ENDBRANCH   1  33
TORSDOF 7
ENDMDL
MODEL 2
REMARK VINA RESULT:      -5.8      1.763      7.571
REMARK  7 active torsions:
REMARK  status: ('A' for Active; 'I' for Inactive)
REMARK    1  A    between atoms: C_1  and  O_2 
REMARK    2  A    between atoms: O_2  and  C_3 
REMARK    3  A    between atoms: C_6  and  C_11 
REMARK    4  A    between atoms: C_8  and  O_9 
REMARK    5  A    between atoms: O_9  and  C_10 
REMARK    6  A    between atoms: C_12  and  O_23 
REMARK    7  A    between atoms: C_18  and  O_22 
ROOT
ATOM      1  C   LIG d   1       4.241  -0.041 -10.716  0.00  0.00     0.162 A 
ATOM      2  C   LIG d   1       5.456  -0.048 -10.045  0.00  0.00    -0.016 A 
ATOM      3  C   LIG d   1       5.508  -0.392  -8.712  0.00  0.00    -0.047 A 
ATOM      4  C   LIG d   1       4.336  -0.735  -8.031  0.00  0.00     0.025 A 
ATOM      5  C   LIG d   1       3.113  -0.734  -8.709  0.00  0.00    -0.005 A 
ATOM      6  C   LIG d   1       3.068  -0.382 -10.045  0.00  0.00     0.162 A 
ATOM      7  H   LIG d   1       6.362   0.217 -10.569  0.00  0.00     0.066 H 
ATOM      8  H   LIG d   1       6.455  -0.398  -8.192  0.00  0.00     0.063 H 
ATOM      9  H   LIG d   1       2.206  -1.003  -8.189  0.00  0.00     0.066 H 
ENDROOT
BRANCH   4  10
ATOM     10  C   LIG d   1       4.390  -1.104  -6.605  0.00  0.00     0.181 A 
ATOM     11  O   LIG d   1       4.412  -0.125  -5.685  0.00  0.00    -0.451 OA
ATOM     12  C   LIG d   1       4.457  -0.381  -4.361  0.00  0.00     0.143 A 
ATOM     13  C   LIG d   1       4.493  -1.710  -3.905  0.00  0.00     0.068 A 
ATOM     14  C   LIG d   1       4.473   0.654  -3.437  0.00  0.00     0.023 A 
ATOM     15  C   LIG d   1       4.475  -2.795  -4.902  0.00  0.00     0.234 A 
ATOM     16  C   LIG d   1       4.545  -1.984  -2.538  0.00  0.00    -0.044 A 
ATOM     17  C   LIG d   1       4.422  -2.424  -6.270  0.00  0.00     0.208 A 
ATOM     18  O   LIG d   1       4.504  -3.968  -4.564  0.00  0.00    -0.283 OA
ATOM     19  C   LIG d   1       4.559  -0.954  -1.641  0.00  0.00    -0.019 A 
ATOM     20  H   LIG d   1       4.571  -3.005  -2.190  0.00  0.00     0.063 H 
ATOM     21  C   LIG d   1       4.524   0.367  -2.083  0.00  0.00     0.120 A 
ATOM     22  H   LIG d   1       4.599  -1.164  -0.582  0.00  0.00     0.065 H 
ATOM     23  H   LIG d   1       4.446   1.681  -3.772  0.00  0.00     0.069 H 
BRANCH  17  24
ATOM     24  O   LIG d   1       4.403  -3.380  -7.239  0.00  0.00    -0.501 OA
ATOM     25  H   LIG d   1       4.962  -3.177  -8.001  0.00  0.00     0.292 HD
ENDBRANCH  17  24
BRANCH  21  26
ATOM     26  O   LIG d   1       4.539   1.380  -1.180  0.00  0.00    -0.507 OA
ATOM     27  H   LIG d   1       4.857   2.221  -1.537  0.00  0.00     0.292 HD
ENDBRANCH  21  26
ENDBRANCH   4  10
BRANCH   6  28
ATOM     28  O   LIG d   1       1.879  -0.374 -10.705  0.00  0.00    -0.491 OA
BRANCH  28  29
ATOM     29  C   LIG d   1       1.356  -1.638 -11.115  0.00  0.00     0.079 C 
ATOM     30  H   LIG d   1       0.617  -1.979 -10.389  0.00  0.00     0.066 H 
ATOM     31  H   LIG d   1       0.884  -1.538 -12.092  0.00  0.00     0.066 H 
ATOM     32  H   LIG d   1       2.167  -2.364 -11.176  0.00  0.00     0.066 H 
ENDBRANCH  28  29
ENDBRANCH   6  28
BRANCH   1  33
ATOM     33  O   LIG d   1       4.194   0.299 -12.031  0.00  0.00    -0.491 OA
BRANCH  33  34
ATOM     34  C   LIG d   1       4.684  -0.663 -12.967  0.00  0.00     0.079 C 
ATOM     35  H   LIG d   1       4.119  -0.588 -13.895  0.00  0.00     0.066 H 
ATOM     36  H   LIG d   1       5.738  -0.471 -13.167  0.00  0.00     0.066 H 
ATOM     37  H   LIG d   1       4.571  -1.664 -12.552  0.00  0.00     0.066 H 
ENDBRANCH  33  34
ENDBRANCH   1  33
TORSDOF 7
ENDMDL
MODEL 3
REMARK VINA RESULT:      -5.6      4.454      7.047
REMARK  7 active torsions:
REMARK  status: ('A' for Active; 'I' for Inactive)
REMARK    1  A    between atoms: C_1  and  O_2 
REMARK    2  A    between atoms: O_2  and  C_3 
REMARK    3  A    between atoms: C_6  and  C_11 
REMARK    4  A    between atoms: C_8  and  O_9 
REMARK    5  A    between atoms: O_9  and  C_10 
REMARK    6  A    between atoms: C_12  and  O_23 
REMARK    7  A    between atoms: C_18  and  O_22 
ROOT
ATOM      1  C   LIG d   1       3.842  -0.480  -4.350  0.00  0.00     0.162 A 
ATOM      2  C   LIG d   1       3.908  -1.462  -3.372  0.00  0.00    -0.016 A 
ATOM      3  C   LIG d   1       4.379  -2.719  -3.683  0.00  0.00    -0.047 A 
ATOM      4  C   LIG d   1       4.793  -3.007  -4.988  0.00  0.00     0.025 A 
ATOM      5  C   LIG d   1       4.732  -2.015  -5.971  0.00  0.00    -0.005 A 
ATOM      6  C   LIG d   1       4.253  -0.759  -5.653  0.00  0.00     0.162 A 
ATOM      7  H   LIG d   1       3.589  -1.240  -2.364  0.00  0.00     0.066 H 
ATOM      8  H   LIG d   1       4.431  -3.481  -2.920  0.00  0.00     0.063 H 
ATOM      9  H   LIG d   1       5.055  -2.233  -6.978  0.00  0.00     0.066 H 
ENDROOT
BRANCH   4  10
ATOM     10  C   LIG d   1       5.298  -4.351  -5.322  0.00  0.00     0.181 A 
ATOM     11  O   LIG d   1       6.588  -4.637  -5.074  0.00  0.00    -0.451 OA
ATOM     12  C   LIG d   1       7.124  -5.844  -5.347  0.00  0.00     0.143 A 
ATOM     13  C   LIG d   1       6.328  -6.850  -5.921  0.00  0.00     0.068 A 
ATOM     14  C   LIG d   1       8.459  -6.107  -5.073  0.00  0.00     0.023 A 
ATOM     15  C   LIG d   1       4.914  -6.552  -6.205  0.00  0.00     0.234 A 
ATOM     16  C   LIG d   1       6.877  -8.101  -6.211  0.00  0.00    -0.044 A 
ATOM     17  C   LIG d   1       4.442  -5.255  -5.876  0.00  0.00     0.208 A 
ATOM     18  O   LIG d   1       4.176  -7.387  -6.702  0.00  0.00    -0.283 OA
ATOM     19  C   LIG d   1       8.192  -8.344  -5.935  0.00  0.00    -0.019 A 
ATOM     20  H   LIG d   1       6.264  -8.872  -6.651  0.00  0.00     0.063 H 
ATOM     21  C   LIG d   1       8.989  -7.353  -5.366  0.00  0.00     0.120 A 
ATOM     22  H   LIG d   1       8.617  -9.312  -6.159  0.00  0.00     0.065 H 
ATOM     23  H   LIG d   1       9.083  -5.344  -4.632  0.00  0.00     0.069 H 
BRANCH  17  24
ATOM     24  O   LIG d   1       3.145  -4.916  -6.114  0.00  0.00    -0.501 OA
ATOM     25  H   LIG d   1       3.011  -3.976  -6.295  0.00  0.00     0.292 HD
ENDBRANCH  17  24
BRANCH  21  26
ATOM     26  O   LIG d   1      10.294  -7.610  -5.097  0.00  0.00    -0.507 OA
ATOM     27  H   LIG d   1      10.900  -6.918  -5.395  0.00  0.00     0.292 HD
ENDBRANCH  21  26
ENDBRANCH   4  10
BRANCH   6  28
ATOM     28  O   LIG d   1       4.187   0.205  -6.609  0.00  0.00    -0.491 OA
BRANCH  28  29
ATOM     29  C   LIG d   1       3.095   0.136  -7.527  0.00  0.00     0.079 C 
ATOM     30  H   LIG d   1       3.347  -0.543  -8.342  0.00  0.00     0.066 H 
ATOM     31  H   LIG d   1       2.208  -0.231  -7.010  0.00  0.00     0.066 H 
ATOM     32  H   LIG d   1       2.896   1.129  -7.930  0.00  0.00     0.066 H 
ENDBRANCH  28  29
ENDBRANCH   6  28
BRANCH   1  33
ATOM     33  O   LIG d   1       3.377   0.759  -4.038  0.00  0.00    -0.491 OA
BRANCH  33  34
ATOM     34  C   LIG d   1       3.814   1.323  -2.800  0.00  0.00     0.079 C 
ATOM     35  H   LIG d   1       4.528   2.122  -2.997  0.00  0.00     0.066 H 
ATOM     36  H   LIG d   1       2.956   1.725  -2.262  0.00  0.00     0.066 H 
ATOM     37  H   LIG d   1       4.290   0.550  -2.197  0.00  0.00     0.066 H 
ENDBRANCH  33  34
ENDBRANCH   1  33
TORSDOF 7
ENDMDL
MODEL 4
REMARK VINA RESULT:      -5.4      5.234      7.997
REMARK  7 active torsions:
REMARK  status: ('A' for Active; 'I' for Inactive)
REMARK    1  A    between atoms: C_1  and  O_2 
REMARK    2  A    between atoms: O_2  and  C_3 
REMARK    3  A    between atoms: C_6  and  C_11 
REMARK    4  A    between atoms: C_8  and  O_9 
REMARK    5  A    between atoms: O_9  and  C_10 
REMARK    6  A    between atoms: C_12  and  O_23 
REMARK    7  A    between atoms: C_18  and  O_22 
ROOT
ATOM      1  C   LIG d   1      11.394  -3.892  -4.037  0.00  0.00     0.162 A 
ATOM      2  C   LIG d   1      10.939  -2.859  -4.844  0.00  0.00    -0.016 A 
ATOM      3  C   LIG d   1       9.613  -2.488  -4.811  0.00  0.00    -0.047 A 
ATOM      4  C   LIG d   1       8.721  -3.154  -3.964  0.00  0.00     0.025 A 
ATOM      5  C   LIG d   1       9.182  -4.190  -3.147  0.00  0.00    -0.005 A 
ATOM      6  C   LIG d   1      10.512  -4.561  -3.190  0.00  0.00     0.162 A 
ATOM      7  H   LIG d   1      11.627  -2.344  -5.498  0.00  0.00     0.066 H 
ATOM      8  H   LIG d   1       9.261  -1.682  -5.439  0.00  0.00     0.063 H 
ATOM      9  H   LIG d   1       8.497  -4.704  -2.488  0.00  0.00     0.066 H 
ENDROOT
BRANCH   4  10
ATOM     10  C   LIG d   1       7.302  -2.758  -3.928  0.00  0.00     0.181 A 
ATOM     11  O   LIG d   1       6.956  -1.652  -3.246  0.00  0.00    -0.451 OA
ATOM     12  C   LIG d   1       5.680  -1.222  -3.169  0.00  0.00     0.143 A 
ATOM     13  C   LIG d   1       4.658  -1.944  -3.808  0.00  0.00     0.068 A 
ATOM     14  C   LIG d   1       5.359  -0.072  -2.462  0.00  0.00     0.023 A 
ATOM     15  C   LIG d   1       5.018  -3.162  -4.555  0.00  0.00     0.234 A 
ATOM     16  C   LIG d   1       3.334  -1.509  -3.729  0.00  0.00    -0.044 A 
ATOM     17  C   LIG d   1       6.388  -3.529  -4.581  0.00  0.00     0.208 A 
ATOM     18  O   LIG d   1       4.172  -3.829  -5.129  0.00  0.00    -0.283 OA
ATOM     19  C   LIG d   1       3.034  -0.375  -3.029  0.00  0.00    -0.019 A 
ATOM     20  H   LIG d   1       2.550  -2.064  -4.221  0.00  0.00     0.063 H 
ATOM     21  C   LIG d   1       4.041   0.348  -2.393  0.00  0.00     0.120 A 
ATOM     22  H   LIG d   1       2.010  -0.037  -2.968  0.00  0.00     0.065 H 
ATOM     23  H   LIG d   1       6.134   0.494  -1.966  0.00  0.00     0.069 H 
BRANCH  17  24
ATOM     24  O   LIG d   1       6.786  -4.644  -5.254  0.00  0.00    -0.501 OA
ATOM     25  H   LIG d   1       6.097  -5.037  -5.807  0.00  0.00     0.292 HD
ENDBRANCH  17  24
BRANCH  21  26
ATOM     26  O   LIG d   1       3.728   1.473  -1.701  0.00  0.00    -0.507 OA
ATOM     27  H   LIG d   1       3.414   2.201  -2.254  0.00  0.00     0.292 HD
ENDBRANCH  21  26
ENDBRANCH   4  10
BRANCH   6  28
ATOM     28  O   LIG d   1      10.961  -5.573  -2.400  0.00  0.00    -0.491 OA
BRANCH  28  29
ATOM     29  C   LIG d   1       9.982  -6.296  -1.653  0.00  0.00     0.079 C 
ATOM     30  H   LIG d   1      10.433  -6.678  -0.737  0.00  0.00     0.066 H 
ATOM     31  H   LIG d   1       9.154  -5.634  -1.402  0.00  0.00     0.066 H 
ATOM     32  H   LIG d   1       9.612  -7.130  -2.250  0.00  0.00     0.066 H 
ENDBRANCH  28  29
ENDBRANCH   6  28
BRANCH   1  33
ATOM     33  O   LIG d   1      12.704  -4.254  -4.072  0.00  0.00    -0.491 OA
BRANCH  33  34
ATOM     34  C   LIG d   1      13.654  -3.297  -3.599  0.00  0.00     0.079 C 
ATOM     35  H   LIG d   1      14.584  -3.402  -4.156  0.00  0.00     0.066 H 
ATOM     36  H   LIG d   1      13.257  -2.292  -3.739  0.00  0.00     0.066 H 
ATOM     37  H   LIG d   1      13.844  -3.467  -2.539  0.00  0.00     0.066 H 
ENDBRANCH  33  34
ENDBRANCH   1  33
TORSDOF 7
ENDMDL
MODEL 5
REMARK VINA RESULT:      -5.4      5.208      7.999
REMARK  7 active torsions:
REMARK  status: ('A' for Active; 'I' for Inactive)
REMARK    1  A    between atoms: C_1  and  O_2 
REMARK    2  A    between atoms: O_2  and  C_3 
REMARK    3  A    between atoms: C_6  and  C_11 
REMARK    4  A    between atoms: C_8  and  O_9 
REMARK    5  A    between atoms: O_9  and  C_10 
REMARK    6  A    between atoms: C_12  and  O_23 
REMARK    7  A    between atoms: C_18  and  O_22 
ROOT
ATOM      1  C   LIG d   1      11.406  -3.801  -3.746  0.00  0.00     0.162 A 
ATOM      2  C   LIG d   1      10.534  -4.298  -2.787  0.00  0.00    -0.016 A 
ATOM      3  C   LIG d   1       9.203  -3.944  -2.813  0.00  0.00    -0.047 A 
ATOM      4  C   LIG d   1       8.726  -3.083  -3.806  0.00  0.00     0.025 A 
ATOM      5  C   LIG d   1       9.604  -2.588  -4.775  0.00  0.00    -0.005 A 
ATOM      6  C   LIG d   1      10.939  -2.942  -4.740  0.00  0.00     0.162 A 
ATOM      7  H   LIG d   1      10.900  -4.963  -2.019  0.00  0.00     0.066 H 
ATOM      8  H   LIG d   1       8.526  -4.334  -2.066  0.00  0.00     0.063 H 
ATOM      9  H   LIG d   1       9.240  -1.927  -5.547  0.00  0.00     0.066 H 
ENDROOT
BRANCH   4  10
ATOM     10  C   LIG d   1       7.302  -2.705  -3.836  0.00  0.00     0.181 A 
ATOM     11  O   LIG d   1       6.913  -1.600  -3.176  0.00  0.00    -0.451 OA
ATOM     12  C   LIG d   1       5.630  -1.185  -3.159  0.00  0.00     0.143 A 
ATOM     13  C   LIG d   1       4.646  -1.923  -3.839  0.00  0.00     0.068 A 
ATOM     14  C   LIG d   1       5.263  -0.036  -2.472  0.00  0.00     0.023 A 
ATOM     15  C   LIG d   1       5.054  -3.140  -4.563  0.00  0.00     0.234 A 
ATOM     16  C   LIG d   1       3.315  -1.503  -3.822  0.00  0.00    -0.044 A 
ATOM     17  C   LIG d   1       6.428  -3.490  -4.526  0.00  0.00     0.208 A 
ATOM     18  O   LIG d   1       4.243  -3.819  -5.170  0.00  0.00    -0.283 OA
ATOM     19  C   LIG d   1       2.970  -0.370  -3.142  0.00  0.00    -0.019 A 
ATOM     20  H   LIG d   1       2.561  -2.071  -4.346  0.00  0.00     0.063 H 
ATOM     21  C   LIG d   1       3.939   0.368  -2.465  0.00  0.00     0.120 A 
ATOM     22  H   LIG d   1       1.940  -0.044  -3.128  0.00  0.00     0.065 H 
ATOM     23  H   LIG d   1       6.008   0.542  -1.945  0.00  0.00     0.069 H 
BRANCH  17  24
ATOM     24  O   LIG d   1       6.870  -4.603  -5.174  0.00  0.00    -0.501 OA
ATOM     25  H   LIG d   1       7.146  -4.443  -6.086  0.00  0.00     0.292 HD
ENDBRANCH  17  24
BRANCH  21  26
ATOM     26  O   LIG d   1       3.581   1.492  -1.793  0.00  0.00    -0.507 OA
ATOM     27  H   LIG d   1       2.752   1.410  -1.302  0.00  0.00     0.292 HD
ENDBRANCH  21  26
ENDBRANCH   4  10
BRANCH   6  28
ATOM     28  O   LIG d   1      11.796  -2.457  -5.678  0.00  0.00    -0.491 OA
BRANCH  28  29
ATOM     29  C   LIG d   1      12.242  -1.110  -5.515  0.00  0.00     0.079 C 
ATOM     30  H   LIG d   1      12.556  -0.711  -6.480  0.00  0.00     0.066 H 
ATOM     31  H   LIG d   1      11.428  -0.503  -5.119  0.00  0.00     0.066 H 
ATOM     32  H   LIG d   1      13.083  -1.087  -4.822  0.00  0.00     0.066 H 
ENDBRANCH  28  29
ENDBRANCH   6  28
BRANCH   1  33
ATOM     33  O   LIG d   1      12.718  -4.153  -3.717  0.00  0.00    -0.491 OA
BRANCH  33  34
ATOM     34  C   LIG d   1      13.036  -5.502  -4.062  0.00  0.00     0.079 C 
ATOM     35  H   LIG d   1      12.187  -6.146  -3.832  0.00  0.00     0.066 H 
ATOM     36  H   LIG d   1      13.259  -5.562  -5.127  0.00  0.00     0.066 H 
ATOM     37  H   LIG d   1      13.905  -5.829  -3.491  0.00  0.00     0.066 H 
ENDBRANCH  33  34
ENDBRANCH   1  33
TORSDOF 7
ENDMDL
MODEL 6
REMARK VINA RESULT:      -5.3      5.575      7.631
REMARK  7 active torsions:
REMARK  status: ('A' for Active; 'I' for Inactive)
REMARK    1  A    between atoms: C_1  and  O_2 
REMARK    2  A    between atoms: O_2  and  C_3 
REMARK    3  A    between atoms: C_6  and  C_11 
REMARK    4  A    between atoms: C_8  and  O_9 
REMARK    5  A    between atoms: O_9  and  C_10 
REMARK    6  A    between atoms: C_12  and  O_23 
REMARK    7  A    between atoms: C_18  and  O_22 
ROOT
ATOM      1  C   LIG d   1       9.858   4.124  -5.688  0.00  0.00     0.162 A 
ATOM      2  C   LIG d   1       9.386   3.198  -6.608  0.00  0.00    -0.016 A 
ATOM      3  C   LIG d   1       8.619   2.133  -6.187  0.00  0.00    -0.047 A 
ATOM      4  C   LIG d   1       8.314   1.984  -4.831  0.00  0.00     0.025 A 
ATOM      5  C   LIG d   1       8.784   2.921  -3.906  0.00  0.00    -0.005 A 
ATOM      6  C   LIG d   1       9.558   3.982  -4.334  0.00  0.00     0.162 A 
ATOM      7  H   LIG d   1       9.621   3.312  -7.656  0.00  0.00     0.066 H 
ATOM      8  H   LIG d   1       8.252   1.415  -6.905  0.00  0.00     0.063 H 
ATOM      9  H   LIG d   1       8.547   2.812  -2.858  0.00  0.00     0.066 H 
ENDROOT
BRANCH   4  10
ATOM     10  C   LIG d   1       7.493   0.846  -4.379  0.00  0.00     0.181 A 
ATOM     11  O   LIG d   1       6.197   1.059  -4.091  0.00  0.00    -0.451 OA
ATOM     12  C   LIG d   1       5.379   0.069  -3.676  0.00  0.00     0.143 A 
ATOM     13  C   LIG d   1       5.880  -1.235  -3.524  0.00  0.00     0.068 A 
ATOM     14  C   LIG d   1       4.044   0.322  -3.393  0.00  0.00     0.023 A 
ATOM     15  C   LIG d   1       7.299  -1.484  -3.830  0.00  0.00     0.234 A 
ATOM     16  C   LIG d   1       5.041  -2.264  -3.090  0.00  0.00    -0.044 A 
ATOM     17  C   LIG d   1       8.076  -0.380  -4.264  0.00  0.00     0.208 A 
ATOM     18  O   LIG d   1       7.787  -2.597  -3.715  0.00  0.00    -0.283 OA
ATOM     19  C   LIG d   1       3.730  -1.999  -2.815  0.00  0.00    -0.019 A 
ATOM     20  H   LIG d   1       5.427  -3.265  -2.974  0.00  0.00     0.063 H 
ATOM     21  C   LIG d   1       3.225  -0.709  -2.964  0.00  0.00     0.120 A 
ATOM     22  H   LIG d   1       3.080  -2.794  -2.480  0.00  0.00     0.065 H 
ATOM     23  H   LIG d   1       3.645   1.320  -3.506  0.00  0.00     0.069 H 
BRANCH  17  24
ATOM     24  O   LIG d   1       9.394  -0.544  -4.562  0.00  0.00    -0.501 OA
ATOM     25  H   LIG d   1       9.926   0.255  -4.444  0.00  0.00     0.292 HD
ENDBRANCH  17  24
BRANCH  21  26
ATOM     26  O   LIG d   1       1.919  -0.460  -2.687  0.00  0.00    -0.507 OA
ATOM     27  H   LIG d   1       1.510  -1.113  -2.102  0.00  0.00     0.292 HD
ENDBRANCH  21  26
ENDBRANCH   4  10
BRANCH   6  28
ATOM     28  O   LIG d   1      10.022   4.891  -3.436  0.00  0.00    -0.491 OA
BRANCH  28  29
ATOM     29  C   LIG d   1      10.743   4.384  -2.312  0.00  0.00     0.079 C 
ATOM     30  H   LIG d   1      11.141   5.215  -1.729  0.00  0.00     0.066 H 
ATOM     31  H   LIG d   1      10.074   3.791  -1.688  0.00  0.00     0.066 H 
ATOM     32  H   LIG d   1      11.565   3.758  -2.660  0.00  0.00     0.066 H 
ENDBRANCH  28  29
ENDBRANCH   6  28
BRANCH   1  33
ATOM     33  O   LIG d   1      10.614   5.172  -6.108  0.00  0.00    -0.491 OA
BRANCH  33  34
ATOM     34  C   LIG d   1       9.928   6.256  -6.737  0.00  0.00     0.079 C 
ATOM     35  H   LIG d   1       9.090   6.567  -6.113  0.00  0.00     0.066 H 
ATOM     36  H   LIG d   1      10.614   7.093  -6.867  0.00  0.00     0.066 H 
ATOM     37  H   LIG d   1       9.557   5.936  -7.710  0.00  0.00     0.066 H 
ENDBRANCH  33  34
ENDBRANCH   1  33
TORSDOF 7
ENDMDL
MODEL 7
REMARK VINA RESULT:      -5.2      4.110      7.288
REMARK  7 active torsions:
REMARK  status: ('A' for Active; 'I' for Inactive)
REMARK    1  A    between atoms: C_1  and  O_2 
REMARK    2  A    between atoms: O_2  and  C_3 
REMARK    3  A    between atoms: C_6  and  C_11 
REMARK    4  A    between atoms: C_8  and  O_9 
REMARK    5  A    between atoms: O_9  and  C_10 
REMARK    6  A    between atoms: C_12  and  O_23 
REMARK    7  A    between atoms: C_18  and  O_22 
ROOT
ATOM      1  C   LIG d   1       3.687  -0.189  -6.788  0.00  0.00     0.162 A 
ATOM      2  C   LIG d   1       3.923  -1.088  -7.818  0.00  0.00    -0.016 A 
ATOM      3  C   LIG d   1       4.463  -2.326  -7.547  0.00  0.00    -0.047 A 
ATOM      4  C   LIG d   1       4.775  -2.680  -6.230  0.00  0.00     0.025 A 
ATOM      5  C   LIG d   1       4.531  -1.776  -5.192  0.00  0.00    -0.005 A 
ATOM      6  C   LIG d   1       3.995  -0.534  -5.473  0.00  0.00     0.162 A 
ATOM      7  H   LIG d   1       3.682  -0.817  -8.835  0.00  0.00     0.066 H 
ATOM      8  H   LIG d   1       4.645  -3.024  -8.351  0.00  0.00     0.063 H 
ATOM      9  H   LIG d   1       4.766  -2.047  -4.173  0.00  0.00     0.066 H 
ENDROOT
BRANCH   4  10
ATOM     10  C   LIG d   1       5.353  -4.004  -5.938  0.00  0.00     0.181 A 
ATOM     11  O   LIG d   1       6.670  -4.094  -5.689  0.00  0.00    -0.451 OA
ATOM     12  C   LIG d   1       7.273  -5.268  -5.409  0.00  0.00     0.143 A 
ATOM     13  C   LIG d   1       6.518  -6.453  -5.380  0.00  0.00     0.068 A 
ATOM     14  C   LIG d   1       8.635  -5.324  -5.150  0.00  0.00     0.023 A 
ATOM     15  C   LIG d   1       5.073  -6.373  -5.657  0.00  0.00     0.234 A 
ATOM     16  C   LIG d   1       7.134  -7.673  -5.096  0.00  0.00    -0.044 A 
ATOM     17  C   LIG d   1       4.532  -5.092  -5.936  0.00  0.00     0.208 A 
ATOM     18  O   LIG d   1       4.368  -7.370  -5.646  0.00  0.00    -0.283 OA
ATOM     19  C   LIG d   1       8.476  -7.712  -4.844  0.00  0.00    -0.019 A 
ATOM     20  H   LIG d   1       6.553  -8.582  -5.075  0.00  0.00     0.063 H 
ATOM     21  C   LIG d   1       9.232  -6.542  -4.870  0.00  0.00     0.120 A 
ATOM     22  H   LIG d   1       8.954  -8.655  -4.624  0.00  0.00     0.065 H 
ATOM     23  H   LIG d   1       9.228  -4.422  -5.168  0.00  0.00     0.069 H 
BRANCH  17  24
ATOM     24  O   LIG d   1       3.204  -4.951  -6.199  0.00  0.00    -0.501 OA
ATOM     25  H   LIG d   1       2.631  -5.145  -5.446  0.00  0.00     0.292 HD
ENDBRANCH  17  24
BRANCH  21  26
ATOM     26  O   LIG d   1      10.565  -6.596  -4.617  0.00  0.00    -0.507 OA
ATOM     27  H   LIG d   1      11.118  -6.533  -5.408  0.00  0.00     0.292 HD
ENDBRANCH  21  26
ENDBRANCH   4  10
BRANCH   6  28
ATOM     28  O   LIG d   1       3.762   0.349  -4.465  0.00  0.00    -0.491 OA
BRANCH  28  29
ATOM     29  C   LIG d   1       3.037  -0.135  -3.333  0.00  0.00     0.079 C 
ATOM     30  H   LIG d   1       2.185   0.519  -3.140  0.00  0.00     0.066 H 
ATOM     31  H   LIG d   1       2.680  -1.145  -3.533  0.00  0.00     0.066 H 
ATOM     32  H   LIG d   1       3.690  -0.146  -2.461  0.00  0.00     0.066 H 
ENDBRANCH  28  29
ENDBRANCH   6  28
BRANCH   1  33
ATOM     33  O   LIG d   1       3.153   1.031  -7.060  0.00  0.00    -0.491 OA
BRANCH  33  34
ATOM     34  C   LIG d   1       2.773   1.284  -8.414  0.00  0.00     0.079 C 
ATOM     35  H   LIG d   1       1.879   0.711  -8.655  0.00  0.00     0.066 H 
ATOM     36  H   LIG d   1       2.569   2.347  -8.540  0.00  0.00     0.066 H 
ATOM     37  H   LIG d   1       3.584   0.990  -9.080  0.00  0.00     0.066 H 
ENDBRANCH  33  34
ENDBRANCH   1  33
TORSDOF 7
ENDMDL
MODEL 8
REMARK VINA RESULT:      -5.2      5.882      8.461
REMARK  7 active torsions:
REMARK  status: ('A' for Active; 'I' for Inactive)
REMARK    1  A    between atoms: C_1  and  O_2 
REMARK    2  A    between atoms: O_2  and  C_3 
REMARK    3  A    between atoms: C_6  and  C_11 
REMARK    4  A    between atoms: C_8  and  O_9 
REMARK    5  A    between atoms: O_9  and  C_10 
REMARK    6  A    between atoms: C_12  and  O_23 
REMARK    7  A    between atoms: C_18  and  O_22 
ROOT
ATOM      1  C   LIG d   1      10.541   6.040  -3.871  0.00  0.00     0.162 A 
ATOM      2  C   LIG d   1       9.795   5.677  -4.984  0.00  0.00    -0.016 A 
ATOM      3  C   LIG d   1       9.168   4.451  -5.026  0.00  0.00    -0.047 A 
ATOM      4  C   LIG d   1       9.282   3.568  -3.947  0.00  0.00     0.025 A 
ATOM      5  C   LIG d   1      10.029   3.938  -2.824  0.00  0.00    -0.005 A 
ATOM      6  C   LIG d   1      10.660   5.166  -2.791  0.00  0.00     0.162 A 
ATOM      7  H   LIG d   1       9.706   6.357  -5.818  0.00  0.00     0.066 H 
ATOM      8  H   LIG d   1       8.587   4.171  -5.893  0.00  0.00     0.063 H 
ATOM      9  H   LIG d   1      10.116   3.262  -1.987  0.00  0.00     0.066 H 
ENDROOT
BRANCH   4  10
ATOM     10  C   LIG d   1       8.611   2.257  -3.991  0.00  0.00     0.181 A 
ATOM     11  O   LIG d   1       7.393   2.135  -3.437  0.00  0.00    -0.451 OA
ATOM     12  C   LIG d   1       6.712   0.971  -3.440  0.00  0.00     0.143 A 
ATOM     13  C   LIG d   1       7.282  -0.172  -4.029  0.00  0.00     0.068 A 
ATOM     14  C   LIG d   1       5.453   0.881  -2.864  0.00  0.00     0.023 A 
ATOM     15  C   LIG d   1       8.619  -0.057  -4.636  0.00  0.00     0.234 A 
ATOM     16  C   LIG d   1       6.586  -1.382  -4.032  0.00  0.00    -0.044 A 
ATOM     17  C   LIG d   1       9.252   1.211  -4.586  0.00  0.00     0.208 A 
ATOM     18  O   LIG d   1       9.162  -1.016  -5.161  0.00  0.00    -0.283 OA
ATOM     19  C   LIG d   1       5.348  -1.453  -3.461  0.00  0.00    -0.019 A 
ATOM     20  H   LIG d   1       7.025  -2.258  -4.485  0.00  0.00     0.063 H 
ATOM     21  C   LIG d   1       4.775  -0.326  -2.876  0.00  0.00     0.120 A 
ATOM     22  H   LIG d   1       4.808  -2.390  -3.463  0.00  0.00     0.065 H 
ATOM     23  H   LIG d   1       5.002   1.751  -2.408  0.00  0.00     0.069 H 
BRANCH  17  24
ATOM     24  O   LIG d   1      10.488   1.383  -5.129  0.00  0.00    -0.501 OA
ATOM     25  H   LIG d   1      10.574   1.040  -6.028  0.00  0.00     0.292 HD
ENDBRANCH  17  24
BRANCH  21  26
ATOM     26  O   LIG d   1       3.543  -0.412  -2.312  0.00  0.00    -0.507 OA
ATOM     27  H   LIG d   1       3.425  -1.184  -1.741  0.00  0.00     0.292 HD
ENDBRANCH  21  26
ENDBRANCH   4  10
BRANCH   6  28
ATOM     28  O   LIG d   1      11.391   5.525  -1.702  0.00  0.00    -0.491 OA
BRANCH  28  29
ATOM     29  C   LIG d   1      10.668   5.915  -0.534  0.00  0.00     0.079 C 
ATOM     30  H   LIG d   1       9.609   6.011  -0.777  0.00  0.00     0.066 H 
ATOM     31  H   LIG d   1      10.795   5.160   0.242  0.00  0.00     0.066 H 
ATOM     32  H   LIG d   1      11.046   6.872  -0.175  0.00  0.00     0.066 H 
ENDBRANCH  28  29
ENDBRANCH   6  28
BRANCH   1  33
ATOM     33  O   LIG d   1      11.158   7.250  -3.833  0.00  0.00    -0.491 OA
BRANCH  33  34
ATOM     34  C   LIG d   1      10.344   8.383  -3.521  0.00  0.00     0.079 C 
ATOM     35  H   LIG d   1      10.829   8.977  -2.747  0.00  0.00     0.066 H 
ATOM     36  H   LIG d   1      10.211   8.991  -4.415  0.00  0.00     0.066 H 
ATOM     37  H   LIG d   1       9.372   8.045  -3.164  0.00  0.00     0.066 H 
ENDBRANCH  33  34
ENDBRANCH   1  33
TORSDOF 7
ENDMDL
MODEL 9
REMARK VINA RESULT:      -5.1      4.773      8.064
REMARK  7 active torsions:
REMARK  status: ('A' for Active; 'I' for Inactive)
REMARK    1  A    between atoms: C_1  and  O_2 
REMARK    2  A    between atoms: O_2  and  C_3 
REMARK    3  A    between atoms: C_6  and  C_11 
REMARK    4  A    between atoms: C_8  and  O_9 
REMARK    5  A    between atoms: O_9  and  C_10 
REMARK    6  A    between atoms: C_12  and  O_23 
REMARK    7  A    between atoms: C_18  and  O_22 
ROOT
ATOM      1  C   LIG d   1       4.295  -7.709  -7.606  0.00  0.00     0.162 A 
ATOM      2  C   LIG d   1       4.221  -6.438  -8.159  0.00  0.00    -0.016 A 
ATOM      3  C   LIG d   1       4.575  -5.336  -7.411  0.00  0.00    -0.047 A 
ATOM      4  C   LIG d   1       5.008  -5.497  -6.091  0.00  0.00     0.025 A 
ATOM      5  C   LIG d   1       5.088  -6.778  -5.537  0.00  0.00    -0.005 A 
ATOM      6  C   LIG d   1       4.726  -7.877  -6.292  0.00  0.00     0.162 A 
ATOM      7  H   LIG d   1       3.887  -6.313  -9.178  0.00  0.00     0.066 H 
ATOM      8  H   LIG d   1       4.518  -4.349  -7.844  0.00  0.00     0.063 H 
ATOM      9  H   LIG d   1       5.426  -6.907  -4.520  0.00  0.00     0.066 H 
ENDROOT
BRANCH   4  10
ATOM     10  C   LIG d   1       5.387  -4.320  -5.290  0.00  0.00     0.181 A 
ATOM     11  O   LIG d   1       4.415  -3.537  -4.791  0.00  0.00    -0.451 OA
ATOM     12  C   LIG d   1       4.680  -2.445  -4.044  0.00  0.00     0.143 A 
ATOM     13  C   LIG d   1       6.013  -2.088  -3.774  0.00  0.00     0.068 A 
ATOM     14  C   LIG d   1       3.652  -1.662  -3.539  0.00  0.00     0.023 A 
ATOM     15  C   LIG d   1       7.091  -2.932  -4.318  0.00  0.00     0.234 A 
ATOM     16  C   LIG d   1       6.296  -0.957  -3.006  0.00  0.00    -0.044 A 
ATOM     17  C   LIG d   1       6.710  -4.062  -5.087  0.00  0.00     0.208 A 
ATOM     18  O   LIG d   1       8.266  -2.670  -4.116  0.00  0.00    -0.283 OA
ATOM     19  C   LIG d   1       5.273  -0.197  -2.517  0.00  0.00    -0.019 A 
ATOM     20  H   LIG d   1       7.320  -0.685  -2.800  0.00  0.00     0.063 H 
ATOM     21  C   LIG d   1       3.949  -0.543  -2.779  0.00  0.00     0.120 A 
ATOM     22  H   LIG d   1       5.491   0.679  -1.922  0.00  0.00     0.065 H 
ATOM     23  H   LIG d   1       2.623  -1.924  -3.738  0.00  0.00     0.069 H 
BRANCH  17  24
ATOM     24  O   LIG d   1       7.658  -4.881  -5.618  0.00  0.00    -0.501 OA
ATOM     25  H   LIG d   1       8.394  -4.413  -6.035  0.00  0.00     0.292 HD
ENDBRANCH  17  24
BRANCH  21  26
ATOM     26  O   LIG d   1       2.942   0.222  -2.285  0.00  0.00    -0.507 OA
ATOM     27  H   LIG d   1       2.958   0.321  -1.324  0.00  0.00     0.292 HD
ENDBRANCH  21  26
ENDBRANCH   4  10
BRANCH   6  28
ATOM     28  O   LIG d   1       4.797  -9.124  -5.753  0.00  0.00    -0.491 OA
BRANCH  28  29
ATOM     29  C   LIG d   1       4.623  -9.231  -4.339  0.00  0.00     0.079 C 
ATOM     30  H   LIG d   1       4.474 -10.277  -4.069  0.00  0.00     0.066 H 
ATOM     31  H   LIG d   1       5.510  -8.849  -3.833  0.00  0.00     0.066 H 
ATOM     32  H   LIG d   1       3.752  -8.650  -4.035  0.00  0.00     0.066 H 
ENDBRANCH  28  29
ENDBRANCH   6  28
BRANCH   1  33
ATOM     33  O   LIG d   1       3.945  -8.793  -8.348  0.00  0.00    -0.491 OA
BRANCH  33  34
ATOM     34  C   LIG d   1       3.413  -8.542  -9.651  0.00  0.00     0.079 C 
ATOM     35  H   LIG d   1       2.639  -7.778  -9.587  0.00  0.00     0.066 H 
ATOM     36  H   LIG d   1       4.210  -8.198 -10.308  0.00  0.00     0.066 H 
ATOM     37  H   LIG d   1       2.984  -9.461 -10.051  0.00  0.00     0.066 H 
ENDBRANCH  33  34
ENDBRANCH   1  33
TORSDOF 7
ENDMDL
MODEL 10
REMARK VINA RESULT:      -5.1      5.352      7.563
REMARK  7 active torsions:
REMARK  status: ('A' for Active; 'I' for Inactive)
REMARK    1  A    between atoms: C_1  and  O_2 
REMARK    2  A    between atoms: O_2  and  C_3 
REMARK    3  A    between atoms: C_6  and  C_11 
REMARK    4  A    between atoms: C_8  and  O_9 
REMARK    5  A    between atoms: O_9  and  C_10 
REMARK    6  A    between atoms: C_12  and  O_23 
REMARK    7  A    between atoms: C_18  and  O_22 
ROOT
ATOM      1  C   LIG d   1       9.970   4.216  -5.610  0.00  0.00     0.162 A 
ATOM      2  C   LIG d   1       9.661   3.979  -4.278  0.00  0.00    -0.016 A 
ATOM      3  C   LIG d   1       8.910   2.878  -3.927  0.00  0.00    -0.047 A 
ATOM      4  C   LIG d   1       8.458   1.996  -4.913  0.00  0.00     0.025 A 
ATOM      5  C   LIG d   1       8.775   2.232  -6.254  0.00  0.00    -0.005 A 
ATOM      6  C   LIG d   1       9.522   3.341  -6.599  0.00  0.00     0.162 A 
ATOM      7  H   LIG d   1      10.009   4.659  -3.515  0.00  0.00     0.066 H 
ATOM      8  H   LIG d   1       8.672   2.696  -2.889  0.00  0.00     0.063 H 
ATOM      9  H   LIG d   1       8.431   1.551  -7.018  0.00  0.00     0.066 H 
ENDROOT
BRANCH   4  10
ATOM     10  C   LIG d   1       7.656   0.818  -4.538  0.00  0.00     0.181 A 
ATOM     11  O   LIG d   1       6.357   0.989  -4.239  0.00  0.00    -0.451 OA
ATOM     12  C   LIG d   1       5.555  -0.039  -3.891  0.00  0.00     0.143 A 
ATOM     13  C   LIG d   1       6.077  -1.343  -3.825  0.00  0.00     0.068 A 
ATOM     14  C   LIG d   1       4.216   0.172  -3.594  0.00  0.00     0.023 A 
ATOM     15  C   LIG d   1       7.501  -1.547  -4.144  0.00  0.00     0.234 A 
ATOM     16  C   LIG d   1       5.256  -2.411  -3.461  0.00  0.00    -0.044 A 
ATOM     17  C   LIG d   1       8.260  -0.403  -4.504  0.00  0.00     0.208 A 
ATOM     18  O   LIG d   1       8.008  -2.656  -4.102  0.00  0.00    -0.283 OA
ATOM     19  C   LIG d   1       3.941  -2.187  -3.171  0.00  0.00    -0.019 A 
ATOM     20  H   LIG d   1       5.659  -3.411  -3.410  0.00  0.00     0.063 H 
ATOM     21  C   LIG d   1       3.414  -0.899  -3.235  0.00  0.00     0.120 A 
ATOM     22  H   LIG d   1       3.304  -3.014  -2.890  0.00  0.00     0.065 H 
ATOM     23  H   LIG d   1       3.801   1.168  -3.641  0.00  0.00     0.069 H 
BRANCH  17  24
ATOM     24  O   LIG d   1       9.580  -0.525  -4.810  0.00  0.00    -0.501 OA
ATOM     25  H   LIG d   1       9.937   0.219  -5.313  0.00  0.00     0.292 HD
ENDBRANCH  17  24
BRANCH  21  26
ATOM     26  O   LIG d   1       2.104  -0.691  -2.945  0.00  0.00    -0.507 OA
ATOM     27  H   LIG d   1       1.815   0.224  -3.063  0.00  0.00     0.292 HD
ENDBRANCH  21  26
ENDBRANCH   4  10
BRANCH   6  28
ATOM     28  O   LIG d   1       9.827   3.576  -7.904  0.00  0.00    -0.491 OA
BRANCH  28  29
ATOM     29  C   LIG d   1       8.738   3.618  -8.827  0.00  0.00     0.079 C 
ATOM     30  H   LIG d   1       9.020   4.214  -9.696  0.00  0.00     0.066 H 
ATOM     31  H   LIG d   1       8.492   2.605  -9.146  0.00  0.00     0.066 H 
ATOM     32  H   LIG d   1       7.870   4.068  -8.345  0.00  0.00     0.066 H 
ENDBRANCH  28  29
ENDBRANCH   6  28
BRANCH   1  33
ATOM     33  O   LIG d   1      10.710   5.303  -5.952  0.00  0.00    -0.491 OA
BRANCH  33  34
ATOM     34  C   LIG d   1      10.027   6.556  -6.026  0.00  0.00     0.079 C 
ATOM     35  H   LIG d   1       9.051   6.466  -5.550  0.00  0.00     0.066 H 
ATOM     36  H   LIG d   1      10.613   7.319  -5.513  0.00  0.00     0.066 H 
ATOM     37  H   LIG d   1       9.899   6.839  -7.070  0.00  0.00     0.066 H 
ENDBRANCH  33  34
ENDBRANCH   1  33
TORSDOF 7
ENDMDL
