MODEL 1
REMARK VINA RESULT:      -6.1      0.000      0.000
REMARK  8 active torsions:
REMARK  status: ('A' for Active; 'I' for Inactive)
REMARK    1  A    between atoms: C_1  and  C_2 
REMARK    2  A    between atoms: C_10  and  C_23 
REMARK    3  A    between atoms: C_15  and  C_16 
REMARK    4  A    between atoms: C_15  and  O_19 
REMARK    5  A    between atoms: C_16  and  C_18 
REMARK    6  A    between atoms: O_19  and  C_20 
REMARK    7  A    between atoms: C_20  and  C_22 
REMARK    8  A    between atoms: C_24  and  C_31 
ROOT
ATOM      1  C   LIG d   1       7.115  -2.591  -6.954  0.00  0.00    -0.050 C 
ATOM      2  C   LIG d   1       7.169  -1.976  -5.771  0.00  0.00    -0.077 C 
ATOM      3  C   LIG d   1       7.169  -2.733  -4.480  0.00  0.00    -0.015 C 
ATOM      4  H   LIG d   1       8.218  -2.914  -4.200  0.00  0.00     0.035 H 
ATOM      5  C   LIG d   1       6.481  -4.082  -4.645  0.00  0.00    -0.025 C 
ATOM      6  H   LIG d   1       6.565  -4.654  -3.718  0.00  0.00     0.032 H 
ATOM      7  C   LIG d   1       5.002  -3.843  -4.963  0.00  0.00    -0.048 C 
ATOM      8  C   LIG d   1       4.351  -3.152  -3.770  0.00  0.00    -0.043 C 
ATOM      9  C   LIG d   1       5.020  -1.852  -3.399  0.00  0.00     0.018 C 
ATOM     10  C   LIG d   1       6.550  -1.923  -3.347  0.00  0.00    -0.025 C 
ATOM     11  H   LIG d   1       6.881  -2.327  -2.371  0.00  0.00     0.031 H 
ATOM     12  C   LIG d   1       7.001  -0.448  -3.505  0.00  0.00    -0.045 C 
ATOM     13  C   LIG d   1       5.874   0.273  -4.266  0.00  0.00    -0.005 C 
ATOM     14  C   LIG d   1       4.665  -0.681  -4.315  0.00  0.00     0.176 C 
ATOM     15  C   LIG d   1       7.125  -4.871  -5.789  0.00  0.00    -0.003 C 
ATOM     16  C   LIG d   1       7.062  -4.047  -7.053  0.00  0.00    -0.035 C 
ATOM     17  C   LIG d   1       6.956  -4.653  -8.260  0.00  0.00    -0.015 C 
ATOM     18  C   LIG d   1       6.903  -6.051  -8.394  0.00  0.00     0.156 C 
ATOM     19  O   LIG d   1       6.823  -6.541  -9.503  0.00  0.00    -0.293 OA
ATOM     20  C   LIG d   1       6.939  -6.945  -7.185  0.00  0.00     0.011 C 
ATOM     21  C   LIG d   1       6.372  -6.188  -5.982  0.00  0.00    -0.036 C 
ATOM     22  H   LIG d   1       7.233  -0.897  -5.766  0.00  0.00     0.058 H 
ATOM     23  H   LIG d   1       4.902  -3.243  -5.862  0.00  0.00     0.027 H 
ATOM     24  H   LIG d   1       4.504  -4.805  -5.125  0.00  0.00     0.027 H 
ATOM     25  H   LIG d   1       3.298  -2.962  -3.999  0.00  0.00     0.027 H 
ATOM     26  H   LIG d   1       4.394  -3.827  -2.909  0.00  0.00     0.027 H 
ATOM     27  H   LIG d   1       7.151   0.013  -2.522  0.00  0.00     0.027 H 
ATOM     28  H   LIG d   1       7.939  -0.391  -4.066  0.00  0.00     0.027 H 
ATOM     29  H   LIG d   1       5.597   1.190  -3.737  0.00  0.00     0.031 H 
ATOM     30  H   LIG d   1       6.192   0.529  -5.277  0.00  0.00     0.031 H 
ATOM     31  H   LIG d   1       6.907  -4.068  -9.165  0.00  0.00     0.066 H 
ATOM     32  H   LIG d   1       6.320  -7.828  -7.376  0.00  0.00     0.035 H 
ATOM     33  H   LIG d   1       7.958  -7.271  -6.989  0.00  0.00     0.035 H 
ATOM     34  H   LIG d   1       6.473  -6.800  -5.084  0.00  0.00     0.028 H 
ATOM     35  H   LIG d   1       5.314  -5.985  -6.160  0.00  0.00     0.028 H 
ENDROOT
BRANCH  14  36
ATOM     36  C   LIG d   1       3.439   0.030  -3.786  0.00  0.00     0.174 C 
ATOM     37  O   LIG d   1       2.361  -0.510  -3.834  0.00  0.00    -0.293 OA
BRANCH  36  38
ATOM     38  C   LIG d   1       3.565   1.412  -3.199  0.00  0.00    -0.002 C 
ATOM     39  H   LIG d   1       2.783   1.564  -2.455  0.00  0.00     0.031 H 
ATOM     40  H   LIG d   1       4.542   1.518  -2.726  0.00  0.00     0.031 H 
ATOM     41  H   LIG d   1       3.464   2.154  -3.991  0.00  0.00     0.031 H 
ENDBRANCH  36  38
ENDBRANCH  14  36
BRANCH  14  42
ATOM     42  O   LIG d   1       4.425  -1.111  -5.654  0.00  0.00    -0.450 OA
BRANCH  42  43
ATOM     43  C   LIG d   1       4.186  -0.157  -6.566  0.00  0.00     0.305 C 
ATOM     44  O   LIG d   1       5.078   0.575  -6.925  0.00  0.00    -0.251 OA
BRANCH  43  45
ATOM     45  C   LIG d   1       2.803   0.003  -7.144  0.00  0.00     0.033 C 
ATOM     46  H   LIG d   1       2.758  -0.483  -8.119  0.00  0.00     0.034 H 
ATOM     47  H   LIG d   1       2.074  -0.454  -6.476  0.00  0.00     0.034 H 
ATOM     48  H   LIG d   1       2.577   1.064  -7.257  0.00  0.00     0.034 H 
ENDBRANCH  43  45
ENDBRANCH  42  43
ENDBRANCH  14  42
BRANCH   9  49
ATOM     49  C   LIG d   1       4.527  -1.487  -1.981  0.00  0.00    -0.055 C 
ATOM     50  H   LIG d   1       4.706  -0.427  -1.796  0.00  0.00     0.024 H 
ATOM     51  H   LIG d   1       3.460  -1.693  -1.903  0.00  0.00     0.024 H 
ATOM     52  H   LIG d   1       5.067  -2.080  -1.244  0.00  0.00     0.024 H 
ENDBRANCH   9  49
BRANCH  15  53
ATOM     53  C   LIG d   1       8.588  -5.170  -5.447  0.00  0.00    -0.055 C 
ATOM     54  H   LIG d   1       8.742  -6.249  -5.425  0.00  0.00     0.024 H 
ATOM     55  H   LIG d   1       9.236  -4.726  -6.203  0.00  0.00     0.024 H 
ATOM     56  H   LIG d   1       8.827  -4.749  -4.471  0.00  0.00     0.024 H 
ENDBRANCH  15  53
BRANCH   1  57
ATOM     57  C   LIG d   1       7.113  -1.737  -8.197  0.00  0.00    -0.040 C 
ATOM     58  H   LIG d   1       8.139  -1.557  -8.517  0.00  0.00     0.028 H 
ATOM     59  H   LIG d   1       6.569  -2.250  -8.989  0.00  0.00     0.028 H 
ATOM     60  H   LIG d   1       6.628  -0.784  -7.982  0.00  0.00     0.028 H 
ENDBRANCH   1  57
TORSDOF 8
ENDMDL
MODEL 2
REMARK VINA RESULT:      -5.8      2.776      5.155
REMARK  8 active torsions:
REMARK  status: ('A' for Active; 'I' for Inactive)
REMARK    1  A    between atoms: C_1  and  C_2 
REMARK    2  A    between atoms: C_10  and  C_23 
REMARK    3  A    between atoms: C_15  and  C_16 
REMARK    4  A    between atoms: C_15  and  O_19 
REMARK    5  A    between atoms: C_16  and  C_18 
REMARK    6  A    between atoms: O_19  and  C_20 
REMARK    7  A    between atoms: C_20  and  C_22 
REMARK    8  A    between atoms: C_24  and  C_31 
ROOT
ATOM      1  C   LIG d   1       8.357   1.234  -5.296  0.00  0.00    -0.050 C 
ATOM      2  C   LIG d   1       8.122  -0.008  -4.867  0.00  0.00    -0.077 C 
ATOM      3  C   LIG d   1       7.959  -1.159  -5.811  0.00  0.00    -0.015 C 
ATOM      4  H   LIG d   1       8.949  -1.618  -5.950  0.00  0.00     0.035 H 
ATOM      5  C   LIG d   1       7.461  -0.678  -7.168  0.00  0.00    -0.025 C 
ATOM      6  H   LIG d   1       7.429  -1.517  -7.867  0.00  0.00     0.032 H 
ATOM      7  C   LIG d   1       6.052  -0.102  -6.999  0.00  0.00    -0.048 C 
ATOM      8  C   LIG d   1       5.118  -1.221  -6.551  0.00  0.00    -0.043 C 
ATOM      9  C   LIG d   1       5.563  -1.892  -5.275  0.00  0.00     0.018 C 
ATOM     10  C   LIG d   1       7.054  -2.242  -5.234  0.00  0.00    -0.025 C 
ATOM     11  H   LIG d   1       7.236  -3.201  -5.755  0.00  0.00     0.031 H 
ATOM     12  C   LIG d   1       7.368  -2.378  -3.722  0.00  0.00    -0.045 C 
ATOM     13  C   LIG d   1       6.334  -1.510  -2.983  0.00  0.00    -0.005 C 
ATOM     14  C   LIG d   1       5.264  -1.089  -4.009  0.00  0.00     0.176 C 
ATOM     15  C   LIG d   1       8.390   0.408  -7.720  0.00  0.00    -0.003 C 
ATOM     16  C   LIG d   1       8.479   1.537  -6.720  0.00  0.00    -0.035 C 
ATOM     17  C   LIG d   1       8.668   2.810  -7.140  0.00  0.00    -0.015 C 
ATOM     18  C   LIG d   1       8.790   3.139  -8.501  0.00  0.00     0.156 C 
ATOM     19  O   LIG d   1       8.973   4.297  -8.820  0.00  0.00    -0.293 OA
ATOM     20  C   LIG d   1       8.692   2.079  -9.564  0.00  0.00     0.011 C 
ATOM     21  C   LIG d   1       7.831   0.925  -9.046  0.00  0.00    -0.036 C 
ATOM     22  H   LIG d   1       8.068  -0.171  -3.800  0.00  0.00     0.058 H 
ATOM     23  H   LIG d   1       6.061   0.709  -6.278  0.00  0.00     0.027 H 
ATOM     24  H   LIG d   1       5.699   0.285  -7.960  0.00  0.00     0.027 H 
ATOM     25  H   LIG d   1       4.113  -0.812  -6.411  0.00  0.00     0.027 H 
ATOM     26  H   LIG d   1       5.069  -1.974  -7.345  0.00  0.00     0.027 H 
ATOM     27  H   LIG d   1       7.280  -3.424  -3.406  0.00  0.00     0.027 H 
ATOM     28  H   LIG d   1       8.383  -2.031  -3.507  0.00  0.00     0.027 H 
ATOM     29  H   LIG d   1       5.866  -2.090  -2.182  0.00  0.00     0.031 H 
ATOM     30  H   LIG d   1       6.808  -0.628  -2.552  0.00  0.00     0.031 H 
ATOM     31  H   LIG d   1       8.729   3.619  -6.429  0.00  0.00     0.066 H 
ATOM     32  H   LIG d   1       8.218   2.508 -10.452  0.00  0.00     0.035 H 
ATOM     33  H   LIG d   1       9.684   1.727  -9.836  0.00  0.00     0.035 H 
ATOM     34  H   LIG d   1       7.825   0.116  -9.779  0.00  0.00     0.028 H 
ATOM     35  H   LIG d   1       6.811   1.285  -8.902  0.00  0.00     0.028 H 
ENDROOT
BRANCH  14  36
ATOM     36  C   LIG d   1       3.893  -1.450  -3.485  0.00  0.00     0.174 C 
ATOM     37  O   LIG d   1       2.908  -1.151  -4.115  0.00  0.00    -0.293 OA
BRANCH  36  38
ATOM     38  C   LIG d   1       3.756  -2.185  -2.176  0.00  0.00    -0.002 C 
ATOM     39  H   LIG d   1       4.742  -2.480  -1.820  0.00  0.00     0.031 H 
ATOM     40  H   LIG d   1       3.285  -1.532  -1.441  0.00  0.00     0.031 H 
ATOM     41  H   LIG d   1       3.140  -3.072  -2.320  0.00  0.00     0.031 H 
ENDBRANCH  36  38
ENDBRANCH  14  36
BRANCH  14  42
ATOM     42  O   LIG d   1       5.328   0.316  -4.246  0.00  0.00    -0.450 OA
BRANCH  42  43
ATOM     43  C   LIG d   1       5.055   1.122  -3.209  0.00  0.00     0.305 C 
ATOM     44  O   LIG d   1       5.891   1.319  -2.359  0.00  0.00    -0.251 OA
BRANCH  43  45
ATOM     45  C   LIG d   1       3.704   1.783  -3.104  0.00  0.00     0.033 C 
ATOM     46  H   LIG d   1       3.628   2.305  -2.150  0.00  0.00     0.034 H 
ATOM     47  H   LIG d   1       3.584   2.496  -3.920  0.00  0.00     0.034 H 
ATOM     48  H   LIG d   1       2.923   1.024  -3.166  0.00  0.00     0.034 H 
ENDBRANCH  43  45
ENDBRANCH  42  43
ENDBRANCH  14  42
BRANCH   9  49
ATOM     49  C   LIG d   1       4.776  -3.217  -5.171  0.00  0.00    -0.055 C 
ATOM     50  H   LIG d   1       3.833  -3.123  -5.711  0.00  0.00     0.024 H 
ATOM     51  H   LIG d   1       5.364  -4.025  -5.607  0.00  0.00     0.024 H 
ATOM     52  H   LIG d   1       4.573  -3.438  -4.123  0.00  0.00     0.024 H 
ENDBRANCH   9  49
BRANCH  15  53
ATOM     53  C   LIG d   1       9.785  -0.179  -7.954  0.00  0.00    -0.055 C 
ATOM     54  H   LIG d   1       9.975  -0.967  -7.225  0.00  0.00     0.024 H 
ATOM     55  H   LIG d   1       9.841  -0.594  -8.960  0.00  0.00     0.024 H 
ATOM     56  H   LIG d   1      10.533   0.607  -7.843  0.00  0.00     0.024 H 
ENDBRANCH  15  53
BRANCH   1  57
ATOM     57  C   LIG d   1       8.499   2.324  -4.265  0.00  0.00    -0.040 C 
ATOM     58  H   LIG d   1       8.271   1.923  -3.278  0.00  0.00     0.028 H 
ATOM     59  H   LIG d   1       9.519   2.705  -4.276  0.00  0.00     0.028 H 
ATOM     60  H   LIG d   1       7.806   3.135  -4.495  0.00  0.00     0.028 H 
ENDBRANCH   1  57
TORSDOF 8
ENDMDL
MODEL 3
REMARK VINA RESULT:      -5.8      2.541      6.114
REMARK  8 active torsions:
REMARK  status: ('A' for Active; 'I' for Inactive)
REMARK    1  A    between atoms: C_1  and  C_2 
REMARK    2  A    between atoms: C_10  and  C_23 
REMARK    3  A    between atoms: C_15  and  C_16 
REMARK    4  A    between atoms: C_15  and  O_19 
REMARK    5  A    between atoms: C_16  and  C_18 
REMARK    6  A    between atoms: O_19  and  C_20 
REMARK    7  A    between atoms: C_20  and  C_22 
REMARK    8  A    between atoms: C_24  and  C_31 
ROOT
ATOM      1  C   LIG d   1       3.812  -0.475  -6.217  0.00  0.00    -0.050 C 
ATOM      2  C   LIG d   1       4.456  -1.344  -6.999  0.00  0.00    -0.077 C 
ATOM      3  C   LIG d   1       5.530  -2.245  -6.472  0.00  0.00    -0.015 C 
ATOM      4  H   LIG d   1       5.053  -3.189  -6.171  0.00  0.00     0.035 H 
ATOM      5  C   LIG d   1       6.194  -1.634  -5.244  0.00  0.00    -0.025 C 
ATOM      6  H   LIG d   1       6.913  -2.341  -4.825  0.00  0.00     0.032 H 
ATOM      7  C   LIG d   1       6.923  -0.355  -5.666  0.00  0.00    -0.048 C 
ATOM      8  C   LIG d   1       8.037  -0.726  -6.639  0.00  0.00    -0.043 C 
ATOM      9  C   LIG d   1       7.541  -1.468  -7.856  0.00  0.00     0.018 C 
ATOM     10  C   LIG d   1       6.553  -2.597  -7.546  0.00  0.00    -0.025 C 
ATOM     11  H   LIG d   1       7.099  -3.515  -7.257  0.00  0.00     0.031 H 
ATOM     12  C   LIG d   1       5.796  -2.813  -8.881  0.00  0.00    -0.045 C 
ATOM     13  C   LIG d   1       5.868  -1.477  -9.643  0.00  0.00    -0.005 C 
ATOM     14  C   LIG d   1       6.875  -0.576  -8.904  0.00  0.00     0.176 C 
ATOM     15  C   LIG d   1       5.140  -1.291  -4.186  0.00  0.00    -0.003 C 
ATOM     16  C   LIG d   1       4.114  -0.364  -4.792  0.00  0.00    -0.035 C 
ATOM     17  C   LIG d   1       3.486   0.557  -4.023  0.00  0.00    -0.015 C 
ATOM     18  C   LIG d   1       3.751   0.693  -2.650  0.00  0.00     0.156 C 
ATOM     19  O   LIG d   1       3.146   1.527  -2.007  0.00  0.00    -0.293 OA
ATOM     20  C   LIG d   1       4.773  -0.176  -1.971  0.00  0.00     0.011 C 
ATOM     21  C   LIG d   1       5.822  -0.614  -2.995  0.00  0.00    -0.036 C 
ATOM     22  H   LIG d   1       4.168  -1.396  -8.039  0.00  0.00     0.058 H 
ATOM     23  H   LIG d   1       6.227   0.344  -6.120  0.00  0.00     0.027 H 
ATOM     24  H   LIG d   1       7.371   0.117  -4.785  0.00  0.00     0.027 H 
ATOM     25  H   LIG d   1       8.550   0.186  -6.958  0.00  0.00     0.027 H 
ATOM     26  H   LIG d   1       8.763  -1.357  -6.115  0.00  0.00     0.027 H 
ATOM     27  H   LIG d   1       6.272  -3.609  -9.465  0.00  0.00     0.027 H 
ATOM     28  H   LIG d   1       4.755  -3.091  -8.693  0.00  0.00     0.027 H 
ATOM     29  H   LIG d   1       6.213  -1.652 -10.667  0.00  0.00     0.031 H 
ATOM     30  H   LIG d   1       4.889  -0.999  -9.676  0.00  0.00     0.031 H 
ATOM     31  H   LIG d   1       2.754   1.224  -4.454  0.00  0.00     0.066 H 
ATOM     32  H   LIG d   1       5.265   0.402  -1.182  0.00  0.00     0.035 H 
ATOM     33  H   LIG d   1       4.292  -1.040  -1.520  0.00  0.00     0.035 H 
ATOM     34  H   LIG d   1       6.519  -1.313  -2.529  0.00  0.00     0.028 H 
ATOM     35  H   LIG d   1       6.371   0.266  -3.336  0.00  0.00     0.028 H 
ENDROOT
BRANCH  14  36
ATOM     36  C   LIG d   1       7.914  -0.073  -9.882  0.00  0.00     0.174 C 
ATOM     37  O   LIG d   1       8.800   0.652  -9.500  0.00  0.00    -0.293 OA
BRANCH  36  38
ATOM     38  C   LIG d   1       7.841  -0.476 -11.332  0.00  0.00    -0.002 C 
ATOM     39  H   LIG d   1       6.809  -0.412 -11.676  0.00  0.00     0.031 H 
ATOM     40  H   LIG d   1       8.464   0.192 -11.926  0.00  0.00     0.031 H 
ATOM     41  H   LIG d   1       8.199  -1.500 -11.443  0.00  0.00     0.031 H 
ENDBRANCH  36  38
ENDBRANCH  14  36
BRANCH  14  42
ATOM     42  O   LIG d   1       6.206   0.533  -8.307  0.00  0.00    -0.450 OA
BRANCH  42  43
ATOM     43  C   LIG d   1       5.718   1.468  -9.136  0.00  0.00     0.305 C 
ATOM     44  O   LIG d   1       6.257   2.547  -9.215  0.00  0.00    -0.251 OA
BRANCH  43  45
ATOM     45  C   LIG d   1       4.497   1.174  -9.969  0.00  0.00     0.033 C 
ATOM     46  H   LIG d   1       4.527   1.771 -10.880  0.00  0.00     0.034 H 
ATOM     47  H   LIG d   1       4.481   0.115 -10.229  0.00  0.00     0.034 H 
ATOM     48  H   LIG d   1       3.601   1.422  -9.400  0.00  0.00     0.034 H 
ENDBRANCH  43  45
ENDBRANCH  42  43
ENDBRANCH  14  42
BRANCH   9  49
ATOM     49  C   LIG d   1       8.779  -2.109  -8.522  0.00  0.00    -0.055 C 
ATOM     50  H   LIG d   1       9.658  -1.929  -7.903  0.00  0.00     0.024 H 
ATOM     51  H   LIG d   1       8.621  -3.183  -8.624  0.00  0.00     0.024 H 
ATOM     52  H   LIG d   1       8.931  -1.668  -9.506  0.00  0.00     0.024 H 
ENDBRANCH   9  49
BRANCH  15  53
ATOM     53  C   LIG d   1       4.452  -2.575  -3.711  0.00  0.00    -0.055 C 
ATOM     54  H   LIG d   1       3.970  -2.394  -2.751  0.00  0.00     0.024 H 
ATOM     55  H   LIG d   1       3.703  -2.877  -4.443  0.00  0.00     0.024 H 
ATOM     56  H   LIG d   1       5.194  -3.366  -3.603  0.00  0.00     0.024 H 
ENDBRANCH  15  53
BRANCH   1  57
ATOM     57  C   LIG d   1       2.752   0.393  -6.846  0.00  0.00    -0.040 C 
ATOM     58  H   LIG d   1       2.340  -0.111  -7.720  0.00  0.00     0.028 H 
ATOM     59  H   LIG d   1       1.957   0.577  -6.125  0.00  0.00     0.028 H 
ATOM     60  H   LIG d   1       3.194   1.343  -7.150  0.00  0.00     0.028 H 
ENDBRANCH   1  57
TORSDOF 8
ENDMDL
MODEL 4
REMARK VINA RESULT:      -5.7      1.902      6.050
REMARK  8 active torsions:
REMARK  status: ('A' for Active; 'I' for Inactive)
REMARK    1  A    between atoms: C_1  and  C_2 
REMARK    2  A    between atoms: C_10  and  C_23 
REMARK    3  A    between atoms: C_15  and  C_16 
REMARK    4  A    between atoms: C_15  and  O_19 
REMARK    5  A    between atoms: C_16  and  C_18 
REMARK    6  A    between atoms: O_19  and  C_20 
REMARK    7  A    between atoms: C_20  and  C_22 
REMARK    8  A    between atoms: C_24  and  C_31 
ROOT
ATOM      1  C   LIG d   1       4.351  -1.425  -5.722  0.00  0.00    -0.050 C 
ATOM      2  C   LIG d   1       4.895  -2.643  -5.764  0.00  0.00    -0.077 C 
ATOM      3  C   LIG d   1       5.476  -3.297  -4.549  0.00  0.00    -0.015 C 
ATOM      4  H   LIG d   1       4.681  -3.897  -4.081  0.00  0.00     0.035 H 
ATOM      5  C   LIG d   1       5.940  -2.253  -3.542  0.00  0.00    -0.025 C 
ATOM      6  H   LIG d   1       6.282  -2.747  -2.630  0.00  0.00     0.032 H 
ATOM      7  C   LIG d   1       7.098  -1.459  -4.156  0.00  0.00    -0.048 C 
ATOM      8  C   LIG d   1       8.270  -2.406  -4.389  0.00  0.00    -0.043 C 
ATOM      9  C   LIG d   1       7.918  -3.581  -5.269  0.00  0.00     0.018 C 
ATOM     10  C   LIG d   1       6.597  -4.267  -4.908  0.00  0.00    -0.025 C 
ATOM     11  H   LIG d   1       6.752  -4.984  -4.080  0.00  0.00     0.031 H 
ATOM     12  C   LIG d   1       6.192  -5.013  -6.204  0.00  0.00    -0.045 C 
ATOM     13  C   LIG d   1       6.853  -4.253  -7.369  0.00  0.00    -0.005 C 
ATOM     14  C   LIG d   1       7.847  -3.246  -6.760  0.00  0.00     0.176 C 
ATOM     15  C   LIG d   1       4.793  -1.296  -3.203  0.00  0.00    -0.003 C 
ATOM     16  C   LIG d   1       4.284  -0.664  -4.477  0.00  0.00    -0.035 C 
ATOM     17  C   LIG d   1       3.773   0.591  -4.462  0.00  0.00    -0.015 C 
ATOM     18  C   LIG d   1       3.693   1.352  -3.284  0.00  0.00     0.156 C 
ATOM     19  O   LIG d   1       3.212   2.467  -3.327  0.00  0.00    -0.293 OA
ATOM     20  C   LIG d   1       4.196   0.807  -1.975  0.00  0.00     0.011 C 
ATOM     21  C   LIG d   1       5.302  -0.215  -2.248  0.00  0.00    -0.036 C 
ATOM     22  H   LIG d   1       4.891  -3.165  -6.710  0.00  0.00     0.058 H 
ATOM     23  H   LIG d   1       6.784  -0.993  -5.084  0.00  0.00     0.027 H 
ATOM     24  H   LIG d   1       7.414  -0.677  -3.458  0.00  0.00     0.027 H 
ATOM     25  H   LIG d   1       9.093  -1.849  -4.844  0.00  0.00     0.027 H 
ATOM     26  H   LIG d   1       8.611  -2.785  -3.420  0.00  0.00     0.027 H 
ATOM     27  H   LIG d   1       6.550  -6.049  -6.176  0.00  0.00     0.027 H 
ATOM     28  H   LIG d   1       5.105  -5.022  -6.320  0.00  0.00     0.027 H 
ATOM     29  H   LIG d   1       7.390  -4.956  -8.014  0.00  0.00     0.031 H 
ATOM     30  H   LIG d   1       6.103  -3.729  -7.962  0.00  0.00     0.031 H 
ATOM     31  H   LIG d   1       3.412   1.046  -5.371  0.00  0.00     0.066 H 
ATOM     32  H   LIG d   1       4.608   1.630  -1.382  0.00  0.00     0.035 H 
ATOM     33  H   LIG d   1       3.381   0.352  -1.419  0.00  0.00     0.035 H 
ATOM     34  H   LIG d   1       5.613  -0.676  -1.309  0.00  0.00     0.028 H 
ATOM     35  H   LIG d   1       6.155   0.300  -2.695  0.00  0.00     0.028 H 
ENDROOT
BRANCH  14  36
ATOM     36  C   LIG d   1       9.208  -3.435  -7.392  0.00  0.00     0.174 C 
ATOM     37  O   LIG d   1      10.130  -2.729  -7.062  0.00  0.00    -0.293 OA
BRANCH  36  38
ATOM     38  C   LIG d   1       9.412  -4.504  -8.434  0.00  0.00    -0.002 C 
ATOM     39  H   LIG d   1      10.071  -5.277  -8.039  0.00  0.00     0.031 H 
ATOM     40  H   LIG d   1       8.450  -4.946  -8.695  0.00  0.00     0.031 H 
ATOM     41  H   LIG d   1       9.861  -4.063  -9.324  0.00  0.00     0.031 H 
ENDBRANCH  36  38
ENDBRANCH  14  36
BRANCH  14  42
ATOM     42  O   LIG d   1       7.400  -1.910  -6.981  0.00  0.00    -0.450 OA
BRANCH  42  43
ATOM     43  C   LIG d   1       7.293  -1.507  -8.256  0.00  0.00     0.305 C 
ATOM     44  O   LIG d   1       6.480  -2.021  -8.987  0.00  0.00    -0.251 OA
BRANCH  43  45
ATOM     45  C   LIG d   1       8.189  -0.413  -8.778  0.00  0.00     0.033 C 
ATOM     46  H   LIG d   1       8.306   0.356  -8.014  0.00  0.00     0.034 H 
ATOM     47  H   LIG d   1       9.165  -0.829  -9.028  0.00  0.00     0.034 H 
ATOM     48  H   LIG d   1       7.742   0.027  -9.670  0.00  0.00     0.034 H 
ENDBRANCH  43  45
ENDBRANCH  42  43
ENDBRANCH  14  42
BRANCH   9  49
ATOM     49  C   LIG d   1       9.043  -4.624  -5.090  0.00  0.00    -0.055 C 
ATOM     50  H   LIG d   1       8.696  -5.597  -5.439  0.00  0.00     0.024 H 
ATOM     51  H   LIG d   1       9.916  -4.321  -5.670  0.00  0.00     0.024 H 
ATOM     52  H   LIG d   1       9.312  -4.691  -4.036  0.00  0.00     0.024 H 
ENDBRANCH   9  49
BRANCH  15  53
ATOM     53  C   LIG d   1       3.658  -2.072  -2.528  0.00  0.00    -0.055 C 
ATOM     54  H   LIG d   1       3.327  -1.533  -1.641  0.00  0.00     0.024 H 
ATOM     55  H   LIG d   1       2.824  -2.174  -3.224  0.00  0.00     0.024 H 
ATOM     56  H   LIG d   1       4.015  -3.061  -2.242  0.00  0.00     0.024 H 
ENDBRANCH  15  53
BRANCH   1  57
ATOM     57  C   LIG d   1       3.800  -0.851  -7.003  0.00  0.00    -0.040 C 
ATOM     58  H   LIG d   1       4.529  -0.979  -7.802  0.00  0.00     0.028 H 
ATOM     59  H   LIG d   1       2.878  -1.369  -7.266  0.00  0.00     0.028 H 
ATOM     60  H   LIG d   1       3.594   0.211  -6.866  0.00  0.00     0.028 H 
ENDBRANCH   1  57
TORSDOF 8
ENDMDL
MODEL 5
REMARK VINA RESULT:      -5.6      2.239      3.656
REMARK  8 active torsions:
REMARK  status: ('A' for Active; 'I' for Inactive)
REMARK    1  A    between atoms: C_1  and  C_2 
REMARK    2  A    between atoms: C_10  and  C_23 
REMARK    3  A    between atoms: C_15  and  C_16 
REMARK    4  A    between atoms: C_15  and  O_19 
REMARK    5  A    between atoms: C_16  and  C_18 
REMARK    6  A    between atoms: O_19  and  C_20 
REMARK    7  A    between atoms: C_20  and  C_22 
REMARK    8  A    between atoms: C_24  and  C_31 
ROOT
ATOM      1  C   LIG d   1       7.124  -2.065  -6.715  0.00  0.00    -0.050 C 
ATOM      2  C   LIG d   1       6.306  -2.329  -5.694  0.00  0.00    -0.077 C 
ATOM      3  C   LIG d   1       4.848  -2.606  -5.894  0.00  0.00    -0.015 C 
ATOM      4  H   LIG d   1       4.728  -3.694  -6.000  0.00  0.00     0.035 H 
ATOM      5  C   LIG d   1       4.342  -1.944  -7.169  0.00  0.00    -0.025 C 
ATOM      6  H   LIG d   1       3.301  -2.227  -7.343  0.00  0.00     0.032 H 
ATOM      7  C   LIG d   1       4.437  -0.424  -7.005  0.00  0.00    -0.048 C 
ATOM      8  C   LIG d   1       3.503   0.004  -5.878  0.00  0.00    -0.043 C 
ATOM      9  C   LIG d   1       3.800  -0.681  -4.567  0.00  0.00     0.018 C 
ATOM     10  C   LIG d   1       4.021  -2.193  -4.682  0.00  0.00    -0.025 C 
ATOM     11  H   LIG d   1       3.049  -2.722  -4.693  0.00  0.00     0.031 H 
ATOM     12  C   LIG d   1       4.821  -2.556  -3.405  0.00  0.00    -0.045 C 
ATOM     13  C   LIG d   1       5.569  -1.278  -2.982  0.00  0.00    -0.005 C 
ATOM     14  C   LIG d   1       5.011  -0.115  -3.825  0.00  0.00     0.176 C 
ATOM     15  C   LIG d   1       5.194  -2.379  -8.367  0.00  0.00    -0.003 C 
ATOM     16  C   LIG d   1       6.640  -2.042  -8.092  0.00  0.00    -0.035 C 
ATOM     17  C   LIG d   1       7.473  -1.723  -9.112  0.00  0.00    -0.015 C 
ATOM     18  C   LIG d   1       7.043  -1.691 -10.449  0.00  0.00     0.156 C 
ATOM     19  O   LIG d   1       7.838  -1.412 -11.324  0.00  0.00    -0.293 OA
ATOM     20  C   LIG d   1       5.613  -1.993 -10.808  0.00  0.00     0.011 C 
ATOM     21  C   LIG d   1       4.713  -1.646  -9.621  0.00  0.00    -0.036 C 
ATOM     22  H   LIG d   1       6.731  -2.356  -4.701  0.00  0.00     0.058 H 
ATOM     23  H   LIG d   1       5.461  -0.131  -6.794  0.00  0.00     0.027 H 
ATOM     24  H   LIG d   1       4.115   0.063  -7.931  0.00  0.00     0.027 H 
ATOM     25  H   LIG d   1       3.580   1.087  -5.744  0.00  0.00     0.027 H 
ATOM     26  H   LIG d   1       2.474  -0.228  -6.170  0.00  0.00     0.027 H 
ATOM     27  H   LIG d   1       4.142  -2.879  -2.608  0.00  0.00     0.027 H 
ATOM     28  H   LIG d   1       5.530  -3.363  -3.611  0.00  0.00     0.027 H 
ATOM     29  H   LIG d   1       5.393  -1.079  -1.921  0.00  0.00     0.031 H 
ATOM     30  H   LIG d   1       6.641  -1.384  -3.151  0.00  0.00     0.031 H 
ATOM     31  H   LIG d   1       8.507  -1.479  -8.919  0.00  0.00     0.066 H 
ATOM     32  H   LIG d   1       5.325  -1.378 -11.667  0.00  0.00     0.035 H 
ATOM     33  H   LIG d   1       5.507  -3.040 -11.079  0.00  0.00     0.035 H 
ATOM     34  H   LIG d   1       3.686  -1.941  -9.843  0.00  0.00     0.028 H 
ATOM     35  H   LIG d   1       4.748  -0.568  -9.455  0.00  0.00     0.028 H 
ENDROOT
BRANCH  14  36
ATOM     36  C   LIG d   1       4.573   1.006  -2.910  0.00  0.00     0.174 C 
ATOM     37  O   LIG d   1       4.162   2.041  -3.378  0.00  0.00    -0.293 OA
BRANCH  36  38
ATOM     38  C   LIG d   1       4.649   0.832  -1.415  0.00  0.00    -0.002 C 
ATOM     39  H   LIG d   1       5.674   0.996  -1.082  0.00  0.00     0.031 H 
ATOM     40  H   LIG d   1       3.990   1.553  -0.932  0.00  0.00     0.031 H 
ATOM     41  H   LIG d   1       4.337  -0.178  -1.151  0.00  0.00     0.031 H 
ENDBRANCH  36  38
ENDBRANCH  14  36
BRANCH  14  42
ATOM     42  O   LIG d   1       6.006   0.367  -4.727  0.00  0.00    -0.450 OA
BRANCH  42  43
ATOM     43  C   LIG d   1       7.178   0.746  -4.195  0.00  0.00     0.305 C 
ATOM     44  O   LIG d   1       7.815  -0.030  -3.522  0.00  0.00    -0.251 OA
BRANCH  43  45
ATOM     45  C   LIG d   1       7.701   2.138  -4.437  0.00  0.00     0.033 C 
ATOM     46  H   LIG d   1       8.786   2.107  -4.532  0.00  0.00     0.034 H 
ATOM     47  H   LIG d   1       7.266   2.536  -5.354  0.00  0.00     0.034 H 
ATOM     48  H   LIG d   1       7.428   2.779  -3.598  0.00  0.00     0.034 H 
ENDBRANCH  43  45
ENDBRANCH  42  43
ENDBRANCH  14  42
BRANCH   9  49
ATOM     49  C   LIG d   1       2.568  -0.463  -3.661  0.00  0.00    -0.055 C 
ATOM     50  H   LIG d   1       2.561  -1.213  -2.870  0.00  0.00     0.024 H 
ATOM     51  H   LIG d   1       2.615   0.532  -3.218  0.00  0.00     0.024 H 
ATOM     52  H   LIG d   1       1.659  -0.554  -4.255  0.00  0.00     0.024 H 
ENDBRANCH   9  49
BRANCH  15  53
ATOM     53  C   LIG d   1       5.051  -3.889  -8.578  0.00  0.00    -0.055 C 
ATOM     54  H   LIG d   1       4.110  -4.229  -8.146  0.00  0.00     0.024 H 
ATOM     55  H   LIG d   1       5.061  -4.109  -9.646  0.00  0.00     0.024 H 
ATOM     56  H   LIG d   1       5.881  -4.403  -8.093  0.00  0.00     0.024 H 
ENDBRANCH  15  53
BRANCH   1  57
ATOM     57  C   LIG d   1       8.575  -1.792  -6.407  0.00  0.00    -0.040 C 
ATOM     58  H   LIG d   1       8.896  -0.894  -6.934  0.00  0.00     0.028 H 
ATOM     59  H   LIG d   1       8.697  -1.646  -5.335  0.00  0.00     0.028 H 
ATOM     60  H   LIG d   1       9.181  -2.638  -6.731  0.00  0.00     0.028 H 
ENDBRANCH   1  57
TORSDOF 8
ENDMDL
MODEL 6
REMARK VINA RESULT:      -5.5      2.201      6.372
REMARK  8 active torsions:
REMARK  status: ('A' for Active; 'I' for Inactive)
REMARK    1  A    between atoms: C_1  and  C_2 
REMARK    2  A    between atoms: C_10  and  C_23 
REMARK    3  A    between atoms: C_15  and  C_16 
REMARK    4  A    between atoms: C_15  and  O_19 
REMARK    5  A    between atoms: C_16  and  C_18 
REMARK    6  A    between atoms: O_19  and  C_20 
REMARK    7  A    between atoms: C_20  and  C_22 
REMARK    8  A    between atoms: C_24  and  C_31 
ROOT
ATOM      1  C   LIG d   1       6.688  -0.683  -4.887  0.00  0.00    -0.050 C 
ATOM      2  C   LIG d   1       6.605  -1.469  -5.963  0.00  0.00    -0.077 C 
ATOM      3  C   LIG d   1       5.311  -2.078  -6.406  0.00  0.00    -0.015 C 
ATOM      4  H   LIG d   1       4.850  -1.389  -7.130  0.00  0.00     0.035 H 
ATOM      5  C   LIG d   1       4.358  -2.237  -5.228  0.00  0.00    -0.025 C 
ATOM      6  H   LIG d   1       3.391  -2.602  -5.583  0.00  0.00     0.032 H 
ATOM      7  C   LIG d   1       4.955  -3.250  -4.246  0.00  0.00    -0.048 C 
ATOM      8  C   LIG d   1       5.043  -4.606  -4.937  0.00  0.00    -0.043 C 
ATOM      9  C   LIG d   1       5.853  -4.574  -6.210  0.00  0.00     0.018 C 
ATOM     10  C   LIG d   1       5.525  -3.398  -7.136  0.00  0.00    -0.025 C 
ATOM     11  H   LIG d   1       4.637  -3.635  -7.754  0.00  0.00     0.031 H 
ATOM     12  C   LIG d   1       6.785  -3.258  -8.028  0.00  0.00    -0.045 C 
ATOM     13  C   LIG d   1       7.959  -3.835  -7.217  0.00  0.00    -0.005 C 
ATOM     14  C   LIG d   1       7.366  -4.550  -5.988  0.00  0.00     0.176 C 
ATOM     15  C   LIG d   1       4.164  -0.894  -4.517  0.00  0.00    -0.003 C 
ATOM     16  C   LIG d   1       5.511  -0.365  -4.084  0.00  0.00    -0.035 C 
ATOM     17  C   LIG d   1       5.622   0.393  -2.967  0.00  0.00    -0.015 C 
ATOM     18  C   LIG d   1       4.512   0.720  -2.171  0.00  0.00     0.156 C 
ATOM     19  O   LIG d   1       4.668   1.415  -1.187  0.00  0.00    -0.293 OA
ATOM     20  C   LIG d   1       3.137   0.216  -2.517  0.00  0.00     0.011 C 
ATOM     21  C   LIG d   1       3.262  -1.094  -3.297  0.00  0.00    -0.036 C 
ATOM     22  H   LIG d   1       7.508  -1.646  -6.530  0.00  0.00     0.058 H 
ATOM     23  H   LIG d   1       5.934  -2.918  -3.913  0.00  0.00     0.027 H 
ATOM     24  H   LIG d   1       4.299  -3.343  -3.375  0.00  0.00     0.027 H 
ATOM     25  H   LIG d   1       5.486  -5.329  -4.247  0.00  0.00     0.027 H 
ATOM     26  H   LIG d   1       4.029  -4.943  -5.175  0.00  0.00     0.027 H 
ATOM     27  H   LIG d   1       6.657  -3.819  -8.961  0.00  0.00     0.027 H 
ATOM     28  H   LIG d   1       6.968  -2.208  -8.273  0.00  0.00     0.027 H 
ATOM     29  H   LIG d   1       8.515  -4.553  -7.827  0.00  0.00     0.031 H 
ATOM     30  H   LIG d   1       8.636  -3.041  -6.900  0.00  0.00     0.031 H 
ATOM     31  H   LIG d   1       6.583   0.770  -2.654  0.00  0.00     0.066 H 
ATOM     32  H   LIG d   1       2.582   0.030  -1.592  0.00  0.00     0.035 H 
ATOM     33  H   LIG d   1       2.601   0.961  -3.100  0.00  0.00     0.035 H 
ATOM     34  H   LIG d   1       2.274  -1.421  -3.624  0.00  0.00     0.028 H 
ATOM     35  H   LIG d   1       3.692  -1.854  -2.642  0.00  0.00     0.028 H 
ENDROOT
BRANCH  14  36
ATOM     36  C   LIG d   1       7.896  -5.965  -5.923  0.00  0.00     0.174 C 
ATOM     37  O   LIG d   1       7.571  -6.689  -5.013  0.00  0.00    -0.293 OA
BRANCH  36  38
ATOM     38  C   LIG d   1       8.830  -6.469  -6.992  0.00  0.00    -0.002 C 
ATOM     39  H   LIG d   1       8.366  -7.304  -7.516  0.00  0.00     0.031 H 
ATOM     40  H   LIG d   1       9.039  -5.666  -7.700  0.00  0.00     0.031 H 
ATOM     41  H   LIG d   1       9.762  -6.800  -6.534  0.00  0.00     0.031 H 
ENDBRANCH  36  38
ENDBRANCH  14  36
BRANCH  14  42
ATOM     42  O   LIG d   1       7.714  -3.855  -4.792  0.00  0.00    -0.450 OA
BRANCH  42  43
ATOM     43  C   LIG d   1       9.020  -3.776  -4.492  0.00  0.00     0.305 C 
ATOM     44  O   LIG d   1       9.774  -3.182  -5.226  0.00  0.00    -0.251 OA
BRANCH  43  45
ATOM     45  C   LIG d   1       9.546  -4.428  -3.239  0.00  0.00     0.033 C 
ATOM     46  H   LIG d   1       8.721  -4.886  -2.694  0.00  0.00     0.034 H 
ATOM     47  H   LIG d   1      10.275  -5.192  -3.506  0.00  0.00     0.034 H 
ATOM     48  H   LIG d   1      10.022  -3.675  -2.611  0.00  0.00     0.034 H 
ENDBRANCH  43  45
ENDBRANCH  42  43
ENDBRANCH  14  42
BRANCH   9  49
ATOM     49  C   LIG d   1       5.526  -5.873  -6.979  0.00  0.00    -0.055 C 
ATOM     50  H   LIG d   1       4.553  -6.247  -6.661  0.00  0.00     0.024 H 
ATOM     51  H   LIG d   1       5.502  -5.665  -8.049  0.00  0.00     0.024 H 
ATOM     52  H   LIG d   1       6.289  -6.621  -6.771  0.00  0.00     0.024 H 
ENDBRANCH   9  49
BRANCH  15  53
ATOM     53  C   LIG d   1       3.505   0.104  -5.473  0.00  0.00    -0.055 C 
ATOM     54  H   LIG d   1       4.249   0.475  -6.179  0.00  0.00     0.024 H 
ATOM     55  H   LIG d   1       2.702  -0.391  -6.019  0.00  0.00     0.024 H 
ATOM     56  H   LIG d   1       3.096   0.938  -4.903  0.00  0.00     0.024 H 
ENDBRANCH  15  53
BRANCH   1  57
ATOM     57  C   LIG d   1       8.041  -0.126  -4.521  0.00  0.00    -0.040 C 
ATOM     58  H   LIG d   1       8.713  -0.943  -4.261  0.00  0.00     0.028 H 
ATOM     59  H   LIG d   1       8.448   0.424  -5.368  0.00  0.00     0.028 H 
ATOM     60  H   LIG d   1       7.938   0.544  -3.667  0.00  0.00     0.028 H 
ENDBRANCH   1  57
TORSDOF 8
ENDMDL
MODEL 7
REMARK VINA RESULT:      -5.1      2.342      3.190
REMARK  8 active torsions:
REMARK  status: ('A' for Active; 'I' for Inactive)
REMARK    1  A    between atoms: C_1  and  C_2 
REMARK    2  A    between atoms: C_10  and  C_23 
REMARK    3  A    between atoms: C_15  and  C_16 
REMARK    4  A    between atoms: C_15  and  O_19 
REMARK    5  A    between atoms: C_16  and  C_18 
REMARK    6  A    between atoms: O_19  and  C_20 
REMARK    7  A    between atoms: C_20  and  C_22 
REMARK    8  A    between atoms: C_24  and  C_31 
ROOT
ATOM      1  C   LIG d   1       4.124  -1.516  -8.243  0.00  0.00    -0.050 C 
ATOM      2  C   LIG d   1       5.205  -1.186  -7.533  0.00  0.00    -0.077 C 
ATOM      3  C   LIG d   1       6.263  -2.186  -7.182  0.00  0.00    -0.015 C 
ATOM      4  H   LIG d   1       7.028  -2.151  -7.971  0.00  0.00     0.035 H 
ATOM      5  C   LIG d   1       5.683  -3.594  -7.140  0.00  0.00    -0.025 C 
ATOM      6  H   LIG d   1       6.484  -4.317  -6.967  0.00  0.00     0.032 H 
ATOM      7  C   LIG d   1       4.668  -3.674  -5.996  0.00  0.00    -0.048 C 
ATOM      8  C   LIG d   1       5.400  -3.453  -4.677  0.00  0.00    -0.043 C 
ATOM      9  C   LIG d   1       6.145  -2.141  -4.623  0.00  0.00     0.018 C 
ATOM     10  C   LIG d   1       6.968  -1.831  -5.877  0.00  0.00    -0.025 C 
ATOM     11  H   LIG d   1       7.947  -2.344  -5.828  0.00  0.00     0.031 H 
ATOM     12  C   LIG d   1       7.157  -0.293  -5.833  0.00  0.00    -0.045 C 
ATOM     13  C   LIG d   1       5.975   0.268  -5.023  0.00  0.00    -0.005 C 
ATOM     14  C   LIG d   1       5.252  -0.926  -4.371  0.00  0.00     0.176 C 
ATOM     15  C   LIG d   1       4.982  -3.918  -8.463  0.00  0.00    -0.003 C 
ATOM     16  C   LIG d   1       3.919  -2.878  -8.727  0.00  0.00    -0.035 C 
ATOM     17  C   LIG d   1       2.793  -3.208  -9.404  0.00  0.00    -0.015 C 
ATOM     18  C   LIG d   1       2.562  -4.508  -9.886  0.00  0.00     0.156 C 
ATOM     19  O   LIG d   1       1.540  -4.743 -10.498  0.00  0.00    -0.293 OA
ATOM     20  C   LIG d   1       3.559  -5.609  -9.648  0.00  0.00     0.011 C 
ATOM     21  C   LIG d   1       4.347  -5.307  -8.371  0.00  0.00    -0.036 C 
ATOM     22  H   LIG d   1       5.311  -0.155  -7.225  0.00  0.00     0.058 H 
ATOM     23  H   LIG d   1       3.885  -2.934  -6.135  0.00  0.00     0.027 H 
ATOM     24  H   LIG d   1       4.213  -4.669  -5.981  0.00  0.00     0.027 H 
ATOM     25  H   LIG d   1       4.677  -3.491  -3.858  0.00  0.00     0.027 H 
ATOM     26  H   LIG d   1       6.117  -4.269  -4.535  0.00  0.00     0.027 H 
ATOM     27  H   LIG d   1       8.106  -0.039  -5.345  0.00  0.00     0.027 H 
ATOM     28  H   LIG d   1       7.161   0.123  -6.845  0.00  0.00     0.027 H 
ATOM     29  H   LIG d   1       6.344   0.944  -4.246  0.00  0.00     0.031 H 
ATOM     30  H   LIG d   1       5.288   0.814  -5.671  0.00  0.00     0.031 H 
ATOM     31  H   LIG d   1       2.030  -2.468  -9.592  0.00  0.00     0.066 H 
ATOM     32  H   LIG d   1       3.022  -6.554  -9.521  0.00  0.00     0.035 H 
ATOM     33  H   LIG d   1       4.227  -5.700 -10.500  0.00  0.00     0.035 H 
ATOM     34  H   LIG d   1       5.129  -6.057  -8.239  0.00  0.00     0.028 H 
ATOM     35  H   LIG d   1       3.666  -5.345  -7.520  0.00  0.00     0.028 H 
ENDROOT
BRANCH  14  36
ATOM     36  C   LIG d   1       5.124  -0.685  -2.883  0.00  0.00     0.174 C 
ATOM     37  O   LIG d   1       4.785  -1.586  -2.153  0.00  0.00    -0.293 OA
BRANCH  36  38
ATOM     38  C   LIG d   1       5.418   0.678  -2.312  0.00  0.00    -0.002 C 
ATOM     39  H   LIG d   1       6.328   0.633  -1.714  0.00  0.00     0.031 H 
ATOM     40  H   LIG d   1       5.553   1.391  -3.126  0.00  0.00     0.031 H 
ATOM     41  H   LIG d   1       4.585   0.997  -1.685  0.00  0.00     0.031 H 
ENDBRANCH  36  38
ENDBRANCH  14  36
BRANCH  14  42
ATOM     42  O   LIG d   1       3.955  -1.094  -4.939  0.00  0.00    -0.450 OA
BRANCH  42  43
ATOM     43  C   LIG d   1       3.033  -0.167  -4.639  0.00  0.00     0.305 C 
ATOM     44  O   LIG d   1       3.048   0.904  -5.200  0.00  0.00    -0.251 OA
BRANCH  43  45
ATOM     45  C   LIG d   1       1.979  -0.460  -3.603  0.00  0.00     0.033 C 
ATOM     46  H   LIG d   1       2.439  -0.955  -2.747  0.00  0.00     0.034 H 
ATOM     47  H   LIG d   1       1.518   0.473  -3.279  0.00  0.00     0.034 H 
ATOM     48  H   LIG d   1       1.218  -1.111  -4.034  0.00  0.00     0.034 H 
ENDBRANCH  43  45
ENDBRANCH  42  43
ENDBRANCH  14  42
BRANCH   9  49
ATOM     49  C   LIG d   1       7.130  -2.238  -3.437  0.00  0.00    -0.055 C 
ATOM     50  H   LIG d   1       7.518  -1.245  -3.205  0.00  0.00     0.024 H 
ATOM     51  H   LIG d   1       6.611  -2.637  -2.565  0.00  0.00     0.024 H 
ATOM     52  H   LIG d   1       7.956  -2.897  -3.703  0.00  0.00     0.024 H 
ENDBRANCH   9  49
BRANCH  15  53
ATOM     53  C   LIG d   1       6.005  -3.905  -9.604  0.00  0.00    -0.055 C 
ATOM     54  H   LIG d   1       6.895  -3.362  -9.287  0.00  0.00     0.024 H 
ATOM     55  H   LIG d   1       6.277  -4.930  -9.860  0.00  0.00     0.024 H 
ATOM     56  H   LIG d   1       5.571  -3.415 -10.476  0.00  0.00     0.024 H 
ENDBRANCH  15  53
BRANCH   1  57
ATOM     57  C   LIG d   1       3.113  -0.437  -8.537  0.00  0.00    -0.040 C 
ATOM     58  H   LIG d   1       3.549   0.538  -8.322  0.00  0.00     0.028 H 
ATOM     59  H   LIG d   1       2.827  -0.483  -9.587  0.00  0.00     0.028 H 
ATOM     60  H   LIG d   1       2.231  -0.585  -7.913  0.00  0.00     0.028 H 
ENDBRANCH   1  57
TORSDOF 8
ENDMDL
MODEL 8
REMARK VINA RESULT:      -5.1      3.020      6.577
REMARK  8 active torsions:
REMARK  status: ('A' for Active; 'I' for Inactive)
REMARK    1  A    between atoms: C_1  and  C_2 
REMARK    2  A    between atoms: C_10  and  C_23 
REMARK    3  A    between atoms: C_15  and  C_16 
REMARK    4  A    between atoms: C_15  and  O_19 
REMARK    5  A    between atoms: C_16  and  C_18 
REMARK    6  A    between atoms: O_19  and  C_20 
REMARK    7  A    between atoms: C_20  and  C_22 
REMARK    8  A    between atoms: C_24  and  C_31 
ROOT
ATOM      1  C   LIG d   1       7.154   0.143  -5.203  0.00  0.00    -0.050 C 
ATOM      2  C   LIG d   1       7.440  -0.774  -6.130  0.00  0.00    -0.077 C 
ATOM      3  C   LIG d   1       6.816  -2.134  -6.123  0.00  0.00    -0.015 C 
ATOM      4  H   LIG d   1       5.911  -2.088  -6.747  0.00  0.00     0.035 H 
ATOM      5  C   LIG d   1       6.402  -2.531  -4.712  0.00  0.00    -0.025 C 
ATOM      6  H   LIG d   1       5.873  -3.487  -4.738  0.00  0.00     0.032 H 
ATOM      7  C   LIG d   1       7.661  -2.670  -3.851  0.00  0.00    -0.048 C 
ATOM      8  C   LIG d   1       8.508  -3.810  -4.405  0.00  0.00    -0.043 C 
ATOM      9  C   LIG d   1       8.886  -3.619  -5.854  0.00  0.00     0.018 C 
ATOM     10  C   LIG d   1       7.727  -3.180  -6.755  0.00  0.00    -0.025 C 
ATOM     11  H   LIG d   1       7.131  -4.059  -7.067  0.00  0.00     0.031 H 
ATOM     12  C   LIG d   1       8.425  -2.536  -7.980  0.00  0.00    -0.045 C 
ATOM     13  C   LIG d   1       9.797  -2.040  -7.488  0.00  0.00    -0.005 C 
ATOM     14  C   LIG d   1      10.021  -2.620  -6.079  0.00  0.00     0.176 C 
ATOM     15  C   LIG d   1       5.488  -1.461  -4.106  0.00  0.00    -0.003 C 
ATOM     16  C   LIG d   1       6.202  -0.131  -4.131  0.00  0.00    -0.035 C 
ATOM     17  C   LIG d   1       5.961   0.793  -3.170  0.00  0.00    -0.015 C 
ATOM     18  C   LIG d   1       5.052   0.565  -2.123  0.00  0.00     0.156 C 
ATOM     19  O   LIG d   1       4.864   1.435  -1.296  0.00  0.00    -0.293 OA
ATOM     20  C   LIG d   1       4.313  -0.741  -2.011  0.00  0.00     0.011 C 
ATOM     21  C   LIG d   1       5.145  -1.846  -2.666  0.00  0.00    -0.036 C 
ATOM     22  H   LIG d   1       8.134  -0.500  -6.912  0.00  0.00     0.058 H 
ATOM     23  H   LIG d   1       8.218  -1.738  -3.846  0.00  0.00     0.027 H 
ATOM     24  H   LIG d   1       7.374  -2.915  -2.823  0.00  0.00     0.027 H 
ATOM     25  H   LIG d   1       9.418  -3.901  -3.805  0.00  0.00     0.027 H 
ATOM     26  H   LIG d   1       7.944  -4.743  -4.310  0.00  0.00     0.027 H 
ATOM     27  H   LIG d   1       8.553  -3.275  -8.779  0.00  0.00     0.027 H 
ATOM     28  H   LIG d   1       7.832  -1.702  -8.366  0.00  0.00     0.027 H 
ATOM     29  H   LIG d   1      10.583  -2.396  -8.161  0.00  0.00     0.031 H 
ATOM     30  H   LIG d   1       9.824  -0.951  -7.456  0.00  0.00     0.031 H 
ATOM     31  H   LIG d   1       6.472   1.744  -3.182  0.00  0.00     0.066 H 
ATOM     32  H   LIG d   1       4.171  -0.980  -0.952  0.00  0.00     0.035 H 
ATOM     33  H   LIG d   1       3.338  -0.662  -2.484  0.00  0.00     0.035 H 
ATOM     34  H   LIG d   1       4.579  -2.779  -2.663  0.00  0.00     0.028 H 
ATOM     35  H   LIG d   1       6.063  -1.983  -2.092  0.00  0.00     0.028 H 
ENDROOT
BRANCH  14  36
ATOM     36  C   LIG d   1      11.351  -3.337  -6.034  0.00  0.00     0.174 C 
ATOM     37  O   LIG d   1      11.712  -3.875  -5.015  0.00  0.00    -0.293 OA
BRANCH  36  38
ATOM     38  C   LIG d   1      12.226  -3.380  -7.260  0.00  0.00    -0.002 C 
ATOM     39  H   LIG d   1      12.900  -2.524  -7.256  0.00  0.00     0.031 H 
ATOM     40  H   LIG d   1      12.809  -4.301  -7.259  0.00  0.00     0.031 H 
ATOM     41  H   LIG d   1      11.602  -3.348  -8.153  0.00  0.00     0.031 H 
ENDBRANCH  36  38
ENDBRANCH  14  36
BRANCH  14  42
ATOM     42  O   LIG d   1      10.009  -1.578  -5.105  0.00  0.00    -0.450 OA
BRANCH  42  43
ATOM     43  C   LIG d   1      10.944  -0.623  -5.222  0.00  0.00     0.305 C 
ATOM     44  O   LIG d   1      10.859   0.201  -6.102  0.00  0.00    -0.251 OA
BRANCH  43  45
ATOM     45  C   LIG d   1      12.101  -0.578  -4.258  0.00  0.00     0.033 C 
ATOM     46  H   LIG d   1      12.457   0.448  -4.165  0.00  0.00     0.034 H 
ATOM     47  H   LIG d   1      11.775  -0.940  -3.282  0.00  0.00     0.034 H 
ATOM     48  H   LIG d   1      12.907  -1.211  -4.629  0.00  0.00     0.034 H 
ENDBRANCH  43  45
ENDBRANCH  42  43
ENDBRANCH  14  42
BRANCH   9  49
ATOM     49  C   LIG d   1       9.377  -4.990  -6.370  0.00  0.00    -0.055 C 
ATOM     50  H   LIG d   1      10.465  -5.033  -6.308  0.00  0.00     0.024 H 
ATOM     51  H   LIG d   1       8.948  -5.784  -5.757  0.00  0.00     0.024 H 
ATOM     52  H   LIG d   1       9.067  -5.121  -7.406  0.00  0.00     0.024 H 
ENDBRANCH   9  49
BRANCH  15  53
ATOM     53  C   LIG d   1       4.197  -1.364  -4.924  0.00  0.00    -0.055 C 
ATOM     54  H   LIG d   1       3.604  -0.521  -4.568  0.00  0.00     0.024 H 
ATOM     55  H   LIG d   1       4.444  -1.216  -5.976  0.00  0.00     0.024 H 
ATOM     56  H   LIG d   1       3.625  -2.285  -4.811  0.00  0.00     0.024 H 
ENDBRANCH  15  53
BRANCH   1  57
ATOM     57  C   LIG d   1       7.843   1.482  -5.295  0.00  0.00    -0.040 C 
ATOM     58  H   LIG d   1       7.126   2.240  -5.609  0.00  0.00     0.028 H 
ATOM     59  H   LIG d   1       8.250   1.748  -4.321  0.00  0.00     0.028 H 
ATOM     60  H   LIG d   1       8.652   1.425  -6.024  0.00  0.00     0.028 H 
ENDBRANCH   1  57
TORSDOF 8
ENDMDL
MODEL 9
REMARK VINA RESULT:      -5.0      3.378      6.156
REMARK  8 active torsions:
REMARK  status: ('A' for Active; 'I' for Inactive)
REMARK    1  A    between atoms: C_1  and  C_2 
REMARK    2  A    between atoms: C_10  and  C_23 
REMARK    3  A    between atoms: C_15  and  C_16 
REMARK    4  A    between atoms: C_15  and  O_19 
REMARK    5  A    between atoms: C_16  and  C_18 
REMARK    6  A    between atoms: O_19  and  C_20 
REMARK    7  A    between atoms: C_20  and  C_22 
REMARK    8  A    between atoms: C_24  and  C_31 
ROOT
ATOM      1  C   LIG d   1       6.165  -0.741  -6.144  0.00  0.00    -0.050 C 
ATOM      2  C   LIG d   1       7.499  -0.733  -6.178  0.00  0.00    -0.077 C 
ATOM      3  C   LIG d   1       8.324  -0.467  -4.958  0.00  0.00    -0.015 C 
ATOM      4  H   LIG d   1       8.549  -1.438  -4.491  0.00  0.00     0.035 H 
ATOM      5  C   LIG d   1       7.548   0.376  -3.954  0.00  0.00    -0.025 C 
ATOM      6  H   LIG d   1       8.133   0.488  -3.038  0.00  0.00     0.032 H 
ATOM      7  C   LIG d   1       7.292   1.756  -4.566  0.00  0.00    -0.048 C 
ATOM      8  C   LIG d   1       8.633   2.448  -4.789  0.00  0.00    -0.043 C 
ATOM      9  C   LIG d   1       9.571   1.656  -5.666  0.00  0.00     0.018 C 
ATOM     10  C   LIG d   1       9.665   0.169  -5.307  0.00  0.00    -0.025 C 
ATOM     11  H   LIG d   1      10.379   0.021  -4.475  0.00  0.00     0.031 H 
ATOM     12  C   LIG d   1      10.194  -0.499  -6.602  0.00  0.00    -0.045 C 
ATOM     13  C   LIG d   1       9.771   0.414  -7.767  0.00  0.00    -0.005 C 
ATOM     14  C   LIG d   1       9.246   1.728  -7.158  0.00  0.00     0.176 C 
ATOM     15  C   LIG d   1       6.209  -0.290  -3.625  0.00  0.00    -0.003 C 
ATOM     16  C   LIG d   1       5.433  -0.498  -4.904  0.00  0.00    -0.035 C 
ATOM     17  C   LIG d   1       4.079  -0.460  -4.897  0.00  0.00    -0.015 C 
ATOM     18  C   LIG d   1       3.342  -0.230  -3.723  0.00  0.00     0.156 C 
ATOM     19  O   LIG d   1       2.129  -0.221  -3.774  0.00  0.00    -0.293 OA
ATOM     20  C   LIG d   1       4.036   0.008  -2.410  0.00  0.00     0.011 C 
ATOM     21  C   LIG d   1       5.418   0.610  -2.673  0.00  0.00    -0.036 C 
ATOM     22  H   LIG d   1       7.980  -0.945  -7.122  0.00  0.00     0.058 H 
ATOM     23  H   LIG d   1       6.744   1.659  -5.498  0.00  0.00     0.027 H 
ATOM     24  H   LIG d   1       6.699   2.359  -3.870  0.00  0.00     0.027 H 
ATOM     25  H   LIG d   1       8.457   3.427  -5.244  0.00  0.00     0.027 H 
ATOM     26  H   LIG d   1       9.110   2.607  -3.817  0.00  0.00     0.027 H 
ATOM     27  H   LIG d   1      11.286  -0.589  -6.567  0.00  0.00     0.027 H 
ATOM     28  H   LIG d   1       9.764  -1.498  -6.722  0.00  0.00     0.027 H 
ATOM     29  H   LIG d   1      10.634   0.625  -8.406  0.00  0.00     0.031 H 
ATOM     30  H   LIG d   1       8.993  -0.060  -8.366  0.00  0.00     0.031 H 
ATOM     31  H   LIG d   1       3.522  -0.606  -5.810  0.00  0.00     0.066 H 
ATOM     32  H   LIG d   1       3.445   0.716  -1.819  0.00  0.00     0.035 H 
ATOM     33  H   LIG d   1       4.120  -0.923  -1.855  0.00  0.00     0.035 H 
ATOM     34  H   LIG d   1       5.959   0.707  -1.730  0.00  0.00     0.028 H 
ATOM     35  H   LIG d   1       5.293   1.599  -3.118  0.00  0.00     0.028 H 
ENDROOT
BRANCH  14  36
ATOM     36  C   LIG d   1       9.971   2.899  -7.783  0.00  0.00     0.174 C 
ATOM     37  O   LIG d   1      10.854   2.704  -8.583  0.00  0.00    -0.293 OA
BRANCH  36  38
ATOM     38  C   LIG d   1       9.589   4.308  -7.409  0.00  0.00    -0.002 C 
ATOM     39  H   LIG d   1      10.436   4.798  -6.927  0.00  0.00     0.031 H 
ATOM     40  H   LIG d   1       9.313   4.860  -8.307  0.00  0.00     0.031 H 
ATOM     41  H   LIG d   1       8.743   4.285  -6.723  0.00  0.00     0.031 H 
ENDBRANCH  36  38
ENDBRANCH  14  36
BRANCH  14  42
ATOM     42  O   LIG d   1       7.844   1.858  -7.388  0.00  0.00    -0.450 OA
BRANCH  42  43
ATOM     43  C   LIG d   1       7.442   1.941  -8.665  0.00  0.00     0.305 C 
ATOM     44  O   LIG d   1       6.893   2.942  -9.062  0.00  0.00    -0.251 OA
BRANCH  43  45
ATOM     45  C   LIG d   1       7.673   0.786  -9.605  0.00  0.00     0.033 C 
ATOM     46  H   LIG d   1       7.129  -0.088  -9.246  0.00  0.00     0.034 H 
ATOM     47  H   LIG d   1       7.319   1.051 -10.601  0.00  0.00     0.034 H 
ATOM     48  H   LIG d   1       8.739   0.559  -9.645  0.00  0.00     0.034 H 
ENDBRANCH  43  45
ENDBRANCH  42  43
ENDBRANCH  14  42
BRANCH   9  49
ATOM     49  C   LIG d   1      10.978   2.265  -5.476  0.00  0.00    -0.055 C 
ATOM     50  H   LIG d   1      11.422   2.465  -6.451  0.00  0.00     0.024 H 
ATOM     51  H   LIG d   1      10.898   3.197  -4.916  0.00  0.00     0.024 H 
ATOM     52  H   LIG d   1      11.607   1.564  -4.927  0.00  0.00     0.024 H 
ENDBRANCH   9  49
BRANCH  15  53
ATOM     53  C   LIG d   1       6.458  -1.643  -2.951  0.00  0.00    -0.055 C 
ATOM     54  H   LIG d   1       5.613  -2.304  -3.142  0.00  0.00     0.024 H 
ATOM     55  H   LIG d   1       7.367  -2.088  -3.357  0.00  0.00     0.024 H 
ATOM     56  H   LIG d   1       6.572  -1.498  -1.877  0.00  0.00     0.024 H 
ENDBRANCH  15  53
BRANCH   1  57
ATOM     57  C   LIG d   1       5.425  -1.011  -7.431  0.00  0.00    -0.040 C 
ATOM     58  H   LIG d   1       4.830  -1.917  -7.325  0.00  0.00     0.028 H 
ATOM     59  H   LIG d   1       4.771  -0.171  -7.657  0.00  0.00     0.028 H 
ATOM     60  H   LIG d   1       6.143  -1.142  -8.242  0.00  0.00     0.028 H 
ENDBRANCH   1  57
TORSDOF 8
ENDMDL
