MODEL 1
REMARK VINA RESULT:      -7.0      0.000      0.000
REMARK  9 active torsions:
REMARK  status: ('A' for Active; 'I' for Inactive)
REMARK    1  A    between atoms: C_1  and  N_2 
REMARK    2  A    between atoms: C_4  and  C_11 
REMARK       I    between atoms: C_11  and  N_13 
REMARK    3  A    between atoms: N_13  and  C_14 
REMARK    4  A    between atoms: C_14  and  C_15 
REMARK    5  A    between atoms: C_15  and  C_16 
REMARK    6  A    between atoms: C_19  and  O_24 
REMARK    7  A    between atoms: C_20  and  O_22 
REMARK    8  A    between atoms: O_22  and  C_23 
REMARK    9  A    between atoms: O_24  and  C_25 
ROOT
ATOM      1  C   LIG d   1      10.285   2.798  -4.023  0.00  0.00     0.016 C 
ATOM      2  H   LIG d   1       9.609   3.586  -4.351  0.00  0.00     0.046 H 
ATOM      3  H   LIG d   1      11.063   2.650  -4.772  0.00  0.00     0.046 H 
ENDROOT
BRANCH   1   4
ATOM      4  N   LIG d   1       9.535   1.551  -3.846  0.00  0.00    -0.311 N 
ATOM      5  C   LIG d   1       8.241   1.486  -4.216  0.00  0.00     0.246 C 
ATOM      6  O   LIG d   1       7.696   2.460  -4.698  0.00  0.00    -0.270 OA
ATOM      7  H   LIG d   1       9.970   0.775  -3.460  0.00  0.00     0.149 HD
BRANCH   5   8
ATOM      8  C   LIG d   1       7.489   0.236  -4.038  0.00  0.00     0.062 A 
ATOM      9  C   LIG d   1       7.799  -0.985  -4.561  0.00  0.00     0.018 A 
ATOM     10  N   LIG d   1       6.872  -1.895  -4.178  0.00  0.00    -0.349 N 
ATOM     11  H   LIG d   1       8.655  -1.194  -5.185  0.00  0.00     0.082 H 
ATOM     12  C   LIG d   1       5.912  -1.302  -3.384  0.00  0.00     0.050 A 
ATOM     13  C   LIG d   1       6.254   0.053  -3.254  0.00  0.00     0.012 A 
ATOM     14  C   LIG d   1       4.773  -1.783  -2.749  0.00  0.00    -0.038 A 
ATOM     15  C   LIG d   1       5.449   0.907  -2.504  0.00  0.00    -0.052 A 
ATOM     16  C   LIG d   1       4.324   0.412  -1.881  0.00  0.00    -0.061 A 
ATOM     17  H   LIG d   1       5.709   1.950  -2.406  0.00  0.00     0.062 H 
ATOM     18  C   LIG d   1       3.989  -0.929  -2.004  0.00  0.00    -0.060 A 
ATOM     19  H   LIG d   1       3.701   1.071  -1.294  0.00  0.00     0.062 H 
ATOM     20  H   LIG d   1       3.105  -1.306  -1.512  0.00  0.00     0.062 H 
ATOM     21  H   LIG d   1       4.503  -2.825  -2.838  0.00  0.00     0.064 H 
BRANCH  10  22
ATOM     22  C   LIG d   1       6.886  -3.311  -4.556  0.00  0.00     0.012 C 
ATOM     23  H   LIG d   1       5.872  -3.634  -4.796  0.00  0.00     0.046 H 
ATOM     24  H   LIG d   1       7.526  -3.448  -5.428  0.00  0.00     0.046 H 
ATOM     25  H   LIG d   1       7.270  -3.905  -3.726  0.00  0.00     0.046 H 
ENDBRANCH  10  22
ENDBRANCH   5   8
ENDBRANCH   1   4
BRANCH   1  26
ATOM     26  C   LIG d   1      10.928   3.199  -2.693  0.00  0.00    -0.012 C 
ATOM     27  H   LIG d   1      12.013   3.170  -2.790  0.00  0.00     0.033 H 
ATOM     28  H   LIG d   1      10.613   2.506  -1.914  0.00  0.00     0.033 H 
BRANCH  26  29
ATOM     29  C   LIG d   1      10.494   4.596  -2.328  0.00  0.00    -0.042 A 
ATOM     30  C   LIG d   1      10.748   5.087  -1.061  0.00  0.00    -0.013 A 
ATOM     31  C   LIG d   1      10.351   6.370  -0.723  0.00  0.00     0.162 A 
ATOM     32  H   LIG d   1      11.256   4.470  -0.334  0.00  0.00     0.066 H 
ATOM     33  C   LIG d   1       9.696   7.162  -1.661  0.00  0.00     0.162 A 
ATOM     34  C   LIG d   1       9.445   6.664  -2.930  0.00  0.00    -0.016 A 
ATOM     35  C   LIG d   1       9.839   5.380  -3.258  0.00  0.00    -0.055 A 
ATOM     36  H   LIG d   1       8.937   7.277  -3.660  0.00  0.00     0.066 H 
ATOM     37  H   LIG d   1       9.638   4.991  -4.245  0.00  0.00     0.062 H 
BRANCH  31  38
ATOM     38  O   LIG d   1      10.601   6.855   0.523  0.00  0.00    -0.491 OA
BRANCH  38  39
ATOM     39  C   LIG d   1      11.049   5.920   1.506  0.00  0.00     0.079 C 
ATOM     40  H   LIG d   1      11.955   6.297   1.980  0.00  0.00     0.066 H 
ATOM     41  H   LIG d   1      10.274   5.785   2.259  0.00  0.00     0.066 H 
ATOM     42  H   LIG d   1      11.262   4.964   1.027  0.00  0.00     0.066 H 
ENDBRANCH  38  39
ENDBRANCH  31  38
BRANCH  33  43
ATOM     43  O   LIG d   1       9.305   8.422  -1.335  0.00  0.00    -0.491 OA
BRANCH  43  44
ATOM     44  C   LIG d   1       9.897   9.497  -2.068  0.00  0.00     0.079 C 
ATOM     45  H   LIG d   1       9.178   9.884  -2.789  0.00  0.00     0.066 H 
ATOM     46  H   LIG d   1      10.184  10.292  -1.380  0.00  0.00     0.066 H 
ATOM     47  H   LIG d   1      10.780   9.135  -2.594  0.00  0.00     0.066 H 
ENDBRANCH  43  44
ENDBRANCH  33  43
ENDBRANCH  26  29
ENDBRANCH   1  26
TORSDOF 9
ENDMDL
MODEL 2
REMARK VINA RESULT:      -6.5      1.273      1.890
REMARK  9 active torsions:
REMARK  status: ('A' for Active; 'I' for Inactive)
REMARK    1  A    between atoms: C_1  and  N_2 
REMARK    2  A    between atoms: C_4  and  C_11 
REMARK       I    between atoms: C_11  and  N_13 
REMARK    3  A    between atoms: N_13  and  C_14 
REMARK    4  A    between atoms: C_14  and  C_15 
REMARK    5  A    between atoms: C_15  and  C_16 
REMARK    6  A    between atoms: C_19  and  O_24 
REMARK    7  A    between atoms: C_20  and  O_22 
REMARK    8  A    between atoms: O_22  and  C_23 
REMARK    9  A    between atoms: O_24  and  C_25 
ROOT
ATOM      1  C   LIG d   1       9.579   3.762  -3.758  0.00  0.00     0.016 C 
ATOM      2  H   LIG d   1       9.124   4.533  -3.139  0.00  0.00     0.046 H 
ATOM      3  H   LIG d   1       9.436   4.008  -4.811  0.00  0.00     0.046 H 
ENDROOT
BRANCH   1   4
ATOM      4  N   LIG d   1       8.951   2.469  -3.470  0.00  0.00    -0.311 N 
ATOM      5  C   LIG d   1       8.155   1.888  -4.389  0.00  0.00     0.246 C 
ATOM      6  O   LIG d   1       7.958   2.434  -5.457  0.00  0.00    -0.270 OA
ATOM      7  H   LIG d   1       9.108   2.034  -2.618  0.00  0.00     0.149 HD
BRANCH   5   8
ATOM      8  C   LIG d   1       7.525   0.592  -4.100  0.00  0.00     0.062 A 
ATOM      9  C   LIG d   1       7.939  -0.632  -4.536  0.00  0.00     0.018 A 
ATOM     10  N   LIG d   1       7.107  -1.592  -4.064  0.00  0.00    -0.349 N 
ATOM     11  H   LIG d   1       8.800  -0.810  -5.163  0.00  0.00     0.082 H 
ATOM     12  C   LIG d   1       6.109  -1.029  -3.295  0.00  0.00     0.050 A 
ATOM     13  C   LIG d   1       6.325   0.358  -3.275  0.00  0.00     0.012 A 
ATOM     14  C   LIG d   1       5.030  -1.561  -2.598  0.00  0.00    -0.038 A 
ATOM     15  C   LIG d   1       5.458   1.190  -2.572  0.00  0.00    -0.052 A 
ATOM     16  C   LIG d   1       4.394   0.644  -1.887  0.00  0.00    -0.061 A 
ATOM     17  H   LIG d   1       5.621   2.257  -2.560  0.00  0.00     0.062 H 
ATOM     18  C   LIG d   1       4.182  -0.728  -1.902  0.00  0.00    -0.060 A 
ATOM     19  H   LIG d   1       3.722   1.286  -1.338  0.00  0.00     0.062 H 
ATOM     20  H   LIG d   1       3.346  -1.145  -1.361  0.00  0.00     0.062 H 
ATOM     21  H   LIG d   1       4.857  -2.627  -2.602  0.00  0.00     0.064 H 
BRANCH  10  22
ATOM     22  C   LIG d   1       7.246  -3.025  -4.334  0.00  0.00     0.012 C 
ATOM     23  H   LIG d   1       7.963  -3.458  -3.635  0.00  0.00     0.046 H 
ATOM     24  H   LIG d   1       6.280  -3.514  -4.211  0.00  0.00     0.046 H 
ATOM     25  H   LIG d   1       7.600  -3.170  -5.355  0.00  0.00     0.046 H 
ENDBRANCH  10  22
ENDBRANCH   5   8
ENDBRANCH   1   4
BRANCH   1  26
ATOM     26  C   LIG d   1      11.076   3.680  -3.452  0.00  0.00    -0.012 C 
ATOM     27  H   LIG d   1      11.645   3.912  -4.353  0.00  0.00     0.033 H 
ATOM     28  H   LIG d   1      11.324   2.675  -3.114  0.00  0.00     0.033 H 
BRANCH  26  29
ATOM     29  C   LIG d   1      11.422   4.673  -2.372  0.00  0.00    -0.042 A 
ATOM     30  C   LIG d   1      10.429   5.448  -1.804  0.00  0.00    -0.013 A 
ATOM     31  C   LIG d   1      10.746   6.360  -0.811  0.00  0.00     0.162 A 
ATOM     32  H   LIG d   1       9.406   5.343  -2.134  0.00  0.00     0.066 H 
ATOM     33  C   LIG d   1      12.064   6.495  -0.387  0.00  0.00     0.162 A 
ATOM     34  C   LIG d   1      13.055   5.714  -0.961  0.00  0.00    -0.016 A 
ATOM     35  C   LIG d   1      12.733   4.810  -1.956  0.00  0.00    -0.055 A 
ATOM     36  H   LIG d   1      14.079   5.816  -0.634  0.00  0.00     0.066 H 
ATOM     37  H   LIG d   1      13.508   4.206  -2.405  0.00  0.00     0.062 H 
BRANCH  31  38
ATOM     38  O   LIG d   1       9.769   7.124  -0.251  0.00  0.00    -0.491 OA
BRANCH  38  39
ATOM     39  C   LIG d   1       9.284   8.225  -1.020  0.00  0.00     0.079 C 
ATOM     40  H   LIG d   1       8.703   8.889  -0.379  0.00  0.00     0.066 H 
ATOM     41  H   LIG d   1      10.126   8.773  -1.442  0.00  0.00     0.066 H 
ATOM     42  H   LIG d   1       8.650   7.855  -1.826  0.00  0.00     0.066 H 
ENDBRANCH  38  39
ENDBRANCH  31  38
BRANCH  33  43
ATOM     43  O   LIG d   1      12.379   7.389   0.587  0.00  0.00    -0.491 OA
BRANCH  43  44
ATOM     44  C   LIG d   1      12.994   8.610   0.173  0.00  0.00     0.079 C 
ATOM     45  H   LIG d   1      13.009   9.311   1.008  0.00  0.00     0.066 H 
ATOM     46  H   LIG d   1      14.015   8.412  -0.153  0.00  0.00     0.066 H 
ATOM     47  H   LIG d   1      12.427   9.042  -0.652  0.00  0.00     0.066 H 
ENDBRANCH  43  44
ENDBRANCH  33  43
ENDBRANCH  26  29
ENDBRANCH   1  26
TORSDOF 9
ENDMDL
MODEL 3
REMARK VINA RESULT:      -6.5      1.390      1.877
REMARK  9 active torsions:
REMARK  status: ('A' for Active; 'I' for Inactive)
REMARK    1  A    between atoms: C_1  and  N_2 
REMARK    2  A    between atoms: C_4  and  C_11 
REMARK       I    between atoms: C_11  and  N_13 
REMARK    3  A    between atoms: N_13  and  C_14 
REMARK    4  A    between atoms: C_14  and  C_15 
REMARK    5  A    between atoms: C_15  and  C_16 
REMARK    6  A    between atoms: C_19  and  O_24 
REMARK    7  A    between atoms: C_20  and  O_22 
REMARK    8  A    between atoms: O_22  and  C_23 
REMARK    9  A    between atoms: O_24  and  C_25 
ROOT
ATOM      1  C   LIG d   1      10.234   2.580  -4.134  0.00  0.00     0.016 C 
ATOM      2  H   LIG d   1       9.914   3.047  -5.065  0.00  0.00     0.046 H 
ATOM      3  H   LIG d   1      11.284   2.297  -4.212  0.00  0.00     0.046 H 
ENDROOT
BRANCH   1   4
ATOM      4  N   LIG d   1       9.424   1.385  -3.882  0.00  0.00    -0.311 N 
ATOM      5  C   LIG d   1       8.242   1.228  -4.512  0.00  0.00     0.246 C 
ATOM      6  O   LIG d   1       7.850   2.076  -5.290  0.00  0.00    -0.270 OA
ATOM      7  H   LIG d   1       9.737   0.710  -3.262  0.00  0.00     0.149 HD
BRANCH   5   8
ATOM      8  C   LIG d   1       7.430   0.030  -4.259  0.00  0.00     0.062 A 
ATOM      9  C   LIG d   1       7.621  -1.213  -4.788  0.00  0.00     0.018 A 
ATOM     10  N   LIG d   1       6.671  -2.059  -4.322  0.00  0.00    -0.349 N 
ATOM     11  H   LIG d   1       8.409  -1.481  -5.475  0.00  0.00     0.082 H 
ATOM     12  C   LIG d   1       5.817  -1.399  -3.463  0.00  0.00     0.050 A 
ATOM     13  C   LIG d   1       6.252  -0.067  -3.378  0.00  0.00     0.012 A 
ATOM     14  C   LIG d   1       4.703  -1.801  -2.733  0.00  0.00    -0.038 A 
ATOM     15  C   LIG d   1       5.564   0.842  -2.578  0.00  0.00    -0.052 A 
ATOM     16  C   LIG d   1       4.464   0.425  -1.862  0.00  0.00    -0.061 A 
ATOM     17  H   LIG d   1       5.896   1.867  -2.515  0.00  0.00     0.062 H 
ATOM     18  C   LIG d   1       4.036  -0.893  -1.941  0.00  0.00    -0.060 A 
ATOM     19  H   LIG d   1       3.932   1.126  -1.237  0.00  0.00     0.062 H 
ATOM     20  H   LIG d   1       3.172  -1.209  -1.375  0.00  0.00     0.062 H 
ATOM     21  H   LIG d   1       4.363  -2.825  -2.787  0.00  0.00     0.064 H 
BRANCH  10  22
ATOM     22  C   LIG d   1       6.567  -3.476  -4.681  0.00  0.00     0.012 C 
ATOM     23  H   LIG d   1       6.982  -4.086  -3.877  0.00  0.00     0.046 H 
ATOM     24  H   LIG d   1       5.519  -3.737  -4.828  0.00  0.00     0.046 H 
ATOM     25  H   LIG d   1       7.121  -3.660  -5.601  0.00  0.00     0.046 H 
ENDBRANCH  10  22
ENDBRANCH   5   8
ENDBRANCH   1   4
BRANCH   1  26
ATOM     26  C   LIG d   1      10.056   3.569  -2.980  0.00  0.00    -0.012 C 
ATOM     27  H   LIG d   1      10.921   3.516  -2.319  0.00  0.00     0.033 H 
ATOM     28  H   LIG d   1       9.155   3.317  -2.421  0.00  0.00     0.033 H 
BRANCH  26  29
ATOM     29  C   LIG d   1       9.931   4.966  -3.531  0.00  0.00    -0.042 A 
ATOM     30  C   LIG d   1      10.011   6.053  -2.680  0.00  0.00    -0.013 A 
ATOM     31  C   LIG d   1       9.897   7.338  -3.185  0.00  0.00     0.162 A 
ATOM     32  H   LIG d   1      10.162   5.900  -1.622  0.00  0.00     0.066 H 
ATOM     33  C   LIG d   1       9.701   7.532  -4.549  0.00  0.00     0.162 A 
ATOM     34  C   LIG d   1       9.621   6.438  -5.396  0.00  0.00    -0.016 A 
ATOM     35  C   LIG d   1       9.730   5.159  -4.885  0.00  0.00    -0.055 A 
ATOM     36  H   LIG d   1       9.470   6.586  -6.455  0.00  0.00     0.066 H 
ATOM     37  H   LIG d   1       9.663   4.307  -5.546  0.00  0.00     0.062 H 
BRANCH  31  38
ATOM     38  O   LIG d   1       9.976   8.408  -2.349  0.00  0.00    -0.491 OA
BRANCH  38  39
ATOM     39  C   LIG d   1       9.370   8.273  -1.062  0.00  0.00     0.079 C 
ATOM     40  H   LIG d   1       9.129   7.225  -0.882  0.00  0.00     0.066 H 
ATOM     41  H   LIG d   1      10.060   8.624  -0.296  0.00  0.00     0.066 H 
ATOM     42  H   LIG d   1       8.455   8.865  -1.027  0.00  0.00     0.066 H 
ENDBRANCH  38  39
ENDBRANCH  31  38
BRANCH  33  43
ATOM     43  O   LIG d   1       9.588   8.791  -5.048  0.00  0.00    -0.491 OA
BRANCH  43  44
ATOM     44  C   LIG d   1      10.653   9.258  -5.879  0.00  0.00     0.079 C 
ATOM     45  H   LIG d   1      11.601   8.869  -5.507  0.00  0.00     0.066 H 
ATOM     46  H   LIG d   1      10.496   8.913  -6.900  0.00  0.00     0.066 H 
ATOM     47  H   LIG d   1      10.677  10.347  -5.862  0.00  0.00     0.066 H 
ENDBRANCH  43  44
ENDBRANCH  33  43
ENDBRANCH  26  29
ENDBRANCH   1  26
TORSDOF 9
ENDMDL
MODEL 4
REMARK VINA RESULT:      -6.5      1.140      2.222
REMARK  9 active torsions:
REMARK  status: ('A' for Active; 'I' for Inactive)
REMARK    1  A    between atoms: C_1  and  N_2 
REMARK    2  A    between atoms: C_4  and  C_11 
REMARK       I    between atoms: C_11  and  N_13 
REMARK    3  A    between atoms: N_13  and  C_14 
REMARK    4  A    between atoms: C_14  and  C_15 
REMARK    5  A    between atoms: C_15  and  C_16 
REMARK    6  A    between atoms: C_19  and  O_24 
REMARK    7  A    between atoms: C_20  and  O_22 
REMARK    8  A    between atoms: O_22  and  C_23 
REMARK    9  A    between atoms: O_24  and  C_25 
ROOT
ATOM      1  C   LIG d   1      10.261   2.590  -3.998  0.00  0.00     0.016 C 
ATOM      2  H   LIG d   1       9.703   3.304  -4.603  0.00  0.00     0.046 H 
ATOM      3  H   LIG d   1      11.215   2.372  -4.480  0.00  0.00     0.046 H 
ENDROOT
BRANCH   1   4
ATOM      4  N   LIG d   1       9.488   1.352  -3.865  0.00  0.00    -0.311 N 
ATOM      5  C   LIG d   1       8.183   1.334  -4.201  0.00  0.00     0.246 C 
ATOM      6  O   LIG d   1       7.647   2.343  -4.618  0.00  0.00    -0.270 OA
ATOM      7  H   LIG d   1       9.914   0.548  -3.532  0.00  0.00     0.149 HD
BRANCH   5   8
ATOM      8  C   LIG d   1       7.407   0.093  -4.067  0.00  0.00     0.062 A 
ATOM      9  C   LIG d   1       7.693  -1.114  -4.635  0.00  0.00     0.018 A 
ATOM     10  N   LIG d   1       6.749  -2.020  -4.283  0.00  0.00    -0.349 N 
ATOM     11  H   LIG d   1       8.543  -1.316  -5.268  0.00  0.00     0.082 H 
ATOM     12  C   LIG d   1       5.803  -1.438  -3.465  0.00  0.00     0.050 A 
ATOM     13  C   LIG d   1       6.170  -0.095  -3.287  0.00  0.00     0.012 A 
ATOM     14  C   LIG d   1       4.655  -1.919  -2.844  0.00  0.00    -0.038 A 
ATOM     15  C   LIG d   1       5.384   0.747  -2.503  0.00  0.00    -0.052 A 
ATOM     16  C   LIG d   1       4.251   0.251  -1.896  0.00  0.00    -0.061 A 
ATOM     17  H   LIG d   1       5.663   1.780  -2.369  0.00  0.00     0.062 H 
ATOM     18  C   LIG d   1       3.890  -1.078  -2.067  0.00  0.00    -0.060 A 
ATOM     19  H   LIG d   1       3.642   0.899  -1.284  0.00  0.00     0.062 H 
ATOM     20  H   LIG d   1       3.000  -1.456  -1.586  0.00  0.00     0.062 H 
ATOM     21  H   LIG d   1       4.366  -2.952  -2.970  0.00  0.00     0.064 H 
BRANCH  10  22
ATOM     22  C   LIG d   1       6.736  -3.421  -4.711  0.00  0.00     0.012 C 
ATOM     23  H   LIG d   1       6.328  -4.042  -3.912  0.00  0.00     0.046 H 
ATOM     24  H   LIG d   1       6.115  -3.523  -5.601  0.00  0.00     0.046 H 
ATOM     25  H   LIG d   1       7.752  -3.742  -4.939  0.00  0.00     0.046 H 
ENDBRANCH  10  22
ENDBRANCH   5   8
ENDBRANCH   1   4
BRANCH   1  26
ATOM     26  C   LIG d   1      10.514   3.185  -2.611  0.00  0.00    -0.012 C 
ATOM     27  H   LIG d   1      11.536   2.964  -2.302  0.00  0.00     0.033 H 
ATOM     28  H   LIG d   1       9.816   2.751  -1.897  0.00  0.00     0.033 H 
BRANCH  26  29
ATOM     29  C   LIG d   1      10.317   4.678  -2.662  0.00  0.00    -0.042 A 
ATOM     30  C   LIG d   1       9.837   5.272  -3.814  0.00  0.00    -0.013 A 
ATOM     31  C   LIG d   1       9.655   6.644  -3.862  0.00  0.00     0.162 A 
ATOM     32  H   LIG d   1       9.603   4.665  -4.677  0.00  0.00     0.066 H 
ATOM     33  C   LIG d   1       9.958   7.423  -2.750  0.00  0.00     0.162 A 
ATOM     34  C   LIG d   1      10.439   6.821  -1.598  0.00  0.00    -0.016 A 
ATOM     35  C   LIG d   1      10.624   5.452  -1.559  0.00  0.00    -0.055 A 
ATOM     36  H   LIG d   1      10.675   7.423  -0.733  0.00  0.00     0.066 H 
ATOM     37  H   LIG d   1      11.004   4.986  -0.662  0.00  0.00     0.062 H 
BRANCH  31  38
ATOM     38  O   LIG d   1       9.182   7.229  -4.996  0.00  0.00    -0.491 OA
BRANCH  38  39
ATOM     39  C   LIG d   1      10.084   7.333  -6.098  0.00  0.00     0.079 C 
ATOM     40  H   LIG d   1      10.290   6.339  -6.495  0.00  0.00     0.066 H 
ATOM     41  H   LIG d   1       9.636   7.949  -6.877  0.00  0.00     0.066 H 
ATOM     42  H   LIG d   1      11.016   7.790  -5.764  0.00  0.00     0.066 H 
ENDBRANCH  38  39
ENDBRANCH  31  38
BRANCH  33  43
ATOM     43  O   LIG d   1       9.781   8.770  -2.793  0.00  0.00    -0.491 OA
BRANCH  43  44
ATOM     44  C   LIG d   1      10.163   9.512  -1.632  0.00  0.00     0.079 C 
ATOM     45  H   LIG d   1      10.025   8.894  -0.745  0.00  0.00     0.066 H 
ATOM     46  H   LIG d   1      11.210   9.801  -1.714  0.00  0.00     0.066 H 
ATOM     47  H   LIG d   1       9.544  10.405  -1.552  0.00  0.00     0.066 H 
ENDBRANCH  43  44
ENDBRANCH  33  43
ENDBRANCH  26  29
ENDBRANCH   1  26
TORSDOF 9
ENDMDL
MODEL 5
REMARK VINA RESULT:      -6.1      4.826      8.098
REMARK  9 active torsions:
REMARK  status: ('A' for Active; 'I' for Inactive)
REMARK    1  A    between atoms: C_1  and  N_2 
REMARK    2  A    between atoms: C_4  and  C_11 
REMARK       I    between atoms: C_11  and  N_13 
REMARK    3  A    between atoms: N_13  and  C_14 
REMARK    4  A    between atoms: C_14  and  C_15 
REMARK    5  A    between atoms: C_15  and  C_16 
REMARK    6  A    between atoms: C_19  and  O_24 
REMARK    7  A    between atoms: C_20  and  O_22 
REMARK    8  A    between atoms: O_22  and  C_23 
REMARK    9  A    between atoms: O_24  and  C_25 
ROOT
ATOM      1  C   LIG d   1       4.871  -4.469  -5.268  0.00  0.00     0.016 C 
ATOM      2  H   LIG d   1       5.141  -5.424  -5.716  0.00  0.00     0.046 H 
ATOM      3  H   LIG d   1       4.291  -4.643  -4.361  0.00  0.00     0.046 H 
ENDROOT
BRANCH   1   4
ATOM      4  N   LIG d   1       4.070  -3.691  -6.218  0.00  0.00    -0.311 N 
ATOM      5  C   LIG d   1       4.282  -3.823  -7.543  0.00  0.00     0.246 C 
ATOM      6  O   LIG d   1       5.136  -4.587  -7.950  0.00  0.00    -0.270 OA
ATOM      7  H   LIG d   1       3.390  -3.081  -5.893  0.00  0.00     0.149 HD
BRANCH   5   8
ATOM      8  C   LIG d   1       3.480  -3.043  -8.495  0.00  0.00     0.062 A 
ATOM      9  C   LIG d   1       2.774  -3.528  -9.557  0.00  0.00     0.018 A 
ATOM     10  N   LIG d   1       2.161  -2.507 -10.203  0.00  0.00    -0.349 N 
ATOM     11  H   LIG d   1       2.714  -4.568  -9.840  0.00  0.00     0.082 H 
ATOM     12  C   LIG d   1       2.442  -1.307  -9.585  0.00  0.00     0.050 A 
ATOM     13  C   LIG d   1       3.272  -1.583  -8.487  0.00  0.00     0.012 A 
ATOM     14  C   LIG d   1       2.069   0.008  -9.843  0.00  0.00    -0.038 A 
ATOM     15  C   LIG d   1       3.725  -0.547  -7.675  0.00  0.00    -0.052 A 
ATOM     16  C   LIG d   1       3.344   0.749  -7.947  0.00  0.00    -0.061 A 
ATOM     17  H   LIG d   1       4.367  -0.758  -6.833  0.00  0.00     0.062 H 
ATOM     18  C   LIG d   1       2.518   1.023  -9.029  0.00  0.00    -0.060 A 
ATOM     19  H   LIG d   1       3.689   1.554  -7.316  0.00  0.00     0.062 H 
ATOM     20  H   LIG d   1       2.226   2.043  -9.232  0.00  0.00     0.062 H 
ATOM     21  H   LIG d   1       1.426   0.232 -10.682  0.00  0.00     0.064 H 
BRANCH  10  22
ATOM     22  C   LIG d   1       1.318  -2.658 -11.392  0.00  0.00     0.012 C 
ATOM     23  H   LIG d   1       1.945  -2.658 -12.285  0.00  0.00     0.046 H 
ATOM     24  H   LIG d   1       0.772  -3.600 -11.333  0.00  0.00     0.046 H 
ATOM     25  H   LIG d   1       0.611  -1.830 -11.445  0.00  0.00     0.046 H 
ENDBRANCH  10  22
ENDBRANCH   5   8
ENDBRANCH   1   4
BRANCH   1  26
ATOM     26  C   LIG d   1       6.143  -3.692  -4.918  0.00  0.00    -0.012 C 
ATOM     27  H   LIG d   1       6.669  -3.424  -5.835  0.00  0.00     0.033 H 
ATOM     28  H   LIG d   1       6.788  -4.312  -4.297  0.00  0.00     0.033 H 
BRANCH  26  29
ATOM     29  C   LIG d   1       5.775  -2.438  -4.167  0.00  0.00    -0.042 A 
ATOM     30  C   LIG d   1       6.314  -1.224  -4.547  0.00  0.00    -0.013 A 
ATOM     31  C   LIG d   1       5.976  -0.070  -3.858  0.00  0.00     0.162 A 
ATOM     32  H   LIG d   1       6.998  -1.174  -5.381  0.00  0.00     0.066 H 
ATOM     33  C   LIG d   1       5.095  -0.137  -2.784  0.00  0.00     0.162 A 
ATOM     34  C   LIG d   1       4.558  -1.359  -2.408  0.00  0.00    -0.016 A 
ATOM     35  C   LIG d   1       4.904  -2.507  -3.096  0.00  0.00    -0.055 A 
ATOM     36  H   LIG d   1       3.874  -1.414  -1.574  0.00  0.00     0.066 H 
ATOM     37  H   LIG d   1       4.488  -3.458  -2.799  0.00  0.00     0.062 H 
BRANCH  31  38
ATOM     38  O   LIG d   1       6.506   1.126  -4.232  0.00  0.00    -0.491 OA
BRANCH  38  39
ATOM     39  C   LIG d   1       7.854   1.389  -3.842  0.00  0.00     0.079 C 
ATOM     40  H   LIG d   1       8.429   0.464  -3.874  0.00  0.00     0.066 H 
ATOM     41  H   LIG d   1       8.295   2.115  -4.524  0.00  0.00     0.066 H 
ATOM     42  H   LIG d   1       7.868   1.789  -2.827  0.00  0.00     0.066 H 
ENDBRANCH  38  39
ENDBRANCH  31  38
BRANCH  33  43
ATOM     43  O   LIG d   1       4.761   0.992  -2.105  0.00  0.00    -0.491 OA
BRANCH  43  44
ATOM     44  C   LIG d   1       3.485   1.567  -2.390  0.00  0.00     0.079 C 
ATOM     45  H   LIG d   1       3.317   2.422  -1.734  0.00  0.00     0.066 H 
ATOM     46  H   LIG d   1       3.458   1.896  -3.428  0.00  0.00     0.066 H 
ATOM     47  H   LIG d   1       2.705   0.824  -2.224  0.00  0.00     0.066 H 
ENDBRANCH  43  44
ENDBRANCH  33  43
ENDBRANCH  26  29
ENDBRANCH   1  26
TORSDOF 9
ENDMDL
MODEL 6
REMARK VINA RESULT:      -5.9      3.892      5.068
REMARK  9 active torsions:
REMARK  status: ('A' for Active; 'I' for Inactive)
REMARK    1  A    between atoms: C_1  and  N_2 
REMARK    2  A    between atoms: C_4  and  C_11 
REMARK       I    between atoms: C_11  and  N_13 
REMARK    3  A    between atoms: N_13  and  C_14 
REMARK    4  A    between atoms: C_14  and  C_15 
REMARK    5  A    between atoms: C_15  and  C_16 
REMARK    6  A    between atoms: C_19  and  O_24 
REMARK    7  A    between atoms: C_20  and  O_22 
REMARK    8  A    between atoms: O_22  and  C_23 
REMARK    9  A    between atoms: O_24  and  C_25 
ROOT
ATOM      1  C   LIG d   1       9.175   3.712  -5.533  0.00  0.00     0.016 C 
ATOM      2  H   LIG d   1      10.016   3.730  -4.841  0.00  0.00     0.046 H 
ATOM      3  H   LIG d   1       8.514   4.554  -5.325  0.00  0.00     0.046 H 
ENDROOT
BRANCH   1   4
ATOM      4  N   LIG d   1       8.433   2.458  -5.370  0.00  0.00    -0.311 N 
ATOM      5  C   LIG d   1       8.309   1.904  -4.147  0.00  0.00     0.246 C 
ATOM      6  O   LIG d   1       8.809   2.445  -3.180  0.00  0.00    -0.270 OA
ATOM      7  H   LIG d   1       8.035   2.026  -6.141  0.00  0.00     0.149 HD
BRANCH   5   8
ATOM      8  C   LIG d   1       7.566   0.647  -3.983  0.00  0.00     0.062 A 
ATOM      9  C   LIG d   1       7.915  -0.577  -4.473  0.00  0.00     0.018 A 
ATOM     10  N   LIG d   1       6.983  -1.495  -4.117  0.00  0.00    -0.349 N 
ATOM     11  H   LIG d   1       8.800  -0.784  -5.056  0.00  0.00     0.082 H 
ATOM     12  C   LIG d   1       5.982  -0.903  -3.375  0.00  0.00     0.050 A 
ATOM     13  C   LIG d   1       6.300   0.459  -3.251  0.00  0.00     0.012 A 
ATOM     14  C   LIG d   1       4.822  -1.389  -2.783  0.00  0.00    -0.038 A 
ATOM     15  C   LIG d   1       5.452   1.313  -2.550  0.00  0.00    -0.052 A 
ATOM     16  C   LIG d   1       4.307   0.812  -1.970  0.00  0.00    -0.061 A 
ATOM     17  H   LIG d   1       5.693   2.361  -2.457  0.00  0.00     0.062 H 
ATOM     18  C   LIG d   1       3.995  -0.535  -2.087  0.00  0.00    -0.060 A 
ATOM     19  H   LIG d   1       3.650   1.470  -1.421  0.00  0.00     0.062 H 
ATOM     20  H   LIG d   1       3.095  -0.917  -1.628  0.00  0.00     0.062 H 
ATOM     21  H   LIG d   1       4.570  -2.436  -2.868  0.00  0.00     0.064 H 
BRANCH  10  22
ATOM     22  C   LIG d   1       7.033  -2.915  -4.472  0.00  0.00     0.012 C 
ATOM     23  H   LIG d   1       6.152  -3.420  -4.074  0.00  0.00     0.046 H 
ATOM     24  H   LIG d   1       7.050  -3.019  -5.557  0.00  0.00     0.046 H 
ATOM     25  H   LIG d   1       7.931  -3.365  -4.049  0.00  0.00     0.046 H 
ENDBRANCH  10  22
ENDBRANCH   5   8
ENDBRANCH   1   4
BRANCH   1  26
ATOM     26  C   LIG d   1       9.693   3.813  -6.969  0.00  0.00    -0.012 C 
ATOM     27  H   LIG d   1       9.050   3.232  -7.630  0.00  0.00     0.033 H 
ATOM     28  H   LIG d   1      10.710   3.425  -7.017  0.00  0.00     0.033 H 
BRANCH  26  29
ATOM     29  C   LIG d   1       9.686   5.256  -7.405  0.00  0.00    -0.042 A 
ATOM     30  C   LIG d   1       9.692   5.570  -8.751  0.00  0.00    -0.013 A 
ATOM     31  C   LIG d   1       9.684   6.895  -9.153  0.00  0.00     0.162 A 
ATOM     32  H   LIG d   1       9.702   4.782  -9.489  0.00  0.00     0.066 H 
ATOM     33  C   LIG d   1       9.671   7.909  -8.200  0.00  0.00     0.162 A 
ATOM     34  C   LIG d   1       9.665   7.587  -6.852  0.00  0.00    -0.016 A 
ATOM     35  C   LIG d   1       9.679   6.263  -6.457  0.00  0.00    -0.055 A 
ATOM     36  H   LIG d   1       9.655   8.372  -6.110  0.00  0.00     0.066 H 
ATOM     37  H   LIG d   1       9.680   6.014  -5.406  0.00  0.00     0.062 H 
BRANCH  31  38
ATOM     38  O   LIG d   1       9.689   7.205 -10.478  0.00  0.00    -0.491 OA
BRANCH  38  39
ATOM     39  C   LIG d   1       9.091   6.261 -11.368  0.00  0.00     0.079 C 
ATOM     40  H   LIG d   1       9.821   5.496 -11.629  0.00  0.00     0.066 H 
ATOM     41  H   LIG d   1       8.234   5.796 -10.882  0.00  0.00     0.066 H 
ATOM     42  H   LIG d   1       8.763   6.773 -12.273  0.00  0.00     0.066 H 
ENDBRANCH  38  39
ENDBRANCH  31  38
BRANCH  33  43
ATOM     43  O   LIG d   1       9.664   9.211  -8.590  0.00  0.00    -0.491 OA
BRANCH  43  44
ATOM     44  C   LIG d   1      10.339  10.145  -7.745  0.00  0.00     0.079 C 
ATOM     45  H   LIG d   1       9.926  10.088  -6.738  0.00  0.00     0.066 H 
ATOM     46  H   LIG d   1      11.401   9.907  -7.716  0.00  0.00     0.066 H 
ATOM     47  H   LIG d   1      10.203  11.154  -8.136  0.00  0.00     0.066 H 
ENDBRANCH  43  44
ENDBRANCH  33  43
ENDBRANCH  26  29
ENDBRANCH   1  26
TORSDOF 9
ENDMDL
MODEL 7
REMARK VINA RESULT:      -5.9      5.745     11.870
REMARK  9 active torsions:
REMARK  status: ('A' for Active; 'I' for Inactive)
REMARK    1  A    between atoms: C_1  and  N_2 
REMARK    2  A    between atoms: C_4  and  C_11 
REMARK       I    between atoms: C_11  and  N_13 
REMARK    3  A    between atoms: N_13  and  C_14 
REMARK    4  A    between atoms: C_14  and  C_15 
REMARK    5  A    between atoms: C_15  and  C_16 
REMARK    6  A    between atoms: C_19  and  O_24 
REMARK    7  A    between atoms: C_20  and  O_22 
REMARK    8  A    between atoms: O_22  and  C_23 
REMARK    9  A    between atoms: O_24  and  C_25 
ROOT
ATOM      1  C   LIG d   1       6.186  -5.562  -6.167  0.00  0.00     0.016 C 
ATOM      2  H   LIG d   1       7.129  -5.986  -5.822  0.00  0.00     0.046 H 
ATOM      3  H   LIG d   1       6.175  -5.538  -7.257  0.00  0.00     0.046 H 
ENDROOT
BRANCH   1   4
ATOM      4  N   LIG d   1       6.043  -4.200  -5.647  0.00  0.00    -0.311 N 
ATOM      5  C   LIG d   1       7.002  -3.675  -4.858  0.00  0.00     0.246 C 
ATOM      6  O   LIG d   1       7.987  -4.332  -4.580  0.00  0.00    -0.270 OA
ATOM      7  H   LIG d   1       5.257  -3.676  -5.868  0.00  0.00     0.149 HD
BRANCH   5   8
ATOM      8  C   LIG d   1       6.858  -2.309  -4.337  0.00  0.00     0.062 A 
ATOM      9  C   LIG d   1       7.732  -1.275  -4.504  0.00  0.00     0.018 A 
ATOM     10  N   LIG d   1       7.258  -0.171  -3.878  0.00  0.00    -0.349 N 
ATOM     11  H   LIG d   1       8.660  -1.329  -5.053  0.00  0.00     0.082 H 
ATOM     12  C   LIG d   1       6.048  -0.440  -3.273  0.00  0.00     0.050 A 
ATOM     13  C   LIG d   1       5.738  -1.784  -3.534  0.00  0.00     0.012 A 
ATOM     14  C   LIG d   1       5.167   0.330  -2.521  0.00  0.00    -0.038 A 
ATOM     15  C   LIG d   1       4.563  -2.340  -3.034  0.00  0.00    -0.052 A 
ATOM     16  C   LIG d   1       3.702  -1.561  -2.292  0.00  0.00    -0.061 A 
ATOM     17  H   LIG d   1       4.325  -3.374  -3.231  0.00  0.00     0.062 H 
ATOM     18  C   LIG d   1       4.006  -0.231  -2.037  0.00  0.00    -0.060 A 
ATOM     19  H   LIG d   1       2.788  -1.987  -1.906  0.00  0.00     0.062 H 
ATOM     20  H   LIG d   1       3.324   0.371  -1.455  0.00  0.00     0.062 H 
ATOM     21  H   LIG d   1       5.393   1.366  -2.319  0.00  0.00     0.064 H 
BRANCH  10  22
ATOM     22  C   LIG d   1       7.937   1.127  -3.848  0.00  0.00     0.012 C 
ATOM     23  H   LIG d   1       8.992   0.992  -4.093  0.00  0.00     0.046 H 
ATOM     24  H   LIG d   1       7.479   1.794  -4.579  0.00  0.00     0.046 H 
ATOM     25  H   LIG d   1       7.848   1.562  -2.853  0.00  0.00     0.046 H 
ENDBRANCH  10  22
ENDBRANCH   5   8
ENDBRANCH   1   4
BRANCH   1  26
ATOM     26  C   LIG d   1       5.026  -6.424  -5.664  0.00  0.00    -0.012 C 
ATOM     27  H   LIG d   1       4.309  -6.577  -6.471  0.00  0.00     0.033 H 
ATOM     28  H   LIG d   1       4.534  -5.922  -4.831  0.00  0.00     0.033 H 
BRANCH  26  29
ATOM     29  C   LIG d   1       5.554  -7.759  -5.204  0.00  0.00    -0.042 A 
ATOM     30  C   LIG d   1       4.683  -8.812  -4.999  0.00  0.00    -0.013 A 
ATOM     31  C   LIG d   1       5.167 -10.039  -4.577  0.00  0.00     0.162 A 
ATOM     32  H   LIG d   1       3.625  -8.678  -5.169  0.00  0.00     0.066 H 
ATOM     33  C   LIG d   1       6.531 -10.209  -4.359  0.00  0.00     0.162 A 
ATOM     34  C   LIG d   1       7.399  -9.148  -4.566  0.00  0.00    -0.016 A 
ATOM     35  C   LIG d   1       6.909  -7.925  -4.982  0.00  0.00    -0.055 A 
ATOM     36  H   LIG d   1       8.458  -9.277  -4.398  0.00  0.00     0.066 H 
ATOM     37  H   LIG d   1       7.586  -7.098  -5.137  0.00  0.00     0.062 H 
BRANCH  31  38
ATOM     38  O   LIG d   1       4.311 -11.077  -4.376  0.00  0.00    -0.491 OA
BRANCH  38  39
ATOM     39  C   LIG d   1       3.232 -10.861  -3.465  0.00  0.00     0.079 C 
ATOM     40  H   LIG d   1       3.620 -10.452  -2.532  0.00  0.00     0.066 H 
ATOM     41  H   LIG d   1       2.521 -10.160  -3.901  0.00  0.00     0.066 H 
ATOM     42  H   LIG d   1       2.731 -11.808  -3.263  0.00  0.00     0.066 H 
ENDBRANCH  38  39
ENDBRANCH  31  38
BRANCH  33  43
ATOM     43  O   LIG d   1       7.010 -11.411  -3.945  0.00  0.00    -0.491 OA
BRANCH  43  44
ATOM     44  C   LIG d   1       7.291 -11.552  -2.551  0.00  0.00     0.079 C 
ATOM     45  H   LIG d   1       7.646 -12.564  -2.353  0.00  0.00     0.066 H 
ATOM     46  H   LIG d   1       8.059 -10.836  -2.260  0.00  0.00     0.066 H 
ATOM     47  H   LIG d   1       6.384 -11.367  -1.976  0.00  0.00     0.066 H 
ENDBRANCH  43  44
ENDBRANCH  33  43
ENDBRANCH  26  29
ENDBRANCH   1  26
TORSDOF 9
ENDMDL
MODEL 8
REMARK VINA RESULT:      -5.8      7.587     11.750
REMARK  9 active torsions:
REMARK  status: ('A' for Active; 'I' for Inactive)
REMARK    1  A    between atoms: C_1  and  N_2 
REMARK    2  A    between atoms: C_4  and  C_11 
REMARK       I    between atoms: C_11  and  N_13 
REMARK    3  A    between atoms: N_13  and  C_14 
REMARK    4  A    between atoms: C_14  and  C_15 
REMARK    5  A    between atoms: C_15  and  C_16 
REMARK    6  A    between atoms: C_19  and  O_24 
REMARK    7  A    between atoms: C_20  and  O_22 
REMARK    8  A    between atoms: O_22  and  C_23 
REMARK    9  A    between atoms: O_24  and  C_25 
ROOT
ATOM      1  C   LIG d   1       2.087  -0.029  -9.313  0.00  0.00     0.016 C 
ATOM      2  H   LIG d   1       1.701   0.928  -8.963  0.00  0.00     0.046 H 
ATOM      3  H   LIG d   1       1.256  -0.673  -9.603  0.00  0.00     0.046 H 
ENDROOT
BRANCH   1   4
ATOM      4  N   LIG d   1       2.850  -0.671  -8.238  0.00  0.00    -0.311 N 
ATOM      5  C   LIG d   1       3.279   0.058  -7.189  0.00  0.00     0.246 C 
ATOM      6  O   LIG d   1       3.031   1.247  -7.132  0.00  0.00    -0.270 OA
ATOM      7  H   LIG d   1       3.048  -1.619  -8.284  0.00  0.00     0.149 HD
BRANCH   5   8
ATOM      8  C   LIG d   1       4.043  -0.585  -6.112  0.00  0.00     0.062 A 
ATOM      9  C   LIG d   1       4.997  -1.551  -6.252  0.00  0.00     0.018 A 
ATOM     10  N   LIG d   1       5.480  -1.897  -5.034  0.00  0.00    -0.349 N 
ATOM     11  H   LIG d   1       5.318  -1.974  -7.191  0.00  0.00     0.082 H 
ATOM     12  C   LIG d   1       4.857  -1.167  -4.043  0.00  0.00     0.050 A 
ATOM     13  C   LIG d   1       3.937  -0.310  -4.667  0.00  0.00     0.012 A 
ATOM     14  C   LIG d   1       4.984  -1.140  -2.659  0.00  0.00    -0.038 A 
ATOM     15  C   LIG d   1       3.152   0.548  -3.902  0.00  0.00    -0.052 A 
ATOM     16  C   LIG d   1       3.292   0.561  -2.531  0.00  0.00    -0.061 A 
ATOM     17  H   LIG d   1       2.441   1.204  -4.380  0.00  0.00     0.062 H 
ATOM     18  C   LIG d   1       4.206  -0.282  -1.913  0.00  0.00    -0.060 A 
ATOM     19  H   LIG d   1       2.689   1.229  -1.935  0.00  0.00     0.062 H 
ATOM     20  H   LIG d   1       4.308  -0.264  -0.838  0.00  0.00     0.062 H 
ATOM     21  H   LIG d   1       5.693  -1.791  -2.168  0.00  0.00     0.064 H 
BRANCH  10  22
ATOM     22  C   LIG d   1       6.517  -2.906  -4.804  0.00  0.00     0.012 C 
ATOM     23  H   LIG d   1       7.027  -3.125  -5.743  0.00  0.00     0.046 H 
ATOM     24  H   LIG d   1       7.238  -2.528  -4.079  0.00  0.00     0.046 H 
ATOM     25  H   LIG d   1       6.059  -3.818  -4.419  0.00  0.00     0.046 H 
ENDBRANCH  10  22
ENDBRANCH   5   8
ENDBRANCH   1   4
BRANCH   1  26
ATOM     26  C   LIG d   1       3.000   0.200 -10.519  0.00  0.00    -0.012 C 
ATOM     27  H   LIG d   1       4.029  -0.036 -10.246  0.00  0.00     0.033 H 
ATOM     28  H   LIG d   1       2.936   1.242 -10.831  0.00  0.00     0.033 H 
BRANCH  26  29
ATOM     29  C   LIG d   1       2.566  -0.691 -11.654  0.00  0.00    -0.042 A 
ATOM     30  C   LIG d   1       1.274  -1.181 -11.691  0.00  0.00    -0.013 A 
ATOM     31  C   LIG d   1       0.873  -2.000 -12.733  0.00  0.00     0.162 A 
ATOM     32  H   LIG d   1       0.576  -0.924 -10.907  0.00  0.00     0.066 H 
ATOM     33  C   LIG d   1       1.773  -2.329 -13.742  0.00  0.00     0.162 A 
ATOM     34  C   LIG d   1       3.067  -1.835 -13.699  0.00  0.00    -0.016 A 
ATOM     35  C   LIG d   1       3.462  -1.023 -12.652  0.00  0.00    -0.055 A 
ATOM     36  H   LIG d   1       3.768  -2.089 -14.480  0.00  0.00     0.066 H 
ATOM     37  H   LIG d   1       4.473  -0.644 -12.618  0.00  0.00     0.062 H 
BRANCH  31  38
ATOM     38  O   LIG d   1      -0.399  -2.481 -12.771  0.00  0.00    -0.491 OA
BRANCH  38  39
ATOM     39  C   LIG d   1      -1.379  -1.677 -13.430  0.00  0.00     0.079 C 
ATOM     40  H   LIG d   1      -2.196  -1.463 -12.743  0.00  0.00     0.066 H 
ATOM     41  H   LIG d   1      -0.923  -0.742 -13.755  0.00  0.00     0.066 H 
ATOM     42  H   LIG d   1      -1.766  -2.214 -14.297  0.00  0.00     0.066 H 
ENDBRANCH  38  39
ENDBRANCH  31  38
BRANCH  33  43
ATOM     43  O   LIG d   1       1.384  -3.133 -14.767  0.00  0.00    -0.491 OA
BRANCH  43  44
ATOM     44  C   LIG d   1       1.525  -2.612 -16.090  0.00  0.00     0.079 C 
ATOM     45  H   LIG d   1       2.048  -3.338 -16.712  0.00  0.00     0.066 H 
ATOM     46  H   LIG d   1       0.539  -2.417 -16.511  0.00  0.00     0.066 H 
ATOM     47  H   LIG d   1       2.096  -1.684 -16.057  0.00  0.00     0.066 H 
ENDBRANCH  43  44
ENDBRANCH  33  43
ENDBRANCH  26  29
ENDBRANCH   1  26
TORSDOF 9
ENDMDL
MODEL 9
REMARK VINA RESULT:      -5.8      2.445      8.807
REMARK  9 active torsions:
REMARK  status: ('A' for Active; 'I' for Inactive)
REMARK    1  A    between atoms: C_1  and  N_2 
REMARK    2  A    between atoms: C_4  and  C_11 
REMARK       I    between atoms: C_11  and  N_13 
REMARK    3  A    between atoms: N_13  and  C_14 
REMARK    4  A    between atoms: C_14  and  C_15 
REMARK    5  A    between atoms: C_15  and  C_16 
REMARK    6  A    between atoms: C_19  and  O_24 
REMARK    7  A    between atoms: C_20  and  O_22 
REMARK    8  A    between atoms: O_22  and  C_23 
REMARK    9  A    between atoms: O_24  and  C_25 
ROOT
ATOM      1  C   LIG d   1       9.343   2.346  -3.661  0.00  0.00     0.016 C 
ATOM      2  H   LIG d   1       9.251   1.744  -2.758  0.00  0.00     0.046 H 
ATOM      3  H   LIG d   1      10.269   2.090  -4.176  0.00  0.00     0.046 H 
ENDROOT
BRANCH   1   4
ATOM      4  N   LIG d   1       9.359   3.767  -3.303  0.00  0.00    -0.311 N 
ATOM      5  C   LIG d   1      10.375   4.265  -2.570  0.00  0.00     0.246 C 
ATOM      6  O   LIG d   1      11.278   3.536  -2.208  0.00  0.00    -0.270 OA
ATOM      7  H   LIG d   1       8.639   4.348  -3.591  0.00  0.00     0.149 HD
BRANCH   5   8
ATOM      8  C   LIG d   1      10.391   5.689  -2.211  0.00  0.00     0.062 A 
ATOM      9  C   LIG d   1      10.142   6.743  -3.040  0.00  0.00     0.018 A 
ATOM     10  N   LIG d   1      10.250   7.904  -2.349  0.00  0.00    -0.349 N 
ATOM     11  H   LIG d   1       9.897   6.665  -4.088  0.00  0.00     0.082 H 
ATOM     12  C   LIG d   1      10.576   7.653  -1.032  0.00  0.00     0.050 A 
ATOM     13  C   LIG d   1      10.673   6.261  -0.881  0.00  0.00     0.012 A 
ATOM     14  C   LIG d   1      10.797   8.476   0.067  0.00  0.00    -0.038 A 
ATOM     15  C   LIG d   1      11.001   5.714   0.357  0.00  0.00    -0.052 A 
ATOM     16  C   LIG d   1      11.216   6.546   1.434  0.00  0.00    -0.061 A 
ATOM     17  H   LIG d   1      11.080   4.644   0.474  0.00  0.00     0.062 H 
ATOM     18  C   LIG d   1      11.114   7.922   1.287  0.00  0.00    -0.060 A 
ATOM     19  H   LIG d   1      11.465   6.125   2.397  0.00  0.00     0.062 H 
ATOM     20  H   LIG d   1      11.285   8.564   2.139  0.00  0.00     0.062 H 
ATOM     21  H   LIG d   1      10.719   9.548  -0.037  0.00  0.00     0.064 H 
BRANCH  10  22
ATOM     22  C   LIG d   1      10.050   9.238  -2.922  0.00  0.00     0.012 C 
ATOM     23  H   LIG d   1       9.899   9.152  -3.999  0.00  0.00     0.046 H 
ATOM     24  H   LIG d   1       9.173   9.700  -2.469  0.00  0.00     0.046 H 
ATOM     25  H   LIG d   1      10.928   9.854  -2.726  0.00  0.00     0.046 H 
ENDBRANCH  10  22
ENDBRANCH   5   8
ENDBRANCH   1   4
BRANCH   1  26
ATOM     26  C   LIG d   1       8.153   2.067  -4.583  0.00  0.00    -0.012 C 
ATOM     27  H   LIG d   1       8.514   1.670  -5.532  0.00  0.00     0.033 H 
ATOM     28  H   LIG d   1       7.606   2.991  -4.760  0.00  0.00     0.033 H 
BRANCH  26  29
ATOM     29  C   LIG d   1       7.241   1.059  -3.933  0.00  0.00    -0.042 A 
ATOM     30  C   LIG d   1       7.470  -0.293  -4.107  0.00  0.00    -0.013 A 
ATOM     31  C   LIG d   1       6.633  -1.221  -3.510  0.00  0.00     0.162 A 
ATOM     32  H   LIG d   1       8.303  -0.626  -4.709  0.00  0.00     0.066 H 
ATOM     33  C   LIG d   1       5.560  -0.789  -2.736  0.00  0.00     0.162 A 
ATOM     34  C   LIG d   1       5.336   0.568  -2.565  0.00  0.00    -0.016 A 
ATOM     35  C   LIG d   1       6.172   1.488  -3.169  0.00  0.00    -0.055 A 
ATOM     36  H   LIG d   1       4.504   0.906  -1.965  0.00  0.00     0.066 H 
ATOM     37  H   LIG d   1       5.992   2.545  -3.039  0.00  0.00     0.062 H 
BRANCH  31  38
ATOM     38  O   LIG d   1       6.859  -2.551  -3.680  0.00  0.00    -0.491 OA
BRANCH  38  39
ATOM     39  C   LIG d   1       6.415  -3.134  -4.907  0.00  0.00     0.079 C 
ATOM     40  H   LIG d   1       5.411  -3.537  -4.776  0.00  0.00     0.066 H 
ATOM     41  H   LIG d   1       6.402  -2.373  -5.687  0.00  0.00     0.066 H 
ATOM     42  H   LIG d   1       7.093  -3.938  -5.194  0.00  0.00     0.066 H 
ENDBRANCH  38  39
ENDBRANCH  31  38
BRANCH  33  43
ATOM     43  O   LIG d   1       4.736  -1.696  -2.148  0.00  0.00    -0.491 OA
BRANCH  43  44
ATOM     44  C   LIG d   1       3.396  -1.770  -2.641  0.00  0.00     0.079 C 
ATOM     45  H   LIG d   1       3.391  -2.282  -3.602  0.00  0.00     0.066 H 
ATOM     46  H   LIG d   1       2.778  -2.321  -1.932  0.00  0.00     0.066 H 
ATOM     47  H   LIG d   1       2.997  -0.763  -2.764  0.00  0.00     0.066 H 
ENDBRANCH  43  44
ENDBRANCH  33  43
ENDBRANCH  26  29
ENDBRANCH   1  26
TORSDOF 9
ENDMDL
MODEL 10
REMARK VINA RESULT:      -5.6      4.048      5.300
REMARK  9 active torsions:
REMARK  status: ('A' for Active; 'I' for Inactive)
REMARK    1  A    between atoms: C_1  and  N_2 
REMARK    2  A    between atoms: C_4  and  C_11 
REMARK       I    between atoms: C_11  and  N_13 
REMARK    3  A    between atoms: N_13  and  C_14 
REMARK    4  A    between atoms: C_14  and  C_15 
REMARK    5  A    between atoms: C_15  and  C_16 
REMARK    6  A    between atoms: C_19  and  O_24 
REMARK    7  A    between atoms: C_20  and  O_22 
REMARK    8  A    between atoms: O_22  and  C_23 
REMARK    9  A    between atoms: O_24  and  C_25 
ROOT
ATOM      1  C   LIG d   1       8.899   3.503  -5.615  0.00  0.00     0.016 C 
ATOM      2  H   LIG d   1       9.279   3.841  -4.652  0.00  0.00     0.046 H 
ATOM      3  H   LIG d   1       8.193   4.237  -6.006  0.00  0.00     0.046 H 
ENDROOT
BRANCH   1   4
ATOM      4  N   LIG d   1       8.221   2.215  -5.450  0.00  0.00    -0.311 N 
ATOM      5  C   LIG d   1       8.170   1.632  -4.235  0.00  0.00     0.246 C 
ATOM      6  O   LIG d   1       8.685   2.176  -3.277  0.00  0.00    -0.270 OA
ATOM      7  H   LIG d   1       7.811   1.781  -6.213  0.00  0.00     0.149 HD
BRANCH   5   8
ATOM      8  C   LIG d   1       7.491   0.340  -4.069  0.00  0.00     0.062 A 
ATOM      9  C   LIG d   1       7.858  -0.852  -4.620  0.00  0.00     0.018 A 
ATOM     10  N   LIG d   1       6.988  -1.819  -4.240  0.00  0.00    -0.349 N 
ATOM     11  H   LIG d   1       8.712  -1.003  -5.263  0.00  0.00     0.082 H 
ATOM     12  C   LIG d   1       6.012  -1.294  -3.418  0.00  0.00     0.050 A 
ATOM     13  C   LIG d   1       6.282   0.075  -3.267  0.00  0.00     0.012 A 
ATOM     14  C   LIG d   1       4.912  -1.848  -2.772  0.00  0.00    -0.038 A 
ATOM     15  C   LIG d   1       5.446   0.870  -2.487  0.00  0.00    -0.052 A 
ATOM     16  C   LIG d   1       4.361   0.303  -1.854  0.00  0.00    -0.061 A 
ATOM     17  H   LIG d   1       5.650   1.924  -2.373  0.00  0.00     0.062 H 
ATOM     18  C   LIG d   1       4.097  -1.052  -1.998  0.00  0.00    -0.060 A 
ATOM     19  H   LIG d   1       3.714   0.915  -1.245  0.00  0.00     0.062 H 
ATOM     20  H   LIG d   1       3.244  -1.486  -1.498  0.00  0.00     0.062 H 
ATOM     21  H   LIG d   1       4.699  -2.902  -2.877  0.00  0.00     0.064 H 
BRANCH  10  22
ATOM     22  C   LIG d   1       7.073  -3.225  -4.645  0.00  0.00     0.012 C 
ATOM     23  H   LIG d   1       8.079  -3.599  -4.450  0.00  0.00     0.046 H 
ATOM     24  H   LIG d   1       6.352  -3.811  -4.075  0.00  0.00     0.046 H 
ATOM     25  H   LIG d   1       6.853  -3.311  -5.709  0.00  0.00     0.046 H 
ENDBRANCH  10  22
ENDBRANCH   5   8
ENDBRANCH   1   4
BRANCH   1  26
ATOM     26  C   LIG d   1      10.063   3.344  -6.595  0.00  0.00    -0.012 C 
ATOM     27  H   LIG d   1      10.087   2.319  -6.968  0.00  0.00     0.033 H 
ATOM     28  H   LIG d   1      11.000   3.568  -6.087  0.00  0.00     0.033 H 
BRANCH  26  29
ATOM     29  C   LIG d   1       9.880   4.293  -7.752  0.00  0.00    -0.042 A 
ATOM     30  C   LIG d   1      10.008   5.655  -7.553  0.00  0.00    -0.013 A 
ATOM     31  C   LIG d   1       9.840   6.528  -8.615  0.00  0.00     0.162 A 
ATOM     32  H   LIG d   1      10.239   6.038  -6.570  0.00  0.00     0.066 H 
ATOM     33  C   LIG d   1       9.542   6.033  -9.880  0.00  0.00     0.162 A 
ATOM     34  C   LIG d   1       9.415   4.666 -10.072  0.00  0.00    -0.016 A 
ATOM     35  C   LIG d   1       9.578   3.800  -9.007  0.00  0.00    -0.055 A 
ATOM     36  H   LIG d   1       9.184   4.278 -11.054  0.00  0.00     0.066 H 
ATOM     37  H   LIG d   1       9.473   2.736  -9.158  0.00  0.00     0.062 H 
BRANCH  31  38
ATOM     38  O   LIG d   1       9.967   7.869  -8.420  0.00  0.00    -0.491 OA
BRANCH  38  39
ATOM     39  C   LIG d   1       9.169   8.454  -7.390  0.00  0.00     0.079 C 
ATOM     40  H   LIG d   1       8.181   8.689  -7.784  0.00  0.00     0.066 H 
ATOM     41  H   LIG d   1       9.073   7.753  -6.562  0.00  0.00     0.066 H 
ATOM     42  H   LIG d   1       9.645   9.370  -7.038  0.00  0.00     0.066 H 
ENDBRANCH  38  39
ENDBRANCH  31  38
BRANCH  33  43
ATOM     43  O   LIG d   1       9.377   6.886 -10.925  0.00  0.00    -0.491 OA
BRANCH  43  44
ATOM     44  C   LIG d   1       9.090   6.305 -12.198  0.00  0.00     0.079 C 
ATOM     45  H   LIG d   1       9.875   5.595 -12.458  0.00  0.00     0.066 H 
ATOM     46  H   LIG d   1       8.132   5.788 -12.155  0.00  0.00     0.066 H 
ATOM     47  H   LIG d   1       9.045   7.089 -12.954  0.00  0.00     0.066 H 
ENDBRANCH  43  44
ENDBRANCH  33  43
ENDBRANCH  26  29
ENDBRANCH   1  26
TORSDOF 9
ENDMDL
