MODEL 1
REMARK VINA RESULT:      -4.4      0.000      0.000
REMARK  5 active torsions:
REMARK  status: ('A' for Active; 'I' for Inactive)
REMARK    1  A    between atoms: C_1  and  C_2 
REMARK    2  A    between atoms: C_2  and  C_3 
REMARK    3  A    between atoms: C_5  and  C_10 
REMARK    4  A    between atoms: C_7  and  N_9 
REMARK    5  A    between atoms: C_10  and  C_11 
ROOT
ATOM      1  C   LIG d   1       7.393   1.407  -3.864  0.00  0.00     0.134 A 
ATOM      2  N   LIG d   1       6.256   1.667  -3.241  0.00  0.00    -0.217 NA
ATOM      3  C   LIG d   1       5.541   0.681  -2.722  0.00  0.00     0.134 A 
ATOM      4  N   LIG d   1       5.966  -0.566  -2.818  0.00  0.00    -0.200 NA
ATOM      5  C   LIG d   1       7.111  -0.830  -3.441  0.00  0.00     0.216 A 
ATOM      6  N   LIG d   1       7.824   0.163  -3.964  0.00  0.00    -0.200 NA
ENDROOT
BRANCH   1   7
ATOM      7  C   LIG d   1       8.200   2.533  -4.457  0.00  0.00     0.005 C 
ATOM      8  H   LIG d   1       7.569   3.415  -4.566  0.00  0.00     0.034 H 
ATOM      9  H   LIG d   1       8.578   2.233  -5.435  0.00  0.00     0.034 H 
BRANCH   7  10
ATOM     10  C   LIG d   1       9.377   2.859  -3.535  0.00  0.00    -0.058 C 
ATOM     11  H   LIG d   1       9.471   3.940  -3.434  0.00  0.00     0.023 H 
ATOM     12  H   LIG d   1      10.295   2.453  -3.960  0.00  0.00     0.023 H 
ATOM     13  H   LIG d   1       9.204   2.416  -2.555  0.00  0.00     0.023 H 
ENDBRANCH   7  10
ENDBRANCH   1   7
BRANCH   5  14
ATOM     14  N   LIG d   1       7.559  -2.132  -3.543  0.00  0.00    -0.327 N 
ATOM     15  H   LIG d   1       7.768  -2.505  -4.413  0.00  0.00     0.145 HD
ATOM     16  H   LIG d   1       7.662  -2.673  -2.744  0.00  0.00     0.145 HD
ENDBRANCH   5  14
BRANCH   3  17
ATOM     17  C   LIG d   1       4.243   0.982  -2.017  0.00  0.00     0.005 C 
ATOM     18  H   LIG d   1       4.326   0.701  -0.968  0.00  0.00     0.034 H 
ATOM     19  H   LIG d   1       4.028   2.048  -2.093  0.00  0.00     0.034 H 
BRANCH  17  20
ATOM     20  C   LIG d   1       3.112   0.187  -2.671  0.00  0.00    -0.058 C 
ATOM     21  H   LIG d   1       3.497  -0.772  -3.020  0.00  0.00     0.023 H 
ATOM     22  H   LIG d   1       2.319   0.016  -1.942  0.00  0.00     0.023 H 
ATOM     23  H   LIG d   1       2.714   0.747  -3.517  0.00  0.00     0.023 H 
ENDBRANCH  17  20
ENDBRANCH   3  17
TORSDOF 5
ENDMDL
MODEL 2
REMARK VINA RESULT:      -4.4      3.046      4.083
REMARK  5 active torsions:
REMARK  status: ('A' for Active; 'I' for Inactive)
REMARK    1  A    between atoms: C_1  and  C_2 
REMARK    2  A    between atoms: C_2  and  C_3 
REMARK    3  A    between atoms: C_5  and  C_10 
REMARK    4  A    between atoms: C_7  and  N_9 
REMARK    5  A    between atoms: C_10  and  C_11 
ROOT
ATOM      1  C   LIG d   1       5.014  -1.430  -4.751  0.00  0.00     0.134 A 
ATOM      2  N   LIG d   1       4.759  -0.643  -3.719  0.00  0.00    -0.217 NA
ATOM      3  C   LIG d   1       3.846   0.310  -3.820  0.00  0.00     0.134 A 
ATOM      4  N   LIG d   1       3.179   0.472  -4.949  0.00  0.00    -0.200 NA
ATOM      5  C   LIG d   1       3.432  -0.320  -5.987  0.00  0.00     0.216 A 
ATOM      6  N   LIG d   1       4.353  -1.274  -5.883  0.00  0.00    -0.200 NA
ENDROOT
BRANCH   1   7
ATOM      7  C   LIG d   1       6.058  -2.511  -4.633  0.00  0.00     0.005 C 
ATOM      8  H   LIG d   1       6.560  -2.637  -5.592  0.00  0.00     0.034 H 
ATOM      9  H   LIG d   1       5.580  -3.447  -4.346  0.00  0.00     0.034 H 
BRANCH   7  10
ATOM     10  C   LIG d   1       7.084  -2.115  -3.569  0.00  0.00    -0.058 C 
ATOM     11  H   LIG d   1       7.349  -1.065  -3.693  0.00  0.00     0.023 H 
ATOM     12  H   LIG d   1       7.977  -2.730  -3.678  0.00  0.00     0.023 H 
ATOM     13  H   LIG d   1       6.657  -2.268  -2.578  0.00  0.00     0.023 H 
ENDBRANCH   7  10
ENDBRANCH   1   7
BRANCH   5  14
ATOM     14  N   LIG d   1       2.738  -0.153  -7.169  0.00  0.00    -0.327 N 
ATOM     15  H   LIG d   1       1.877   0.293  -7.165  0.00  0.00     0.145 HD
ATOM     16  H   LIG d   1       3.112  -0.482  -8.001  0.00  0.00     0.145 HD
ENDBRANCH   5  14
BRANCH   3  17
ATOM     17  C   LIG d   1       3.562   1.208  -2.642  0.00  0.00     0.005 C 
ATOM     18  H   LIG d   1       3.589   2.248  -2.964  0.00  0.00     0.034 H 
ATOM     19  H   LIG d   1       2.576   0.977  -2.240  0.00  0.00     0.034 H 
BRANCH  17  20
ATOM     20  C   LIG d   1       4.620   0.979  -1.562  0.00  0.00    -0.058 C 
ATOM     21  H   LIG d   1       4.587   1.798  -0.842  0.00  0.00     0.023 H 
ATOM     22  H   LIG d   1       4.419   0.038  -1.050  0.00  0.00     0.023 H 
ATOM     23  H   LIG d   1       5.607   0.940  -2.021  0.00  0.00     0.023 H 
ENDBRANCH  17  20
ENDBRANCH   3  17
TORSDOF 5
ENDMDL
MODEL 3
REMARK VINA RESULT:      -4.4      1.149      3.205
REMARK  5 active torsions:
REMARK  status: ('A' for Active; 'I' for Inactive)
REMARK    1  A    between atoms: C_1  and  C_2 
REMARK    2  A    between atoms: C_2  and  C_3 
REMARK    3  A    between atoms: C_5  and  C_10 
REMARK    4  A    between atoms: C_7  and  N_9 
REMARK    5  A    between atoms: C_10  and  C_11 
ROOT
ATOM      1  C   LIG d   1       6.964  -0.871  -3.579  0.00  0.00     0.134 A 
ATOM      2  N   LIG d   1       5.823  -0.584  -2.974  0.00  0.00    -0.217 NA
ATOM      3  C   LIG d   1       5.474   0.678  -2.777  0.00  0.00     0.134 A 
ATOM      4  N   LIG d   1       6.260   1.655  -3.193  0.00  0.00    -0.200 NA
ATOM      5  C   LIG d   1       7.407   1.369  -3.804  0.00  0.00     0.216 A 
ATOM      6  N   LIG d   1       7.755   0.100  -3.996  0.00  0.00    -0.200 NA
ENDROOT
BRANCH   1   7
ATOM      7  C   LIG d   1       7.359  -2.309  -3.795  0.00  0.00     0.005 C 
ATOM      8  H   LIG d   1       7.600  -2.768  -2.836  0.00  0.00     0.034 H 
ATOM      9  H   LIG d   1       8.231  -2.351  -4.448  0.00  0.00     0.034 H 
BRANCH   7  10
ATOM     10  C   LIG d   1       6.198  -3.065  -4.445  0.00  0.00    -0.058 C 
ATOM     11  H   LIG d   1       5.507  -2.353  -4.895  0.00  0.00     0.023 H 
ATOM     12  H   LIG d   1       5.675  -3.650  -3.688  0.00  0.00     0.023 H 
ATOM     13  H   LIG d   1       6.585  -3.732  -5.215  0.00  0.00     0.023 H 
ENDBRANCH   7  10
ENDBRANCH   1   7
BRANCH   5  14
ATOM     14  N   LIG d   1       8.231   2.387  -4.239  0.00  0.00    -0.327 N 
ATOM     15  H   LIG d   1       8.943   2.711  -3.667  0.00  0.00     0.145 HD
ATOM     16  H   LIG d   1       8.097   2.777  -5.117  0.00  0.00     0.145 HD
ENDBRANCH   5  14
BRANCH   3  17
ATOM     17  C   LIG d   1       4.175   1.000  -2.083  0.00  0.00     0.005 C 
ATOM     18  H   LIG d   1       4.283   0.828  -1.013  0.00  0.00     0.034 H 
ATOM     19  H   LIG d   1       3.919   2.044  -2.260  0.00  0.00     0.034 H 
BRANCH  17  20
ATOM     20  C   LIG d   1       3.067   0.102  -2.636  0.00  0.00    -0.058 C 
ATOM     21  H   LIG d   1       3.061  -0.844  -2.093  0.00  0.00     0.023 H 
ATOM     22  H   LIG d   1       2.103   0.597  -2.513  0.00  0.00     0.023 H 
ATOM     23  H   LIG d   1       3.245  -0.088  -3.694  0.00  0.00     0.023 H 
ENDBRANCH  17  20
ENDBRANCH   3  17
TORSDOF 5
ENDMDL
MODEL 4
REMARK VINA RESULT:      -4.3      1.150      3.938
REMARK  5 active torsions:
REMARK  status: ('A' for Active; 'I' for Inactive)
REMARK    1  A    between atoms: C_1  and  C_2 
REMARK    2  A    between atoms: C_2  and  C_3 
REMARK    3  A    between atoms: C_5  and  C_10 
REMARK    4  A    between atoms: C_7  and  N_9 
REMARK    5  A    between atoms: C_10  and  C_11 
ROOT
ATOM      1  C   LIG d   1       5.512   0.698  -2.768  0.00  0.00     0.134 A 
ATOM      2  N   LIG d   1       5.851  -0.566  -2.959  0.00  0.00    -0.217 NA
ATOM      3  C   LIG d   1       6.970  -0.866  -3.599  0.00  0.00     0.134 A 
ATOM      4  N   LIG d   1       7.758   0.098  -4.041  0.00  0.00    -0.200 NA
ATOM      5  C   LIG d   1       7.422   1.370  -3.848  0.00  0.00     0.216 A 
ATOM      6  N   LIG d   1       6.294   1.667  -3.208  0.00  0.00    -0.200 NA
ENDROOT
BRANCH   1   7
ATOM      7  C   LIG d   1       4.234   1.034  -2.044  0.00  0.00     0.005 C 
ATOM      8  H   LIG d   1       4.002   2.089  -2.186  0.00  0.00     0.034 H 
ATOM      9  H   LIG d   1       4.355   0.829  -0.980  0.00  0.00     0.034 H 
BRANCH   7  10
ATOM     10  C   LIG d   1       3.093   0.180  -2.601  0.00  0.00    -0.058 C 
ATOM     11  H   LIG d   1       2.319   0.831  -3.009  0.00  0.00     0.023 H 
ATOM     12  H   LIG d   1       2.670  -0.429  -1.801  0.00  0.00     0.023 H 
ATOM     13  H   LIG d   1       3.474  -0.468  -3.388  0.00  0.00     0.023 H 
ENDBRANCH   7  10
ENDBRANCH   1   7
BRANCH   5  14
ATOM     14  N   LIG d   1       8.243   2.380  -4.309  0.00  0.00    -0.327 N 
ATOM     15  H   LIG d   1       9.195   2.224  -4.402  0.00  0.00     0.145 HD
ATOM     16  H   LIG d   1       7.866   3.244  -4.539  0.00  0.00     0.145 HD
ENDBRANCH   5  14
BRANCH   3  17
ATOM     17  C   LIG d   1       7.349  -2.308  -3.817  0.00  0.00     0.005 C 
ATOM     18  H   LIG d   1       8.208  -2.361  -4.486  0.00  0.00     0.034 H 
ATOM     19  H   LIG d   1       7.603  -2.765  -2.862  0.00  0.00     0.034 H 
BRANCH  17  20
ATOM     20  C   LIG d   1       6.170  -3.055  -4.443  0.00  0.00    -0.058 C 
ATOM     21  H   LIG d   1       5.547  -2.352  -4.996  0.00  0.00     0.023 H 
ATOM     22  H   LIG d   1       6.544  -3.821  -5.122  0.00  0.00     0.023 H 
ATOM     23  H   LIG d   1       5.578  -3.524  -3.657  0.00  0.00     0.023 H 
ENDBRANCH  17  20
ENDBRANCH   3  17
TORSDOF 5
ENDMDL
MODEL 5
REMARK VINA RESULT:      -4.3      3.357      4.200
REMARK  5 active torsions:
REMARK  status: ('A' for Active; 'I' for Inactive)
REMARK    1  A    between atoms: C_1  and  C_2 
REMARK    2  A    between atoms: C_2  and  C_3 
REMARK    3  A    between atoms: C_5  and  C_10 
REMARK    4  A    between atoms: C_7  and  N_9 
REMARK    5  A    between atoms: C_10  and  C_11 
ROOT
ATOM      1  C   LIG d   1       4.004  -0.454  -6.017  0.00  0.00     0.134 A 
ATOM      2  N   LIG d   1       3.757   0.408  -5.044  0.00  0.00    -0.217 NA
ATOM      3  C   LIG d   1       3.775   0.009  -3.782  0.00  0.00     0.134 A 
ATOM      4  N   LIG d   1       4.049  -1.249  -3.489  0.00  0.00    -0.200 NA
ATOM      5  C   LIG d   1       4.302  -2.117  -4.465  0.00  0.00     0.216 A 
ATOM      6  N   LIG d   1       4.279  -1.714  -5.732  0.00  0.00    -0.200 NA
ENDROOT
BRANCH   1   7
ATOM      7  C   LIG d   1       3.978   0.003  -7.453  0.00  0.00     0.005 C 
ATOM      8  H   LIG d   1       4.649  -0.618  -8.045  0.00  0.00     0.034 H 
ATOM      9  H   LIG d   1       4.301   1.043  -7.508  0.00  0.00     0.034 H 
BRANCH   7  10
ATOM     10  C   LIG d   1       2.554  -0.117  -8.000  0.00  0.00    -0.058 C 
ATOM     11  H   LIG d   1       2.020   0.818  -7.832  0.00  0.00     0.023 H 
ATOM     12  H   LIG d   1       2.035  -0.928  -7.489  0.00  0.00     0.023 H 
ATOM     13  H   LIG d   1       2.592  -0.326  -9.069  0.00  0.00     0.023 H 
ENDBRANCH   7  10
ENDBRANCH   1   7
BRANCH   5  14
ATOM     14  N   LIG d   1       4.589  -3.433  -4.162  0.00  0.00    -0.327 N 
ATOM     15  H   LIG d   1       4.269  -3.819  -3.331  0.00  0.00     0.145 HD
ATOM     16  H   LIG d   1       5.109  -3.970  -4.779  0.00  0.00     0.145 HD
ENDBRANCH   5  14
BRANCH   3  17
ATOM     17  C   LIG d   1       3.488   0.995  -2.678  0.00  0.00     0.005 C 
ATOM     18  H   LIG d   1       3.453   2.002  -3.090  0.00  0.00     0.034 H 
ATOM     19  H   LIG d   1       2.529   0.756  -2.219  0.00  0.00     0.034 H 
BRANCH  17  20
ATOM     20  C   LIG d   1       4.593   0.913  -1.623  0.00  0.00    -0.058 C 
ATOM     21  H   LIG d   1       4.780   1.908  -1.216  0.00  0.00     0.023 H 
ATOM     22  H   LIG d   1       4.280   0.246  -0.820  0.00  0.00     0.023 H 
ATOM     23  H   LIG d   1       5.505   0.530  -2.080  0.00  0.00     0.023 H 
ENDBRANCH  17  20
ENDBRANCH   3  17
TORSDOF 5
ENDMDL
MODEL 6
REMARK VINA RESULT:      -4.3      3.358      4.371
REMARK  5 active torsions:
REMARK  status: ('A' for Active; 'I' for Inactive)
REMARK    1  A    between atoms: C_1  and  C_2 
REMARK    2  A    between atoms: C_2  and  C_3 
REMARK    3  A    between atoms: C_5  and  C_10 
REMARK    4  A    between atoms: C_7  and  N_9 
REMARK    5  A    between atoms: C_10  and  C_11 
ROOT
ATOM      1  C   LIG d   1       3.767  -0.006  -3.807  0.00  0.00     0.134 A 
ATOM      2  N   LIG d   1       3.734   0.401  -5.065  0.00  0.00    -0.217 NA
ATOM      3  C   LIG d   1       3.999  -0.447  -6.046  0.00  0.00     0.134 A 
ATOM      4  N   LIG d   1       4.289  -1.706  -5.772  0.00  0.00    -0.200 NA
ATOM      5  C   LIG d   1       4.320  -2.119  -4.508  0.00  0.00     0.216 A 
ATOM      6  N   LIG d   1       4.057  -1.263  -3.525  0.00  0.00    -0.200 NA
ENDROOT
BRANCH   1   7
ATOM      7  C   LIG d   1       3.470   0.965  -2.694  0.00  0.00     0.005 C 
ATOM      8  H   LIG d   1       2.517   0.708  -2.232  0.00  0.00     0.034 H 
ATOM      9  H   LIG d   1       3.416   1.976  -3.099  0.00  0.00     0.034 H 
BRANCH   7  10
ATOM     10  C   LIG d   1       4.581   0.896  -1.645  0.00  0.00    -0.058 C 
ATOM     11  H   LIG d   1       4.870   1.906  -1.354  0.00  0.00     0.023 H 
ATOM     12  H   LIG d   1       5.445   0.378  -2.064  0.00  0.00     0.023 H 
ATOM     13  H   LIG d   1       4.222   0.354  -0.770  0.00  0.00     0.023 H 
ENDBRANCH   7  10
ENDBRANCH   1   7
BRANCH   5  14
ATOM     14  N   LIG d   1       4.623  -3.435  -4.218  0.00  0.00    -0.327 N 
ATOM     15  H   LIG d   1       5.377  -3.642  -3.644  0.00  0.00     0.145 HD
ATOM     16  H   LIG d   1       4.082  -4.150  -4.588  0.00  0.00     0.145 HD
ENDBRANCH   5  14
BRANCH   3  17
ATOM     17  C   LIG d   1       3.964   0.023  -7.478  0.00  0.00     0.005 C 
ATOM     18  H   LIG d   1       4.248   1.074  -7.522  0.00  0.00     0.034 H 
ATOM     19  H   LIG d   1       4.661  -0.568  -8.071  0.00  0.00     0.034 H 
BRANCH  17  20
ATOM     20  C   LIG d   1       2.549  -0.146  -8.035  0.00  0.00    -0.058 C 
ATOM     21  H   LIG d   1       1.826   0.219  -7.305  0.00  0.00     0.023 H 
ATOM     22  H   LIG d   1       2.452   0.423  -8.959  0.00  0.00     0.023 H 
ATOM     23  H   LIG d   1       2.361  -1.201  -8.236  0.00  0.00     0.023 H 
ENDBRANCH  17  20
ENDBRANCH   3  17
TORSDOF 5
ENDMDL
MODEL 7
REMARK VINA RESULT:      -4.2      3.175      4.107
REMARK  5 active torsions:
REMARK  status: ('A' for Active; 'I' for Inactive)
REMARK    1  A    between atoms: C_1  and  C_2 
REMARK    2  A    between atoms: C_2  and  C_3 
REMARK    3  A    between atoms: C_5  and  C_10 
REMARK    4  A    between atoms: C_7  and  N_9 
REMARK    5  A    between atoms: C_10  and  C_11 
ROOT
ATOM      1  C   LIG d   1       3.631   0.014  -6.259  0.00  0.00     0.134 A 
ATOM      2  N   LIG d   1       3.148   0.248  -5.050  0.00  0.00    -0.217 NA
ATOM      3  C   LIG d   1       3.941   0.181  -3.992  0.00  0.00     0.134 A 
ATOM      4  N   LIG d   1       5.221  -0.110  -4.142  0.00  0.00    -0.200 NA
ATOM      5  C   LIG d   1       5.711  -0.343  -5.356  0.00  0.00     0.216 A 
ATOM      6  N   LIG d   1       4.909  -0.279  -6.416  0.00  0.00    -0.200 NA
ENDROOT
BRANCH   1   7
ATOM      7  C   LIG d   1       2.723   0.085  -7.459  0.00  0.00     0.005 C 
ATOM      8  H   LIG d   1       1.685   0.038  -7.133  0.00  0.00     0.034 H 
ATOM      9  H   LIG d   1       2.934  -0.753  -8.124  0.00  0.00     0.034 H 
BRANCH   7  10
ATOM     10  C   LIG d   1       2.965   1.400  -8.205  0.00  0.00    -0.058 C 
ATOM     11  H   LIG d   1       2.986   2.223  -7.491  0.00  0.00     0.023 H 
ATOM     12  H   LIG d   1       2.161   1.564  -8.923  0.00  0.00     0.023 H 
ATOM     13  H   LIG d   1       3.918   1.350  -8.731  0.00  0.00     0.023 H 
ENDBRANCH   7  10
ENDBRANCH   1   7
BRANCH   5  14
ATOM     14  N   LIG d   1       7.047  -0.648  -5.516  0.00  0.00    -0.327 N 
ATOM     15  H   LIG d   1       7.681  -0.428  -4.816  0.00  0.00     0.145 HD
ATOM     16  H   LIG d   1       7.352  -1.083  -6.328  0.00  0.00     0.145 HD
ENDBRANCH   5  14
BRANCH   3  17
ATOM     17  C   LIG d   1       3.384   0.444  -2.616  0.00  0.00     0.005 C 
ATOM     18  H   LIG d   1       2.598   1.196  -2.681  0.00  0.00     0.034 H 
ATOM     19  H   LIG d   1       2.973  -0.479  -2.209  0.00  0.00     0.034 H 
BRANCH  17  20
ATOM     20  C   LIG d   1       4.502   0.952  -1.703  0.00  0.00    -0.058 C 
ATOM     21  H   LIG d   1       5.204   1.549  -2.286  0.00  0.00     0.023 H 
ATOM     22  H   LIG d   1       4.073   1.566  -0.911  0.00  0.00     0.023 H 
ATOM     23  H   LIG d   1       5.026   0.103  -1.263  0.00  0.00     0.023 H 
ENDBRANCH  17  20
ENDBRANCH   3  17
TORSDOF 5
ENDMDL
MODEL 8
REMARK VINA RESULT:      -4.2      3.259      4.762
REMARK  5 active torsions:
REMARK  status: ('A' for Active; 'I' for Inactive)
REMARK    1  A    between atoms: C_1  and  C_2 
REMARK    2  A    between atoms: C_2  and  C_3 
REMARK    3  A    between atoms: C_5  and  C_10 
REMARK    4  A    between atoms: C_7  and  N_9 
REMARK    5  A    between atoms: C_10  and  C_11 
ROOT
ATOM      1  C   LIG d   1       3.633   0.020  -3.746  0.00  0.00     0.134 A 
ATOM      2  N   LIG d   1       4.260  -1.143  -3.806  0.00  0.00    -0.217 NA
ATOM      3  C   LIG d   1       4.507  -1.705  -4.978  0.00  0.00     0.134 A 
ATOM      4  N   LIG d   1       4.137  -1.102  -6.093  0.00  0.00    -0.200 NA
ATOM      5  C   LIG d   1       3.509   0.070  -6.036  0.00  0.00     0.216 A 
ATOM      6  N   LIG d   1       3.259   0.630  -4.856  0.00  0.00    -0.200 NA
ENDROOT
BRANCH   1   7
ATOM      7  C   LIG d   1       3.349   0.654  -2.408  0.00  0.00     0.005 C 
ATOM      8  H   LIG d   1       2.684   0.008  -1.834  0.00  0.00     0.034 H 
ATOM      9  H   LIG d   1       2.874   1.623  -2.559  0.00  0.00     0.034 H 
BRANCH   7  10
ATOM     10  C   LIG d   1       4.661   0.843  -1.644  0.00  0.00    -0.058 C 
ATOM     11  H   LIG d   1       4.870  -0.049  -1.054  0.00  0.00     0.023 H 
ATOM     12  H   LIG d   1       4.575   1.704  -0.981  0.00  0.00     0.023 H 
ATOM     13  H   LIG d   1       5.473   1.009  -2.351  0.00  0.00     0.023 H 
ENDBRANCH   7  10
ENDBRANCH   1   7
BRANCH   5  14
ATOM     14  N   LIG d   1       3.121   0.703  -7.199  0.00  0.00    -0.327 N 
ATOM     15  H   LIG d   1       2.459   0.291  -7.777  0.00  0.00     0.145 HD
ATOM     16  H   LIG d   1       3.509   1.559  -7.438  0.00  0.00     0.145 HD
ENDBRANCH   5  14
BRANCH   3  17
ATOM     17  C   LIG d   1       5.218  -3.034  -5.041  0.00  0.00     0.005 C 
ATOM     18  H   LIG d   1       4.589  -3.803  -4.594  0.00  0.00     0.034 H 
ATOM     19  H   LIG d   1       5.419  -3.288  -6.081  0.00  0.00     0.034 H 
BRANCH  17  20
ATOM     20  C   LIG d   1       6.537  -2.941  -4.273  0.00  0.00    -0.058 C 
ATOM     21  H   LIG d   1       7.351  -3.298  -4.905  0.00  0.00     0.023 H 
ATOM     22  H   LIG d   1       6.723  -1.904  -3.993  0.00  0.00     0.023 H 
ATOM     23  H   LIG d   1       6.480  -3.555  -3.375  0.00  0.00     0.023 H 
ENDBRANCH  17  20
ENDBRANCH   3  17
TORSDOF 5
ENDMDL
MODEL 9
REMARK VINA RESULT:      -4.1      2.982      4.892
REMARK  5 active torsions:
REMARK  status: ('A' for Active; 'I' for Inactive)
REMARK    1  A    between atoms: C_1  and  C_2 
REMARK    2  A    between atoms: C_2  and  C_3 
REMARK    3  A    between atoms: C_5  and  C_10 
REMARK    4  A    between atoms: C_7  and  N_9 
REMARK    5  A    between atoms: C_10  and  C_11 
ROOT
ATOM      1  C   LIG d   1       4.858  -1.868  -3.028  0.00  0.00     0.134 A 
ATOM      2  N   LIG d   1       6.177  -1.852  -3.133  0.00  0.00    -0.217 NA
ATOM      3  C   LIG d   1       6.778  -2.558  -4.078  0.00  0.00     0.134 A 
ATOM      4  N   LIG d   1       6.061  -3.272  -4.927  0.00  0.00    -0.200 NA
ATOM      5  C   LIG d   1       4.735  -3.287  -4.827  0.00  0.00     0.216 A 
ATOM      6  N   LIG d   1       4.135  -2.580  -3.873  0.00  0.00    -0.200 NA
ENDROOT
BRANCH   1   7
ATOM      7  C   LIG d   1       4.180  -1.068  -1.947  0.00  0.00     0.005 C 
ATOM      8  H   LIG d   1       4.382  -1.523  -0.977  0.00  0.00     0.034 H 
ATOM      9  H   LIG d   1       3.104  -1.055  -2.125  0.00  0.00     0.034 H 
BRANCH   7  10
ATOM     10  C   LIG d   1       4.715   0.365  -1.960  0.00  0.00    -0.058 C 
ATOM     11  H   LIG d   1       5.429   0.494  -1.146  0.00  0.00     0.023 H 
ATOM     12  H   LIG d   1       3.888   1.064  -1.830  0.00  0.00     0.023 H 
ATOM     13  H   LIG d   1       5.210   0.560  -2.911  0.00  0.00     0.023 H 
ENDBRANCH   7  10
ENDBRANCH   1   7
BRANCH   5  14
ATOM     14  N   LIG d   1       3.983  -4.033  -5.712  0.00  0.00    -0.327 N 
ATOM     15  H   LIG d   1       3.249  -4.577  -5.385  0.00  0.00     0.145 HD
ATOM     16  H   LIG d   1       4.189  -4.013  -6.660  0.00  0.00     0.145 HD
ENDBRANCH   5  14
BRANCH   3  17
ATOM     17  C   LIG d   1       8.281  -2.540  -4.190  0.00  0.00     0.005 C 
ATOM     18  H   LIG d   1       8.571  -2.016  -5.100  0.00  0.00     0.034 H 
ATOM     19  H   LIG d   1       8.702  -2.029  -3.325  0.00  0.00     0.034 H 
BRANCH  17  20
ATOM     20  C   LIG d   1       8.805  -3.977  -4.239  0.00  0.00    -0.058 C 
ATOM     21  H   LIG d   1       8.723  -4.426  -3.249  0.00  0.00     0.023 H 
ATOM     22  H   LIG d   1       8.214  -4.554  -4.950  0.00  0.00     0.023 H 
ATOM     23  H   LIG d   1       9.849  -3.973  -4.551  0.00  0.00     0.023 H 
ENDBRANCH  17  20
ENDBRANCH   3  17
TORSDOF 5
ENDMDL
MODEL 10
REMARK VINA RESULT:      -3.9      2.541      4.298
REMARK  5 active torsions:
REMARK  status: ('A' for Active; 'I' for Inactive)
REMARK    1  A    between atoms: C_1  and  C_2 
REMARK    2  A    between atoms: C_2  and  C_3 
REMARK    3  A    between atoms: C_5  and  C_10 
REMARK    4  A    between atoms: C_7  and  N_9 
REMARK    5  A    between atoms: C_10  and  C_11 
ROOT
ATOM      1  C   LIG d   1       5.479  -3.058  -4.448  0.00  0.00     0.134 A 
ATOM      2  N   LIG d   1       4.714  -2.479  -3.537  0.00  0.00    -0.217 NA
ATOM      3  C   LIG d   1       5.153  -1.421  -2.873  0.00  0.00     0.134 A 
ATOM      4  N   LIG d   1       6.354  -0.934  -3.125  0.00  0.00    -0.200 NA
ATOM      5  C   LIG d   1       7.125  -1.512  -4.043  0.00  0.00     0.216 A 
ATOM      6  N   LIG d   1       6.682  -2.577  -4.704  0.00  0.00    -0.200 NA
ENDROOT
BRANCH   1   7
ATOM      7  C   LIG d   1       4.976  -4.265  -5.196  0.00  0.00     0.005 C 
ATOM      8  H   LIG d   1       4.412  -3.941  -6.071  0.00  0.00     0.034 H 
ATOM      9  H   LIG d   1       4.330  -4.853  -4.544  0.00  0.00     0.034 H 
BRANCH   7  10
ATOM     10  C   LIG d   1       6.164  -5.120  -5.642  0.00  0.00    -0.058 C 
ATOM     11  H   LIG d   1       6.834  -5.281  -4.797  0.00  0.00     0.023 H 
ATOM     12  H   LIG d   1       6.703  -4.607  -6.440  0.00  0.00     0.023 H 
ATOM     13  H   LIG d   1       5.803  -6.081  -6.008  0.00  0.00     0.023 H 
ENDBRANCH   7  10
ENDBRANCH   1   7
BRANCH   5  14
ATOM     14  N   LIG d   1       8.382  -1.005  -4.308  0.00  0.00    -0.327 N 
ATOM     15  H   LIG d   1       9.165  -1.427  -3.921  0.00  0.00     0.145 HD
ATOM     16  H   LIG d   1       8.480  -0.229  -4.881  0.00  0.00     0.145 HD
ENDBRANCH   5  14
BRANCH   3  17
ATOM     17  C   LIG d   1       4.278  -0.768  -1.834  0.00  0.00     0.005 C 
ATOM     18  H   LIG d   1       3.231  -0.925  -2.090  0.00  0.00     0.034 H 
ATOM     19  H   LIG d   1       4.484  -1.209  -0.859  0.00  0.00     0.034 H 
BRANCH  17  20
ATOM     20  C   LIG d   1       4.574   0.732  -1.789  0.00  0.00    -0.058 C 
ATOM     21  H   LIG d   1       4.564   1.134  -2.803  0.00  0.00     0.023 H 
ATOM     22  H   LIG d   1       3.812   1.234  -1.192  0.00  0.00     0.023 H 
ATOM     23  H   LIG d   1       5.554   0.897  -1.342  0.00  0.00     0.023 H 
ENDBRANCH  17  20
ENDBRANCH   3  17
TORSDOF 5
ENDMDL
