MODEL 1
REMARK VINA RESULT:      -5.5      0.000      0.000
REMARK  3 active torsions:
REMARK  status: ('A' for Active; 'I' for Inactive)
REMARK    1  A    between atoms: C_4  and  C_7 
REMARK    2  A    between atoms: C_7  and  C_9 
REMARK    3  A    between atoms: C_9  and  C_10 
ROOT
ATOM      1  C   LIG d   1       4.478  -0.921  -1.580  0.00  0.00    -0.062 A 
ATOM      2  C   LIG d   1       4.607   0.442  -1.779  0.00  0.00    -0.061 A 
ATOM      3  C   LIG d   1       4.040   1.037  -2.887  0.00  0.00    -0.051 A 
ATOM      4  C   LIG d   1       3.337   0.261  -3.809  0.00  0.00     0.018 A 
ATOM      5  C   LIG d   1       3.207  -1.113  -3.601  0.00  0.00    -0.051 A 
ATOM      6  C   LIG d   1       3.782  -1.697  -2.491  0.00  0.00    -0.061 A 
ATOM      7  H   LIG d   1       4.923  -1.383  -0.711  0.00  0.00     0.062 H 
ATOM      8  H   LIG d   1       5.151   1.041  -1.065  0.00  0.00     0.062 H 
ATOM      9  H   LIG d   1       4.141   2.101  -3.041  0.00  0.00     0.062 H 
ATOM     10  H   LIG d   1       2.661  -1.719  -4.308  0.00  0.00     0.062 H 
ATOM     11  H   LIG d   1       3.685  -2.761  -2.331  0.00  0.00     0.062 H 
ENDROOT
BRANCH   4  12
ATOM     12  C   LIG d   1       2.726   0.893  -5.000  0.00  0.00     0.170 C 
ATOM     13  O   LIG d   1       2.377   2.058  -4.958  0.00  0.00    -0.292 OA
BRANCH  12  14
ATOM     14  C   LIG d   1       2.548   0.142  -6.187  0.00  0.00     0.066 C 
ATOM     15  H   LIG d   1       1.941   0.912  -6.384  0.00  0.00     0.042 H 
ATOM     16  H   LIG d   1       1.625  -0.393  -6.354  0.00  0.00     0.042 H 
BRANCH  14  17
ATOM     17  C   LIG d   1       3.529   0.097  -7.109  0.00  0.00     0.128 C 
ATOM     18  H   LIG d   1       4.037  -0.835  -7.311  0.00  0.00     0.103 H 
ATOM     19  O   LIG d   1       3.881   1.214  -7.775  0.00  0.00    -0.301 OA
ENDBRANCH  14  17
ENDBRANCH  12  14
ENDBRANCH   4  12
TORSDOF 3
ENDMDL
MODEL 2
REMARK VINA RESULT:      -4.9      3.164      3.929
REMARK  3 active torsions:
REMARK  status: ('A' for Active; 'I' for Inactive)
REMARK    1  A    between atoms: C_4  and  C_7 
REMARK    2  A    between atoms: C_7  and  C_9 
REMARK    3  A    between atoms: C_9  and  C_10 
ROOT
ATOM      1  C   LIG d   1       3.680   1.501  -2.434  0.00  0.00    -0.062 A 
ATOM      2  C   LIG d   1       3.209   1.052  -3.655  0.00  0.00    -0.061 A 
ATOM      3  C   LIG d   1       3.495  -0.230  -4.079  0.00  0.00    -0.051 A 
ATOM      4  C   LIG d   1       4.262  -1.072  -3.275  0.00  0.00     0.018 A 
ATOM      5  C   LIG d   1       4.732  -0.615  -2.042  0.00  0.00    -0.051 A 
ATOM      6  C   LIG d   1       4.443   0.670  -1.632  0.00  0.00    -0.061 A 
ATOM      7  H   LIG d   1       3.454   2.505  -2.106  0.00  0.00     0.062 H 
ATOM      8  H   LIG d   1       2.615   1.705  -4.277  0.00  0.00     0.062 H 
ATOM      9  H   LIG d   1       3.125  -0.579  -5.032  0.00  0.00     0.062 H 
ATOM     10  H   LIG d   1       5.323  -1.263  -1.413  0.00  0.00     0.062 H 
ATOM     11  H   LIG d   1       4.808   1.027  -0.680  0.00  0.00     0.062 H 
ENDROOT
BRANCH   4  12
ATOM     12  C   LIG d   1       4.573  -2.448  -3.723  0.00  0.00     0.170 C 
ATOM     13  O   LIG d   1       4.007  -3.397  -3.211  0.00  0.00    -0.292 OA
BRANCH  12  14
ATOM     14  C   LIG d   1       5.527  -2.661  -4.747  0.00  0.00     0.066 C 
ATOM     15  H   LIG d   1       4.981  -1.941  -5.175  0.00  0.00     0.042 H 
ATOM     16  H   LIG d   1       5.239  -3.168  -5.656  0.00  0.00     0.042 H 
BRANCH  14  17
ATOM     17  C   LIG d   1       6.793  -2.230  -4.588  0.00  0.00     0.128 C 
ATOM     18  H   LIG d   1       7.246  -1.599  -5.339  0.00  0.00     0.103 H 
ATOM     19  O   LIG d   1       7.497  -2.590  -3.497  0.00  0.00    -0.301 OA
ENDBRANCH  14  17
ENDBRANCH  12  14
ENDBRANCH   4  12
TORSDOF 3
ENDMDL
MODEL 3
REMARK VINA RESULT:      -4.8      2.793      4.273
REMARK  3 active torsions:
REMARK  status: ('A' for Active; 'I' for Inactive)
REMARK    1  A    between atoms: C_4  and  C_7 
REMARK    2  A    between atoms: C_7  and  C_9 
REMARK    3  A    between atoms: C_9  and  C_10 
ROOT
ATOM      1  C   LIG d   1       7.028  -3.417  -4.644  0.00  0.00    -0.062 A 
ATOM      2  C   LIG d   1       5.687  -3.698  -4.832  0.00  0.00    -0.061 A 
ATOM      3  C   LIG d   1       4.725  -2.954  -4.182  0.00  0.00    -0.051 A 
ATOM      4  C   LIG d   1       5.106  -1.916  -3.331  0.00  0.00     0.018 A 
ATOM      5  C   LIG d   1       6.461  -1.634  -3.148  0.00  0.00    -0.051 A 
ATOM      6  C   LIG d   1       7.414  -2.390  -3.800  0.00  0.00    -0.061 A 
ATOM      7  H   LIG d   1       7.778  -4.003  -5.155  0.00  0.00     0.062 H 
ATOM      8  H   LIG d   1       5.392  -4.502  -5.491  0.00  0.00     0.062 H 
ATOM      9  H   LIG d   1       3.678  -3.174  -4.331  0.00  0.00     0.062 H 
ATOM     10  H   LIG d   1       6.764  -0.830  -2.494  0.00  0.00     0.062 H 
ATOM     11  H   LIG d   1       8.463  -2.175  -3.657  0.00  0.00     0.062 H 
ENDROOT
BRANCH   4  12
ATOM     12  C   LIG d   1       4.080  -1.113  -2.631  0.00  0.00     0.170 C 
ATOM     13  O   LIG d   1       2.900  -1.373  -2.778  0.00  0.00    -0.292 OA
BRANCH  12  14
ATOM     14  C   LIG d   1       4.470  -0.044  -1.789  0.00  0.00     0.066 C 
ATOM     15  H   LIG d   1       5.344  -0.231  -2.237  0.00  0.00     0.042 H 
ATOM     16  H   LIG d   1       5.081  -0.236  -0.920  0.00  0.00     0.042 H 
BRANCH  14  17
ATOM     17  C   LIG d   1       4.080   1.214  -2.073  0.00  0.00     0.128 C 
ATOM     18  H   LIG d   1       3.646   1.832  -1.300  0.00  0.00     0.103 H 
ATOM     19  O   LIG d   1       4.226   1.700  -3.321  0.00  0.00    -0.301 OA
ENDBRANCH  14  17
ENDBRANCH  12  14
ENDBRANCH   4  12
TORSDOF 3
ENDMDL
MODEL 4
REMARK VINA RESULT:      -4.6      2.322      4.334
REMARK  3 active torsions:
REMARK  status: ('A' for Active; 'I' for Inactive)
REMARK    1  A    between atoms: C_4  and  C_7 
REMARK    2  A    between atoms: C_7  and  C_9 
REMARK    3  A    between atoms: C_9  and  C_10 
ROOT
ATOM      1  C   LIG d   1       3.622  -0.404  -7.360  0.00  0.00    -0.062 A 
ATOM      2  C   LIG d   1       4.445  -1.262  -6.653  0.00  0.00    -0.061 A 
ATOM      3  C   LIG d   1       4.376  -1.309  -5.275  0.00  0.00    -0.051 A 
ATOM      4  C   LIG d   1       3.474  -0.490  -4.596  0.00  0.00     0.018 A 
ATOM      5  C   LIG d   1       2.643   0.370  -5.316  0.00  0.00    -0.051 A 
ATOM      6  C   LIG d   1       2.725   0.412  -6.693  0.00  0.00    -0.061 A 
ATOM      7  H   LIG d   1       3.680  -0.370  -8.438  0.00  0.00     0.062 H 
ATOM      8  H   LIG d   1       5.143  -1.896  -7.179  0.00  0.00     0.062 H 
ATOM      9  H   LIG d   1       5.019  -1.980  -4.724  0.00  0.00     0.062 H 
ATOM     10  H   LIG d   1       1.940   1.005  -4.797  0.00  0.00     0.062 H 
ATOM     11  H   LIG d   1       2.085   1.080  -7.251  0.00  0.00     0.062 H 
ENDROOT
BRANCH   4  12
ATOM     12  C   LIG d   1       3.394  -0.536  -3.119  0.00  0.00     0.170 C 
ATOM     13  O   LIG d   1       3.257  -1.604  -2.551  0.00  0.00    -0.292 OA
BRANCH  12  14
ATOM     14  C   LIG d   1       3.477   0.661  -2.368  0.00  0.00     0.066 C 
ATOM     15  H   LIG d   1       2.902   0.119  -1.755  0.00  0.00     0.042 H 
ATOM     16  H   LIG d   1       2.621   1.315  -2.298  0.00  0.00     0.042 H 
BRANCH  14  17
ATOM     17  C   LIG d   1       4.624   0.983  -1.738  0.00  0.00     0.128 C 
ATOM     18  H   LIG d   1       4.653   1.028  -0.659  0.00  0.00     0.103 H 
ATOM     19  O   LIG d   1       5.733   1.254  -2.454  0.00  0.00    -0.301 OA
ENDBRANCH  14  17
ENDBRANCH  12  14
ENDBRANCH   4  12
TORSDOF 3
ENDMDL
MODEL 5
REMARK VINA RESULT:      -4.6      2.786      3.282
REMARK  3 active torsions:
REMARK  status: ('A' for Active; 'I' for Inactive)
REMARK    1  A    between atoms: C_4  and  C_7 
REMARK    2  A    between atoms: C_7  and  C_9 
REMARK    3  A    between atoms: C_9  and  C_10 
ROOT
ATOM      1  C   LIG d   1       2.939  -1.312  -2.678  0.00  0.00    -0.062 A 
ATOM      2  C   LIG d   1       2.952  -0.027  -3.191  0.00  0.00    -0.061 A 
ATOM      3  C   LIG d   1       4.150   0.584  -3.499  0.00  0.00    -0.051 A 
ATOM      4  C   LIG d   1       5.350  -0.096  -3.291  0.00  0.00     0.018 A 
ATOM      5  C   LIG d   1       5.331  -1.394  -2.776  0.00  0.00    -0.051 A 
ATOM      6  C   LIG d   1       4.126  -1.992  -2.468  0.00  0.00    -0.061 A 
ATOM      7  H   LIG d   1       1.998  -1.786  -2.438  0.00  0.00     0.062 H 
ATOM      8  H   LIG d   1       2.023   0.498  -3.352  0.00  0.00     0.062 H 
ATOM      9  H   LIG d   1       4.159   1.587  -3.901  0.00  0.00     0.062 H 
ATOM     10  H   LIG d   1       6.255  -1.927  -2.616  0.00  0.00     0.062 H 
ATOM     11  H   LIG d   1       4.109  -2.994  -2.067  0.00  0.00     0.062 H 
ENDROOT
BRANCH   4  12
ATOM     12  C   LIG d   1       6.639   0.553  -3.620  0.00  0.00     0.170 C 
ATOM     13  O   LIG d   1       6.907   1.644  -3.152  0.00  0.00    -0.292 OA
BRANCH  12  14
ATOM     14  C   LIG d   1       7.560  -0.096  -4.477  0.00  0.00     0.066 C 
ATOM     15  H   LIG d   1       6.819  -0.768  -4.489  0.00  0.00     0.042 H 
ATOM     16  H   LIG d   1       8.099  -0.966  -4.133  0.00  0.00     0.042 H 
BRANCH  14  17
ATOM     17  C   LIG d   1       7.763   0.371  -5.725  0.00  0.00     0.128 C 
ATOM     18  H   LIG d   1       8.759   0.383  -6.141  0.00  0.00     0.103 H 
ATOM     19  O   LIG d   1       6.723   0.828  -6.451  0.00  0.00    -0.301 OA
ENDBRANCH  14  17
ENDBRANCH  12  14
ENDBRANCH   4  12
TORSDOF 3
ENDMDL
MODEL 6
REMARK VINA RESULT:      -4.6      3.038      3.712
REMARK  3 active torsions:
REMARK  status: ('A' for Active; 'I' for Inactive)
REMARK    1  A    between atoms: C_4  and  C_7 
REMARK    2  A    between atoms: C_7  and  C_9 
REMARK    3  A    between atoms: C_9  and  C_10 
ROOT
ATOM      1  C   LIG d   1       4.827   0.903  -2.013  0.00  0.00    -0.062 A 
ATOM      2  C   LIG d   1       5.793   0.972  -3.001  0.00  0.00    -0.061 A 
ATOM      3  C   LIG d   1       6.183  -0.170  -3.670  0.00  0.00    -0.051 A 
ATOM      4  C   LIG d   1       5.602  -1.396  -3.348  0.00  0.00     0.018 A 
ATOM      5  C   LIG d   1       4.625  -1.459  -2.353  0.00  0.00    -0.051 A 
ATOM      6  C   LIG d   1       4.247  -0.310  -1.688  0.00  0.00    -0.061 A 
ATOM      7  H   LIG d   1       4.526   1.800  -1.492  0.00  0.00     0.062 H 
ATOM      8  H   LIG d   1       6.242   1.922  -3.251  0.00  0.00     0.062 H 
ATOM      9  H   LIG d   1       6.936  -0.114  -4.443  0.00  0.00     0.062 H 
ATOM     10  H   LIG d   1       4.168  -2.404  -2.100  0.00  0.00     0.062 H 
ATOM     11  H   LIG d   1       3.494  -0.358  -0.915  0.00  0.00     0.062 H 
ENDROOT
BRANCH   4  12
ATOM     12  C   LIG d   1       6.014  -2.625  -4.062  0.00  0.00     0.170 C 
ATOM     13  O   LIG d   1       7.194  -2.912  -4.146  0.00  0.00    -0.292 OA
BRANCH  12  14
ATOM     14  C   LIG d   1       5.038  -3.467  -4.646  0.00  0.00     0.066 C 
ATOM     15  H   LIG d   1       4.439  -2.808  -4.190  0.00  0.00     0.042 H 
ATOM     16  H   LIG d   1       4.465  -4.141  -4.026  0.00  0.00     0.042 H 
BRANCH  14  17
ATOM     17  C   LIG d   1       4.820  -3.426  -5.975  0.00  0.00     0.128 C 
ATOM     18  H   LIG d   1       4.910  -4.326  -6.564  0.00  0.00     0.103 H 
ATOM     19  O   LIG d   1       4.497  -2.260  -6.570  0.00  0.00    -0.301 OA
ENDBRANCH  14  17
ENDBRANCH  12  14
ENDBRANCH   4  12
TORSDOF 3
ENDMDL
MODEL 7
REMARK VINA RESULT:      -4.5      2.855      4.063
REMARK  3 active torsions:
REMARK  status: ('A' for Active; 'I' for Inactive)
REMARK    1  A    between atoms: C_4  and  C_7 
REMARK    2  A    between atoms: C_7  and  C_9 
REMARK    3  A    between atoms: C_9  and  C_10 
ROOT
ATOM      1  C   LIG d   1       6.358  -3.625  -4.680  0.00  0.00    -0.062 A 
ATOM      2  C   LIG d   1       7.430  -2.837  -4.302  0.00  0.00    -0.061 A 
ATOM      3  C   LIG d   1       7.214  -1.623  -3.682  0.00  0.00    -0.051 A 
ATOM      4  C   LIG d   1       5.911  -1.191  -3.437  0.00  0.00     0.018 A 
ATOM      5  C   LIG d   1       4.832  -1.993  -3.816  0.00  0.00    -0.051 A 
ATOM      6  C   LIG d   1       5.062  -3.202  -4.440  0.00  0.00    -0.061 A 
ATOM      7  H   LIG d   1       6.532  -4.574  -5.165  0.00  0.00     0.062 H 
ATOM      8  H   LIG d   1       8.439  -3.172  -4.492  0.00  0.00     0.062 H 
ATOM      9  H   LIG d   1       8.053  -1.010  -3.387  0.00  0.00     0.062 H 
ATOM     10  H   LIG d   1       3.821  -1.666  -3.626  0.00  0.00     0.062 H 
ATOM     11  H   LIG d   1       4.229  -3.821  -4.737  0.00  0.00     0.062 H 
ENDROOT
BRANCH   4  12
ATOM     12  C   LIG d   1       5.671   0.109  -2.771  0.00  0.00     0.170 C 
ATOM     13  O   LIG d   1       6.487   1.005  -2.877  0.00  0.00    -0.292 OA
BRANCH  12  14
ATOM     14  C   LIG d   1       4.493   0.310  -2.013  0.00  0.00     0.066 C 
ATOM     15  H   LIG d   1       5.161   0.731  -1.398  0.00  0.00     0.042 H 
ATOM     16  H   LIG d   1       4.317  -0.277  -1.123  0.00  0.00     0.042 H 
BRANCH  14  17
ATOM     17  C   LIG d   1       3.592   1.234  -2.398  0.00  0.00     0.128 C 
ATOM     18  H   LIG d   1       3.069   1.820  -1.656  0.00  0.00     0.103 H 
ATOM     19  O   LIG d   1       3.340   1.425  -3.708  0.00  0.00    -0.301 OA
ENDBRANCH  14  17
ENDBRANCH  12  14
ENDBRANCH   4  12
TORSDOF 3
ENDMDL
MODEL 8
REMARK VINA RESULT:      -4.4      3.526      4.388
REMARK  3 active torsions:
REMARK  status: ('A' for Active; 'I' for Inactive)
REMARK    1  A    between atoms: C_4  and  C_7 
REMARK    2  A    between atoms: C_7  and  C_9 
REMARK    3  A    between atoms: C_9  and  C_10 
ROOT
ATOM      1  C   LIG d   1       3.918  -1.446  -2.280  0.00  0.00    -0.062 A 
ATOM      2  C   LIG d   1       4.727  -2.207  -3.104  0.00  0.00    -0.061 A 
ATOM      3  C   LIG d   1       5.865  -1.656  -3.658  0.00  0.00    -0.051 A 
ATOM      4  C   LIG d   1       6.197  -0.329  -3.385  0.00  0.00     0.018 A 
ATOM      5  C   LIG d   1       5.378   0.433  -2.549  0.00  0.00    -0.051 A 
ATOM      6  C   LIG d   1       4.241  -0.129  -2.006  0.00  0.00    -0.061 A 
ATOM      7  H   LIG d   1       3.028  -1.882  -1.849  0.00  0.00     0.062 H 
ATOM      8  H   LIG d   1       4.469  -3.234  -3.315  0.00  0.00     0.062 H 
ATOM      9  H   LIG d   1       6.496  -2.251  -4.301  0.00  0.00     0.062 H 
ATOM     10  H   LIG d   1       5.632   1.459  -2.331  0.00  0.00     0.062 H 
ATOM     11  H   LIG d   1       3.605   0.460  -1.361  0.00  0.00     0.062 H 
ENDROOT
BRANCH   4  12
ATOM     12  C   LIG d   1       7.416   0.269  -3.975  0.00  0.00     0.170 C 
ATOM     13  O   LIG d   1       8.187  -0.426  -4.611  0.00  0.00    -0.292 OA
BRANCH  12  14
ATOM     14  C   LIG d   1       7.685   1.647  -3.799  0.00  0.00     0.066 C 
ATOM     15  H   LIG d   1       8.408   1.262  -3.225  0.00  0.00     0.042 H 
ATOM     16  H   LIG d   1       7.447   2.129  -2.862  0.00  0.00     0.042 H 
BRANCH  14  17
ATOM     17  C   LIG d   1       8.239   2.359  -4.800  0.00  0.00     0.128 C 
ATOM     18  H   LIG d   1       8.200   1.986  -5.813  0.00  0.00     0.103 H 
ATOM     19  O   LIG d   1       8.847   3.533  -4.537  0.00  0.00    -0.301 OA
ENDBRANCH  14  17
ENDBRANCH  12  14
ENDBRANCH   4  12
TORSDOF 3
ENDMDL
MODEL 9
REMARK VINA RESULT:      -4.1      2.537      2.942
REMARK  3 active torsions:
REMARK  status: ('A' for Active; 'I' for Inactive)
REMARK    1  A    between atoms: C_4  and  C_7 
REMARK    2  A    between atoms: C_7  and  C_9 
REMARK    3  A    between atoms: C_9  and  C_10 
ROOT
ATOM      1  C   LIG d   1       7.881  -0.157  -4.080  0.00  0.00    -0.062 A 
ATOM      2  C   LIG d   1       7.464   1.118  -3.743  0.00  0.00    -0.061 A 
ATOM      3  C   LIG d   1       6.161   1.338  -3.346  0.00  0.00    -0.051 A 
ATOM      4  C   LIG d   1       5.264   0.271  -3.285  0.00  0.00     0.018 A 
ATOM      5  C   LIG d   1       5.692  -1.014  -3.623  0.00  0.00    -0.051 A 
ATOM      6  C   LIG d   1       6.996  -1.220  -4.023  0.00  0.00    -0.061 A 
ATOM      7  H   LIG d   1       8.902  -0.325  -4.391  0.00  0.00     0.062 H 
ATOM      8  H   LIG d   1       8.159   1.943  -3.790  0.00  0.00     0.062 H 
ATOM      9  H   LIG d   1       5.837   2.334  -3.082  0.00  0.00     0.062 H 
ATOM     10  H   LIG d   1       5.004  -1.844  -3.575  0.00  0.00     0.062 H 
ATOM     11  H   LIG d   1       7.328  -2.213  -4.288  0.00  0.00     0.062 H 
ENDROOT
BRANCH   4  12
ATOM     12  C   LIG d   1       3.865   0.500  -2.859  0.00  0.00     0.170 C 
ATOM     13  O   LIG d   1       3.633   1.141  -1.851  0.00  0.00    -0.292 OA
BRANCH  12  14
ATOM     14  C   LIG d   1       2.797  -0.027  -3.624  0.00  0.00     0.066 C 
ATOM     15  H   LIG d   1       2.280   0.349  -2.855  0.00  0.00     0.042 H 
ATOM     16  H   LIG d   1       2.285  -0.920  -3.295  0.00  0.00     0.042 H 
BRANCH  14  17
ATOM     17  C   LIG d   1       2.416   0.585  -4.762  0.00  0.00     0.128 C 
ATOM     18  H   LIG d   1       1.517   1.184  -4.778  0.00  0.00     0.103 H 
ATOM     19  O   LIG d   1       3.153   0.447  -5.882  0.00  0.00    -0.301 OA
ENDBRANCH  14  17
ENDBRANCH  12  14
ENDBRANCH   4  12
TORSDOF 3
ENDMDL
