MODEL 1
REMARK VINA RESULT:      -6.7      0.000      0.000
REMARK  7 active torsions:
REMARK  status: ('A' for Active; 'I' for Inactive)
REMARK    1  A    between atoms: C_1  and  N_2 
REMARK    2  A    between atoms: C_4  and  C_13 
REMARK    3  A    between atoms: C_9  and  O_11 
REMARK    4  A    between atoms: O_11  and  C_12 
REMARK    5  A    between atoms: C_20  and  O_24 
REMARK    6  A    between atoms: O_24  and  C_25 
REMARK    7  A    between atoms: C_25  and  C_27 
ROOT
ATOM      1  C   LIG d   1       8.462   2.792  -5.467  0.00  0.00    -0.006 C 
ATOM      2  C   LIG d   1       9.029   3.645  -4.567  0.00  0.00     0.176 A 
ATOM      3  C   LIG d   1       9.716   3.267  -3.383  0.00  0.00     0.232 A 
ATOM      4  O   LIG d   1       9.916   2.137  -2.973  0.00  0.00    -0.283 OA
ATOM      5  C   LIG d   1      10.135   4.534  -2.759  0.00  0.00     0.068 A 
ATOM      6  C   LIG d   1      10.837   4.845  -1.595  0.00  0.00    -0.044 A 
ATOM      7  C   LIG d   1      11.077   6.151  -1.274  0.00  0.00    -0.018 A 
ATOM      8  C   LIG d   1      10.624   7.172  -2.105  0.00  0.00     0.136 A 
ATOM      9  C   LIG d   1       9.921   6.879  -3.263  0.00  0.00     0.024 A 
ATOM     10  C   LIG d   1       9.673   5.557  -3.604  0.00  0.00     0.143 A 
ATOM     11  O   LIG d   1       9.030   4.997  -4.652  0.00  0.00    -0.451 OA
ATOM     12  H   LIG d   1       8.069   3.172  -6.398  0.00  0.00     0.066 H 
ATOM     13  H   LIG d   1      11.190   4.055  -0.948  0.00  0.00     0.063 H 
ATOM     14  H   LIG d   1      11.621   6.393  -0.373  0.00  0.00     0.065 H 
ATOM     15  H   LIG d   1       9.570   7.678  -3.899  0.00  0.00     0.069 H 
ENDROOT
BRANCH   1  16
ATOM     16  C   LIG d   1       8.388   1.363  -5.170  0.00  0.00     0.004 A 
ATOM     17  C   LIG d   1       9.189   0.368  -5.688  0.00  0.00     0.013 A 
ATOM     18  N   LIG d   1       8.816  -0.828  -5.171  0.00  0.00    -0.349 N 
ATOM     19  H   LIG d   1       9.993   0.519  -6.394  0.00  0.00     0.082 H 
ATOM     20  C   LIG d   1       7.751  -0.671  -4.304  0.00  0.00     0.050 A 
ATOM     21  C   LIG d   1       7.434   0.696  -4.262  0.00  0.00     0.011 A 
ATOM     22  C   LIG d   1       7.013  -1.568  -3.539  0.00  0.00    -0.034 A 
ATOM     23  C   LIG d   1       6.389   1.148  -3.460  0.00  0.00    -0.010 A 
ATOM     24  C   LIG d   1       5.665   0.243  -2.706  0.00  0.00     0.121 A 
ATOM     25  H   LIG d   1       6.146   2.199  -3.428  0.00  0.00     0.066 H 
ATOM     26  C   LIG d   1       5.980  -1.112  -2.748  0.00  0.00    -0.018 A 
ATOM     27  H   LIG d   1       5.410  -1.813  -2.157  0.00  0.00     0.066 H 
ATOM     28  H   LIG d   1       7.248  -2.621  -3.565  0.00  0.00     0.064 H 
BRANCH  18  29
ATOM     29  C   LIG d   1       9.449  -2.110  -5.491  0.00  0.00     0.012 C 
ATOM     30  H   LIG d   1       9.266  -2.818  -4.683  0.00  0.00     0.046 H 
ATOM     31  H   LIG d   1       9.028  -2.500  -6.418  0.00  0.00     0.046 H 
ATOM     32  H   LIG d   1      10.522  -1.965  -5.611  0.00  0.00     0.046 H 
ENDBRANCH  18  29
BRANCH  24  33
ATOM     33  O   LIG d   1       4.643   0.677  -1.922  0.00  0.00    -0.495 OA
BRANCH  33  34
ATOM     34  C   LIG d   1       3.571   1.361  -2.571  0.00  0.00     0.079 C 
ATOM     35  H   LIG d   1       2.673   0.745  -2.537  0.00  0.00     0.066 H 
ATOM     36  H   LIG d   1       3.383   2.307  -2.062  0.00  0.00     0.066 H 
ATOM     37  H   LIG d   1       3.840   1.556  -3.609  0.00  0.00     0.066 H 
ENDBRANCH  33  34
ENDBRANCH  24  33
ENDBRANCH   1  16
BRANCH   8  38
ATOM     38  O   LIG d   1      10.869   8.467  -1.777  0.00  0.00    -0.420 OA
BRANCH  38  39
ATOM     39  C   LIG d   1      10.212   8.988  -0.720  0.00  0.00     0.380 C 
ATOM     40  O   LIG d   1       8.997   9.055  -0.731  0.00  0.00    -0.241 OA
BRANCH  39  41
ATOM     41  C   LIG d   1      10.961   9.474   0.442  0.00  0.00     0.212 A 
ATOM     42  O   LIG d   1      11.140  10.767   0.783  0.00  0.00    -0.456 OA
ATOM     43  C   LIG d   1      11.874  10.833   1.902  0.00  0.00     0.093 A 
ATOM     44  C   LIG d   1      12.186   9.577   2.293  0.00  0.00    -0.023 A 
ATOM     45  H   LIG d   1      12.172  11.740   2.407  0.00  0.00     0.103 H 
ATOM     46  C   LIG d   1      11.606   8.699   1.363  0.00  0.00    -0.009 A 
ATOM     47  H   LIG d   1      12.771   9.300   3.157  0.00  0.00     0.065 H 
ATOM     48  H   LIG d   1      11.659   7.621   1.375  0.00  0.00     0.066 H 
ENDBRANCH  39  41
ENDBRANCH  38  39
ENDBRANCH   8  38
TORSDOF 7
ENDMDL
MODEL 2
REMARK VINA RESULT:      -6.6      1.539      2.307
REMARK  7 active torsions:
REMARK  status: ('A' for Active; 'I' for Inactive)
REMARK    1  A    between atoms: C_1  and  N_2 
REMARK    2  A    between atoms: C_4  and  C_13 
REMARK    3  A    between atoms: C_9  and  O_11 
REMARK    4  A    between atoms: O_11  and  C_12 
REMARK    5  A    between atoms: C_20  and  O_24 
REMARK    6  A    between atoms: O_24  and  C_25 
REMARK    7  A    between atoms: C_25  and  C_27 
ROOT
ATOM      1  C   LIG d   1       8.442   2.576  -5.524  0.00  0.00    -0.006 C 
ATOM      2  C   LIG d   1       9.030   3.462  -4.670  0.00  0.00     0.176 A 
ATOM      3  C   LIG d   1       9.721   3.129  -3.475  0.00  0.00     0.232 A 
ATOM      4  O   LIG d   1       9.906   2.016  -3.013  0.00  0.00    -0.283 OA
ATOM      5  C   LIG d   1      10.166   4.417  -2.916  0.00  0.00     0.068 A 
ATOM      6  C   LIG d   1      10.883   4.771  -1.773  0.00  0.00    -0.044 A 
ATOM      7  C   LIG d   1      11.146   6.087  -1.517  0.00  0.00    -0.018 A 
ATOM      8  C   LIG d   1      10.703   7.075  -2.391  0.00  0.00     0.136 A 
ATOM      9  C   LIG d   1       9.986   6.738  -3.528  0.00  0.00     0.024 A 
ATOM     10  C   LIG d   1       9.713   5.405  -3.805  0.00  0.00     0.143 A 
ATOM     11  O   LIG d   1       9.052   4.807  -4.820  0.00  0.00    -0.451 OA
ATOM     12  H   LIG d   1       8.047   2.918  -6.469  0.00  0.00     0.066 H 
ATOM     13  H   LIG d   1      11.228   4.007  -1.092  0.00  0.00     0.063 H 
ATOM     14  H   LIG d   1      11.702   6.362  -0.632  0.00  0.00     0.065 H 
ATOM     15  H   LIG d   1       9.642   7.512  -4.199  0.00  0.00     0.069 H 
ENDROOT
BRANCH   1  16
ATOM     16  C   LIG d   1       8.346   1.164  -5.159  0.00  0.00     0.004 A 
ATOM     17  C   LIG d   1       9.140   0.136  -5.620  0.00  0.00     0.013 A 
ATOM     18  N   LIG d   1       8.747  -1.030  -5.049  0.00  0.00    -0.349 N 
ATOM     19  H   LIG d   1       9.951   0.242  -6.325  0.00  0.00     0.082 H 
ATOM     20  C   LIG d   1       7.677  -0.817  -4.201  0.00  0.00     0.050 A 
ATOM     21  C   LIG d   1       7.377   0.554  -4.228  0.00  0.00     0.011 A 
ATOM     22  C   LIG d   1       6.921  -1.666  -3.400  0.00  0.00    -0.034 A 
ATOM     23  C   LIG d   1       6.331   1.057  -3.459  0.00  0.00    -0.010 A 
ATOM     24  C   LIG d   1       5.589   0.199  -2.669  0.00  0.00     0.121 A 
ATOM     25  H   LIG d   1       6.101   2.112  -3.480  0.00  0.00     0.066 H 
ATOM     26  C   LIG d   1       5.887  -1.160  -2.642  0.00  0.00    -0.018 A 
ATOM     27  H   LIG d   1       5.303  -1.824  -2.022  0.00  0.00     0.066 H 
ATOM     28  H   LIG d   1       7.143  -2.723  -3.372  0.00  0.00     0.064 H 
BRANCH  18  29
ATOM     29  C   LIG d   1       9.366  -2.333  -5.301  0.00  0.00     0.012 C 
ATOM     30  H   LIG d   1       8.713  -3.124  -4.931  0.00  0.00     0.046 H 
ATOM     31  H   LIG d   1       9.519  -2.461  -6.373  0.00  0.00     0.046 H 
ATOM     32  H   LIG d   1      10.326  -2.385  -4.788  0.00  0.00     0.046 H 
ENDBRANCH  18  29
BRANCH  24  33
ATOM     33  O   LIG d   1       4.566   0.683  -1.915  0.00  0.00    -0.495 OA
BRANCH  33  34
ATOM     34  C   LIG d   1       3.557   1.432  -2.594  0.00  0.00     0.079 C 
ATOM     35  H   LIG d   1       3.969   2.388  -2.916  0.00  0.00     0.066 H 
ATOM     36  H   LIG d   1       3.213   0.872  -3.464  0.00  0.00     0.066 H 
ATOM     37  H   LIG d   1       2.718   1.605  -1.920  0.00  0.00     0.066 H 
ENDBRANCH  33  34
ENDBRANCH  24  33
ENDBRANCH   1  16
BRANCH   8  38
ATOM     38  O   LIG d   1      10.971   8.380  -2.127  0.00  0.00    -0.420 OA
BRANCH  38  39
ATOM     39  C   LIG d   1       9.937   9.190  -1.823  0.00  0.00     0.380 C 
ATOM     40  O   LIG d   1       9.305   9.012  -0.798  0.00  0.00    -0.241 OA
BRANCH  39  41
ATOM     41  C   LIG d   1       9.572  10.284  -2.726  0.00  0.00     0.212 A 
ATOM     42  O   LIG d   1       8.915  11.411  -2.380  0.00  0.00    -0.456 OA
ATOM     43  C   LIG d   1       8.757  12.182  -3.464  0.00  0.00     0.093 A 
ATOM     44  C   LIG d   1       9.306  11.556  -4.528  0.00  0.00    -0.023 A 
ATOM     45  H   LIG d   1       8.268  13.145  -3.484  0.00  0.00     0.103 H 
ATOM     46  C   LIG d   1       9.830  10.338  -4.067  0.00  0.00    -0.009 A 
ATOM     47  H   LIG d   1       9.335  11.923  -5.543  0.00  0.00     0.065 H 
ATOM     48  H   LIG d   1      10.338   9.591  -4.656  0.00  0.00     0.066 H 
ENDBRANCH  39  41
ENDBRANCH  38  39
ENDBRANCH   8  38
TORSDOF 7
ENDMDL
MODEL 3
REMARK VINA RESULT:      -6.5      2.685      9.097
REMARK  7 active torsions:
REMARK  status: ('A' for Active; 'I' for Inactive)
REMARK    1  A    between atoms: C_1  and  N_2 
REMARK    2  A    between atoms: C_4  and  C_13 
REMARK    3  A    between atoms: C_9  and  O_11 
REMARK    4  A    between atoms: O_11  and  C_12 
REMARK    5  A    between atoms: C_20  and  O_24 
REMARK    6  A    between atoms: O_24  and  C_25 
REMARK    7  A    between atoms: C_25  and  C_27 
ROOT
ATOM      1  C   LIG d   1      10.729   4.824  -4.851  0.00  0.00    -0.006 C 
ATOM      2  C   LIG d   1       9.876   3.761  -4.830  0.00  0.00     0.176 A 
ATOM      3  C   LIG d   1       9.512   3.011  -3.681  0.00  0.00     0.232 A 
ATOM      4  O   LIG d   1       9.891   3.183  -2.535  0.00  0.00    -0.283 OA
ATOM      5  C   LIG d   1       8.580   1.981  -4.172  0.00  0.00     0.068 A 
ATOM      6  C   LIG d   1       7.878   0.948  -3.552  0.00  0.00    -0.044 A 
ATOM      7  C   LIG d   1       7.068   0.135  -4.295  0.00  0.00    -0.018 A 
ATOM      8  C   LIG d   1       6.942   0.335  -5.667  0.00  0.00     0.136 A 
ATOM      9  C   LIG d   1       7.637   1.355  -6.297  0.00  0.00     0.024 A 
ATOM     10  C   LIG d   1       8.460   2.192  -5.555  0.00  0.00     0.143 A 
ATOM     11  O   LIG d   1       9.234   3.243  -5.904  0.00  0.00    -0.451 OA
ATOM     12  H   LIG d   1      10.847   5.405  -5.754  0.00  0.00     0.066 H 
ATOM     13  H   LIG d   1       7.973   0.790  -2.488  0.00  0.00     0.063 H 
ATOM     14  H   LIG d   1       6.523  -0.664  -3.816  0.00  0.00     0.065 H 
ATOM     15  H   LIG d   1       7.537   1.500  -7.362  0.00  0.00     0.069 H 
ENDROOT
BRANCH   1  16
ATOM     16  C   LIG d   1      11.484   5.178  -3.651  0.00  0.00     0.004 A 
ATOM     17  C   LIG d   1      12.764   4.779  -3.331  0.00  0.00     0.013 A 
ATOM     18  N   LIG d   1      13.120   5.315  -2.138  0.00  0.00    -0.349 N 
ATOM     19  H   LIG d   1      13.388   4.139  -3.938  0.00  0.00     0.082 H 
ATOM     20  C   LIG d   1      12.090   6.078  -1.622  0.00  0.00     0.050 A 
ATOM     21  C   LIG d   1      11.025   6.029  -2.535  0.00  0.00     0.011 A 
ATOM     22  C   LIG d   1      11.952   6.816  -0.451  0.00  0.00    -0.034 A 
ATOM     23  C   LIG d   1       9.843   6.716  -2.269  0.00  0.00    -0.010 A 
ATOM     24  C   LIG d   1       9.723   7.444  -1.100  0.00  0.00     0.121 A 
ATOM     25  H   LIG d   1       9.024   6.678  -2.972  0.00  0.00     0.066 H 
ATOM     26  C   LIG d   1      10.779   7.491  -0.195  0.00  0.00    -0.018 A 
ATOM     27  H   LIG d   1      10.678   8.062   0.716  0.00  0.00     0.066 H 
ATOM     28  H   LIG d   1      12.766   6.859   0.259  0.00  0.00     0.064 H 
BRANCH  18  29
ATOM     29  C   LIG d   1      14.415   5.110  -1.484  0.00  0.00     0.012 C 
ATOM     30  H   LIG d   1      15.016   6.015  -1.576  0.00  0.00     0.046 H 
ATOM     31  H   LIG d   1      14.257   4.884  -0.429  0.00  0.00     0.046 H 
ATOM     32  H   LIG d   1      14.934   4.279  -1.960  0.00  0.00     0.046 H 
ENDBRANCH  18  29
BRANCH  24  33
ATOM     33  O   LIG d   1       8.572   8.116  -0.834  0.00  0.00    -0.495 OA
BRANCH  33  34
ATOM     34  C   LIG d   1       8.655   9.539  -0.749  0.00  0.00     0.079 C 
ATOM     35  H   LIG d   1       8.815   9.953  -1.744  0.00  0.00     0.066 H 
ATOM     36  H   LIG d   1       7.726   9.933  -0.336  0.00  0.00     0.066 H 
ATOM     37  H   LIG d   1       9.486   9.816  -0.101  0.00  0.00     0.066 H 
ENDBRANCH  33  34
ENDBRANCH  24  33
ENDBRANCH   1  16
BRANCH   8  38
ATOM     38  O   LIG d   1       6.134  -0.478  -6.395  0.00  0.00    -0.420 OA
BRANCH  38  39
ATOM     39  C   LIG d   1       4.805  -0.248  -6.359  0.00  0.00     0.380 C 
ATOM     40  O   LIG d   1       4.241   0.216  -7.332  0.00  0.00    -0.241 OA
BRANCH  39  41
ATOM     41  C   LIG d   1       4.041  -0.554  -5.147  0.00  0.00     0.212 A 
ATOM     42  O   LIG d   1       4.236  -1.615  -4.336  0.00  0.00    -0.456 OA
ATOM     43  C   LIG d   1       3.354  -1.570  -3.329  0.00  0.00     0.093 A 
ATOM     44  C   LIG d   1       2.571  -0.479  -3.483  0.00  0.00    -0.023 A 
ATOM     45  H   LIG d   1       3.278  -2.289  -2.526  0.00  0.00     0.103 H 
ATOM     46  C   LIG d   1       3.003   0.179  -4.646  0.00  0.00    -0.009 A 
ATOM     47  H   LIG d   1       1.765  -0.170  -2.834  0.00  0.00     0.065 H 
ATOM     48  H   LIG d   1       2.594   1.086  -5.063  0.00  0.00     0.066 H 
ENDBRANCH  39  41
ENDBRANCH  38  39
ENDBRANCH   8  38
TORSDOF 7
ENDMDL
MODEL 4
REMARK VINA RESULT:      -6.4      1.528      2.155
REMARK  7 active torsions:
REMARK  status: ('A' for Active; 'I' for Inactive)
REMARK    1  A    between atoms: C_1  and  N_2 
REMARK    2  A    between atoms: C_4  and  C_13 
REMARK    3  A    between atoms: C_9  and  O_11 
REMARK    4  A    between atoms: O_11  and  C_12 
REMARK    5  A    between atoms: C_20  and  O_24 
REMARK    6  A    between atoms: O_24  and  C_25 
REMARK    7  A    between atoms: C_25  and  C_27 
ROOT
ATOM      1  C   LIG d   1       9.232   4.296  -4.820  0.00  0.00    -0.006 C 
ATOM      2  C   LIG d   1       9.640   4.874  -3.655  0.00  0.00     0.176 A 
ATOM      3  C   LIG d   1      10.349   4.224  -2.610  0.00  0.00     0.232 A 
ATOM      4  O   LIG d   1      10.710   3.061  -2.573  0.00  0.00    -0.283 OA
ATOM      5  C   LIG d   1      10.554   5.259  -1.582  0.00  0.00     0.068 A 
ATOM      6  C   LIG d   1      11.172   5.262  -0.332  0.00  0.00    -0.044 A 
ATOM      7  C   LIG d   1      11.201   6.409   0.410  0.00  0.00    -0.018 A 
ATOM      8  C   LIG d   1      10.616   7.574  -0.077  0.00  0.00     0.136 A 
ATOM      9  C   LIG d   1       9.994   7.586  -1.315  0.00  0.00     0.024 A 
ATOM     10  C   LIG d   1       9.960   6.429  -2.083  0.00  0.00     0.143 A 
ATOM     11  O   LIG d   1       9.435   6.164  -3.299  0.00  0.00    -0.451 OA
ATOM     12  H   LIG d   1       8.807   4.904  -5.605  0.00  0.00     0.066 H 
ATOM     13  H   LIG d   1      11.627   4.359   0.049  0.00  0.00     0.063 H 
ATOM     14  H   LIG d   1      11.681   6.411   1.378  0.00  0.00     0.065 H 
ATOM     15  H   LIG d   1       9.539   8.493  -1.683  0.00  0.00     0.069 H 
ENDROOT
BRANCH   1  16
ATOM     16  C   LIG d   1       9.370   2.854  -5.007  0.00  0.00     0.004 A 
ATOM     17  C   LIG d   1      10.374   2.201  -5.691  0.00  0.00     0.013 A 
ATOM     18  N   LIG d   1      10.159   0.863  -5.641  0.00  0.00    -0.349 N 
ATOM     19  H   LIG d   1      11.204   2.681  -6.188  0.00  0.00     0.082 H 
ATOM     20  C   LIG d   1       9.005   0.583  -4.934  0.00  0.00     0.050 A 
ATOM     21  C   LIG d   1       8.460   1.804  -4.507  0.00  0.00     0.011 A 
ATOM     22  C   LIG d   1       8.358  -0.605  -4.610  0.00  0.00    -0.034 A 
ATOM     23  C   LIG d   1       7.282   1.823  -3.765  0.00  0.00    -0.010 A 
ATOM     24  C   LIG d   1       6.651   0.634  -3.452  0.00  0.00     0.121 A 
ATOM     25  H   LIG d   1       6.863   2.763  -3.436  0.00  0.00     0.066 H 
ATOM     26  C   LIG d   1       7.193  -0.577  -3.876  0.00  0.00    -0.018 A 
ATOM     27  H   LIG d   1       6.695  -1.502  -3.627  0.00  0.00     0.066 H 
ATOM     28  H   LIG d   1       8.769  -1.549  -4.935  0.00  0.00     0.064 H 
BRANCH  18  29
ATOM     29  C   LIG d   1      11.026  -0.145  -6.256  0.00  0.00     0.012 C 
ATOM     30  H   LIG d   1      11.886   0.346  -6.713  0.00  0.00     0.046 H 
ATOM     31  H   LIG d   1      11.369  -0.843  -5.493  0.00  0.00     0.046 H 
ATOM     32  H   LIG d   1      10.469  -0.686  -7.020  0.00  0.00     0.046 H 
ENDBRANCH  18  29
BRANCH  24  33
ATOM     33  O   LIG d   1       5.501   0.645  -2.728  0.00  0.00    -0.495 OA
BRANCH  33  34
ATOM     34  C   LIG d   1       4.876  -0.616  -2.482  0.00  0.00     0.079 C 
ATOM     35  H   LIG d   1       5.478  -1.189  -1.777  0.00  0.00     0.066 H 
ATOM     36  H   LIG d   1       3.882  -0.453  -2.064  0.00  0.00     0.066 H 
ATOM     37  H   LIG d   1       4.789  -1.167  -3.419  0.00  0.00     0.066 H 
ENDBRANCH  33  34
ENDBRANCH  24  33
ENDBRANCH   1  16
BRANCH   8  38
ATOM     38  O   LIG d   1      10.651   8.709   0.669  0.00  0.00    -0.420 OA
BRANCH  38  39
ATOM     39  C   LIG d   1      11.854   9.155   1.086  0.00  0.00     0.380 C 
ATOM     40  O   LIG d   1      12.735   9.377   0.277  0.00  0.00    -0.241 OA
BRANCH  39  41
ATOM     41  C   LIG d   1      12.101   9.371   2.514  0.00  0.00     0.212 A 
ATOM     42  O   LIG d   1      11.933   8.458   3.493  0.00  0.00    -0.456 OA
ATOM     43  C   LIG d   1      12.255   9.007   4.671  0.00  0.00     0.093 A 
ATOM     44  C   LIG d   1      12.629  10.290   4.466  0.00  0.00    -0.023 A 
ATOM     45  H   LIG d   1      12.219   8.509   5.629  0.00  0.00     0.103 H 
ATOM     46  C   LIG d   1      12.532  10.533   3.087  0.00  0.00    -0.009 A 
ATOM     47  H   LIG d   1      12.942  10.996   5.221  0.00  0.00     0.065 H 
ATOM     48  H   LIG d   1      12.756  11.459   2.579  0.00  0.00     0.066 H 
ENDBRANCH  39  41
ENDBRANCH  38  39
ENDBRANCH   8  38
TORSDOF 7
ENDMDL
MODEL 5
REMARK VINA RESULT:      -6.3      7.139     10.246
REMARK  7 active torsions:
REMARK  status: ('A' for Active; 'I' for Inactive)
REMARK    1  A    between atoms: C_1  and  N_2 
REMARK    2  A    between atoms: C_4  and  C_13 
REMARK    3  A    between atoms: C_9  and  O_11 
REMARK    4  A    between atoms: O_11  and  C_12 
REMARK    5  A    between atoms: C_20  and  O_24 
REMARK    6  A    between atoms: O_24  and  C_25 
REMARK    7  A    between atoms: C_25  and  C_27 
ROOT
ATOM      1  C   LIG d   1       2.909   0.701 -10.098  0.00  0.00    -0.006 C 
ATOM      2  C   LIG d   1       3.243   0.161  -8.891  0.00  0.00     0.176 A 
ATOM      3  C   LIG d   1       4.005  -1.021  -8.693  0.00  0.00     0.232 A 
ATOM      4  O   LIG d   1       4.484  -1.745  -9.549  0.00  0.00    -0.283 OA
ATOM      5  C   LIG d   1       4.091  -1.184  -7.232  0.00  0.00     0.068 A 
ATOM      6  C   LIG d   1       4.692  -2.132  -6.405  0.00  0.00    -0.044 A 
ATOM      7  C   LIG d   1       4.595  -2.011  -5.048  0.00  0.00    -0.018 A 
ATOM      8  C   LIG d   1       3.897  -0.945  -4.487  0.00  0.00     0.136 A 
ATOM      9  C   LIG d   1       3.290   0.003  -5.296  0.00  0.00     0.024 A 
ATOM     10  C   LIG d   1       3.384  -0.104  -6.677  0.00  0.00     0.143 A 
ATOM     11  O   LIG d   1       2.902   0.661  -7.680  0.00  0.00    -0.451 OA
ATOM     12  H   LIG d   1       2.431   1.668 -10.143  0.00  0.00     0.066 H 
ATOM     13  H   LIG d   1       5.234  -2.961  -6.837  0.00  0.00     0.063 H 
ATOM     14  H   LIG d   1       5.061  -2.744  -4.407  0.00  0.00     0.065 H 
ATOM     15  H   LIG d   1       2.747   0.824  -4.852  0.00  0.00     0.069 H 
ENDROOT
BRANCH   1  16
ATOM     16  C   LIG d   1       3.198  -0.030 -11.330  0.00  0.00     0.004 A 
ATOM     17  C   LIG d   1       4.330   0.079 -12.110  0.00  0.00     0.013 A 
ATOM     18  N   LIG d   1       4.232  -0.762 -13.168  0.00  0.00    -0.349 N 
ATOM     19  H   LIG d   1       5.166   0.732 -11.907  0.00  0.00     0.082 H 
ATOM     20  C   LIG d   1       3.033  -1.448 -13.133  0.00  0.00     0.050 A 
ATOM     21  C   LIG d   1       2.334  -1.027 -11.991  0.00  0.00     0.011 A 
ATOM     22  C   LIG d   1       2.462  -2.401 -13.972  0.00  0.00    -0.034 A 
ATOM     23  C   LIG d   1       1.080  -1.560 -11.702  0.00  0.00    -0.010 A 
ATOM     24  C   LIG d   1       0.527  -2.504 -12.546  0.00  0.00     0.121 A 
ATOM     25  H   LIG d   1       0.543  -1.235 -10.824  0.00  0.00     0.066 H 
ATOM     26  C   LIG d   1       1.221  -2.922 -13.678  0.00  0.00    -0.018 A 
ATOM     27  H   LIG d   1       0.783  -3.660 -14.333  0.00  0.00     0.066 H 
ATOM     28  H   LIG d   1       2.992  -2.731 -14.853  0.00  0.00     0.064 H 
BRANCH  18  29
ATOM     29  C   LIG d   1       5.253  -0.918 -14.207  0.00  0.00     0.012 C 
ATOM     30  H   LIG d   1       5.094  -0.172 -14.987  0.00  0.00     0.046 H 
ATOM     31  H   LIG d   1       6.241  -0.780 -13.769  0.00  0.00     0.046 H 
ATOM     32  H   LIG d   1       5.182  -1.915 -14.640  0.00  0.00     0.046 H 
ENDBRANCH  18  29
BRANCH  24  33
ATOM     33  O   LIG d   1      -0.697  -3.028 -12.271  0.00  0.00    -0.495 OA
BRANCH  33  34
ATOM     34  C   LIG d   1      -0.744  -4.403 -11.886  0.00  0.00     0.079 C 
ATOM     35  H   LIG d   1      -0.303  -5.015 -12.673  0.00  0.00     0.066 H 
ATOM     36  H   LIG d   1      -0.184  -4.540 -10.961  0.00  0.00     0.066 H 
ATOM     37  H   LIG d   1      -1.781  -4.701 -11.731  0.00  0.00     0.066 H 
ENDBRANCH  33  34
ENDBRANCH  24  33
ENDBRANCH   1  16
BRANCH   8  38
ATOM     38  O   LIG d   1       3.807  -0.833  -3.137  0.00  0.00    -0.420 OA
BRANCH  38  39
ATOM     39  C   LIG d   1       4.519   0.141  -2.533  0.00  0.00     0.380 C 
ATOM     40  O   LIG d   1       4.069   0.707  -1.555  0.00  0.00    -0.241 OA
BRANCH  39  41
ATOM     41  C   LIG d   1       5.834   0.519  -3.056  0.00  0.00     0.212 A 
ATOM     42  O   LIG d   1       6.235   1.771  -3.361  0.00  0.00    -0.456 OA
ATOM     43  C   LIG d   1       7.496   1.735  -3.810  0.00  0.00     0.093 A 
ATOM     44  C   LIG d   1       7.924   0.453  -3.808  0.00  0.00    -0.023 A 
ATOM     45  H   LIG d   1       8.076   2.590  -4.126  0.00  0.00     0.103 H 
ATOM     46  C   LIG d   1       6.866  -0.335  -3.328  0.00  0.00    -0.009 A 
ATOM     47  H   LIG d   1       8.896   0.100  -4.119  0.00  0.00     0.065 H 
ATOM     48  H   LIG d   1       6.868  -1.406  -3.198  0.00  0.00     0.066 H 
ENDBRANCH  39  41
ENDBRANCH  38  39
ENDBRANCH   8  38
TORSDOF 7
ENDMDL
MODEL 6
REMARK VINA RESULT:      -6.3      8.891     12.346
REMARK  7 active torsions:
REMARK  status: ('A' for Active; 'I' for Inactive)
REMARK    1  A    between atoms: C_1  and  N_2 
REMARK    2  A    between atoms: C_4  and  C_13 
REMARK    3  A    between atoms: C_9  and  O_11 
REMARK    4  A    between atoms: O_11  and  C_12 
REMARK    5  A    between atoms: C_20  and  O_24 
REMARK    6  A    between atoms: O_24  and  C_25 
REMARK    7  A    between atoms: C_25  and  C_27 
ROOT
ATOM      1  C   LIG d   1       1.956  -4.311 -10.749  0.00  0.00    -0.006 C 
ATOM      2  C   LIG d   1       2.369  -3.250  -9.998  0.00  0.00     0.176 A 
ATOM      3  C   LIG d   1       1.798  -1.951 -10.013  0.00  0.00     0.232 A 
ATOM      4  O   LIG d   1       0.857  -1.563 -10.685  0.00  0.00    -0.283 OA
ATOM      5  C   LIG d   1       2.586  -1.172  -9.042  0.00  0.00     0.068 A 
ATOM      6  C   LIG d   1       2.532   0.150  -8.601  0.00  0.00    -0.044 A 
ATOM      7  C   LIG d   1       3.424   0.592  -7.666  0.00  0.00    -0.018 A 
ATOM      8  C   LIG d   1       4.387  -0.272  -7.151  0.00  0.00     0.136 A 
ATOM      9  C   LIG d   1       4.456  -1.587  -7.583  0.00  0.00     0.024 A 
ATOM     10  C   LIG d   1       3.553  -2.052  -8.530  0.00  0.00     0.143 A 
ATOM     11  O   LIG d   1       3.394  -3.260  -9.114  0.00  0.00    -0.451 OA
ATOM     12  H   LIG d   1       2.376  -5.291 -10.576  0.00  0.00     0.066 H 
ATOM     13  H   LIG d   1       1.787   0.823  -8.999  0.00  0.00     0.063 H 
ATOM     14  H   LIG d   1       3.382   1.615  -7.323  0.00  0.00     0.065 H 
ATOM     15  H   LIG d   1       5.208  -2.249  -7.181  0.00  0.00     0.069 H 
ENDROOT
BRANCH   1  16
ATOM     16  C   LIG d   1       0.944  -4.121 -11.786  0.00  0.00     0.004 A 
ATOM     17  C   LIG d   1       1.155  -3.690 -13.078  0.00  0.00     0.013 A 
ATOM     18  N   LIG d   1      -0.028  -3.645 -13.739  0.00  0.00    -0.349 N 
ATOM     19  H   LIG d   1       2.115  -3.431 -13.500  0.00  0.00     0.082 H 
ATOM     20  C   LIG d   1      -1.062  -4.033 -12.908  0.00  0.00     0.050 A 
ATOM     21  C   LIG d   1      -0.509  -4.347 -11.657  0.00  0.00     0.011 A 
ATOM     22  C   LIG d   1      -2.435  -4.150 -13.097  0.00  0.00    -0.034 A 
ATOM     23  C   LIG d   1      -1.330  -4.773 -10.616  0.00  0.00    -0.010 A 
ATOM     24  C   LIG d   1      -2.693  -4.883 -10.821  0.00  0.00     0.121 A 
ATOM     25  H   LIG d   1      -0.904  -5.014  -9.653  0.00  0.00     0.066 H 
ATOM     26  C   LIG d   1      -3.240  -4.571 -12.062  0.00  0.00    -0.018 A 
ATOM     27  H   LIG d   1      -4.305  -4.660 -12.214  0.00  0.00     0.066 H 
ATOM     28  H   LIG d   1      -2.871  -3.910 -14.056  0.00  0.00     0.064 H 
BRANCH  18  29
ATOM     29  C   LIG d   1      -0.188  -3.236 -15.136  0.00  0.00     0.012 C 
ATOM     30  H   LIG d   1      -1.211  -2.893 -15.299  0.00  0.00     0.046 H 
ATOM     31  H   LIG d   1       0.507  -2.426 -15.359  0.00  0.00     0.046 H 
ATOM     32  H   LIG d   1       0.019  -4.082 -15.789  0.00  0.00     0.046 H 
ENDBRANCH  18  29
BRANCH  24  33
ATOM     33  O   LIG d   1      -3.500  -5.297  -9.808  0.00  0.00    -0.495 OA
BRANCH  33  34
ATOM     34  C   LIG d   1      -3.030  -6.380  -9.004  0.00  0.00     0.079 C 
ATOM     35  H   LIG d   1      -3.409  -6.269  -7.988  0.00  0.00     0.066 H 
ATOM     36  H   LIG d   1      -3.382  -7.323  -9.424  0.00  0.00     0.066 H 
ATOM     37  H   LIG d   1      -1.940  -6.375  -8.989  0.00  0.00     0.066 H 
ENDBRANCH  33  34
ENDBRANCH  24  33
ENDBRANCH   1  16
BRANCH   8  38
ATOM     38  O   LIG d   1       5.268   0.177  -6.221  0.00  0.00    -0.420 OA
BRANCH  38  39
ATOM     39  C   LIG d   1       5.617  -0.660  -5.222  0.00  0.00     0.380 C 
ATOM     40  O   LIG d   1       6.730  -1.149  -5.198  0.00  0.00    -0.241 OA
BRANCH  39  41
ATOM     41  C   LIG d   1       4.653  -0.983  -4.167  0.00  0.00     0.212 A 
ATOM     42  O   LIG d   1       3.495  -0.333  -3.927  0.00  0.00    -0.456 OA
ATOM     43  C   LIG d   1       2.873  -0.905  -2.887  0.00  0.00     0.093 A 
ATOM     44  C   LIG d   1       3.631  -1.929  -2.436  0.00  0.00    -0.023 A 
ATOM     45  H   LIG d   1       1.924  -0.596  -2.474  0.00  0.00     0.103 H 
ATOM     46  C   LIG d   1       4.774  -1.987  -3.249  0.00  0.00    -0.009 A 
ATOM     47  H   LIG d   1       3.400  -2.581  -1.606  0.00  0.00     0.065 H 
ATOM     48  H   LIG d   1       5.589  -2.689  -3.164  0.00  0.00     0.066 H 
ENDBRANCH  39  41
ENDBRANCH  38  39
ENDBRANCH   8  38
TORSDOF 7
ENDMDL
MODEL 7
REMARK VINA RESULT:      -6.2      3.516      9.335
REMARK  7 active torsions:
REMARK  status: ('A' for Active; 'I' for Inactive)
REMARK    1  A    between atoms: C_1  and  N_2 
REMARK    2  A    between atoms: C_4  and  C_13 
REMARK    3  A    between atoms: C_9  and  O_11 
REMARK    4  A    between atoms: O_11  and  C_12 
REMARK    5  A    between atoms: C_20  and  O_24 
REMARK    6  A    between atoms: O_24  and  C_25 
REMARK    7  A    between atoms: C_25  and  C_27 
ROOT
ATOM      1  C   LIG d   1      10.582   4.729  -5.158  0.00  0.00    -0.006 C 
ATOM      2  C   LIG d   1       9.769   3.638  -5.239  0.00  0.00     0.176 A 
ATOM      3  C   LIG d   1       9.449   2.761  -4.169  0.00  0.00     0.232 A 
ATOM      4  O   LIG d   1       9.836   2.828  -3.015  0.00  0.00    -0.283 OA
ATOM      5  C   LIG d   1       8.548   1.752  -4.754  0.00  0.00     0.068 A 
ATOM      6  C   LIG d   1       7.893   0.635  -4.237  0.00  0.00    -0.044 A 
ATOM      7  C   LIG d   1       7.103  -0.127  -5.051  0.00  0.00    -0.018 A 
ATOM      8  C   LIG d   1       6.951   0.207  -6.393  0.00  0.00     0.136 A 
ATOM      9  C   LIG d   1       7.600   1.312  -6.922  0.00  0.00     0.024 A 
ATOM     10  C   LIG d   1       8.402   2.099  -6.107  0.00  0.00     0.143 A 
ATOM     11  O   LIG d   1       9.132   3.208  -6.353  0.00  0.00    -0.451 OA
ATOM     12  H   LIG d   1      10.666   5.403  -5.998  0.00  0.00     0.066 H 
ATOM     13  H   LIG d   1       8.009   0.373  -3.195  0.00  0.00     0.063 H 
ATOM     14  H   LIG d   1       6.595  -0.992  -4.651  0.00  0.00     0.065 H 
ATOM     15  H   LIG d   1       7.479   1.561  -7.966  0.00  0.00     0.069 H 
ENDROOT
BRANCH   1  16
ATOM     16  C   LIG d   1      11.340   4.986  -3.936  0.00  0.00     0.004 A 
ATOM     17  C   LIG d   1      12.607   4.532  -3.637  0.00  0.00     0.013 A 
ATOM     18  N   LIG d   1      12.972   4.983  -2.411  0.00  0.00    -0.349 N 
ATOM     19  H   LIG d   1      13.216   3.915  -4.280  0.00  0.00     0.082 H 
ATOM     20  C   LIG d   1      11.960   5.741  -1.853  0.00  0.00     0.050 A 
ATOM     21  C   LIG d   1      10.899   5.779  -2.771  0.00  0.00     0.011 A 
ATOM     22  C   LIG d   1      11.837   6.408  -0.638  0.00  0.00    -0.034 A 
ATOM     23  C   LIG d   1       9.735   6.479  -2.466  0.00  0.00    -0.010 A 
ATOM     24  C   LIG d   1       9.629   7.136  -1.255  0.00  0.00     0.121 A 
ATOM     25  H   LIG d   1       8.919   6.509  -3.173  0.00  0.00     0.066 H 
ATOM     26  C   LIG d   1      10.681   7.098  -0.345  0.00  0.00    -0.018 A 
ATOM     27  H   LIG d   1      10.591   7.614   0.600  0.00  0.00     0.066 H 
ATOM     28  H   LIG d   1      12.647   6.384   0.076  0.00  0.00     0.064 H 
BRANCH  18  29
ATOM     29  C   LIG d   1      14.257   4.702  -1.767  0.00  0.00     0.012 C 
ATOM     30  H   LIG d   1      14.623   5.604  -1.276  0.00  0.00     0.046 H 
ATOM     31  H   LIG d   1      14.126   3.913  -1.026  0.00  0.00     0.046 H 
ATOM     32  H   LIG d   1      14.977   4.380  -2.518  0.00  0.00     0.046 H 
ENDBRANCH  18  29
BRANCH  24  33
ATOM     33  O   LIG d   1       8.495   7.822  -0.951  0.00  0.00    -0.495 OA
BRANCH  33  34
ATOM     34  C   LIG d   1       8.611   9.238  -0.809  0.00  0.00     0.079 C 
ATOM     35  H   LIG d   1       9.420   9.602  -1.441  0.00  0.00     0.066 H 
ATOM     36  H   LIG d   1       7.674   9.711  -1.107  0.00  0.00     0.066 H 
ATOM     37  H   LIG d   1       8.824   9.483   0.232  0.00  0.00     0.066 H 
ENDBRANCH  33  34
ENDBRANCH  24  33
ENDBRANCH   1  16
BRANCH   8  38
ATOM     38  O   LIG d   1       6.163  -0.557  -7.193  0.00  0.00    -0.420 OA
BRANCH  38  39
ATOM     39  C   LIG d   1       4.873  -0.192  -7.347  0.00  0.00     0.380 C 
ATOM     40  O   LIG d   1       4.033  -0.583  -6.559  0.00  0.00    -0.241 OA
BRANCH  39  41
ATOM     41  C   LIG d   1       4.484   0.673  -8.463  0.00  0.00     0.212 A 
ATOM     42  O   LIG d   1       4.155   1.979  -8.375  0.00  0.00    -0.456 OA
ATOM     43  C   LIG d   1       3.856   2.443  -9.595  0.00  0.00     0.093 A 
ATOM     44  C   LIG d   1       3.982   1.436 -10.488  0.00  0.00    -0.023 A 
ATOM     45  H   LIG d   1       3.560   3.456  -9.828  0.00  0.00     0.103 H 
ATOM     46  C   LIG d   1       4.382   0.297  -9.772  0.00  0.00    -0.009 A 
ATOM     47  H   LIG d   1       3.806   1.496 -11.552  0.00  0.00     0.065 H 
ATOM     48  H   LIG d   1       4.573  -0.685 -10.178  0.00  0.00     0.066 H 
ENDBRANCH  39  41
ENDBRANCH  38  39
ENDBRANCH   8  38
TORSDOF 7
ENDMDL
MODEL 8
REMARK VINA RESULT:      -6.2      9.354     12.902
REMARK  7 active torsions:
REMARK  status: ('A' for Active; 'I' for Inactive)
REMARK    1  A    between atoms: C_1  and  N_2 
REMARK    2  A    between atoms: C_4  and  C_13 
REMARK    3  A    between atoms: C_9  and  O_11 
REMARK    4  A    between atoms: O_11  and  C_12 
REMARK    5  A    between atoms: C_20  and  O_24 
REMARK    6  A    between atoms: O_24  and  C_25 
REMARK    7  A    between atoms: C_25  and  C_27 
ROOT
ATOM      1  C   LIG d   1       1.499  -3.695 -11.652  0.00  0.00    -0.006 C 
ATOM      2  C   LIG d   1       1.857  -2.702 -10.789  0.00  0.00     0.176 A 
ATOM      3  C   LIG d   1       1.498  -1.333 -10.903  0.00  0.00     0.232 A 
ATOM      4  O   LIG d   1       0.820  -0.816 -11.775  0.00  0.00    -0.283 OA
ATOM      5  C   LIG d   1       2.120  -0.673  -9.742  0.00  0.00     0.068 A 
ATOM      6  C   LIG d   1       2.145   0.644  -9.287  0.00  0.00    -0.044 A 
ATOM      7  C   LIG d   1       2.828   0.956  -8.145  0.00  0.00    -0.018 A 
ATOM      8  C   LIG d   1       3.498  -0.037  -7.435  0.00  0.00     0.136 A 
ATOM      9  C   LIG d   1       3.486  -1.350  -7.878  0.00  0.00     0.024 A 
ATOM     10  C   LIG d   1       2.793  -1.683  -9.034  0.00  0.00     0.143 A 
ATOM     11  O   LIG d   1       2.616  -2.857  -9.678  0.00  0.00    -0.451 OA
ATOM     12  H   LIG d   1       1.719  -4.725 -11.412  0.00  0.00     0.066 H 
ATOM     13  H   LIG d   1       1.626   1.417  -9.834  0.00  0.00     0.063 H 
ATOM     14  H   LIG d   1       2.847   1.976  -7.791  0.00  0.00     0.065 H 
ATOM     15  H   LIG d   1       4.013  -2.112  -7.324  0.00  0.00     0.069 H 
ENDROOT
BRANCH   1  16
ATOM     16  C   LIG d   1       0.817  -3.365 -12.901  0.00  0.00     0.004 A 
ATOM     17  C   LIG d   1      -0.518  -3.555 -13.190  0.00  0.00     0.013 A 
ATOM     18  N   LIG d   1      -0.774  -3.121 -14.449  0.00  0.00    -0.349 N 
ATOM     19  H   LIG d   1      -1.246  -3.983 -12.517  0.00  0.00     0.082 H 
ATOM     20  C   LIG d   1       0.378  -2.638 -15.039  0.00  0.00     0.050 A 
ATOM     21  C   LIG d   1       1.420  -2.766 -14.108  0.00  0.00     0.011 A 
ATOM     22  C   LIG d   1       0.644  -2.097 -16.293  0.00  0.00    -0.034 A 
ATOM     23  C   LIG d   1       2.708  -2.354 -14.439  0.00  0.00    -0.010 A 
ATOM     24  C   LIG d   1       2.956  -1.819 -15.689  0.00  0.00     0.121 A 
ATOM     25  H   LIG d   1       3.510  -2.452 -13.722  0.00  0.00     0.066 H 
ATOM     26  C   LIG d   1       1.921  -1.692 -16.612  0.00  0.00    -0.018 A 
ATOM     27  H   LIG d   1       2.122  -1.273 -17.587  0.00  0.00     0.066 H 
ATOM     28  H   LIG d   1      -0.151  -1.995 -17.017  0.00  0.00     0.064 H 
BRANCH  18  29
ATOM     29  C   LIG d   1      -2.089  -3.163 -15.094  0.00  0.00     0.012 C 
ATOM     30  H   LIG d   1      -2.182  -2.323 -15.783  0.00  0.00     0.046 H 
ATOM     31  H   LIG d   1      -2.193  -4.098 -15.645  0.00  0.00     0.046 H 
ATOM     32  H   LIG d   1      -2.868  -3.099 -14.336  0.00  0.00     0.046 H 
ENDBRANCH  18  29
BRANCH  24  33
ATOM     33  O   LIG d   1       4.211  -1.414 -16.019  0.00  0.00    -0.495 OA
BRANCH  33  34
ATOM     34  C   LIG d   1       4.570  -0.073 -15.685  0.00  0.00     0.079 C 
ATOM     35  H   LIG d   1       4.883   0.455 -16.586  0.00  0.00     0.066 H 
ATOM     36  H   LIG d   1       3.711   0.434 -15.245  0.00  0.00     0.066 H 
ATOM     37  H   LIG d   1       5.391  -0.085 -14.967  0.00  0.00     0.066 H 
ENDBRANCH  33  34
ENDBRANCH  24  33
ENDBRANCH   1  16
BRANCH   8  38
ATOM     38  O   LIG d   1       4.173   0.284  -6.301  0.00  0.00    -0.420 OA
BRANCH  38  39
ATOM     39  C   LIG d   1       3.504   0.237  -5.131  0.00  0.00     0.380 C 
ATOM     40  O   LIG d   1       2.691   1.101  -4.860  0.00  0.00    -0.241 OA
BRANCH  39  41
ATOM     41  C   LIG d   1       3.756  -0.852  -4.185  0.00  0.00     0.212 A 
ATOM     42  O   LIG d   1       4.386  -2.013  -4.464  0.00  0.00    -0.456 OA
ATOM     43  C   LIG d   1       4.436  -2.767  -3.358  0.00  0.00     0.093 A 
ATOM     44  C   LIG d   1       3.829  -2.102  -2.349  0.00  0.00    -0.023 A 
ATOM     45  H   LIG d   1       4.884  -3.747  -3.284  0.00  0.00     0.103 H 
ATOM     46  C   LIG d   1       3.389  -0.874  -2.869  0.00  0.00    -0.009 A 
ATOM     47  H   LIG d   1       3.705  -2.450  -1.335  0.00  0.00     0.065 H 
ATOM     48  H   LIG d   1       2.864  -0.099  -2.333  0.00  0.00     0.066 H 
ENDBRANCH  39  41
ENDBRANCH  38  39
ENDBRANCH   8  38
TORSDOF 7
ENDMDL
MODEL 9
REMARK VINA RESULT:      -6.1      6.985     10.899
REMARK  7 active torsions:
REMARK  status: ('A' for Active; 'I' for Inactive)
REMARK    1  A    between atoms: C_1  and  N_2 
REMARK    2  A    between atoms: C_4  and  C_13 
REMARK    3  A    between atoms: C_9  and  O_11 
REMARK    4  A    between atoms: O_11  and  C_12 
REMARK    5  A    between atoms: C_20  and  O_24 
REMARK    6  A    between atoms: O_24  and  C_25 
REMARK    7  A    between atoms: C_25  and  C_27 
ROOT
ATOM      1  C   LIG d   1       7.396  -7.661  -6.024  0.00  0.00    -0.006 C 
ATOM      2  C   LIG d   1       6.906  -6.399  -5.866  0.00  0.00     0.176 A 
ATOM      3  C   LIG d   1       5.576  -6.065  -5.499  0.00  0.00     0.232 A 
ATOM      4  O   LIG d   1       4.658  -6.832  -5.265  0.00  0.00    -0.283 OA
ATOM      5  C   LIG d   1       5.545  -4.593  -5.460  0.00  0.00     0.068 A 
ATOM      6  C   LIG d   1       4.548  -3.661  -5.172  0.00  0.00    -0.044 A 
ATOM      7  C   LIG d   1       4.831  -2.325  -5.223  0.00  0.00    -0.018 A 
ATOM      8  C   LIG d   1       6.110  -1.891  -5.560  0.00  0.00     0.136 A 
ATOM      9  C   LIG d   1       7.109  -2.805  -5.854  0.00  0.00     0.024 A 
ATOM     10  C   LIG d   1       6.838  -4.166  -5.803  0.00  0.00     0.143 A 
ATOM     11  O   LIG d   1       7.607  -5.253  -6.033  0.00  0.00    -0.451 OA
ATOM     12  H   LIG d   1       8.453  -7.814  -6.185  0.00  0.00     0.066 H 
ATOM     13  H   LIG d   1       3.555  -3.994  -4.910  0.00  0.00     0.063 H 
ATOM     14  H   LIG d   1       4.060  -1.603  -4.999  0.00  0.00     0.065 H 
ATOM     15  H   LIG d   1       8.097  -2.460  -6.119  0.00  0.00     0.069 H 
ENDROOT
BRANCH   1  16
ATOM     16  C   LIG d   1       6.491  -8.807  -5.976  0.00  0.00     0.004 A 
ATOM     17  C   LIG d   1       5.826  -9.381  -7.039  0.00  0.00     0.013 A 
ATOM     18  N   LIG d   1       5.084 -10.426  -6.596  0.00  0.00    -0.349 N 
ATOM     19  H   LIG d   1       5.890  -9.052  -8.065  0.00  0.00     0.082 H 
ATOM     20  C   LIG d   1       5.221 -10.574  -5.229  0.00  0.00     0.050 A 
ATOM     21  C   LIG d   1       6.101  -9.577  -4.779  0.00  0.00     0.011 A 
ATOM     22  C   LIG d   1       4.676 -11.469  -4.314  0.00  0.00    -0.034 A 
ATOM     23  C   LIG d   1       6.424  -9.487  -3.427  0.00  0.00    -0.010 A 
ATOM     24  C   LIG d   1       5.873 -10.385  -2.531  0.00  0.00     0.121 A 
ATOM     25  H   LIG d   1       7.100  -8.720  -3.081  0.00  0.00     0.066 H 
ATOM     26  C   LIG d   1       5.002 -11.373  -2.979  0.00  0.00    -0.018 A 
ATOM     27  H   LIG d   1       4.576 -12.071  -2.273  0.00  0.00     0.066 H 
ATOM     28  H   LIG d   1       3.998 -12.239  -4.650  0.00  0.00     0.064 H 
BRANCH  18  29
ATOM     29  C   LIG d   1       4.247 -11.275  -7.448  0.00  0.00     0.012 C 
ATOM     30  H   LIG d   1       4.681 -12.274  -7.503  0.00  0.00     0.046 H 
ATOM     31  H   LIG d   1       3.244 -11.337  -7.025  0.00  0.00     0.046 H 
ATOM     32  H   LIG d   1       4.194 -10.847  -8.448  0.00  0.00     0.046 H 
ENDBRANCH  18  29
BRANCH  24  33
ATOM     33  O   LIG d   1       6.184 -10.303  -1.210  0.00  0.00    -0.495 OA
BRANCH  33  34
ATOM     34  C   LIG d   1       7.528 -10.613  -0.839  0.00  0.00     0.079 C 
ATOM     35  H   LIG d   1       8.217 -10.127  -1.529  0.00  0.00     0.066 H 
ATOM     36  H   LIG d   1       7.716 -10.257   0.175  0.00  0.00     0.066 H 
ATOM     37  H   LIG d   1       7.676 -11.693  -0.877  0.00  0.00     0.066 H 
ENDBRANCH  33  34
ENDBRANCH  24  33
ENDBRANCH   1  16
BRANCH   8  38
ATOM     38  O   LIG d   1       6.381  -0.561  -5.607  0.00  0.00    -0.420 OA
BRANCH  38  39
ATOM     39  C   LIG d   1       6.587   0.084  -4.440  0.00  0.00     0.380 C 
ATOM     40  O   LIG d   1       7.721   0.299  -4.056  0.00  0.00    -0.241 OA
BRANCH  39  41
ATOM     41  C   LIG d   1       5.446   0.525  -3.635  0.00  0.00     0.212 A 
ATOM     42  O   LIG d   1       4.272   0.989  -4.112  0.00  0.00    -0.456 OA
ATOM     43  C   LIG d   1       3.467   1.296  -3.086  0.00  0.00     0.093 A 
ATOM     44  C   LIG d   1       4.117   1.038  -1.930  0.00  0.00    -0.023 A 
ATOM     45  H   LIG d   1       2.464   1.687  -3.170  0.00  0.00     0.103 H 
ATOM     46  C   LIG d   1       5.386   0.545  -2.270  0.00  0.00    -0.009 A 
ATOM     47  H   LIG d   1       3.733   1.185  -0.931  0.00  0.00     0.065 H 
ATOM     48  H   LIG d   1       6.164   0.241  -1.586  0.00  0.00     0.066 H 
ENDBRANCH  39  41
ENDBRANCH  38  39
ENDBRANCH   8  38
TORSDOF 7
ENDMDL
MODEL 10
REMARK VINA RESULT:      -6.1      9.368     12.624
REMARK  7 active torsions:
REMARK  status: ('A' for Active; 'I' for Inactive)
REMARK    1  A    between atoms: C_1  and  N_2 
REMARK    2  A    between atoms: C_4  and  C_13 
REMARK    3  A    between atoms: C_9  and  O_11 
REMARK    4  A    between atoms: O_11  and  C_12 
REMARK    5  A    between atoms: C_20  and  O_24 
REMARK    6  A    between atoms: O_24  and  C_25 
REMARK    7  A    between atoms: C_25  and  C_27 
ROOT
ATOM      1  C   LIG d   1       2.078  -3.705 -11.582  0.00  0.00    -0.006 C 
ATOM      2  C   LIG d   1       2.311  -2.671 -10.726  0.00  0.00     0.176 A 
ATOM      3  C   LIG d   1       2.045  -1.301 -10.987  0.00  0.00     0.232 A 
ATOM      4  O   LIG d   1       1.569  -0.819 -12.001  0.00  0.00    -0.283 OA
ATOM      5  C   LIG d   1       2.466  -0.587  -9.769  0.00  0.00     0.068 A 
ATOM      6  C   LIG d   1       2.465   0.756  -9.394  0.00  0.00    -0.044 A 
ATOM      7  C   LIG d   1       2.933   1.119  -8.163  0.00  0.00    -0.018 A 
ATOM      8  C   LIG d   1       3.410   0.153  -7.281  0.00  0.00     0.136 A 
ATOM      9  C   LIG d   1       3.421  -1.185  -7.641  0.00  0.00     0.024 A 
ATOM     10  C   LIG d   1       2.945  -1.570  -8.887  0.00  0.00     0.143 A 
ATOM     11  O   LIG d   1       2.838  -2.778  -9.483  0.00  0.00    -0.451 OA
ATOM     12  H   LIG d   1       2.200  -4.724 -11.245  0.00  0.00     0.066 H 
ATOM     13  H   LIG d   1       2.096   1.508 -10.076  0.00  0.00     0.063 H 
ATOM     14  H   LIG d   1       2.932   2.159  -7.872  0.00  0.00     0.065 H 
ATOM     15  H   LIG d   1       3.797  -1.927  -6.952  0.00  0.00     0.069 H 
ENDROOT
BRANCH   1  16
ATOM     16  C   LIG d   1       1.661  -3.435 -12.956  0.00  0.00     0.004 A 
ATOM     17  C   LIG d   1       2.481  -3.264 -14.051  0.00  0.00     0.013 A 
ATOM     18  N   LIG d   1       1.723  -3.036 -15.153  0.00  0.00    -0.349 N 
ATOM     19  H   LIG d   1       3.560  -3.308 -14.035  0.00  0.00     0.082 H 
ATOM     20  C   LIG d   1       0.381  -3.037 -14.826  0.00  0.00     0.050 A 
ATOM     21  C   LIG d   1       0.277  -3.285 -13.448  0.00  0.00     0.011 A 
ATOM     22  C   LIG d   1      -0.776  -2.849 -15.576  0.00  0.00    -0.034 A 
ATOM     23  C   LIG d   1      -0.974  -3.342 -12.840  0.00  0.00    -0.010 A 
ATOM     24  C   LIG d   1      -2.114  -3.151 -13.599  0.00  0.00     0.121 A 
ATOM     25  H   LIG d   1      -1.054  -3.532 -11.780  0.00  0.00     0.066 H 
ATOM     26  C   LIG d   1      -2.010  -2.906 -14.965  0.00  0.00    -0.018 A 
ATOM     27  H   LIG d   1      -2.904  -2.759 -15.552  0.00  0.00     0.066 H 
ATOM     28  H   LIG d   1      -0.707  -2.657 -16.636  0.00  0.00     0.064 H 
BRANCH  18  29
ATOM     29  C   LIG d   1       2.255  -2.813 -16.499  0.00  0.00     0.012 C 
ATOM     30  H   LIG d   1       1.990  -1.809 -16.833  0.00  0.00     0.046 H 
ATOM     31  H   LIG d   1       3.340  -2.915 -16.483  0.00  0.00     0.046 H 
ATOM     32  H   LIG d   1       1.831  -3.547 -17.183  0.00  0.00     0.046 H 
ENDBRANCH  18  29
BRANCH  24  33
ATOM     33  O   LIG d   1      -3.338  -3.205 -13.011  0.00  0.00    -0.495 OA
BRANCH  33  34
ATOM     34  C   LIG d   1      -3.518  -4.166 -11.971  0.00  0.00     0.079 C 
ATOM     35  H   LIG d   1      -4.456  -3.970 -11.452  0.00  0.00     0.066 H 
ATOM     36  H   LIG d   1      -3.543  -5.168 -12.402  0.00  0.00     0.066 H 
ATOM     37  H   LIG d   1      -2.690  -4.097 -11.265  0.00  0.00     0.066 H 
ENDBRANCH  33  34
ENDBRANCH  24  33
ENDBRANCH   1  16
BRANCH   8  38
ATOM     38  O   LIG d   1       3.872   0.525  -6.059  0.00  0.00    -0.420 OA
BRANCH  38  39
ATOM     39  C   LIG d   1       3.156   0.163  -4.975  0.00  0.00     0.380 C 
ATOM     40  O   LIG d   1       2.007   0.545  -4.849  0.00  0.00    -0.241 OA
BRANCH  39  41
ATOM     41  C   LIG d   1       3.761  -0.688  -3.947  0.00  0.00     0.212 A 
ATOM     42  O   LIG d   1       5.048  -1.092  -3.911  0.00  0.00    -0.456 OA
ATOM     43  C   LIG d   1       5.242  -1.856  -2.829  0.00  0.00     0.093 A 
ATOM     44  C   LIG d   1       4.076  -1.961  -2.154  0.00  0.00    -0.023 A 
ATOM     45  H   LIG d   1       6.177  -2.316  -2.543  0.00  0.00     0.103 H 
ATOM     46  C   LIG d   1       3.120  -1.217  -2.863  0.00  0.00    -0.009 A 
ATOM     47  H   LIG d   1       3.910  -2.514  -1.241  0.00  0.00     0.065 H 
ATOM     48  H   LIG d   1       2.081  -1.087  -2.602  0.00  0.00     0.066 H 
ENDBRANCH  39  41
ENDBRANCH  38  39
ENDBRANCH   8  38
TORSDOF 7
ENDMDL
