MODEL 1
REMARK VINA RESULT:      -7.8      0.000      0.000
REMARK  3 active torsions:
REMARK  status: ('A' for Active; 'I' for Inactive)
REMARK    1  A    between atoms: C_10  and  C_15 
REMARK    2  A    between atoms: C_15  and  C_16 
REMARK       I    between atoms: C_16  and  N_18 
REMARK    3  A    between atoms: N_18  and  C_19 
ROOT
ATOM      1  C   LIG d   1       5.798  -0.531  -6.074  0.00  0.00     0.051 C 
ATOM      2  H   LIG d   1       5.066  -0.300  -5.300  0.00  0.00     0.038 H 
ATOM      3  H   LIG d   1       6.426   0.342  -6.252  0.00  0.00     0.038 H 
ENDROOT
BRANCH   1   4
ATOM      4  C   LIG d   1       6.670  -1.702  -5.618  0.00  0.00     0.108 C 
ATOM      5  N   LIG d   1       5.818  -2.788  -5.132  0.00  0.00    -0.299 N 
ATOM      6  C   LIG d   1       4.943  -2.598  -4.145  0.00  0.00     0.246 C 
ATOM      7  H   LIG d   1       5.890  -3.666  -5.539  0.00  0.00     0.150 HD
ATOM      8  C   LIG d   1       4.726  -1.318  -3.462  0.00  0.00     0.058 A 
ATOM      9  O   LIG d   1       4.279  -3.551  -3.785  0.00  0.00    -0.270 OA
ATOM     10  C   LIG d   1       5.763  -0.450  -3.123  0.00  0.00     0.046 A 
ATOM     11  C   LIG d   1       3.403  -0.965  -3.147  0.00  0.00    -0.048 A 
ATOM     12  C   LIG d   1       5.465   0.756  -2.481  0.00  0.00    -0.040 A 
ATOM     13  N   LIG d   1       7.096  -0.715  -3.385  0.00  0.00    -0.283 N 
ATOM     14  C   LIG d   1       4.163   1.088  -2.182  0.00  0.00    -0.060 A 
ATOM     15  H   LIG d   1       6.263   1.433  -2.218  0.00  0.00     0.064 H 
ATOM     16  C   LIG d   1       3.129   0.225  -2.514  0.00  0.00    -0.061 A 
ATOM     17  H   LIG d   1       3.945   2.022  -1.686  0.00  0.00     0.062 H 
ATOM     18  H   LIG d   1       2.110   0.486  -2.274  0.00  0.00     0.062 H 
ATOM     19  C   LIG d   1       7.573  -1.257  -4.500  0.00  0.00     0.238 C 
ATOM     20  H   LIG d   1       7.737  -0.485  -2.694  0.00  0.00     0.155 HD
ATOM     21  O   LIG d   1       8.771  -1.395  -4.622  0.00  0.00    -0.273 OA
ATOM     22  H   LIG d   1       2.595  -1.633  -3.404  0.00  0.00     0.063 H 
ATOM     23  H   LIG d   1       7.271  -2.057  -6.455  0.00  0.00     0.060 H 
ENDBRANCH   1   4
BRANCH   1  24
ATOM     24  C   LIG d   1       5.082  -0.903  -7.346  0.00  0.00     0.219 C 
ATOM     25  O   LIG d   1       5.464  -1.848  -8.003  0.00  0.00    -0.275 OA
ATOM     26  N   LIG d   1       4.017  -0.184  -7.754  0.00  0.00    -0.285 N 
ATOM     27  H   LIG d   1       3.671   0.530  -7.197  0.00  0.00     0.155 HD
BRANCH  26  28
ATOM     28  C   LIG d   1       3.411  -0.469  -8.985  0.00  0.00     0.035 A 
ATOM     29  C   LIG d   1       2.406  -1.418  -9.052  0.00  0.00    -0.017 A 
ATOM     30  C   LIG d   1       1.802  -1.697 -10.273  0.00  0.00     0.048 A 
ATOM     31  H   LIG d   1       2.092  -1.938  -8.160  0.00  0.00     0.066 H 
ATOM     32  C   LIG d   1       2.229  -1.014 -11.426  0.00  0.00    -0.000 A 
ATOM     33  N   LIG d   1       0.800  -2.559 -10.657  0.00  0.00    -0.361 N 
ATOM     34  C   LIG d   1       3.248  -0.063 -11.339  0.00  0.00    -0.051 A 
ATOM     35  C   LIG d   1       1.411  -1.530 -12.528  0.00  0.00    -0.037 A 
ATOM     36  C   LIG d   1       3.828   0.203 -10.132  0.00  0.00    -0.040 A 
ATOM     37  H   LIG d   1       3.576   0.461 -12.225  0.00  0.00     0.062 H 
ATOM     38  H   LIG d   1       4.616   0.938 -10.067  0.00  0.00     0.064 H 
ATOM     39  C   LIG d   1       0.582  -2.446 -12.004  0.00  0.00     0.003 A 
ATOM     40  H   LIG d   1       1.467  -1.231 -13.564  0.00  0.00     0.064 H 
ATOM     41  H   LIG d   1      -0.151  -3.011 -12.563  0.00  0.00     0.081 H 
ATOM     42  H   LIG d   1       0.321  -3.158 -10.064  0.00  0.00     0.165 HD
ENDBRANCH  26  28
ENDBRANCH   1  24
TORSDOF 3
ENDMDL
MODEL 2
REMARK VINA RESULT:      -7.3      4.135      7.320
REMARK  3 active torsions:
REMARK  status: ('A' for Active; 'I' for Inactive)
REMARK    1  A    between atoms: C_10  and  C_15 
REMARK    2  A    between atoms: C_15  and  C_16 
REMARK       I    between atoms: C_16  and  N_18 
REMARK    3  A    between atoms: N_18  and  C_19 
ROOT
ATOM      1  C   LIG d   1       7.320  -0.394  -3.691  0.00  0.00     0.051 C 
ATOM      2  H   LIG d   1       6.276  -0.471  -3.387  0.00  0.00     0.038 H 
ATOM      3  H   LIG d   1       7.955  -0.841  -2.927  0.00  0.00     0.038 H 
ENDROOT
BRANCH   1   4
ATOM      4  C   LIG d   1       7.521  -1.131  -5.016  0.00  0.00     0.108 C 
ATOM      5  N   LIG d   1       6.683  -0.520  -6.049  0.00  0.00    -0.299 N 
ATOM      6  C   LIG d   1       5.363  -0.416  -5.903  0.00  0.00     0.246 C 
ATOM      7  H   LIG d   1       7.099  -0.182  -6.858  0.00  0.00     0.150 HD
ATOM      8  C   LIG d   1       4.619  -0.871  -4.723  0.00  0.00     0.058 A 
ATOM      9  O   LIG d   1       4.731   0.090  -6.810  0.00  0.00    -0.270 OA
ATOM     10  C   LIG d   1       4.908  -2.057  -4.051  0.00  0.00     0.046 A 
ATOM     11  C   LIG d   1       3.573  -0.056  -4.261  0.00  0.00    -0.048 A 
ATOM     12  C   LIG d   1       4.154  -2.409  -2.928  0.00  0.00    -0.040 A 
ATOM     13  N   LIG d   1       5.914  -2.927  -4.436  0.00  0.00    -0.283 N 
ATOM     14  C   LIG d   1       3.133  -1.599  -2.486  0.00  0.00    -0.060 A 
ATOM     15  H   LIG d   1       4.374  -3.326  -2.402  0.00  0.00     0.064 H 
ATOM     16  C   LIG d   1       2.840  -0.420  -3.155  0.00  0.00    -0.061 A 
ATOM     17  H   LIG d   1       2.557  -1.882  -1.618  0.00  0.00     0.062 H 
ATOM     18  H   LIG d   1       2.035   0.211  -2.810  0.00  0.00     0.062 H 
ATOM     19  C   LIG d   1       7.123  -2.573  -4.859  0.00  0.00     0.238 C 
ATOM     20  H   LIG d   1       5.719  -3.876  -4.394  0.00  0.00     0.155 HD
ATOM     21  O   LIG d   1       7.930  -3.438  -5.125  0.00  0.00    -0.273 OA
ATOM     22  H   LIG d   1       3.340   0.863  -4.778  0.00  0.00     0.063 H 
ATOM     23  H   LIG d   1       8.568  -1.071  -5.313  0.00  0.00     0.060 H 
ENDBRANCH   1   4
BRANCH   1  24
ATOM     24  C   LIG d   1       7.687   1.058  -3.863  0.00  0.00     0.219 C 
ATOM     25  O   LIG d   1       6.817   1.898  -3.942  0.00  0.00    -0.275 OA
ATOM     26  N   LIG d   1       8.984   1.421  -3.931  0.00  0.00    -0.285 N 
ATOM     27  H   LIG d   1       9.681   0.759  -3.803  0.00  0.00     0.155 HD
BRANCH  26  28
ATOM     28  C   LIG d   1       9.323   2.755  -4.188  0.00  0.00     0.035 A 
ATOM     29  C   LIG d   1       9.349   3.218  -5.492  0.00  0.00    -0.017 A 
ATOM     30  C   LIG d   1       9.682   4.544  -5.746  0.00  0.00     0.048 A 
ATOM     31  H   LIG d   1       9.108   2.553  -6.307  0.00  0.00     0.066 H 
ATOM     32  C   LIG d   1       9.998   5.395  -4.671  0.00  0.00    -0.000 A 
ATOM     33  N   LIG d   1       9.789   5.288  -6.900  0.00  0.00    -0.361 N 
ATOM     34  C   LIG d   1       9.972   4.907  -3.363  0.00  0.00    -0.051 A 
ATOM     35  C   LIG d   1      10.303   6.700  -5.264  0.00  0.00    -0.037 A 
ATOM     36  C   LIG d   1       9.639   3.605  -3.129  0.00  0.00    -0.040 A 
ATOM     37  H   LIG d   1      10.216   5.561  -2.537  0.00  0.00     0.062 H 
ATOM     38  H   LIG d   1       9.619   3.230  -2.117  0.00  0.00     0.064 H 
ATOM     39  C   LIG d   1      10.161   6.570  -6.593  0.00  0.00     0.003 A 
ATOM     40  H   LIG d   1      10.589   7.596  -4.734  0.00  0.00     0.064 H 
ATOM     41  H   LIG d   1      10.315   7.360  -7.314  0.00  0.00     0.081 H 
ATOM     42  H   LIG d   1       9.627   4.954  -7.796  0.00  0.00     0.165 HD
ENDBRANCH  26  28
ENDBRANCH   1  24
TORSDOF 3
ENDMDL
MODEL 3
REMARK VINA RESULT:      -7.1      3.648      7.504
REMARK  3 active torsions:
REMARK  status: ('A' for Active; 'I' for Inactive)
REMARK    1  A    between atoms: C_10  and  C_15 
REMARK    2  A    between atoms: C_15  and  C_16 
REMARK       I    between atoms: C_16  and  N_18 
REMARK    3  A    between atoms: N_18  and  C_19 
ROOT
ATOM      1  C   LIG d   1       6.327  -1.463  -5.139  0.00  0.00     0.051 C 
ATOM      2  H   LIG d   1       6.852  -0.916  -5.923  0.00  0.00     0.038 H 
ATOM      3  H   LIG d   1       5.914  -0.758  -4.419  0.00  0.00     0.038 H 
ENDROOT
BRANCH   1   4
ATOM      4  C   LIG d   1       5.195  -2.283  -5.759  0.00  0.00     0.108 C 
ATOM      5  N   LIG d   1       4.179  -1.381  -6.305  0.00  0.00    -0.299 N 
ATOM      6  C   LIG d   1       3.575  -0.471  -5.543  0.00  0.00     0.246 C 
ATOM      7  H   LIG d   1       3.941  -1.448  -7.243  0.00  0.00     0.150 HD
ATOM      8  C   LIG d   1       3.858  -0.258  -4.120  0.00  0.00     0.058 A 
ATOM      9  O   LIG d   1       2.731   0.233  -6.064  0.00  0.00    -0.270 OA
ATOM     10  C   LIG d   1       4.086  -1.302  -3.224  0.00  0.00     0.046 A 
ATOM     11  C   LIG d   1       3.901   1.067  -3.656  0.00  0.00    -0.048 A 
ATOM     12  C   LIG d   1       4.359  -1.007  -1.885  0.00  0.00    -0.040 A 
ATOM     13  N   LIG d   1       4.057  -2.637  -3.586  0.00  0.00    -0.283 N 
ATOM     14  C   LIG d   1       4.400   0.297  -1.447  0.00  0.00    -0.060 A 
ATOM     15  H   LIG d   1       4.539  -1.811  -1.187  0.00  0.00     0.064 H 
ATOM     16  C   LIG d   1       4.169   1.337  -2.335  0.00  0.00    -0.061 A 
ATOM     17  H   LIG d   1       4.611   0.511  -0.411  0.00  0.00     0.062 H 
ATOM     18  H   LIG d   1       4.197   2.359  -1.987  0.00  0.00     0.062 H 
ATOM     19  C   LIG d   1       4.560  -3.148  -4.705  0.00  0.00     0.238 C 
ATOM     20  H   LIG d   1       3.631  -3.254  -2.969  0.00  0.00     0.155 HD
ATOM     21  O   LIG d   1       4.507  -4.346  -4.881  0.00  0.00    -0.273 OA
ATOM     22  H   LIG d   1       3.722   1.882  -4.343  0.00  0.00     0.063 H 
ATOM     23  H   LIG d   1       5.592  -2.910  -6.556  0.00  0.00     0.060 H 
ENDBRANCH   1   4
BRANCH   1  24
ATOM     24  C   LIG d   1       7.292  -2.386  -4.441  0.00  0.00     0.219 C 
ATOM     25  O   LIG d   1       7.376  -2.375  -3.231  0.00  0.00    -0.275 OA
ATOM     26  N   LIG d   1       8.063  -3.224  -5.162  0.00  0.00    -0.285 N 
ATOM     27  H   LIG d   1       7.951  -3.281  -6.123  0.00  0.00     0.155 HD
BRANCH  26  28
ATOM     28  C   LIG d   1       9.028  -4.012  -4.522  0.00  0.00     0.035 A 
ATOM     29  C   LIG d   1       8.762  -5.344  -4.258  0.00  0.00    -0.017 A 
ATOM     30  C   LIG d   1       9.722  -6.128  -3.627  0.00  0.00     0.048 A 
ATOM     31  H   LIG d   1       7.814  -5.774  -4.544  0.00  0.00     0.066 H 
ATOM     32  C   LIG d   1      10.949  -5.549  -3.256  0.00  0.00    -0.000 A 
ATOM     33  N   LIG d   1       9.760  -7.449  -3.241  0.00  0.00    -0.361 N 
ATOM     34  C   LIG d   1      11.197  -4.202  -3.526  0.00  0.00    -0.051 A 
ATOM     35  C   LIG d   1      11.724  -6.619  -2.620  0.00  0.00    -0.037 A 
ATOM     36  C   LIG d   1      10.247  -3.447  -4.150  0.00  0.00    -0.040 A 
ATOM     37  H   LIG d   1      12.141  -3.758  -3.240  0.00  0.00     0.062 H 
ATOM     38  H   LIG d   1      10.441  -2.406  -4.359  0.00  0.00     0.064 H 
ATOM     39  C   LIG d   1      10.961  -7.723  -2.642  0.00  0.00     0.003 A 
ATOM     40  H   LIG d   1      12.719  -6.534  -2.210  0.00  0.00     0.064 H 
ATOM     41  H   LIG d   1      11.251  -8.686  -2.247  0.00  0.00     0.081 H 
ATOM     42  H   LIG d   1       9.044  -8.089  -3.372  0.00  0.00     0.165 HD
ENDBRANCH  26  28
ENDBRANCH   1  24
TORSDOF 3
ENDMDL
MODEL 4
REMARK VINA RESULT:      -7.0      4.005      6.909
REMARK  3 active torsions:
REMARK  status: ('A' for Active; 'I' for Inactive)
REMARK    1  A    between atoms: C_10  and  C_15 
REMARK    2  A    between atoms: C_15  and  C_16 
REMARK       I    between atoms: C_16  and  N_18 
REMARK    3  A    between atoms: N_18  and  C_19 
ROOT
ATOM      1  C   LIG d   1       6.332  -0.775  -5.789  0.00  0.00     0.051 C 
ATOM      2  H   LIG d   1       5.906  -0.682  -4.790  0.00  0.00     0.038 H 
ATOM      3  H   LIG d   1       7.034  -1.608  -5.810  0.00  0.00     0.038 H 
ENDROOT
BRANCH   1   4
ATOM      4  C   LIG d   1       5.211  -1.027  -6.799  0.00  0.00     0.108 C 
ATOM      5  N   LIG d   1       4.201   0.025  -6.684  0.00  0.00    -0.299 N 
ATOM      6  C   LIG d   1       3.583   0.274  -5.530  0.00  0.00     0.246 C 
ATOM      7  H   LIG d   1       3.977   0.555  -7.465  0.00  0.00     0.150 HD
ATOM      8  C   LIG d   1       3.844  -0.442  -4.277  0.00  0.00     0.058 A 
ATOM      9  O   LIG d   1       2.745   1.155  -5.515  0.00  0.00    -0.270 OA
ATOM     10  C   LIG d   1       4.062  -1.817  -4.216  0.00  0.00     0.046 A 
ATOM     11  C   LIG d   1       3.876   0.312  -3.092  0.00  0.00    -0.048 A 
ATOM     12  C   LIG d   1       4.313  -2.417  -2.978  0.00  0.00    -0.040 A 
ATOM     13  N   LIG d   1       4.041  -2.643  -5.327  0.00  0.00    -0.283 N 
ATOM     14  C   LIG d   1       4.344  -1.663  -1.827  0.00  0.00    -0.060 A 
ATOM     15  H   LIG d   1       4.485  -3.482  -2.925  0.00  0.00     0.064 H 
ATOM     16  C   LIG d   1       4.124  -0.296  -1.883  0.00  0.00    -0.061 A 
ATOM     17  H   LIG d   1       4.539  -2.138  -0.877  0.00  0.00     0.062 H 
ATOM     18  H   LIG d   1       4.143   0.292  -0.978  0.00  0.00     0.062 H 
ATOM     19  C   LIG d   1       4.563  -2.355  -6.515  0.00  0.00     0.238 C 
ATOM     20  H   LIG d   1       3.608  -3.506  -5.230  0.00  0.00     0.155 HD
ATOM     21  O   LIG d   1       4.516  -3.187  -7.396  0.00  0.00    -0.273 OA
ATOM     22  H   LIG d   1       3.705   1.378  -3.130  0.00  0.00     0.063 H 
ATOM     23  H   LIG d   1       5.622  -1.030  -7.808  0.00  0.00     0.060 H 
ENDBRANCH   1   4
BRANCH   1  24
ATOM     24  C   LIG d   1       7.053   0.500  -6.147  0.00  0.00     0.219 C 
ATOM     25  O   LIG d   1       6.735   1.117  -7.141  0.00  0.00    -0.275 OA
ATOM     26  N   LIG d   1       8.052   0.951  -5.363  0.00  0.00    -0.285 N 
ATOM     27  H   LIG d   1       8.263   0.494  -4.534  0.00  0.00     0.155 HD
BRANCH  26  28
ATOM     28  C   LIG d   1       8.786   2.080  -5.746  0.00  0.00     0.035 A 
ATOM     29  C   LIG d   1       8.709   3.237  -4.991  0.00  0.00    -0.017 A 
ATOM     30  C   LIG d   1       9.442   4.357  -5.370  0.00  0.00     0.048 A 
ATOM     31  H   LIG d   1       8.084   3.270  -4.112  0.00  0.00     0.066 H 
ATOM     32  C   LIG d   1      10.245   4.299  -6.523  0.00  0.00    -0.000 A 
ATOM     33  N   LIG d   1       9.578   5.621  -4.841  0.00  0.00    -0.361 N 
ATOM     34  C   LIG d   1      10.306   3.123  -7.274  0.00  0.00    -0.051 A 
ATOM     35  C   LIG d   1      10.871   5.618  -6.647  0.00  0.00    -0.037 A 
ATOM     36  C   LIG d   1       9.584   2.031  -6.887  0.00  0.00    -0.040 A 
ATOM     37  H   LIG d   1      10.923   3.079  -8.160  0.00  0.00     0.062 H 
ATOM     38  H   LIG d   1       9.633   1.123  -7.469  0.00  0.00     0.064 H 
ATOM     39  C   LIG d   1      10.433   6.359  -5.616  0.00  0.00     0.003 A 
ATOM     40  H   LIG d   1      11.554   5.935  -7.421  0.00  0.00     0.064 H 
ATOM     41  H   LIG d   1      10.714   7.384  -5.425  0.00  0.00     0.081 H 
ATOM     42  H   LIG d   1       9.134   5.942  -4.041  0.00  0.00     0.165 HD
ENDBRANCH  26  28
ENDBRANCH   1  24
TORSDOF 3
ENDMDL
MODEL 5
REMARK VINA RESULT:      -6.9      4.224      8.160
REMARK  3 active torsions:
REMARK  status: ('A' for Active; 'I' for Inactive)
REMARK    1  A    between atoms: C_10  and  C_15 
REMARK    2  A    between atoms: C_15  and  C_16 
REMARK       I    between atoms: C_16  and  N_18 
REMARK    3  A    between atoms: N_18  and  C_19 
ROOT
ATOM      1  C   LIG d   1       6.908   0.221  -4.639  0.00  0.00     0.051 C 
ATOM      2  H   LIG d   1       5.928   0.613  -4.366  0.00  0.00     0.038 H 
ATOM      3  H   LIG d   1       7.202  -0.551  -3.929  0.00  0.00     0.038 H 
ENDROOT
BRANCH   1   4
ATOM      4  C   LIG d   1       6.843  -0.378  -6.045  0.00  0.00     0.108 C 
ATOM      5  N   LIG d   1       5.659   0.130  -6.740  0.00  0.00    -0.299 N 
ATOM      6  C   LIG d   1       4.436  -0.027  -6.237  0.00  0.00     0.246 C 
ATOM      7  H   LIG d   1       5.768   0.592  -7.587  0.00  0.00     0.150 HD
ATOM      8  C   LIG d   1       4.141  -0.690  -4.962  0.00  0.00     0.058 A 
ATOM      9  O   LIG d   1       3.499   0.408  -6.879  0.00  0.00    -0.270 OA
ATOM     10  C   LIG d   1       4.799  -1.841  -4.531  0.00  0.00     0.046 A 
ATOM     11  C   LIG d   1       3.149  -0.119  -4.147  0.00  0.00    -0.048 A 
ATOM     12  C   LIG d   1       4.460  -2.402  -3.296  0.00  0.00    -0.040 A 
ATOM     13  N   LIG d   1       5.782  -2.478  -5.268  0.00  0.00    -0.283 N 
ATOM     14  C   LIG d   1       3.488  -1.829  -2.508  0.00  0.00    -0.060 A 
ATOM     15  H   LIG d   1       4.968  -3.292  -2.956  0.00  0.00     0.064 H 
ATOM     16  C   LIG d   1       2.829  -0.686  -2.935  0.00  0.00    -0.061 A 
ATOM     17  H   LIG d   1       3.236  -2.271  -1.557  0.00  0.00     0.062 H 
ATOM     18  H   LIG d   1       2.063  -0.242  -2.318  0.00  0.00     0.062 H 
ATOM     19  C   LIG d   1       6.748  -1.876  -5.954  0.00  0.00     0.238 C 
ATOM     20  H   LIG d   1       5.765  -3.448  -5.285  0.00  0.00     0.155 HD
ATOM     21  O   LIG d   1       7.577  -2.554  -6.523  0.00  0.00    -0.273 OA
ATOM     22  H   LIG d   1       2.633   0.771  -4.474  0.00  0.00     0.063 H 
ATOM     23  H   LIG d   1       7.739  -0.101  -6.601  0.00  0.00     0.060 H 
ENDBRANCH   1   4
BRANCH   1  24
ATOM     24  C   LIG d   1       7.919   1.339  -4.615  0.00  0.00     0.219 C 
ATOM     25  O   LIG d   1       7.919   2.176  -5.492  0.00  0.00    -0.275 OA
ATOM     26  N   LIG d   1       8.824   1.406  -3.619  0.00  0.00    -0.285 N 
ATOM     27  H   LIG d   1       8.784   0.775  -2.883  0.00  0.00     0.155 HD
BRANCH  26  28
ATOM     28  C   LIG d   1       9.824   2.386  -3.647  0.00  0.00     0.035 A 
ATOM     29  C   LIG d   1       9.548   3.662  -3.188  0.00  0.00    -0.017 A 
ATOM     30  C   LIG d   1      10.543   4.633  -3.212  0.00  0.00     0.048 A 
ATOM     31  H   LIG d   1       8.566   3.900  -2.810  0.00  0.00     0.066 H 
ATOM     32  C   LIG d   1      11.816   4.305  -3.713  0.00  0.00    -0.000 A 
ATOM     33  N   LIG d   1      10.583   5.956  -2.833  0.00  0.00    -0.361 N 
ATOM     34  C   LIG d   1      12.073   3.014  -4.177  0.00  0.00    -0.051 A 
ATOM     35  C   LIG d   1      12.619   5.527  -3.607  0.00  0.00    -0.037 A 
ATOM     36  C   LIG d   1      11.088   2.070  -4.143  0.00  0.00    -0.040 A 
ATOM     37  H   LIG d   1      13.052   2.762  -4.563  0.00  0.00     0.062 H 
ATOM     38  H   LIG d   1      11.289   1.072  -4.501  0.00  0.00     0.064 H 
ATOM     39  C   LIG d   1      11.827   6.472  -3.076  0.00  0.00     0.003 A 
ATOM     40  H   LIG d   1      13.651   5.645  -3.902  0.00  0.00     0.064 H 
ATOM     41  H   LIG d   1      12.128   7.489  -2.871  0.00  0.00     0.081 H 
ATOM     42  H   LIG d   1       9.840   6.449  -2.451  0.00  0.00     0.165 HD
ENDBRANCH  26  28
ENDBRANCH   1  24
TORSDOF 3
ENDMDL
MODEL 6
REMARK VINA RESULT:      -6.9      5.479      8.204
REMARK  3 active torsions:
REMARK  status: ('A' for Active; 'I' for Inactive)
REMARK    1  A    between atoms: C_10  and  C_15 
REMARK    2  A    between atoms: C_15  and  C_16 
REMARK       I    between atoms: C_16  and  N_18 
REMARK    3  A    between atoms: N_18  and  C_19 
ROOT
ATOM      1  C   LIG d   1       9.300   3.216  -4.903  0.00  0.00     0.051 C 
ATOM      2  H   LIG d   1       8.783   4.176  -4.921  0.00  0.00     0.038 H 
ATOM      3  H   LIG d   1       9.863   3.089  -5.827  0.00  0.00     0.038 H 
ENDROOT
BRANCH   1   4
ATOM      4  C   LIG d   1      10.259   3.176  -3.711  0.00  0.00     0.108 C 
ATOM      5  N   LIG d   1       9.899   4.226  -2.757  0.00  0.00    -0.299 N 
ATOM      6  C   LIG d   1       9.845   5.507  -3.119  0.00  0.00     0.246 C 
ATOM      7  H   LIG d   1       9.695   3.984  -1.840  0.00  0.00     0.150 HD
ATOM      8  C   LIG d   1      10.113   5.999  -4.475  0.00  0.00     0.058 A 
ATOM      9  O   LIG d   1       9.553   6.324  -2.267  0.00  0.00    -0.270 OA
ATOM     10  C   LIG d   1      11.136   5.497  -5.279  0.00  0.00     0.046 A 
ATOM     11  C   LIG d   1       9.288   7.022  -4.971  0.00  0.00    -0.048 A 
ATOM     12  C   LIG d   1      11.315   6.019  -6.564  0.00  0.00    -0.040 A 
ATOM     13  N   LIG d   1      12.003   4.498  -4.875  0.00  0.00    -0.283 N 
ATOM     14  C   LIG d   1      10.495   7.019  -7.035  0.00  0.00    -0.060 A 
ATOM     15  H   LIG d   1      12.103   5.633  -7.192  0.00  0.00     0.064 H 
ATOM     16  C   LIG d   1       9.480   7.523  -6.237  0.00  0.00    -0.061 A 
ATOM     17  H   LIG d   1      10.644   7.414  -8.029  0.00  0.00     0.062 H 
ATOM     18  H   LIG d   1       8.842   8.312  -6.607  0.00  0.00     0.062 H 
ATOM     19  C   LIG d   1      11.666   3.412  -4.186  0.00  0.00     0.238 C 
ATOM     20  H   LIG d   1      12.938   4.598  -5.115  0.00  0.00     0.155 HD
ATOM     21  O   LIG d   1      12.518   2.588  -3.932  0.00  0.00    -0.273 OA
ATOM     22  H   LIG d   1       8.496   7.418  -4.353  0.00  0.00     0.063 H 
ATOM     23  H   LIG d   1      10.195   2.203  -3.224  0.00  0.00     0.060 H 
ENDBRANCH   1   4
BRANCH   1  24
ATOM     24  C   LIG d   1       8.290   2.105  -4.773  0.00  0.00     0.219 C 
ATOM     25  O   LIG d   1       7.617   1.783  -5.728  0.00  0.00    -0.275 OA
ATOM     26  N   LIG d   1       8.136   1.470  -3.594  0.00  0.00    -0.285 N 
ATOM     27  H   LIG d   1       8.719   1.681  -2.848  0.00  0.00     0.155 HD
BRANCH  26  28
ATOM     28  C   LIG d   1       7.132   0.504  -3.446  0.00  0.00     0.035 A 
ATOM     29  C   LIG d   1       5.852   0.894  -3.095  0.00  0.00    -0.017 A 
ATOM     30  C   LIG d   1       4.855  -0.065  -2.952  0.00  0.00     0.048 A 
ATOM     31  H   LIG d   1       5.628   1.937  -2.935  0.00  0.00     0.066 H 
ATOM     32  C   LIG d   1       5.166  -1.421  -3.158  0.00  0.00    -0.000 A 
ATOM     33  N   LIG d   1       3.519   0.001  -2.625  0.00  0.00    -0.361 N 
ATOM     34  C   LIG d   1       6.466  -1.795  -3.507  0.00  0.00    -0.051 A 
ATOM     35  C   LIG d   1       3.922  -2.161  -2.931  0.00  0.00    -0.037 A 
ATOM     36  C   LIG d   1       7.433  -0.842  -3.647  0.00  0.00    -0.040 A 
ATOM     37  H   LIG d   1       6.705  -2.837  -3.664  0.00  0.00     0.062 H 
ATOM     38  H   LIG d   1       8.437  -1.133  -3.917  0.00  0.00     0.064 H 
ATOM     39  C   LIG d   1       2.980  -1.258  -2.617  0.00  0.00     0.003 A 
ATOM     40  H   LIG d   1       3.788  -3.230  -3.001  0.00  0.00     0.064 H 
ATOM     41  H   LIG d   1       1.949  -1.489  -2.392  0.00  0.00     0.081 H 
ATOM     42  H   LIG d   1       3.032   0.817  -2.429  0.00  0.00     0.165 HD
ENDBRANCH  26  28
ENDBRANCH   1  24
TORSDOF 3
ENDMDL
MODEL 7
REMARK VINA RESULT:      -6.5      3.790      5.673
REMARK  3 active torsions:
REMARK  status: ('A' for Active; 'I' for Inactive)
REMARK    1  A    between atoms: C_10  and  C_15 
REMARK    2  A    between atoms: C_15  and  C_16 
REMARK       I    between atoms: C_16  and  N_18 
REMARK    3  A    between atoms: N_18  and  C_19 
ROOT
ATOM      1  C   LIG d   1       5.758  -1.118  -5.981  0.00  0.00     0.051 C 
ATOM      2  H   LIG d   1       4.984  -1.497  -6.649  0.00  0.00     0.038 H 
ATOM      3  H   LIG d   1       5.302  -0.488  -5.217  0.00  0.00     0.038 H 
ENDROOT
BRANCH   1   4
ATOM      4  C   LIG d   1       6.476  -2.292  -5.313  0.00  0.00     0.108 C 
ATOM      5  N   LIG d   1       5.503  -3.120  -4.599  0.00  0.00    -0.299 N 
ATOM      6  C   LIG d   1       4.714  -2.609  -3.655  0.00  0.00     0.246 C 
ATOM      7  H   LIG d   1       5.429  -4.062  -4.820  0.00  0.00     0.150 HD
ATOM      8  C   LIG d   1       4.715  -1.202  -3.243  0.00  0.00     0.058 A 
ATOM      9  O   LIG d   1       3.940  -3.362  -3.095  0.00  0.00    -0.270 OA
ATOM     10  C   LIG d   1       5.881  -0.448  -3.108  0.00  0.00     0.046 A 
ATOM     11  C   LIG d   1       3.473  -0.600  -2.981  0.00  0.00    -0.048 A 
ATOM     12  C   LIG d   1       5.788   0.892  -2.720  0.00  0.00    -0.040 A 
ATOM     13  N   LIG d   1       7.148  -0.956  -3.337  0.00  0.00    -0.283 N 
ATOM     14  C   LIG d   1       4.563   1.467  -2.469  0.00  0.00    -0.060 A 
ATOM     15  H   LIG d   1       6.687   1.481  -2.616  0.00  0.00     0.064 H 
ATOM     16  C   LIG d   1       3.403   0.720  -2.598  0.00  0.00    -0.061 A 
ATOM     17  H   LIG d   1       4.506   2.503  -2.170  0.00  0.00     0.062 H 
ATOM     18  H   LIG d   1       2.444   1.172  -2.396  0.00  0.00     0.062 H 
ATOM     19  C   LIG d   1       7.487  -1.773  -4.328  0.00  0.00     0.238 C 
ATOM     20  H   LIG d   1       7.849  -0.692  -2.720  0.00  0.00     0.155 HD
ATOM     21  O   LIG d   1       8.646  -2.110  -4.442  0.00  0.00    -0.273 OA
ATOM     22  H   LIG d   1       2.566  -1.177  -3.080  0.00  0.00     0.063 H 
ATOM     23  H   LIG d   1       6.978  -2.891  -6.072  0.00  0.00     0.060 H 
ENDBRANCH   1   4
BRANCH   1  24
ATOM     24  C   LIG d   1       6.751  -0.306  -6.773  0.00  0.00     0.219 C 
ATOM     25  O   LIG d   1       7.425  -0.839  -7.628  0.00  0.00    -0.275 OA
ATOM     26  N   LIG d   1       6.890   1.012  -6.529  0.00  0.00    -0.285 N 
ATOM     27  H   LIG d   1       6.306   1.452  -5.892  0.00  0.00     0.155 HD
BRANCH  26  28
ATOM     28  C   LIG d   1       7.879   1.746  -7.196  0.00  0.00     0.035 A 
ATOM     29  C   LIG d   1       9.060   2.055  -6.545  0.00  0.00    -0.017 A 
ATOM     30  C   LIG d   1      10.044   2.780  -7.209  0.00  0.00     0.048 A 
ATOM     31  H   LIG d   1       9.218   1.732  -5.528  0.00  0.00     0.066 H 
ATOM     32  C   LIG d   1       9.818   3.197  -8.534  0.00  0.00    -0.000 A 
ATOM     33  N   LIG d   1      11.294   3.229  -6.848  0.00  0.00    -0.361 N 
ATOM     34  C   LIG d   1       8.617   2.880  -9.172  0.00  0.00    -0.051 A 
ATOM     35  C   LIG d   1      11.022   3.929  -8.938  0.00  0.00    -0.037 A 
ATOM     36  C   LIG d   1       7.663   2.164  -8.508  0.00  0.00    -0.040 A 
ATOM     37  H   LIG d   1       8.443   3.201 -10.189  0.00  0.00     0.062 H 
ATOM     38  H   LIG d   1       6.735   1.919  -9.003  0.00  0.00     0.064 H 
ATOM     39  C   LIG d   1      11.861   3.912  -7.891  0.00  0.00     0.003 A 
ATOM     40  H   LIG d   1      11.200   4.394  -9.896  0.00  0.00     0.064 H 
ATOM     41  H   LIG d   1      12.840   4.369  -7.873  0.00  0.00     0.081 H 
ATOM     42  H   LIG d   1      11.710   3.085  -5.984  0.00  0.00     0.165 HD
ENDBRANCH  26  28
ENDBRANCH   1  24
TORSDOF 3
ENDMDL
MODEL 8
REMARK VINA RESULT:      -6.2      2.788      3.711
REMARK  3 active torsions:
REMARK  status: ('A' for Active; 'I' for Inactive)
REMARK    1  A    between atoms: C_10  and  C_15 
REMARK    2  A    between atoms: C_15  and  C_16 
REMARK       I    between atoms: C_16  and  N_18 
REMARK    3  A    between atoms: N_18  and  C_19 
ROOT
ATOM      1  C   LIG d   1       5.770  -1.909  -6.192  0.00  0.00     0.051 C 
ATOM      2  H   LIG d   1       6.732  -2.295  -5.857  0.00  0.00     0.038 H 
ATOM      3  H   LIG d   1       5.060  -1.935  -5.366  0.00  0.00     0.038 H 
ENDROOT
BRANCH   1   4
ATOM      4  C   LIG d   1       5.939  -0.467  -6.674  0.00  0.00     0.108 C 
ATOM      5  N   LIG d   1       6.787   0.268  -5.736  0.00  0.00    -0.299 N 
ATOM      6  C   LIG d   1       6.474   0.366  -4.444  0.00  0.00     0.246 C 
ATOM      7  H   LIG d   1       7.597   0.693  -6.061  0.00  0.00     0.150 HD
ATOM      8  C   LIG d   1       5.291  -0.245  -3.828  0.00  0.00     0.058 A 
ATOM      9  O   LIG d   1       7.220   1.005  -3.728  0.00  0.00    -0.270 OA
ATOM     10  C   LIG d   1       4.041  -0.275  -4.444  0.00  0.00     0.046 A 
ATOM     11  C   LIG d   1       5.446  -0.825  -2.558  0.00  0.00    -0.048 A 
ATOM     12  C   LIG d   1       2.969  -0.887  -3.787  0.00  0.00    -0.040 A 
ATOM     13  N   LIG d   1       3.790   0.277  -5.688  0.00  0.00    -0.283 N 
ATOM     14  C   LIG d   1       3.138  -1.453  -2.544  0.00  0.00    -0.060 A 
ATOM     15  H   LIG d   1       1.999  -0.916  -4.260  0.00  0.00     0.064 H 
ATOM     16  C   LIG d   1       4.379  -1.421  -1.927  0.00  0.00    -0.061 A 
ATOM     17  H   LIG d   1       2.302  -1.922  -2.048  0.00  0.00     0.062 H 
ATOM     18  H   LIG d   1       4.508  -1.861  -0.950  0.00  0.00     0.062 H 
ATOM     19  C   LIG d   1       4.595   0.205  -6.743  0.00  0.00     0.238 C 
ATOM     20  H   LIG d   1       2.955   0.757  -5.800  0.00  0.00     0.155 HD
ATOM     21  O   LIG d   1       4.235   0.695  -7.792  0.00  0.00    -0.273 OA
ATOM     22  H   LIG d   1       6.411  -0.803  -2.072  0.00  0.00     0.063 H 
ATOM     23  H   LIG d   1       6.400  -0.465  -7.662  0.00  0.00     0.060 H 
ENDBRANCH   1   4
BRANCH   1  24
ATOM     24  C   LIG d   1       5.254  -2.760  -7.324  0.00  0.00     0.219 C 
ATOM     25  O   LIG d   1       5.964  -2.995  -8.278  0.00  0.00    -0.275 OA
ATOM     26  N   LIG d   1       4.003  -3.260  -7.275  0.00  0.00    -0.285 N 
ATOM     27  H   LIG d   1       3.458  -3.128  -6.484  0.00  0.00     0.155 HD
BRANCH  26  28
ATOM     28  C   LIG d   1       3.490  -3.969  -8.369  0.00  0.00     0.035 A 
ATOM     29  C   LIG d   1       3.574  -5.350  -8.391  0.00  0.00    -0.017 A 
ATOM     30  C   LIG d   1       3.060  -6.054  -9.475  0.00  0.00     0.048 A 
ATOM     31  H   LIG d   1       4.033  -5.878  -7.570  0.00  0.00     0.066 H 
ATOM     32  C   LIG d   1       2.470  -5.348 -10.540  0.00  0.00    -0.000 A 
ATOM     33  N   LIG d   1       2.987  -7.394  -9.784  0.00  0.00    -0.361 N 
ATOM     34  C   LIG d   1       2.400  -3.954 -10.501  0.00  0.00    -0.051 A 
ATOM     35  C   LIG d   1       2.040  -6.361 -11.507  0.00  0.00    -0.037 A 
ATOM     36  C   LIG d   1       2.905  -3.278  -9.428  0.00  0.00    -0.040 A 
ATOM     37  H   LIG d   1       1.947  -3.412 -11.319  0.00  0.00     0.062 H 
ATOM     38  H   LIG d   1       2.849  -2.200  -9.399  0.00  0.00     0.064 H 
ATOM     39  C   LIG d   1       2.377  -7.557 -10.999  0.00  0.00     0.003 A 
ATOM     40  H   LIG d   1       1.547  -6.180 -12.451  0.00  0.00     0.064 H 
ATOM     41  H   LIG d   1       2.194  -8.509 -11.477  0.00  0.00     0.081 H 
ATOM     42  H   LIG d   1       3.320  -8.114  -9.226  0.00  0.00     0.165 HD
ENDBRANCH  26  28
ENDBRANCH   1  24
TORSDOF 3
ENDMDL
MODEL 9
REMARK VINA RESULT:      -6.2      4.179      6.739
REMARK  3 active torsions:
REMARK  status: ('A' for Active; 'I' for Inactive)
REMARK    1  A    between atoms: C_10  and  C_15 
REMARK    2  A    between atoms: C_15  and  C_16 
REMARK       I    between atoms: C_16  and  N_18 
REMARK    3  A    between atoms: N_18  and  C_19 
ROOT
ATOM      1  C   LIG d   1       6.485  -1.033  -5.917  0.00  0.00     0.051 C 
ATOM      2  H   LIG d   1       6.082  -1.068  -6.929  0.00  0.00     0.038 H 
ATOM      3  H   LIG d   1       5.680  -0.829  -5.211  0.00  0.00     0.038 H 
ENDROOT
BRANCH   1   4
ATOM      4  C   LIG d   1       7.132  -2.377  -5.578  0.00  0.00     0.108 C 
ATOM      5  N   LIG d   1       6.103  -3.416  -5.521  0.00  0.00    -0.299 N 
ATOM      6  C   LIG d   1       5.057  -3.315  -4.702  0.00  0.00     0.246 C 
ATOM      7  H   LIG d   1       6.183  -4.195  -6.093  0.00  0.00     0.150 HD
ATOM      8  C   LIG d   1       4.811  -2.182  -3.804  0.00  0.00     0.058 A 
ATOM      9  O   LIG d   1       4.250  -4.225  -4.700  0.00  0.00    -0.270 OA
ATOM     10  C   LIG d   1       5.823  -1.546  -3.086  0.00  0.00     0.046 A 
ATOM     11  C   LIG d   1       3.488  -1.728  -3.676  0.00  0.00    -0.048 A 
ATOM     12  C   LIG d   1       5.501  -0.466  -2.259  0.00  0.00    -0.040 A 
ATOM     13  N   LIG d   1       7.153  -1.927  -3.141  0.00  0.00    -0.283 N 
ATOM     14  C   LIG d   1       4.199  -0.032  -2.147  0.00  0.00    -0.060 A 
ATOM     15  H   LIG d   1       6.281   0.032  -1.702  0.00  0.00     0.064 H 
ATOM     16  C   LIG d   1       3.190  -0.665  -2.856  0.00  0.00    -0.061 A 
ATOM     17  H   LIG d   1       3.964   0.803  -1.504  0.00  0.00     0.062 H 
ATOM     18  H   LIG d   1       2.170  -0.326  -2.762  0.00  0.00     0.062 H 
ATOM     19  C   LIG d   1       7.809  -2.290  -4.238  0.00  0.00     0.238 C 
ATOM     20  H   LIG d   1       7.648  -1.929  -2.307  0.00  0.00     0.155 HD
ATOM     21  O   LIG d   1       8.988  -2.559  -4.156  0.00  0.00    -0.273 OA
ATOM     22  H   LIG d   1       2.698  -2.217  -4.226  0.00  0.00     0.063 H 
ATOM     23  H   LIG d   1       7.866  -2.632  -6.343  0.00  0.00     0.060 H 
ENDBRANCH   1   4
BRANCH   1  24
ATOM     24  C   LIG d   1       7.520   0.059  -5.827  0.00  0.00     0.219 C 
ATOM     25  O   LIG d   1       8.572  -0.051  -6.420  0.00  0.00    -0.275 OA
ATOM     26  N   LIG d   1       7.276   1.159  -5.086  0.00  0.00    -0.285 N 
ATOM     27  H   LIG d   1       6.411   1.278  -4.665  0.00  0.00     0.155 HD
BRANCH  26  28
ATOM     28  C   LIG d   1       8.274   2.128  -4.924  0.00  0.00     0.035 A 
ATOM     29  C   LIG d   1       8.692   2.873  -6.013  0.00  0.00    -0.017 A 
ATOM     30  C   LIG d   1       9.679   3.838  -5.850  0.00  0.00     0.048 A 
ATOM     31  H   LIG d   1       8.251   2.706  -6.984  0.00  0.00     0.066 H 
ATOM     32  C   LIG d   1      10.247   4.037  -4.578  0.00  0.00    -0.000 A 
ATOM     33  N   LIG d   1      10.290   4.721  -6.712  0.00  0.00    -0.361 N 
ATOM     34  C   LIG d   1       9.815   3.272  -3.492  0.00  0.00    -0.051 A 
ATOM     35  C   LIG d   1      11.241   5.102  -4.741  0.00  0.00    -0.037 A 
ATOM     36  C   LIG d   1       8.842   2.331  -3.667  0.00  0.00    -0.040 A 
ATOM     37  H   LIG d   1      10.252   3.425  -2.515  0.00  0.00     0.062 H 
ATOM     38  H   LIG d   1       8.510   1.741  -2.827  0.00  0.00     0.064 H 
ATOM     39  C   LIG d   1      11.218   5.465  -6.033  0.00  0.00     0.003 A 
ATOM     40  H   LIG d   1      11.873   5.514  -3.969  0.00  0.00     0.064 H 
ATOM     41  H   LIG d   1      11.840   6.232  -6.473  0.00  0.00     0.081 H 
ATOM     42  H   LIG d   1      10.094   4.803  -7.658  0.00  0.00     0.165 HD
ENDBRANCH  26  28
ENDBRANCH   1  24
TORSDOF 3
ENDMDL
