MODEL 1
REMARK VINA RESULT:      -7.0      0.000      0.000
REMARK  3 active torsions:
REMARK  status: ('A' for Active; 'I' for Inactive)
REMARK    1  A    between atoms: CG_4  and  CB_7 
REMARK    2  A    between atoms: CB_7  and  CA_8 
REMARK       I    between atoms: N_15  and  C_22 
REMARK       I    between atoms: C_22  and  N_24 
REMARK    3  A    between atoms: N_24  and  C_25 
ROOT
ATOM      1  CA  PHE d   2       3.626   0.536  -6.209  0.00  0.00     0.100 C 
ATOM      2  HA  PHE d   2       4.065   1.281  -5.544  0.00  0.00     0.059 H 
ATOM      3  C   PHE d   2       4.678  -0.479  -6.602  0.00  0.00     0.237 C 
ATOM      4  O   PHE d   2       5.715  -0.590  -5.984  0.00  0.00    -0.274 OA
ATOM      5  N   PHE d   2       3.134   1.193  -7.433  0.00  0.00    -0.302 N 
ATOM      6  H   PHE d   2       3.024   2.156  -7.484  0.00  0.00     0.149 HD
ATOM      7  N   UNK d   1       4.403  -1.269  -7.688  0.00  0.00    -0.285 N 
ATOM      8  C   UNK d   1       5.440  -2.162  -8.164  0.00  0.00     0.031 C 
ATOM      9  C   UNK d   1       4.942  -3.186  -9.168  0.00  0.00     0.032 C 
ATOM     10  N   UNK d   1       3.936  -2.600 -10.045  0.00  0.00    -0.282 N 
ATOM     11  C   UNK d   1       2.777  -1.910  -9.497  0.00  0.00     0.043 C 
ATOM     12  C   UNK d   1       3.094  -1.088  -8.287  0.00  0.00     0.118 C 
ATOM     13  H   UNK d   1       2.377  -1.405  -7.529  0.00  0.00     0.061 H 
ATOM     14  C   UNK d   1       2.838   0.384  -8.492  0.00  0.00     0.236 C 
ATOM     15  O   UNK d   1       2.397   0.822  -9.534  0.00  0.00    -0.274 OA
ATOM     16  C   UNK d   1       4.083  -2.692 -11.381  0.00  0.00     0.302 C 
ATOM     17  O   UNK d   1       5.004  -3.335 -11.847  0.00  0.00    -0.253 OA
ATOM     18  N   UNK d   1       3.210  -2.073 -12.199  0.00  0.00    -0.296 N 
ATOM     19  H   UNK d   1       5.865  -2.689  -7.311  0.00  0.00     0.048 H 
ATOM     20  H   UNK d   1       6.225  -1.568  -8.631  0.00  0.00     0.048 H 
ATOM     21  H   UNK d   1       4.505  -4.030  -8.633  0.00  0.00     0.048 H 
ATOM     22  H   UNK d   1       5.781  -3.537  -9.768  0.00  0.00     0.048 H 
ATOM     23  H   UNK d   1       2.363  -1.258 -10.265  0.00  0.00     0.049 H 
ATOM     24  H   UNK d   1       2.025  -2.652  -9.226  0.00  0.00     0.049 H 
ATOM     25  H   UNK d   1       2.434  -1.623 -11.830  0.00  0.00     0.150 HD
ENDROOT
BRANCH   1  26
ATOM     26  CB  PHE d   2       2.467  -0.168  -5.501  0.00  0.00    -0.023 C 
ATOM     27  HB1 PHE d   2       1.539   0.365  -5.706  0.00  0.00     0.029 H 
ATOM     28  HB2 PHE d   2       2.387  -1.192  -5.865  0.00  0.00     0.029 H 
BRANCH  26  29
ATOM     29  CG  PHE d   2       2.724  -0.182  -3.993  0.00  0.00    -0.039 A 
ATOM     30  CD1 PHE d   2       3.513  -1.438  -3.621  0.00  0.00    -0.050 A 
ATOM     31  CE1 PHE d   2       3.769  -1.453  -2.113  0.00  0.00    -0.053 A 
ATOM     32 1HD1 PHE d   2       2.941  -2.323  -3.901  0.00  0.00     0.027 H 
ATOM     33 2HD1 PHE d   2       4.466  -1.439  -4.151  0.00  0.00     0.027 H 
ATOM     34  CZ  PHE d   2       4.572  -0.212  -1.720  0.00  0.00    -0.053 A 
ATOM     35 1HE1 PHE d   2       2.817  -1.452  -1.583  0.00  0.00     0.026 H 
ATOM     36 2HE1 PHE d   2       4.332  -2.348  -1.848  0.00  0.00     0.026 H 
ATOM     37  CE2 PHE d   2       3.782   1.045  -2.092  0.00  0.00    -0.053 A 
ATOM     38  HZ1 PHE d   2       4.754  -0.222  -0.646  0.00  0.00     0.026 H 
ATOM     39  HZ2 PHE d   2       5.524  -0.212  -2.250  0.00  0.00     0.026 H 
ATOM     40  CD2 PHE d   2       3.526   1.060  -3.599  0.00  0.00    -0.050 A 
ATOM     41 1HE2 PHE d   2       2.830   1.046  -1.561  0.00  0.00     0.026 H 
ATOM     42 2HE2 PHE d   2       4.354   1.930  -1.812  0.00  0.00     0.026 H 
ATOM     43 1HD2 PHE d   2       4.478   1.059  -4.130  0.00  0.00     0.027 H 
ATOM     44 2HD2 PHE d   2       2.963   1.955  -3.864  0.00  0.00     0.027 H 
ATOM     45  HG  PHE d   2       1.771  -0.181  -3.463  0.00  0.00     0.030 H 
ENDBRANCH  26  29
ENDBRANCH   1  26
BRANCH  18  46
ATOM     46  C   UNK d   1       3.433  -2.079 -13.647  0.00  0.00     0.025 C 
ATOM     47  C   UNK d   1       4.100  -0.768 -14.067  0.00  0.00    -0.035 C 
ATOM     48  C   UNK d   1       4.333  -0.774 -15.579  0.00  0.00    -0.051 C 
ATOM     49  H   UNK d   1       3.454   0.069 -13.802  0.00  0.00     0.028 H 
ATOM     50  H   UNK d   1       5.056  -0.665 -13.552  0.00  0.00     0.028 H 
ATOM     51  C   UNK d   1       2.992  -0.917 -16.301  0.00  0.00    -0.053 C 
ATOM     52  H   UNK d   1       4.809   0.161 -15.877  0.00  0.00     0.027 H 
ATOM     53  H   UNK d   1       4.979  -1.611 -15.843  0.00  0.00     0.027 H 
ATOM     54  C   UNK d   1       2.324  -2.228 -15.882  0.00  0.00    -0.051 C 
ATOM     55  H   UNK d   1       3.157  -0.921 -17.378  0.00  0.00     0.026 H 
ATOM     56  H   UNK d   1       2.346  -0.080 -16.036  0.00  0.00     0.026 H 
ATOM     57  C   UNK d   1       2.092  -2.222 -14.370  0.00  0.00    -0.035 C 
ATOM     58  H   UNK d   1       2.971  -3.066 -16.146  0.00  0.00     0.027 H 
ATOM     59  H   UNK d   1       1.369  -2.331 -16.396  0.00  0.00     0.027 H 
ATOM     60  H   UNK d   1       1.445  -1.385 -14.105  0.00  0.00     0.028 H 
ATOM     61  H   UNK d   1       1.616  -3.156 -14.071  0.00  0.00     0.028 H 
ATOM     62  H   UNK d   1       4.079  -2.916 -13.912  0.00  0.00     0.050 H 
ENDBRANCH  18  46
TORSDOF 3
ENDMDL
MODEL 2
REMARK VINA RESULT:      -7.0      5.518      7.225
REMARK  3 active torsions:
REMARK  status: ('A' for Active; 'I' for Inactive)
REMARK    1  A    between atoms: CG_4  and  CB_7 
REMARK    2  A    between atoms: CB_7  and  CA_8 
REMARK       I    between atoms: N_15  and  C_22 
REMARK       I    between atoms: C_22  and  N_24 
REMARK    3  A    between atoms: N_24  and  C_25 
ROOT
ATOM      1  CA  PHE d   2       5.167  -2.810  -5.743  0.00  0.00     0.100 C 
ATOM      2  HA  PHE d   2       5.358  -1.802  -6.112  0.00  0.00     0.059 H 
ATOM      3  C   PHE d   2       6.462  -3.595  -5.717  0.00  0.00     0.237 C 
ATOM      4  O   PHE d   2       7.540  -3.044  -5.780  0.00  0.00    -0.274 OA
ATOM      5  N   PHE d   2       4.224  -3.498  -6.643  0.00  0.00    -0.302 N 
ATOM      6  H   PHE d   2       3.703  -3.012  -7.300  0.00  0.00     0.149 HD
ATOM      7  N   UNK d   1       6.359  -4.958  -5.618  0.00  0.00    -0.285 N 
ATOM      8  C   UNK d   1       7.572  -5.746  -5.717  0.00  0.00     0.031 C 
ATOM      9  C   UNK d   1       7.388  -7.195  -5.305  0.00  0.00     0.032 C 
ATOM     10  N   UNK d   1       6.084  -7.689  -5.732  0.00  0.00    -0.282 N 
ATOM     11  C   UNK d   1       4.865  -6.969  -5.395  0.00  0.00     0.043 C 
ATOM     12  C   UNK d   1       5.014  -5.482  -5.470  0.00  0.00     0.118 C 
ATOM     13  H   UNK d   1       4.657  -5.110  -4.509  0.00  0.00     0.061 H 
ATOM     14  C   UNK d   1       4.116  -4.852  -6.505  0.00  0.00     0.236 C 
ATOM     15  O   UNK d   1       3.346  -5.508  -7.174  0.00  0.00    -0.274 OA
ATOM     16  C   UNK d   1       6.007  -8.824  -6.454  0.00  0.00     0.302 C 
ATOM     17  O   UNK d   1       7.012  -9.474  -6.672  0.00  0.00    -0.253 OA
ATOM     18  N   UNK d   1       4.819  -9.239  -6.934  0.00  0.00    -0.296 N 
ATOM     19  H   UNK d   1       8.332  -5.296  -5.079  0.00  0.00     0.048 H 
ATOM     20  H   UNK d   1       7.923  -5.717  -6.748  0.00  0.00     0.048 H 
ATOM     21  H   UNK d   1       7.464  -7.272  -4.221  0.00  0.00     0.048 H 
ATOM     22  H   UNK d   1       8.169  -7.800  -5.765  0.00  0.00     0.048 H 
ATOM     23  H   UNK d   1       4.076  -7.278  -6.081  0.00  0.00     0.049 H 
ATOM     24  H   UNK d   1       4.569  -7.239  -4.380  0.00  0.00     0.049 H 
ATOM     25  H   UNK d   1       4.008  -8.761  -6.699  0.00  0.00     0.150 HD
ENDROOT
BRANCH   1  26
ATOM     26  CB  PHE d   2       4.578  -2.740  -4.334  0.00  0.00    -0.023 C 
ATOM     27  HB1 PHE d   2       3.581  -3.179  -4.335  0.00  0.00     0.029 H 
ATOM     28  HB2 PHE d   2       5.217  -3.292  -3.644  0.00  0.00     0.029 H 
BRANCH  26  29
ATOM     29  CG  PHE d   2       4.492  -1.278  -3.888  0.00  0.00    -0.039 A 
ATOM     30  CD1 PHE d   2       3.319  -1.107  -2.922  0.00  0.00    -0.050 A 
ATOM     31  CE1 PHE d   2       3.233   0.354  -2.478  0.00  0.00    -0.053 A 
ATOM     32 1HD1 PHE d   2       2.393  -1.391  -3.421  0.00  0.00     0.027 H 
ATOM     33 2HD1 PHE d   2       3.471  -1.744  -2.049  0.00  0.00     0.027 H 
ATOM     34  CZ  PHE d   2       4.534   0.752  -1.777  0.00  0.00    -0.053 A 
ATOM     35 1HE1 PHE d   2       3.081   0.990  -3.349  0.00  0.00     0.026 H 
ATOM     36 2HE1 PHE d   2       2.398   0.476  -1.788  0.00  0.00     0.026 H 
ATOM     37  CE2 PHE d   2       5.707   0.580  -2.744  0.00  0.00    -0.053 A 
ATOM     38  HZ1 PHE d   2       4.473   1.793  -1.461  0.00  0.00     0.026 H 
ATOM     39  HZ2 PHE d   2       4.686   0.115  -0.905  0.00  0.00     0.026 H 
ATOM     40  CD2 PHE d   2       5.793  -0.880  -3.188  0.00  0.00    -0.050 A 
ATOM     41 1HE2 PHE d   2       5.554   1.217  -3.616  0.00  0.00     0.026 H 
ATOM     42 2HE2 PHE d   2       6.634   0.864  -2.245  0.00  0.00     0.026 H 
ATOM     43 1HD2 PHE d   2       5.945  -1.517  -2.317  0.00  0.00     0.027 H 
ATOM     44 2HD2 PHE d   2       6.628  -1.003  -3.878  0.00  0.00     0.027 H 
ATOM     45  HG  PHE d   2       4.340  -0.642  -4.761  0.00  0.00     0.030 H 
ENDBRANCH  26  29
ENDBRANCH   1  26
BRANCH  18  46
ATOM     46  C   UNK d   1       4.750 -10.410  -7.812  0.00  0.00     0.025 C 
ATOM     47  C   UNK d   1       3.958 -10.058  -9.072  0.00  0.00    -0.035 C 
ATOM     48  C   UNK d   1       3.887 -11.280  -9.988  0.00  0.00    -0.051 C 
ATOM     49  H   UNK d   1       2.949  -9.754  -8.793  0.00  0.00     0.028 H 
ATOM     50  H   UNK d   1       4.451  -9.239  -9.595  0.00  0.00     0.028 H 
ATOM     51  C   UNK d   1       3.193 -12.430  -9.254  0.00  0.00    -0.053 C 
ATOM     52  H   UNK d   1       3.322 -11.029 -10.886  0.00  0.00     0.027 H 
ATOM     53  H   UNK d   1       4.896 -11.584 -10.267  0.00  0.00     0.027 H 
ATOM     54  C   UNK d   1       3.986 -12.781  -7.993  0.00  0.00    -0.051 C 
ATOM     55  H   UNK d   1       3.143 -13.301  -9.907  0.00  0.00     0.026 H 
ATOM     56  H   UNK d   1       2.184 -12.126  -8.975  0.00  0.00     0.026 H 
ATOM     57  C   UNK d   1       4.057 -11.559  -7.077  0.00  0.00    -0.035 C 
ATOM     58  H   UNK d   1       4.996 -13.085  -8.272  0.00  0.00     0.027 H 
ATOM     59  H   UNK d   1       3.493 -13.600  -7.470  0.00  0.00     0.027 H 
ATOM     60  H   UNK d   1       3.048 -11.255  -6.798  0.00  0.00     0.028 H 
ATOM     61  H   UNK d   1       4.622 -11.810  -6.179  0.00  0.00     0.028 H 
ATOM     62  H   UNK d   1       5.759 -10.713  -8.091  0.00  0.00     0.050 H 
ENDBRANCH  18  46
TORSDOF 3
ENDMDL
MODEL 3
REMARK VINA RESULT:      -6.7      1.837      8.951
REMARK  3 active torsions:
REMARK  status: ('A' for Active; 'I' for Inactive)
REMARK    1  A    between atoms: CG_4  and  CB_7 
REMARK    2  A    between atoms: CB_7  and  CA_8 
REMARK       I    between atoms: N_15  and  C_22 
REMARK       I    between atoms: C_22  and  N_24 
REMARK    3  A    between atoms: N_24  and  C_25 
ROOT
ATOM      1  CA  PHE d   2       1.327  -2.235 -11.375  0.00  0.00     0.100 C 
ATOM      2  HA  PHE d   2       0.396  -2.488 -11.884  0.00  0.00     0.059 H 
ATOM      3  C   PHE d   2       1.835  -3.442 -10.615  0.00  0.00     0.237 C 
ATOM      4  O   PHE d   2       1.423  -4.558 -10.846  0.00  0.00    -0.274 OA
ATOM      5  N   PHE d   2       1.087  -1.146 -10.412  0.00  0.00    -0.302 N 
ATOM      6  H   PHE d   2       0.276  -0.615 -10.439  0.00  0.00     0.149 HD
ATOM      7  N   UNK d   1       2.785  -3.214  -9.653  0.00  0.00    -0.285 N 
ATOM      8  C   UNK d   1       3.199  -4.328  -8.823  0.00  0.00     0.031 C 
ATOM      9  C   UNK d   1       4.445  -4.042  -8.005  0.00  0.00     0.032 C 
ATOM     10  N   UNK d   1       4.448  -2.661  -7.538  0.00  0.00    -0.282 N 
ATOM     11  C   UNK d   1       4.260  -1.557  -8.468  0.00  0.00     0.043 C 
ATOM     12  C   UNK d   1       3.249  -1.845  -9.534  0.00  0.00     0.118 C 
ATOM     13  H   UNK d   1       3.752  -1.621 -10.475  0.00  0.00     0.061 H 
ATOM     14  C   UNK d   1       2.061  -0.918  -9.483  0.00  0.00     0.236 C 
ATOM     15  O   UNK d   1       1.974  -0.025  -8.666  0.00  0.00    -0.274 OA
ATOM     16  C   UNK d   1       4.621  -2.402  -6.227  0.00  0.00     0.302 C 
ATOM     17  O   UNK d   1       4.859  -3.312  -5.455  0.00  0.00    -0.253 OA
ATOM     18  N   UNK d   1       4.531  -1.137  -5.772  0.00  0.00    -0.296 N 
ATOM     19  H   UNK d   1       3.394  -5.188  -9.465  0.00  0.00     0.048 H 
ATOM     20  H   UNK d   1       2.385  -4.579  -8.144  0.00  0.00     0.048 H 
ATOM     21  H   UNK d   1       5.327  -4.215  -8.622  0.00  0.00     0.048 H 
ATOM     22  H   UNK d   1       4.471  -4.711  -7.145  0.00  0.00     0.048 H 
ATOM     23  H   UNK d   1       3.939  -0.679  -7.908  0.00  0.00     0.049 H 
ATOM     24  H   UNK d   1       5.215  -1.336  -8.946  0.00  0.00     0.049 H 
ATOM     25  H   UNK d   1       4.415  -0.404  -6.397  0.00  0.00     0.150 HD
ENDROOT
BRANCH   1  26
ATOM     26  CB  PHE d   2       2.372  -1.795 -12.402  0.00  0.00    -0.023 C 
ATOM     27  HB1 PHE d   2       2.345  -0.711 -12.506  0.00  0.00     0.029 H 
ATOM     28  HB2 PHE d   2       3.363  -2.104 -12.068  0.00  0.00     0.029 H 
BRANCH  26  29
ATOM     29  CG  PHE d   2       2.065  -2.444 -13.753  0.00  0.00    -0.039 A 
ATOM     30  CD1 PHE d   2       0.560  -2.388 -14.017  0.00  0.00    -0.050 A 
ATOM     31  CE1 PHE d   2       0.253  -3.037 -15.367  0.00  0.00    -0.053 A 
ATOM     32 1HD1 PHE d   2       0.032  -2.924 -13.228  0.00  0.00     0.027 H 
ATOM     33 2HD1 PHE d   2       0.232  -1.348 -14.032  0.00  0.00     0.027 H 
ATOM     34  CZ  PHE d   2       0.993  -2.286 -16.475  0.00  0.00    -0.053 A 
ATOM     35 1HE1 PHE d   2       0.580  -4.077 -15.353  0.00  0.00     0.026 H 
ATOM     36 2HE1 PHE d   2      -0.819  -2.996 -15.556  0.00  0.00     0.026 H 
ATOM     37  CE2 PHE d   2       2.500  -2.342 -16.211  0.00  0.00    -0.053 A 
ATOM     38  HZ1 PHE d   2       0.775  -2.748 -17.437  0.00  0.00     0.026 H 
ATOM     39  HZ2 PHE d   2       0.667  -1.246 -16.490  0.00  0.00     0.026 H 
ATOM     40  CD2 PHE d   2       2.806  -1.693 -14.861  0.00  0.00    -0.050 A 
ATOM     41 1HE2 PHE d   2       2.827  -3.382 -16.197  0.00  0.00     0.026 H 
ATOM     42 2HE2 PHE d   2       3.027  -1.806 -17.000  0.00  0.00     0.026 H 
ATOM     43 1HD2 PHE d   2       2.479  -0.653 -14.875  0.00  0.00     0.027 H 
ATOM     44 2HD2 PHE d   2       3.879  -1.734 -14.672  0.00  0.00     0.027 H 
ATOM     45  HG  PHE d   2       2.393  -3.484 -13.739  0.00  0.00     0.030 H 
ENDBRANCH  26  29
ENDBRANCH   1  26
BRANCH  18  46
ATOM     46  C   UNK d   1       4.606  -0.869  -4.334  0.00  0.00     0.025 C 
ATOM     47  C   UNK d   1       3.221  -0.481  -3.813  0.00  0.00    -0.035 C 
ATOM     48  C   UNK d   1       3.300  -0.201  -2.311  0.00  0.00    -0.051 C 
ATOM     49  H   UNK d   1       2.876   0.413  -4.332  0.00  0.00     0.028 H 
ATOM     50  H   UNK d   1       2.522  -1.298  -3.994  0.00  0.00     0.028 H 
ATOM     51  C   UNK d   1       4.280   0.946  -2.057  0.00  0.00    -0.053 C 
ATOM     52  H   UNK d   1       2.313   0.075  -1.941  0.00  0.00     0.027 H 
ATOM     53  H   UNK d   1       3.646  -1.096  -1.793  0.00  0.00     0.027 H 
ATOM     54  C   UNK d   1       5.666   0.558  -2.578  0.00  0.00    -0.051 C 
ATOM     55  H   UNK d   1       4.337   1.146  -0.987  0.00  0.00     0.026 H 
ATOM     56  H   UNK d   1       3.935   1.840  -2.575  0.00  0.00     0.026 H 
ATOM     57  C   UNK d   1       5.586   0.278  -4.079  0.00  0.00    -0.035 C 
ATOM     58  H   UNK d   1       6.011  -0.337  -2.059  0.00  0.00     0.027 H 
ATOM     59  H   UNK d   1       6.364   1.375  -2.396  0.00  0.00     0.027 H 
ATOM     60  H   UNK d   1       5.241   1.172  -4.598  0.00  0.00     0.028 H 
ATOM     61  H   UNK d   1       6.574   0.001  -4.450  0.00  0.00     0.028 H 
ATOM     62  H   UNK d   1       4.952  -1.764  -3.815  0.00  0.00     0.050 H 
ENDBRANCH  18  46
TORSDOF 3
ENDMDL
MODEL 4
REMARK VINA RESULT:      -6.6      1.683      9.083
REMARK  3 active torsions:
REMARK  status: ('A' for Active; 'I' for Inactive)
REMARK    1  A    between atoms: CG_4  and  CB_7 
REMARK    2  A    between atoms: CB_7  and  CA_8 
REMARK       I    between atoms: N_15  and  C_22 
REMARK       I    between atoms: C_22  and  N_24 
REMARK    3  A    between atoms: N_24  and  C_25 
ROOT
ATOM      1  CA  PHE d   2       4.399  -2.392 -12.547  0.00  0.00     0.100 C 
ATOM      2  HA  PHE d   2       5.054  -2.421 -13.418  0.00  0.00     0.059 H 
ATOM      3  C   PHE d   2       4.100  -0.953 -12.183  0.00  0.00     0.237 C 
ATOM      4  O   PHE d   2       4.301  -0.046 -12.962  0.00  0.00    -0.274 OA
ATOM      5  N   PHE d   2       5.067  -3.033 -11.401  0.00  0.00    -0.302 N 
ATOM      6  H   PHE d   2       5.856  -3.586 -11.517  0.00  0.00     0.149 HD
ATOM      7  N   UNK d   1       3.589  -0.724 -10.932  0.00  0.00    -0.285 N 
ATOM      8  C   UNK d   1       3.411   0.651 -10.508  0.00  0.00     0.031 C 
ATOM      9  C   UNK d   1       2.579   0.791  -9.246  0.00  0.00     0.032 C 
ATOM     10  N   UNK d   1       2.867  -0.295  -8.317  0.00  0.00    -0.282 N 
ATOM     11  C   UNK d   1       2.799  -1.684  -8.746  0.00  0.00     0.043 C 
ATOM     12  C   UNK d   1       3.323  -1.903 -10.131  0.00  0.00     0.118 C 
ATOM     13  H   UNK d   1       2.532  -2.442 -10.654  0.00  0.00     0.061 H 
ATOM     14  C   UNK d   1       4.524  -2.815 -10.168  0.00  0.00     0.236 C 
ATOM     15  O   UNK d   1       4.979  -3.321  -9.165  0.00  0.00    -0.274 OA
ATOM     16  C   UNK d   1       3.208  -0.010  -7.045  0.00  0.00     0.302 C 
ATOM     17  O   UNK d   1       3.190   1.143  -6.656  0.00  0.00    -0.253 OA
ATOM     18  N   UNK d   1       3.568  -0.999  -6.205  0.00  0.00    -0.296 N 
ATOM     19  H   UNK d   1       2.922   1.203 -11.310  0.00  0.00     0.048 H 
ATOM     20  H   UNK d   1       4.392   1.092 -10.331  0.00  0.00     0.048 H 
ATOM     21  H   UNK d   1       1.522   0.768  -9.509  0.00  0.00     0.048 H 
ATOM     22  H   UNK d   1       2.810   1.743  -8.768  0.00  0.00     0.048 H 
ATOM     23  H   UNK d   1       3.377  -2.294  -8.052  0.00  0.00     0.049 H 
ATOM     24  H   UNK d   1       1.759  -2.009  -8.712  0.00  0.00     0.049 H 
ATOM     25  H   UNK d   1       3.511  -1.924  -6.492  0.00  0.00     0.150 HD
ENDROOT
BRANCH   1  26
ATOM     26  CB  PHE d   2       3.094  -3.127 -12.860  0.00  0.00    -0.023 C 
ATOM     27  HB1 PHE d   2       3.318  -4.146 -13.175  0.00  0.00     0.029 H 
ATOM     28  HB2 PHE d   2       2.468  -3.152 -11.969  0.00  0.00     0.029 H 
BRANCH  26  29
ATOM     29  CG  PHE d   2       2.353  -2.397 -13.983  0.00  0.00    -0.039 A 
ATOM     30  CD1 PHE d   2       3.145  -2.525 -15.285  0.00  0.00    -0.050 A 
ATOM     31  CE1 PHE d   2       2.405  -1.795 -16.406  0.00  0.00    -0.053 A 
ATOM     32 1HD1 PHE d   2       4.133  -2.084 -15.154  0.00  0.00     0.027 H 
ATOM     33 2HD1 PHE d   2       3.249  -3.579 -15.545  0.00  0.00     0.027 H 
ATOM     34  CZ  PHE d   2       1.018  -2.414 -16.590  0.00  0.00    -0.053 A 
ATOM     35 1HE1 PHE d   2       2.300  -0.742 -16.147  0.00  0.00     0.026 H 
ATOM     36 2HE1 PHE d   2       2.968  -1.887 -17.335  0.00  0.00     0.026 H 
ATOM     37  CE2 PHE d   2       0.226  -2.286 -15.287  0.00  0.00    -0.053 A 
ATOM     38  HZ1 PHE d   2       0.490  -1.894 -17.389  0.00  0.00     0.026 H 
ATOM     39  HZ2 PHE d   2       1.122  -3.468 -16.849  0.00  0.00     0.026 H 
ATOM     40  CD2 PHE d   2       0.966  -3.017 -14.166  0.00  0.00    -0.050 A 
ATOM     41 1HE2 PHE d   2       0.122  -1.232 -15.028  0.00  0.00     0.026 H 
ATOM     42 2HE2 PHE d   2      -0.762  -2.728 -15.418  0.00  0.00     0.026 H 
ATOM     43 1HD2 PHE d   2       1.071  -4.070 -14.425  0.00  0.00     0.027 H 
ATOM     44 2HD2 PHE d   2       0.403  -2.925 -13.237  0.00  0.00     0.027 H 
ATOM     45  HG  PHE d   2       2.249  -1.344 -13.723  0.00  0.00     0.030 H 
ENDBRANCH  26  29
ENDBRANCH   1  26
BRANCH  18  46
ATOM     46  C   UNK d   1       4.045  -0.679  -4.857  0.00  0.00     0.025 C 
ATOM     47  C   UNK d   1       5.004  -1.773  -4.382  0.00  0.00    -0.035 C 
ATOM     48  C   UNK d   1       5.502  -1.439  -2.975  0.00  0.00    -0.051 C 
ATOM     49  H   UNK d   1       4.482  -2.730  -4.365  0.00  0.00     0.028 H 
ATOM     50  H   UNK d   1       5.852  -1.834  -5.064  0.00  0.00     0.028 H 
ATOM     51  C   UNK d   1       4.312  -1.354  -2.018  0.00  0.00    -0.053 C 
ATOM     52  H   UNK d   1       6.185  -2.218  -2.637  0.00  0.00     0.027 H 
ATOM     53  H   UNK d   1       6.024  -0.482  -2.992  0.00  0.00     0.027 H 
ATOM     54  C   UNK d   1       3.353  -0.260  -2.493  0.00  0.00    -0.051 C 
ATOM     55  H   UNK d   1       4.667  -1.116  -1.016  0.00  0.00     0.026 H 
ATOM     56  H   UNK d   1       3.790  -2.311  -2.001  0.00  0.00     0.026 H 
ATOM     57  C   UNK d   1       2.854  -0.594  -3.900  0.00  0.00    -0.035 C 
ATOM     58  H   UNK d   1       3.875   0.698  -2.511  0.00  0.00     0.027 H 
ATOM     59  H   UNK d   1       2.505  -0.198  -1.812  0.00  0.00     0.027 H 
ATOM     60  H   UNK d   1       2.333  -1.551  -3.883  0.00  0.00     0.028 H 
ATOM     61  H   UNK d   1       2.172   0.185  -4.239  0.00  0.00     0.028 H 
ATOM     62  H   UNK d   1       4.567   0.278  -4.874  0.00  0.00     0.050 H 
ENDBRANCH  18  46
TORSDOF 3
ENDMDL
MODEL 5
REMARK VINA RESULT:      -6.6      4.986      8.089
REMARK  3 active torsions:
REMARK  status: ('A' for Active; 'I' for Inactive)
REMARK    1  A    between atoms: CG_4  and  CB_7 
REMARK    2  A    between atoms: CB_7  and  CA_8 
REMARK       I    between atoms: N_15  and  C_22 
REMARK       I    between atoms: C_22  and  N_24 
REMARK    3  A    between atoms: N_24  and  C_25 
ROOT
ATOM      1  CA  PHE d   2       4.233  -2.387  -9.167  0.00  0.00     0.100 C 
ATOM      2  HA  PHE d   2       4.383  -1.866 -10.113  0.00  0.00     0.059 H 
ATOM      3  C   PHE d   2       5.574  -2.659  -8.518  0.00  0.00     0.237 C 
ATOM      4  O   PHE d   2       6.578  -2.075  -8.866  0.00  0.00    -0.274 OA
ATOM      5  N   PHE d   2       3.564  -3.677  -9.412  0.00  0.00    -0.302 N 
ATOM      6  H   PHE d   2       3.134  -3.874 -10.258  0.00  0.00     0.149 HD
ATOM      7  N   UNK d   1       5.600  -3.595  -7.517  0.00  0.00    -0.285 N 
ATOM      8  C   UNK d   1       6.886  -3.968  -6.963  0.00  0.00     0.031 C 
ATOM      9  C   UNK d   1       6.781  -4.777  -5.683  0.00  0.00     0.032 C 
ATOM     10  N   UNK d   1       5.648  -5.692  -5.744  0.00  0.00    -0.282 N 
ATOM     11  C   UNK d   1       4.316  -5.211  -6.080  0.00  0.00     0.043 C 
ATOM     12  C   UNK d   1       4.316  -4.159  -7.145  0.00  0.00     0.118 C 
ATOM     13  H   UNK d   1       3.740  -3.332  -6.732  0.00  0.00     0.061 H 
ATOM     14  C   UNK d   1       3.577  -4.583  -8.390  0.00  0.00     0.236 C 
ATOM     15  O   UNK d   1       3.028  -5.661  -8.478  0.00  0.00    -0.274 OA
ATOM     16  C   UNK d   1       5.836  -7.002  -5.492  0.00  0.00     0.302 C 
ATOM     17  O   UNK d   1       6.928  -7.400  -5.132  0.00  0.00    -0.253 OA
ATOM     18  N   UNK d   1       4.817  -7.870  -5.638  0.00  0.00    -0.296 N 
ATOM     19  H   UNK d   1       7.453  -3.061  -6.757  0.00  0.00     0.048 H 
ATOM     20  H   UNK d   1       7.428  -4.556  -7.704  0.00  0.00     0.048 H 
ATOM     21  H   UNK d   1       6.651  -4.099  -4.840  0.00  0.00     0.048 H 
ATOM     22  H   UNK d   1       7.698  -5.350  -5.545  0.00  0.00     0.048 H 
ATOM     23  H   UNK d   1       3.715  -6.054  -6.420  0.00  0.00     0.049 H 
ATOM     24  H   UNK d   1       3.857  -4.796  -5.182  0.00  0.00     0.049 H 
ATOM     25  H   UNK d   1       3.929  -7.544  -5.853  0.00  0.00     0.150 HD
ENDROOT
BRANCH   1  26
ATOM     26  CB  PHE d   2       3.374  -1.529  -8.237  0.00  0.00    -0.023 C 
ATOM     27  HB1 PHE d   2       2.441  -2.050  -8.021  0.00  0.00     0.029 H 
ATOM     28  HB2 PHE d   2       3.913  -1.349  -7.307  0.00  0.00     0.029 H 
BRANCH  26  29
ATOM     29  CG  PHE d   2       3.066  -0.192  -8.915  0.00  0.00    -0.039 A 
ATOM     30  CD1 PHE d   2       3.111   0.929  -7.876  0.00  0.00    -0.050 A 
ATOM     31  CE1 PHE d   2       2.803   2.265  -8.554  0.00  0.00    -0.053 A 
ATOM     32 1HD1 PHE d   2       2.370   0.736  -7.101  0.00  0.00     0.027 H 
ATOM     33 2HD1 PHE d   2       4.104   0.970  -7.428  0.00  0.00     0.027 H 
ATOM     34  CZ  PHE d   2       3.843   2.537  -9.643  0.00  0.00    -0.053 A 
ATOM     35 1HE1 PHE d   2       1.811   2.226  -9.002  0.00  0.00     0.026 H 
ATOM     36 2HE1 PHE d   2       2.836   3.065  -7.814  0.00  0.00     0.026 H 
ATOM     37  CE2 PHE d   2       3.798   1.415 -10.682  0.00  0.00    -0.053 A 
ATOM     38  HZ1 PHE d   2       3.624   3.489 -10.125  0.00  0.00     0.026 H 
ATOM     39  HZ2 PHE d   2       4.836   2.577  -9.195  0.00  0.00     0.026 H 
ATOM     40  CD2 PHE d   2       4.106   0.079 -10.004  0.00  0.00    -0.050 A 
ATOM     41 1HE2 PHE d   2       2.805   1.375 -11.130  0.00  0.00     0.026 H 
ATOM     42 2HE2 PHE d   2       4.540   1.609 -11.457  0.00  0.00     0.026 H 
ATOM     43 1HD2 PHE d   2       5.099   0.119  -9.556  0.00  0.00     0.027 H 
ATOM     44 2HD2 PHE d   2       4.073  -0.720 -10.744  0.00  0.00     0.027 H 
ATOM     45  HG  PHE d   2       2.073  -0.233  -9.364  0.00  0.00     0.030 H 
ENDBRANCH  26  29
ENDBRANCH   1  26
BRANCH  18  46
ATOM     46  C   UNK d   1       5.049  -9.308  -5.474  0.00  0.00     0.025 C 
ATOM     47  C   UNK d   1       4.593 -10.046  -6.734  0.00  0.00    -0.035 C 
ATOM     48  C   UNK d   1       4.836 -11.546  -6.562  0.00  0.00    -0.051 C 
ATOM     49  H   UNK d   1       3.530  -9.866  -6.896  0.00  0.00     0.028 H 
ATOM     50  H   UNK d   1       5.157  -9.682  -7.593  0.00  0.00     0.028 H 
ATOM     51  C   UNK d   1       4.043 -12.057  -5.357  0.00  0.00    -0.053 C 
ATOM     52  H   UNK d   1       4.511 -12.072  -7.460  0.00  0.00     0.027 H 
ATOM     53  H   UNK d   1       5.898 -11.727  -6.400  0.00  0.00     0.027 H 
ATOM     54  C   UNK d   1       4.499 -11.319  -4.097  0.00  0.00    -0.051 C 
ATOM     55  H   UNK d   1       4.215 -13.126  -5.235  0.00  0.00     0.026 H 
ATOM     56  H   UNK d   1       2.980 -11.877  -5.519  0.00  0.00     0.026 H 
ATOM     57  C   UNK d   1       4.256  -9.818  -4.269  0.00  0.00    -0.035 C 
ATOM     58  H   UNK d   1       5.562 -11.498  -3.935  0.00  0.00     0.027 H 
ATOM     59  H   UNK d   1       3.935 -11.682  -3.238  0.00  0.00     0.027 H 
ATOM     60  H   UNK d   1       3.193  -9.638  -4.430  0.00  0.00     0.028 H 
ATOM     61  H   UNK d   1       4.581  -9.292  -3.371  0.00  0.00     0.028 H 
ATOM     62  H   UNK d   1       6.112  -9.488  -5.312  0.00  0.00     0.050 H 
ENDBRANCH  18  46
TORSDOF 3
ENDMDL
MODEL 6
REMARK VINA RESULT:      -6.5      5.878      7.414
REMARK  3 active torsions:
REMARK  status: ('A' for Active; 'I' for Inactive)
REMARK    1  A    between atoms: CG_4  and  CB_7 
REMARK    2  A    between atoms: CB_7  and  CA_8 
REMARK       I    between atoms: N_15  and  C_22 
REMARK       I    between atoms: C_22  and  N_24 
REMARK    3  A    between atoms: N_24  and  C_25 
ROOT
ATOM      1  CA  PHE d   2       7.800  -1.374  -4.267  0.00  0.00     0.100 C 
ATOM      2  HA  PHE d   2       8.071  -1.955  -3.385  0.00  0.00     0.059 H 
ATOM      3  C   PHE d   2       8.839  -1.578  -5.349  0.00  0.00     0.237 C 
ATOM      4  O   PHE d   2       9.624  -2.500  -5.310  0.00  0.00    -0.274 OA
ATOM      5  N   PHE d   2       7.760   0.059  -3.924  0.00  0.00    -0.302 N 
ATOM      6  H   PHE d   2       7.747   0.360  -3.002  0.00  0.00     0.149 HD
ATOM      7  N   UNK d   1       8.849  -0.672  -6.378  0.00  0.00    -0.285 N 
ATOM      8  C   UNK d   1       9.909  -0.765  -7.362  0.00  0.00     0.031 C 
ATOM      9  C   UNK d   1       9.663   0.082  -8.597  0.00  0.00     0.032 C 
ATOM     10  N   UNK d   1       9.023   1.341  -8.238  0.00  0.00    -0.282 N 
ATOM     11  C   UNK d   1       7.810   1.361  -7.434  0.00  0.00     0.043 C 
ATOM     12  C   UNK d   1       7.805   0.335  -6.344  0.00  0.00     0.118 C 
ATOM     13  H   UNK d   1       6.867  -0.208  -6.467  0.00  0.00     0.061 H 
ATOM     14  C   UNK d   1       7.740   0.942  -4.965  0.00  0.00     0.236 C 
ATOM     15  O   UNK d   1       7.676   2.140  -4.791  0.00  0.00    -0.274 OA
ATOM     16  C   UNK d   1       9.565   2.504  -8.651  0.00  0.00     0.302 C 
ATOM     17  O   UNK d   1      10.531   2.495  -9.390  0.00  0.00    -0.253 OA
ATOM     18  N   UNK d   1       9.036   3.675  -8.246  0.00  0.00    -0.296 N 
ATOM     19  H   UNK d   1      10.009  -1.807  -7.668  0.00  0.00     0.048 H 
ATOM     20  H   UNK d   1      10.843  -0.448  -6.900  0.00  0.00     0.048 H 
ATOM     21  H   UNK d   1       9.019  -0.465  -9.285  0.00  0.00     0.048 H 
ATOM     22  H   UNK d   1      10.615   0.289  -9.085  0.00  0.00     0.048 H 
ATOM     23  H   UNK d   1       7.704   2.349  -6.985  0.00  0.00     0.049 H 
ATOM     24  H   UNK d   1       6.955   1.180  -8.086  0.00  0.00     0.049 H 
ATOM     25  H   UNK d   1       8.223   3.683  -7.718  0.00  0.00     0.150 HD
ENDROOT
BRANCH   1  26
ATOM     26  CB  PHE d   2       6.429  -1.821  -4.776  0.00  0.00    -0.023 C 
ATOM     27  HB1 PHE d   2       6.307  -1.508  -5.813  0.00  0.00     0.029 H 
ATOM     28  HB2 PHE d   2       6.353  -2.907  -4.712  0.00  0.00     0.029 H 
BRANCH  26  29
ATOM     29  CG  PHE d   2       5.333  -1.183  -3.919  0.00  0.00    -0.039 A 
ATOM     30  CD1 PHE d   2       4.329  -0.468  -4.823  0.00  0.00    -0.050 A 
ATOM     31  CE1 PHE d   2       3.234   0.170  -3.966  0.00  0.00    -0.053 A 
ATOM     32 1HD1 PHE d   2       4.841   0.307  -5.394  0.00  0.00     0.027 H 
ATOM     33 2HD1 PHE d   2       3.880  -1.188  -5.509  0.00  0.00     0.027 H 
ATOM     34  CZ  PHE d   2       2.515  -0.917  -3.165  0.00  0.00    -0.053 A 
ATOM     35 1HE1 PHE d   2       3.682   0.889  -3.281  0.00  0.00     0.026 H 
ATOM     36 2HE1 PHE d   2       2.517   0.679  -4.610  0.00  0.00     0.026 H 
ATOM     37  CE2 PHE d   2       3.520  -1.633  -2.260  0.00  0.00    -0.053 A 
ATOM     38  HZ1 PHE d   2       1.735  -0.463  -2.554  0.00  0.00     0.026 H 
ATOM     39  HZ2 PHE d   2       2.067  -1.637  -3.850  0.00  0.00     0.026 H 
ATOM     40  CD2 PHE d   2       4.614  -2.271  -3.117  0.00  0.00    -0.050 A 
ATOM     41 1HE2 PHE d   2       3.968  -0.913  -1.575  0.00  0.00     0.026 H 
ATOM     42 2HE2 PHE d   2       3.008  -2.408  -1.689  0.00  0.00     0.026 H 
ATOM     43 1HD2 PHE d   2       4.167  -2.990  -3.803  0.00  0.00     0.027 H 
ATOM     44 2HD2 PHE d   2       5.331  -2.780  -2.473  0.00  0.00     0.027 H 
ATOM     45  HG  PHE d   2       5.782  -0.464  -3.233  0.00  0.00     0.030 H 
ENDBRANCH  26  29
ENDBRANCH   1  26
BRANCH  18  46
ATOM     46  C   UNK d   1       9.691   4.937  -8.603  0.00  0.00     0.025 C 
ATOM     47  C   UNK d   1       9.877   5.788  -7.345  0.00  0.00    -0.035 C 
ATOM     48  C   UNK d   1      10.560   7.105  -7.718  0.00  0.00    -0.051 C 
ATOM     49  H   UNK d   1       8.904   5.997  -6.901  0.00  0.00     0.028 H 
ATOM     50  H   UNK d   1      10.495   5.248  -6.628  0.00  0.00     0.028 H 
ATOM     51  C   UNK d   1       9.693   7.864  -8.724  0.00  0.00    -0.053 C 
ATOM     52  H   UNK d   1      10.693   7.712  -6.822  0.00  0.00     0.027 H 
ATOM     53  H   UNK d   1      11.534   6.897  -8.162  0.00  0.00     0.027 H 
ATOM     54  C   UNK d   1       9.507   7.012  -9.981  0.00  0.00    -0.051 C 
ATOM     55  H   UNK d   1      10.180   8.802  -8.989  0.00  0.00     0.026 H 
ATOM     56  H   UNK d   1       8.720   8.073  -8.279  0.00  0.00     0.026 H 
ATOM     57  C   UNK d   1       8.823   5.696  -9.609  0.00  0.00    -0.035 C 
ATOM     58  H   UNK d   1      10.481   6.803 -10.426  0.00  0.00     0.027 H 
ATOM     59  H   UNK d   1       8.889   7.553 -10.698  0.00  0.00     0.027 H 
ATOM     60  H   UNK d   1       7.850   5.904  -9.164  0.00  0.00     0.028 H 
ATOM     61  H   UNK d   1       8.691   5.089 -10.505  0.00  0.00     0.028 H 
ATOM     62  H   UNK d   1      10.664   4.728  -9.047  0.00  0.00     0.050 H 
ENDBRANCH  18  46
TORSDOF 3
ENDMDL
MODEL 7
REMARK VINA RESULT:      -6.5      5.794      9.915
REMARK  3 active torsions:
REMARK  status: ('A' for Active; 'I' for Inactive)
REMARK    1  A    between atoms: CG_4  and  CB_7 
REMARK    2  A    between atoms: CB_7  and  CA_8 
REMARK       I    between atoms: N_15  and  C_22 
REMARK       I    between atoms: C_22  and  N_24 
REMARK    3  A    between atoms: N_24  and  C_25 
ROOT
ATOM      1  CA  PHE d   2       5.768  -8.760  -6.156  0.00  0.00     0.100 C 
ATOM      2  HA  PHE d   2       5.578  -9.805  -5.909  0.00  0.00     0.059 H 
ATOM      3  C   PHE d   2       7.069  -8.316  -5.520  0.00  0.00     0.237 C 
ATOM      4  O   PHE d   2       7.881  -9.118  -5.109  0.00  0.00    -0.274 OA
ATOM      5  N   PHE d   2       4.681  -7.919  -5.625  0.00  0.00    -0.302 N 
ATOM      6  H   PHE d   2       3.841  -8.302  -5.328  0.00  0.00     0.149 HD
ATOM      7  N   UNK d   1       7.287  -6.966  -5.431  0.00  0.00    -0.285 N 
ATOM      8  C   UNK d   1       8.462  -6.508  -4.716  0.00  0.00     0.031 C 
ATOM      9  C   UNK d   1       8.763  -5.036  -4.927  0.00  0.00     0.032 C 
ATOM     10  N   UNK d   1       7.528  -4.264  -5.000  0.00  0.00    -0.282 N 
ATOM     11  C   UNK d   1       6.465  -4.640  -5.920  0.00  0.00     0.043 C 
ATOM     12  C   UNK d   1       6.273  -6.120  -6.032  0.00  0.00     0.118 C 
ATOM     13  H   UNK d   1       6.307  -6.334  -7.101  0.00  0.00     0.061 H 
ATOM     14  C   UNK d   1       4.909  -6.574  -5.575  0.00  0.00     0.236 C 
ATOM     15  O   UNK d   1       4.068  -5.792  -5.185  0.00  0.00    -0.274 OA
ATOM     16  C   UNK d   1       7.366  -3.192  -4.201  0.00  0.00     0.302 C 
ATOM     17  O   UNK d   1       8.279  -2.822  -3.487  0.00  0.00    -0.253 OA
ATOM     18  N   UNK d   1       6.193  -2.529  -4.192  0.00  0.00    -0.296 N 
ATOM     19  H   UNK d   1       9.322  -7.090  -5.049  0.00  0.00     0.048 H 
ATOM     20  H   UNK d   1       8.314  -6.686  -3.652  0.00  0.00     0.048 H 
ATOM     21  H   UNK d   1       9.319  -4.912  -5.857  0.00  0.00     0.048 H 
ATOM     22  H   UNK d   1       9.366  -4.670  -4.097  0.00  0.00     0.048 H 
ATOM     23  H   UNK d   1       5.532  -4.191  -5.579  0.00  0.00     0.049 H 
ATOM     24  H   UNK d   1       6.701  -4.244  -6.908  0.00  0.00     0.049 H 
ATOM     25  H   UNK d   1       5.491  -2.777  -4.814  0.00  0.00     0.150 HD
ENDROOT
BRANCH   1  26
ATOM     26  CB  PHE d   2       5.854  -8.596  -7.674  0.00  0.00    -0.023 C 
ATOM     27  HB1 PHE d   2       6.090  -7.560  -7.915  0.00  0.00     0.029 H 
ATOM     28  HB2 PHE d   2       6.634  -9.248  -8.067  0.00  0.00     0.029 H 
BRANCH  26  29
ATOM     29  CG  PHE d   2       4.511  -8.972  -8.304  0.00  0.00    -0.039 A 
ATOM     30  CD1 PHE d   2       4.001  -7.807  -9.153  0.00  0.00    -0.050 A 
ATOM     31  CE1 PHE d   2       2.659  -8.183  -9.782  0.00  0.00    -0.053 A 
ATOM     32 1HD1 PHE d   2       3.873  -6.927  -8.523  0.00  0.00     0.027 H 
ATOM     33 2HD1 PHE d   2       4.722  -7.588  -9.941  0.00  0.00     0.027 H 
ATOM     34  CZ  PHE d   2       2.838  -9.418 -10.667  0.00  0.00    -0.053 A 
ATOM     35 1HE1 PHE d   2       1.937  -8.402  -8.996  0.00  0.00     0.026 H 
ATOM     36 2HE1 PHE d   2       2.295  -7.353 -10.389  0.00  0.00     0.026 H 
ATOM     37  CE2 PHE d   2       3.348 -10.584  -9.818  0.00  0.00    -0.053 A 
ATOM     38  HZ1 PHE d   2       1.882  -9.686 -11.115  0.00  0.00     0.026 H 
ATOM     39  HZ2 PHE d   2       3.560  -9.200 -11.454  0.00  0.00     0.026 H 
ATOM     40  CD2 PHE d   2       4.690 -10.208  -9.189  0.00  0.00    -0.050 A 
ATOM     41 1HE2 PHE d   2       2.626 -10.803  -9.031  0.00  0.00     0.026 H 
ATOM     42 2HE2 PHE d   2       3.476 -11.464 -10.448  0.00  0.00     0.026 H 
ATOM     43 1HD2 PHE d   2       5.412  -9.989  -9.975  0.00  0.00     0.027 H 
ATOM     44 2HD2 PHE d   2       5.054 -11.038  -8.583  0.00  0.00     0.027 H 
ATOM     45  HG  PHE d   2       3.789  -9.191  -7.517  0.00  0.00     0.030 H 
ENDBRANCH  26  29
ENDBRANCH   1  26
BRANCH  18  46
ATOM     46  C   UNK d   1       5.977  -1.433  -3.243  0.00  0.00     0.025 C 
ATOM     47  C   UNK d   1       4.600  -1.584  -2.594  0.00  0.00    -0.035 C 
ATOM     48  C   UNK d   1       4.375  -0.441  -1.603  0.00  0.00    -0.051 C 
ATOM     49  H   UNK d   1       3.830  -1.554  -3.364  0.00  0.00     0.028 H 
ATOM     50  H   UNK d   1       4.549  -2.537  -2.067  0.00  0.00     0.028 H 
ATOM     51  C   UNK d   1       4.447   0.897  -2.342  0.00  0.00    -0.053 C 
ATOM     52  H   UNK d   1       3.394  -0.548  -1.140  0.00  0.00     0.027 H 
ATOM     53  H   UNK d   1       5.146  -0.471  -0.832  0.00  0.00     0.027 H 
ATOM     54  C   UNK d   1       5.824   1.048  -2.992  0.00  0.00    -0.051 C 
ATOM     55  H   UNK d   1       4.286   1.712  -1.637  0.00  0.00     0.026 H 
ATOM     56  H   UNK d   1       3.677   0.927  -3.113  0.00  0.00     0.026 H 
ATOM     57  C   UNK d   1       6.049  -0.096  -3.983  0.00  0.00    -0.035 C 
ATOM     58  H   UNK d   1       6.595   1.017  -2.221  0.00  0.00     0.027 H 
ATOM     59  H   UNK d   1       5.875   2.001  -3.518  0.00  0.00     0.027 H 
ATOM     60  H   UNK d   1       5.279  -0.066  -4.753  0.00  0.00     0.028 H 
ATOM     61  H   UNK d   1       7.030   0.012  -4.445  0.00  0.00     0.028 H 
ATOM     62  H   UNK d   1       6.747  -1.464  -2.472  0.00  0.00     0.050 H 
ENDBRANCH  18  46
TORSDOF 3
ENDMDL
MODEL 8
REMARK VINA RESULT:      -6.4      7.824     10.719
REMARK  3 active torsions:
REMARK  status: ('A' for Active; 'I' for Inactive)
REMARK    1  A    between atoms: CG_4  and  CB_7 
REMARK    2  A    between atoms: CB_7  and  CA_8 
REMARK       I    between atoms: N_15  and  C_22 
REMARK       I    between atoms: C_22  and  N_24 
REMARK    3  A    between atoms: N_24  and  C_25 
ROOT
ATOM      1  CA  PHE d   2      11.646   5.783  -4.851  0.00  0.00     0.100 C 
ATOM      2  HA  PHE d   2      11.817   6.856  -4.941  0.00  0.00     0.059 H 
ATOM      3  C   PHE d   2      10.929   5.277  -6.085  0.00  0.00     0.237 C 
ATOM      4  O   PHE d   2      10.884   5.929  -7.106  0.00  0.00    -0.274 OA
ATOM      5  N   PHE d   2      10.799   5.513  -3.676  0.00  0.00    -0.302 N 
ATOM      6  H   PHE d   2      10.648   6.185  -2.994  0.00  0.00     0.149 HD
ATOM      7  N   UNK d   1      10.332   4.046  -5.993  0.00  0.00    -0.285 N 
ATOM      8  C   UNK d   1       9.532   3.590  -7.113  0.00  0.00     0.031 C 
ATOM      9  C   UNK d   1       9.166   2.119  -7.034  0.00  0.00     0.032 C 
ATOM     10  N   UNK d   1       8.898   1.729  -5.655  0.00  0.00    -0.282 N 
ATOM     11  C   UNK d   1       9.859   2.008  -4.598  0.00  0.00     0.043 C 
ATOM     12  C   UNK d   1      10.528   3.339  -4.742  0.00  0.00     0.118 C 
ATOM     13  H   UNK d   1      11.597   3.130  -4.687  0.00  0.00     0.061 H 
ATOM     14  C   UNK d   1      10.240   4.270  -3.591  0.00  0.00     0.236 C 
ATOM     15  O   UNK d   1       9.553   3.936  -2.649  0.00  0.00    -0.274 OA
ATOM     16  C   UNK d   1       7.742   1.106  -5.353  0.00  0.00     0.302 C 
ATOM     17  O   UNK d   1       6.969   0.797  -6.240  0.00  0.00    -0.253 OA
ATOM     18  N   UNK d   1       7.441   0.826  -4.070  0.00  0.00    -0.296 N 
ATOM     19  H   UNK d   1      10.089   3.761  -8.033  0.00  0.00     0.048 H 
ATOM     20  H   UNK d   1       8.614   4.176  -7.148  0.00  0.00     0.048 H 
ATOM     21  H   UNK d   1       9.992   1.522  -7.422  0.00  0.00     0.048 H 
ATOM     22  H   UNK d   1       8.277   1.937  -7.638  0.00  0.00     0.048 H 
ATOM     23  H   UNK d   1       9.342   1.977  -3.639  0.00  0.00     0.049 H 
ATOM     24  H   UNK d   1      10.624   1.231  -4.607  0.00  0.00     0.049 H 
ATOM     25  H   UNK d   1       8.089   1.006  -3.370  0.00  0.00     0.150 HD
ENDROOT
BRANCH   1  26
ATOM     26  CB  PHE d   2      12.985   5.060  -4.700  0.00  0.00    -0.023 C 
ATOM     27  HB1 PHE d   2      12.808   3.993  -4.561  0.00  0.00     0.029 H 
ATOM     28  HB2 PHE d   2      13.586   5.215  -5.596  0.00  0.00     0.029 H 
BRANCH  26  29
ATOM     29  CG  PHE d   2      13.731   5.615  -3.484  0.00  0.00    -0.039 A 
ATOM     30  CD1 PHE d   2      14.121   4.465  -2.555  0.00  0.00    -0.050 A 
ATOM     31  CE1 PHE d   2      14.865   5.020  -1.340  0.00  0.00    -0.053 A 
ATOM     32 1HD1 PHE d   2      13.222   3.945  -2.223  0.00  0.00     0.027 H 
ATOM     33 2HD1 PHE d   2      14.767   3.768  -3.089  0.00  0.00     0.027 H 
ATOM     34  CZ  PHE d   2      16.127   5.750  -1.804  0.00  0.00    -0.053 A 
ATOM     35 1HE1 PHE d   2      14.220   5.717  -0.805  0.00  0.00     0.026 H 
ATOM     36 2HE1 PHE d   2      15.144   4.201  -0.678  0.00  0.00     0.026 H 
ATOM     37  CE2 PHE d   2      15.737   6.901  -2.735  0.00  0.00    -0.053 A 
ATOM     38  HZ1 PHE d   2      16.658   6.146  -0.939  0.00  0.00     0.026 H 
ATOM     39  HZ2 PHE d   2      16.773   5.054  -2.340  0.00  0.00     0.026 H 
ATOM     40  CD2 PHE d   2      14.993   6.345  -3.949  0.00  0.00    -0.050 A 
ATOM     41 1HE2 PHE d   2      15.091   7.597  -2.199  0.00  0.00     0.026 H 
ATOM     42 2HE2 PHE d   2      16.636   7.421  -3.066  0.00  0.00     0.026 H 
ATOM     43 1HD2 PHE d   2      15.638   5.649  -4.485  0.00  0.00     0.027 H 
ATOM     44 2HD2 PHE d   2      14.714   7.165  -4.612  0.00  0.00     0.027 H 
ATOM     45  HG  PHE d   2      13.085   6.312  -2.950  0.00  0.00     0.030 H 
ENDBRANCH  26  29
ENDBRANCH   1  26
BRANCH  18  46
ATOM     46  C   UNK d   1       6.137   0.252  -3.730  0.00  0.00     0.025 C 
ATOM     47  C   UNK d   1       5.498   1.066  -2.603  0.00  0.00    -0.035 C 
ATOM     48  C   UNK d   1       4.136   0.466  -2.249  0.00  0.00    -0.051 C 
ATOM     49  H   UNK d   1       6.145   1.041  -1.726  0.00  0.00     0.028 H 
ATOM     50  H   UNK d   1       5.368   2.098  -2.929  0.00  0.00     0.028 H 
ATOM     51  C   UNK d   1       4.319  -0.982  -1.792  0.00  0.00    -0.053 C 
ATOM     52  H   UNK d   1       3.682   1.047  -1.446  0.00  0.00     0.027 H 
ATOM     53  H   UNK d   1       3.489   0.491  -3.126  0.00  0.00     0.027 H 
ATOM     54  C   UNK d   1       4.958  -1.796  -2.919  0.00  0.00    -0.051 C 
ATOM     55  H   UNK d   1       3.349  -1.409  -1.539  0.00  0.00     0.026 H 
ATOM     56  H   UNK d   1       4.966  -1.007  -0.915  0.00  0.00     0.026 H 
ATOM     57  C   UNK d   1       6.320  -1.196  -3.273  0.00  0.00    -0.035 C 
ATOM     58  H   UNK d   1       4.311  -1.771  -3.797  0.00  0.00     0.027 H 
ATOM     59  H   UNK d   1       5.088  -2.828  -2.594  0.00  0.00     0.027 H 
ATOM     60  H   UNK d   1       6.967  -1.221  -2.396  0.00  0.00     0.028 H 
ATOM     61  H   UNK d   1       6.775  -1.776  -4.076  0.00  0.00     0.028 H 
ATOM     62  H   UNK d   1       5.490   0.277  -4.607  0.00  0.00     0.050 H 
ENDBRANCH  18  46
TORSDOF 3
ENDMDL
MODEL 9
REMARK VINA RESULT:      -6.4      3.385      4.254
REMARK  3 active torsions:
REMARK  status: ('A' for Active; 'I' for Inactive)
REMARK    1  A    between atoms: CG_4  and  CB_7 
REMARK    2  A    between atoms: CB_7  and  CA_8 
REMARK       I    between atoms: N_15  and  C_22 
REMARK       I    between atoms: C_22  and  N_24 
REMARK    3  A    between atoms: N_24  and  C_25 
ROOT
ATOM      1  CA  PHE d   2       6.928  -2.179  -5.604  0.00  0.00     0.100 C 
ATOM      2  HA  PHE d   2       7.793  -1.518  -5.549  0.00  0.00     0.059 H 
ATOM      3  C   PHE d   2       7.334  -3.495  -6.233  0.00  0.00     0.237 C 
ATOM      4  O   PHE d   2       8.497  -3.824  -6.325  0.00  0.00    -0.274 OA
ATOM      5  N   PHE d   2       5.885  -1.564  -6.443  0.00  0.00    -0.302 N 
ATOM      6  H   PHE d   2       5.914  -0.624  -6.682  0.00  0.00     0.149 HD
ATOM      7  N   UNK d   1       6.324  -4.299  -6.695  0.00  0.00    -0.285 N 
ATOM      8  C   UNK d   1       6.684  -5.505  -7.415  0.00  0.00     0.031 C 
ATOM      9  C   UNK d   1       5.520  -6.457  -7.619  0.00  0.00     0.032 C 
ATOM     10  N   UNK d   1       4.289  -5.718  -7.875  0.00  0.00    -0.282 N 
ATOM     11  C   UNK d   1       3.851  -4.661  -6.974  0.00  0.00     0.043 C 
ATOM     12  C   UNK d   1       4.975  -3.824  -6.451  0.00  0.00     0.118 C 
ATOM     13  H   UNK d   1       4.853  -3.825  -5.367  0.00  0.00     0.061 H 
ATOM     14  C   UNK d   1       4.873  -2.377  -6.865  0.00  0.00     0.236 C 
ATOM     15  O   UNK d   1       3.949  -1.962  -7.533  0.00  0.00    -0.274 OA
ATOM     16  C   UNK d   1       3.551  -6.011  -8.963  0.00  0.00     0.302 C 
ATOM     17  O   UNK d   1       3.866  -6.944  -9.677  0.00  0.00    -0.253 OA
ATOM     18  N   UNK d   1       2.464  -5.272  -9.260  0.00  0.00    -0.296 N 
ATOM     19  H   UNK d   1       7.464  -6.023  -6.858  0.00  0.00     0.048 H 
ATOM     20  H   UNK d   1       7.081  -5.224  -8.389  0.00  0.00     0.048 H 
ATOM     21  H   UNK d   1       5.393  -7.067  -6.725  0.00  0.00     0.048 H 
ATOM     22  H   UNK d   1       5.732  -7.105  -8.469  0.00  0.00     0.048 H 
ATOM     23  H   UNK d   1       3.151  -4.017  -7.506  0.00  0.00     0.049 H 
ATOM     24  H   UNK d   1       3.333  -5.116  -6.129  0.00  0.00     0.049 H 
ATOM     25  H   UNK d   1       2.171  -4.576  -8.652  0.00  0.00     0.150 HD
ENDROOT
BRANCH   1  26
ATOM     26  CB  PHE d   2       6.379  -2.427  -4.198  0.00  0.00    -0.023 C 
ATOM     27  HB1 PHE d   2       5.771  -3.331  -4.199  0.00  0.00     0.029 H 
ATOM     28  HB2 PHE d   2       7.208  -2.548  -3.500  0.00  0.00     0.029 H 
BRANCH  26  29
ATOM     29  CG  PHE d   2       5.521  -1.236  -3.767  0.00  0.00    -0.039 A 
ATOM     30  CD1 PHE d   2       4.546  -1.678  -2.675  0.00  0.00    -0.050 A 
ATOM     31  CE1 PHE d   2       3.688  -0.487  -2.245  0.00  0.00    -0.053 A 
ATOM     32 1HD1 PHE d   2       3.902  -2.468  -3.061  0.00  0.00     0.027 H 
ATOM     33 2HD1 PHE d   2       5.105  -2.051  -1.816  0.00  0.00     0.027 H 
ATOM     34  CZ  PHE d   2       4.590   0.624  -1.704  0.00  0.00    -0.053 A 
ATOM     35 1HE1 PHE d   2       3.128  -0.113  -3.102  0.00  0.00     0.026 H 
ATOM     36 2HE1 PHE d   2       2.993  -0.801  -1.466  0.00  0.00     0.026 H 
ATOM     37  CE2 PHE d   2       5.566   1.065  -2.796  0.00  0.00    -0.053 A 
ATOM     38  HZ1 PHE d   2       3.979   1.472  -1.397  0.00  0.00     0.026 H 
ATOM     39  HZ2 PHE d   2       5.150   0.251  -0.846  0.00  0.00     0.026 H 
ATOM     40  CD2 PHE d   2       6.424  -0.125  -3.226  0.00  0.00    -0.050 A 
ATOM     41 1HE2 PHE d   2       5.006   1.438  -3.654  0.00  0.00     0.026 H 
ATOM     42 2HE2 PHE d   2       6.210   1.856  -2.410  0.00  0.00     0.026 H 
ATOM     43 1HD2 PHE d   2       6.984  -0.499  -2.369  0.00  0.00     0.027 H 
ATOM     44 2HD2 PHE d   2       7.119   0.189  -4.005  0.00  0.00     0.027 H 
ATOM     45  HG  PHE d   2       4.962  -0.863  -4.625  0.00  0.00     0.030 H 
ENDBRANCH  26  29
ENDBRANCH   1  26
BRANCH  18  46
ATOM     46  C   UNK d   1       1.727  -5.519 -10.501  0.00  0.00     0.025 C 
ATOM     47  C   UNK d   1       1.376  -4.185 -11.161  0.00  0.00    -0.035 C 
ATOM     48  C   UNK d   1       0.606  -4.443 -12.458  0.00  0.00    -0.051 C 
ATOM     49  H   UNK d   1       0.758  -3.596 -10.483  0.00  0.00     0.028 H 
ATOM     50  H   UNK d   1       2.291  -3.637 -11.385  0.00  0.00     0.028 H 
ATOM     51  C   UNK d   1      -0.680  -5.210 -12.143  0.00  0.00    -0.053 C 
ATOM     52  H   UNK d   1       0.356  -3.492 -12.928  0.00  0.00     0.027 H 
ATOM     53  H   UNK d   1       1.223  -5.032 -13.136  0.00  0.00     0.027 H 
ATOM     54  C   UNK d   1      -0.329  -6.545 -11.483  0.00  0.00    -0.051 C 
ATOM     55  H   UNK d   1      -1.229  -5.394 -13.067  0.00  0.00     0.026 H 
ATOM     56  H   UNK d   1      -1.298  -4.621 -11.465  0.00  0.00     0.026 H 
ATOM     57  C   UNK d   1       0.441  -6.287 -10.187  0.00  0.00    -0.035 C 
ATOM     58  H   UNK d   1       0.289  -7.134 -12.162  0.00  0.00     0.027 H 
ATOM     59  H   UNK d   1      -1.245  -7.092 -11.260  0.00  0.00     0.027 H 
ATOM     60  H   UNK d   1      -0.177  -5.698  -9.509  0.00  0.00     0.028 H 
ATOM     61  H   UNK d   1       0.691  -7.238  -9.717  0.00  0.00     0.028 H 
ATOM     62  H   UNK d   1       2.344  -6.108 -11.180  0.00  0.00     0.050 H 
ENDBRANCH  18  46
TORSDOF 3
ENDMDL
MODEL 10
REMARK VINA RESULT:      -6.3      6.351      9.198
REMARK  3 active torsions:
REMARK  status: ('A' for Active; 'I' for Inactive)
REMARK    1  A    between atoms: CG_4  and  CB_7 
REMARK    2  A    between atoms: CB_7  and  CA_8 
REMARK       I    between atoms: N_15  and  C_22 
REMARK       I    between atoms: C_22  and  N_24 
REMARK    3  A    between atoms: N_24  and  C_25 
ROOT
ATOM      1  CA  PHE d   2       7.432  -1.495  -4.262  0.00  0.00     0.100 C 
ATOM      2  HA  PHE d   2       7.413  -2.383  -3.629  0.00  0.00     0.059 H 
ATOM      3  C   PHE d   2       8.778  -1.387  -4.946  0.00  0.00     0.237 C 
ATOM      4  O   PHE d   2       9.536  -2.330  -5.009  0.00  0.00    -0.274 OA
ATOM      5  N   PHE d   2       7.232  -0.293  -3.434  0.00  0.00    -0.302 N 
ATOM      6  H   PHE d   2       6.902  -0.351  -2.524  0.00  0.00     0.149 HD
ATOM      7  N   UNK d   1       9.100  -0.171  -5.492  0.00  0.00    -0.285 N 
ATOM      8  C   UNK d   1      10.430   0.001  -6.042  0.00  0.00     0.031 C 
ATOM      9  C   UNK d   1      10.582   1.263  -6.872  0.00  0.00     0.032 C 
ATOM     10  N   UNK d   1       9.817   2.358  -6.288  0.00  0.00    -0.282 N 
ATOM     11  C   UNK d   1       8.405   2.198  -5.971  0.00  0.00     0.043 C 
ATOM     12  C   UNK d   1       8.071   0.849  -5.416  0.00  0.00     0.118 C 
ATOM     13  H   UNK d   1       7.247   0.482  -6.029  0.00  0.00     0.061 H 
ATOM     14  C   UNK d   1       7.530   0.909  -4.010  0.00  0.00     0.236 C 
ATOM     15  O   UNK d   1       7.371   1.960  -3.425  0.00  0.00    -0.274 OA
ATOM     16  C   UNK d   1      10.425   3.532  -6.032  0.00  0.00     0.302 C 
ATOM     17  O   UNK d   1      11.582   3.702  -6.367  0.00  0.00    -0.253 OA
ATOM     18  N   UNK d   1       9.753   4.518  -5.407  0.00  0.00    -0.296 N 
ATOM     19  H   UNK d   1      10.662  -0.859  -6.670  0.00  0.00     0.048 H 
ATOM     20  H   UNK d   1      11.145   0.035  -5.221  0.00  0.00     0.048 H 
ATOM     21  H   UNK d   1      10.223   1.073  -7.883  0.00  0.00     0.048 H 
ATOM     22  H   UNK d   1      11.635   1.542  -6.911  0.00  0.00     0.048 H 
ATOM     23  H   UNK d   1       8.122   2.957  -5.242  0.00  0.00     0.049 H 
ATOM     24  H   UNK d   1       7.823   2.354  -6.881  0.00  0.00     0.049 H 
ATOM     25  H   UNK d   1       8.810   4.410  -5.206  0.00  0.00     0.150 HD
ENDROOT
BRANCH   1  26
ATOM     26  CB  PHE d   2       6.325  -1.588  -5.313  0.00  0.00    -0.023 C 
ATOM     27  HB1 PHE d   2       6.327  -0.686  -5.924  0.00  0.00     0.029 H 
ATOM     28  HB2 PHE d   2       6.498  -2.457  -5.948  0.00  0.00     0.029 H 
BRANCH  26  29
ATOM     29  CG  PHE d   2       4.969  -1.729  -4.616  0.00  0.00    -0.039 A 
ATOM     30  CD1 PHE d   2       5.186  -2.052  -3.138  0.00  0.00    -0.050 A 
ATOM     31  CE1 PHE d   2       3.832  -2.194  -2.442  0.00  0.00    -0.053 A 
ATOM     32 1HD1 PHE d   2       5.740  -2.987  -3.048  0.00  0.00     0.027 H 
ATOM     33 2HD1 PHE d   2       5.753  -1.247  -2.669  0.00  0.00     0.027 H 
ATOM     34  CZ  PHE d   2       3.054  -0.883  -2.568  0.00  0.00    -0.053 A 
ATOM     35 1HE1 PHE d   2       3.265  -2.998  -2.910  0.00  0.00     0.026 H 
ATOM     36 2HE1 PHE d   2       3.986  -2.423  -1.388  0.00  0.00     0.026 H 
ATOM     37  CE2 PHE d   2       2.837  -0.559  -4.048  0.00  0.00    -0.053 A 
ATOM     38  HZ1 PHE d   2       2.089  -0.983  -2.073  0.00  0.00     0.026 H 
ATOM     39  HZ2 PHE d   2       3.620  -0.077  -2.100  0.00  0.00     0.026 H 
ATOM     40  CD2 PHE d   2       4.191  -0.418  -4.743  0.00  0.00    -0.050 A 
ATOM     41 1HE2 PHE d   2       2.270  -1.364  -4.516  0.00  0.00     0.026 H 
ATOM     42 2HE2 PHE d   2       2.283   0.375  -4.138  0.00  0.00     0.026 H 
ATOM     43 1HD2 PHE d   2       4.758   0.387  -4.276  0.00  0.00     0.027 H 
ATOM     44 2HD2 PHE d   2       4.037  -0.188  -5.798  0.00  0.00     0.027 H 
ATOM     45  HG  PHE d   2       4.403  -2.534  -5.085  0.00  0.00     0.030 H 
ENDBRANCH  26  29
ENDBRANCH   1  26
BRANCH  18  46
ATOM     46  C   UNK d   1      10.446   5.752  -5.028  0.00  0.00     0.025 C 
ATOM     47  C   UNK d   1      10.790   5.708  -3.538  0.00  0.00    -0.035 C 
ATOM     48  C   UNK d   1      11.513   6.997  -3.143  0.00  0.00    -0.051 C 
ATOM     49  H   UNK d   1       9.872   5.614  -2.957  0.00  0.00     0.028 H 
ATOM     50  H   UNK d   1      11.435   4.853  -3.339  0.00  0.00     0.028 H 
ATOM     51  C   UNK d   1      10.607   8.197  -3.422  0.00  0.00    -0.053 C 
ATOM     52  H   UNK d   1      11.758   6.965  -2.081  0.00  0.00     0.027 H 
ATOM     53  H   UNK d   1      12.430   7.091  -3.725  0.00  0.00     0.027 H 
ATOM     54  C   UNK d   1      10.263   8.241  -4.912  0.00  0.00    -0.051 C 
ATOM     55  H   UNK d   1      11.122   9.115  -3.141  0.00  0.00     0.026 H 
ATOM     56  H   UNK d   1       9.690   8.103  -2.841  0.00  0.00     0.026 H 
ATOM     57  C   UNK d   1       9.540   6.953  -5.307  0.00  0.00    -0.035 C 
ATOM     58  H   UNK d   1      11.181   8.335  -5.495  0.00  0.00     0.027 H 
ATOM     59  H   UNK d   1       9.618   9.097  -5.112  0.00  0.00     0.027 H 
ATOM     60  H   UNK d   1       8.622   6.858  -4.726  0.00  0.00     0.028 H 
ATOM     61  H   UNK d   1       9.295   6.984  -6.369  0.00  0.00     0.028 H 
ATOM     62  H   UNK d   1      11.363   5.847  -5.610  0.00  0.00     0.050 H 
ENDBRANCH  18  46
TORSDOF 3
ENDMDL
