MODEL 1
REMARK VINA RESULT:      -6.6      0.000      0.000
REMARK  4 active torsions:
REMARK  status: ('A' for Active; 'I' for Inactive)
REMARK    1  A    between atoms: C_1  and  O_2 
REMARK    2  A    between atoms: O_2  and  C_3 
REMARK    3  A    between atoms: C_6  and  C_9 
REMARK       I    between atoms: C_9  and  N_11 
REMARK    4  A    between atoms: C_20  and  C_27 
ROOT
ATOM      1  C   LIG d   1       5.829  -0.802  -6.899  0.00  0.00     0.247 C 
ATOM      2  O   LIG d   1       6.889  -1.090  -7.420  0.00  0.00    -0.270 OA
ATOM      3  N   LIG d   1       5.769  -0.586  -5.571  0.00  0.00    -0.297 N 
ATOM      4  C   LIG d   1       4.479  -0.367  -4.905  0.00  0.00     0.019 C 
ATOM      5  C   LIG d   1       4.349  -1.280  -3.693  0.00  0.00    -0.006 C 
ATOM      6  H   LIG d   1       3.467  -0.935  -3.132  0.00  0.00     0.033 H 
ATOM      7  C   LIG d   1       5.586  -1.188  -2.799  0.00  0.00    -0.037 C 
ATOM      8  C   LIG d   1       6.809  -1.595  -3.626  0.00  0.00     0.016 C 
ATOM      9  H   LIG d   1       7.694  -1.656  -2.975  0.00  0.00     0.038 H 
ATOM     10  C   LIG d   1       6.994  -0.566  -4.755  0.00  0.00     0.023 C 
ATOM     11  C   LIG d   1       6.567  -2.942  -4.266  0.00  0.00     0.030 A 
ATOM     12  C   LIG d   1       7.659  -3.690  -4.580  0.00  0.00    -0.024 A 
ATOM     13  C   LIG d   1       7.520  -4.899  -5.269  0.00  0.00    -0.051 A 
ATOM     14  C   LIG d   1       6.270  -5.310  -5.632  0.00  0.00     0.003 A 
ATOM     15  C   LIG d   1       5.164  -4.524  -5.280  0.00  0.00     0.252 A 
ATOM     16  O   LIG d   1       4.046  -4.865  -5.630  0.00  0.00    -0.268 OA
ATOM     17  N   LIG d   1       5.323  -3.389  -4.556  0.00  0.00    -0.311 N 
ATOM     18  C   LIG d   1       4.105  -2.724  -4.092  0.00  0.00     0.031 C 
ATOM     19  H   LIG d   1       4.410   0.681  -4.574  0.00  0.00     0.047 H 
ATOM     20  H   LIG d   1       3.662  -0.584  -5.608  0.00  0.00     0.047 H 
ATOM     21  H   LIG d   1       5.702  -0.156  -2.439  0.00  0.00     0.028 H 
ATOM     22  H   LIG d   1       5.469  -1.866  -1.942  0.00  0.00     0.028 H 
ATOM     23  H   LIG d   1       7.856  -0.833  -5.383  0.00  0.00     0.047 H 
ATOM     24  H   LIG d   1       7.140   0.442  -4.338  0.00  0.00     0.047 H 
ATOM     25  H   LIG d   1       8.386  -5.498  -5.507  0.00  0.00     0.062 H 
ATOM     26  H   LIG d   1       6.136  -6.229  -6.182  0.00  0.00     0.067 H 
ATOM     27  H   LIG d   1       3.724  -3.284  -3.224  0.00  0.00     0.050 H 
ATOM     28  H   LIG d   1       3.367  -2.760  -4.905  0.00  0.00     0.050 H 
ENDROOT
BRANCH   1  29
ATOM     29  C   LIG d   1       4.610  -0.686  -7.723  0.00  0.00     0.037 A 
ATOM     30  C   LIG d   1       4.115   0.573  -8.069  0.00  0.00    -0.046 A 
ATOM     31  C   LIG d   1       2.977   0.676  -8.839  0.00  0.00    -0.019 A 
ATOM     32  H   LIG d   1       4.623   1.465  -7.735  0.00  0.00     0.063 H 
ATOM     33  C   LIG d   1       2.322  -0.471  -9.270  0.00  0.00     0.120 A 
ATOM     34  H   LIG d   1       2.593   1.650  -9.107  0.00  0.00     0.065 H 
ATOM     35  C   LIG d   1       2.811  -1.726  -8.928  0.00  0.00    -0.019 A 
ATOM     36  C   LIG d   1       3.951  -1.838  -8.163  0.00  0.00    -0.046 A 
ATOM     37  H   LIG d   1       2.299  -2.615  -9.265  0.00  0.00     0.065 H 
ATOM     38  H   LIG d   1       4.334  -2.813  -7.902  0.00  0.00     0.063 H 
BRANCH  33  39
ATOM     39  O   LIG d   1       1.201  -0.366 -10.029  0.00  0.00    -0.495 OA
BRANCH  39  40
ATOM     40  C   LIG d   1       1.193  -1.067 -11.275  0.00  0.00     0.079 C 
ATOM     41  H   LIG d   1       1.735  -0.478 -12.030  0.00  0.00     0.066 H 
ATOM     42  H   LIG d   1       0.154  -1.217 -11.604  0.00  0.00     0.066 H 
ATOM     43  H   LIG d   1       1.684  -2.042 -11.150  0.00  0.00     0.066 H 
ENDBRANCH  39  40
ENDBRANCH  33  39
ENDBRANCH   1  29
BRANCH  12  44
ATOM     44  C   LIG d   1       9.031  -3.211  -4.181  0.00  0.00    -0.014 C 
ATOM     45  C   LIG d   1       9.775  -4.339  -3.462  0.00  0.00    -0.046 C 
ATOM     46  C   LIG d   1      11.168  -3.854  -3.057  0.00  0.00    -0.052 C 
ATOM     47  H   LIG d   1       9.214  -4.635  -2.564  0.00  0.00     0.027 H 
ATOM     48  H   LIG d   1       9.869  -5.203  -4.136  0.00  0.00     0.027 H 
ATOM     49  C   LIG d   1      11.949  -3.443  -4.307  0.00  0.00    -0.053 C 
ATOM     50  H   LIG d   1      11.703  -4.665  -2.541  0.00  0.00     0.026 H 
ATOM     51  H   LIG d   1      11.074  -2.990  -2.382  0.00  0.00     0.026 H 
ATOM     52  C   LIG d   1      11.205  -2.315  -5.024  0.00  0.00    -0.052 C 
ATOM     53  H   LIG d   1      12.044  -4.306  -4.980  0.00  0.00     0.026 H 
ATOM     54  H   LIG d   1      12.951  -3.094  -4.015  0.00  0.00     0.026 H 
ATOM     55  C   LIG d   1       9.812  -2.800  -5.430  0.00  0.00    -0.046 C 
ATOM     56  H   LIG d   1      11.766  -2.019  -5.923  0.00  0.00     0.026 H 
ATOM     57  H   LIG d   1      11.111  -1.450  -4.350  0.00  0.00     0.026 H 
ATOM     58  H   LIG d   1       9.906  -3.664  -6.104  0.00  0.00     0.027 H 
ATOM     59  H   LIG d   1       9.277  -1.989  -5.946  0.00  0.00     0.027 H 
ATOM     60  H   LIG d   1       8.921  -2.348  -3.507  0.00  0.00     0.035 H 
ENDBRANCH  12  44
TORSDOF 4
ENDMDL
MODEL 2
REMARK VINA RESULT:      -6.6      9.454     12.561
REMARK  4 active torsions:
REMARK  status: ('A' for Active; 'I' for Inactive)
REMARK    1  A    between atoms: C_1  and  O_2 
REMARK    2  A    between atoms: O_2  and  C_3 
REMARK    3  A    between atoms: C_6  and  C_9 
REMARK       I    between atoms: C_9  and  N_11 
REMARK    4  A    between atoms: C_20  and  C_27 
ROOT
ATOM      1  C   LIG d   1      11.123   7.710  -1.604  0.00  0.00     0.247 C 
ATOM      2  O   LIG d   1      10.113   8.171  -2.098  0.00  0.00    -0.270 OA
ATOM      3  N   LIG d   1      12.224   7.535  -2.360  0.00  0.00    -0.297 N 
ATOM      4  C   LIG d   1      13.408   6.859  -1.816  0.00  0.00     0.019 C 
ATOM      5  C   LIG d   1      13.873   5.764  -2.765  0.00  0.00    -0.006 C 
ATOM      6  H   LIG d   1      14.859   5.433  -2.406  0.00  0.00     0.033 H 
ATOM      7  C   LIG d   1      14.004   6.291  -4.194  0.00  0.00    -0.037 C 
ATOM      8  C   LIG d   1      12.637   6.818  -4.639  0.00  0.00     0.016 C 
ATOM      9  H   LIG d   1      12.673   7.090  -5.705  0.00  0.00     0.038 H 
ATOM     10  C   LIG d   1      12.267   8.017  -3.750  0.00  0.00     0.023 C 
ATOM     11  C   LIG d   1      11.587   5.751  -4.433  0.00  0.00     0.030 A 
ATOM     12  C   LIG d   1      10.475   5.810  -5.215  0.00  0.00    -0.024 A 
ATOM     13  C   LIG d   1       9.414   4.921  -5.011  0.00  0.00    -0.051 A 
ATOM     14  C   LIG d   1       9.508   4.003  -4.007  0.00  0.00     0.003 A 
ATOM     15  C   LIG d   1      10.674   3.958  -3.230  0.00  0.00     0.252 A 
ATOM     16  O   LIG d   1      10.754   3.163  -2.307  0.00  0.00    -0.268 OA
ATOM     17  N   LIG d   1      11.713   4.788  -3.490  0.00  0.00    -0.311 N 
ATOM     18  C   LIG d   1      12.949   4.559  -2.741  0.00  0.00     0.031 C 
ATOM     19  H   LIG d   1      14.221   7.590  -1.686  0.00  0.00     0.047 H 
ATOM     20  H   LIG d   1      13.159   6.411  -0.843  0.00  0.00     0.047 H 
ATOM     21  H   LIG d   1      14.746   7.102  -4.218  0.00  0.00     0.028 H 
ATOM     22  H   LIG d   1      14.327   5.476  -4.857  0.00  0.00     0.028 H 
ATOM     23  H   LIG d   1      11.281   8.416  -4.030  0.00  0.00     0.047 H 
ATOM     24  H   LIG d   1      13.023   8.812  -3.839  0.00  0.00     0.047 H 
ATOM     25  H   LIG d   1       8.537   4.960  -5.639  0.00  0.00     0.062 H 
ATOM     26  H   LIG d   1       8.696   3.318  -3.814  0.00  0.00     0.067 H 
ATOM     27  H   LIG d   1      13.461   3.695  -3.190  0.00  0.00     0.050 H 
ATOM     28  H   LIG d   1      12.678   4.326  -1.702  0.00  0.00     0.050 H 
ENDROOT
BRANCH   1  29
ATOM     29  C   LIG d   1      11.142   7.342  -0.174  0.00  0.00     0.037 A 
ATOM     30  C   LIG d   1      10.927   6.016   0.211  0.00  0.00    -0.046 A 
ATOM     31  C   LIG d   1      10.946   5.677   1.546  0.00  0.00    -0.019 A 
ATOM     32  H   LIG d   1      10.745   5.259  -0.536  0.00  0.00     0.063 H 
ATOM     33  C   LIG d   1      11.181   6.652   2.508  0.00  0.00     0.120 A 
ATOM     34  H   LIG d   1      10.780   4.653   1.845  0.00  0.00     0.065 H 
ATOM     35  C   LIG d   1      11.395   7.972   2.130  0.00  0.00    -0.019 A 
ATOM     36  C   LIG d   1      11.382   8.318   0.796  0.00  0.00    -0.046 A 
ATOM     37  H   LIG d   1      11.576   8.727   2.880  0.00  0.00     0.065 H 
ATOM     38  H   LIG d   1      11.555   9.343   0.502  0.00  0.00     0.063 H 
BRANCH  33  39
ATOM     39  O   LIG d   1      11.200   6.314   3.823  0.00  0.00    -0.495 OA
BRANCH  39  40
ATOM     40  C   LIG d   1      11.385   7.375   4.763  0.00  0.00     0.079 C 
ATOM     41  H   LIG d   1      12.427   7.723   4.721  0.00  0.00     0.066 H 
ATOM     42  H   LIG d   1      11.160   7.010   5.776  0.00  0.00     0.066 H 
ATOM     43  H   LIG d   1      10.710   8.206   4.514  0.00  0.00     0.066 H 
ENDBRANCH  39  40
ENDBRANCH  33  39
ENDBRANCH   1  29
BRANCH  12  44
ATOM     44  C   LIG d   1      10.386   6.841  -6.310  0.00  0.00    -0.014 C 
ATOM     45  C   LIG d   1       9.973   6.161  -7.618  0.00  0.00    -0.046 C 
ATOM     46  C   LIG d   1       9.883   7.207  -8.730  0.00  0.00    -0.052 C 
ATOM     47  H   LIG d   1      10.721   5.401  -7.888  0.00  0.00     0.027 H 
ATOM     48  H   LIG d   1       8.994   5.679  -7.487  0.00  0.00     0.027 H 
ATOM     49  C   LIG d   1       8.841   8.263  -8.353  0.00  0.00    -0.053 C 
ATOM     50  H   LIG d   1       9.585   6.718  -9.669  0.00  0.00     0.026 H 
ATOM     51  H   LIG d   1      10.863   7.689  -8.862  0.00  0.00     0.026 H 
ATOM     52  C   LIG d   1       9.255   8.943  -7.046  0.00  0.00    -0.052 C 
ATOM     53  H   LIG d   1       7.862   7.782  -8.223  0.00  0.00     0.026 H 
ATOM     54  H   LIG d   1       8.776   9.015  -9.153  0.00  0.00     0.026 H 
ATOM     55  C   LIG d   1       9.345   7.896  -5.934  0.00  0.00    -0.046 C 
ATOM     56  H   LIG d   1       8.506   9.702  -6.776  0.00  0.00     0.026 H 
ATOM     57  H   LIG d   1      10.235   9.425  -7.177  0.00  0.00     0.026 H 
ATOM     58  H   LIG d   1       8.365   7.415  -5.803  0.00  0.00     0.027 H 
ATOM     59  H   LIG d   1       9.642   8.386  -4.994  0.00  0.00     0.027 H 
ATOM     60  H   LIG d   1      11.372   7.314  -6.430  0.00  0.00     0.035 H 
ENDBRANCH  12  44
TORSDOF 4
ENDMDL
MODEL 3
REMARK VINA RESULT:      -6.4      2.816      7.284
REMARK  4 active torsions:
REMARK  status: ('A' for Active; 'I' for Inactive)
REMARK    1  A    between atoms: C_1  and  O_2 
REMARK    2  A    between atoms: O_2  and  C_3 
REMARK    3  A    between atoms: C_6  and  C_9 
REMARK       I    between atoms: C_9  and  N_11 
REMARK    4  A    between atoms: C_20  and  C_27 
ROOT
ATOM      1  C   LIG d   1       7.315   0.781  -7.082  0.00  0.00     0.247 C 
ATOM      2  O   LIG d   1       6.749   1.471  -7.908  0.00  0.00    -0.270 OA
ATOM      3  N   LIG d   1       7.279  -0.562  -7.187  0.00  0.00    -0.297 N 
ATOM      4  C   LIG d   1       7.841  -1.412  -6.131  0.00  0.00     0.019 C 
ATOM      5  C   LIG d   1       6.834  -2.475  -5.717  0.00  0.00    -0.006 C 
ATOM      6  H   LIG d   1       7.375  -3.190  -5.078  0.00  0.00     0.033 H 
ATOM      7  C   LIG d   1       6.272  -3.208  -6.935  0.00  0.00    -0.037 C 
ATOM      8  C   LIG d   1       5.596  -2.179  -7.846  0.00  0.00     0.016 C 
ATOM      9  H   LIG d   1       5.078  -2.696  -8.668  0.00  0.00     0.038 H 
ATOM     10  C   LIG d   1       6.672  -1.209  -8.362  0.00  0.00     0.023 C 
ATOM     11  C   LIG d   1       4.594  -1.375  -7.051  0.00  0.00     0.030 A 
ATOM     12  C   LIG d   1       3.560  -0.814  -7.735  0.00  0.00    -0.024 A 
ATOM     13  C   LIG d   1       2.653   0.030  -7.087  0.00  0.00    -0.051 A 
ATOM     14  C   LIG d   1       2.828   0.290  -5.760  0.00  0.00     0.003 A 
ATOM     15  C   LIG d   1       3.893  -0.317  -5.080  0.00  0.00     0.252 A 
ATOM     16  O   LIG d   1       4.080  -0.063  -3.900  0.00  0.00    -0.268 OA
ATOM     17  N   LIG d   1       4.720  -1.181  -5.718  0.00  0.00    -0.311 N 
ATOM     18  C   LIG d   1       5.698  -1.893  -4.895  0.00  0.00     0.031 C 
ATOM     19  H   LIG d   1       8.751  -1.906  -6.505  0.00  0.00     0.047 H 
ATOM     20  H   LIG d   1       8.092  -0.793  -5.258  0.00  0.00     0.047 H 
ATOM     21  H   LIG d   1       7.093  -3.705  -7.473  0.00  0.00     0.028 H 
ATOM     22  H   LIG d   1       5.540  -3.958  -6.606  0.00  0.00     0.028 H 
ATOM     23  H   LIG d   1       6.222  -0.442  -9.010  0.00  0.00     0.047 H 
ATOM     24  H   LIG d   1       7.447  -1.753  -8.921  0.00  0.00     0.047 H 
ATOM     25  H   LIG d   1       1.826   0.465  -7.628  0.00  0.00     0.062 H 
ATOM     26  H   LIG d   1       2.154   0.954  -5.239  0.00  0.00     0.067 H 
ATOM     27  H   LIG d   1       5.171  -2.705  -4.371  0.00  0.00     0.050 H 
ATOM     28  H   LIG d   1       6.103  -1.184  -4.159  0.00  0.00     0.050 H 
ENDROOT
BRANCH   1  29
ATOM     29  C   LIG d   1       8.043   1.415  -5.966  0.00  0.00     0.037 A 
ATOM     30  C   LIG d   1       9.270   2.041  -6.196  0.00  0.00    -0.046 A 
ATOM     31  C   LIG d   1       9.946   2.633  -5.151  0.00  0.00    -0.019 A 
ATOM     32  H   LIG d   1       9.689   2.062  -7.190  0.00  0.00     0.063 H 
ATOM     33  C   LIG d   1       9.407   2.607  -3.870  0.00  0.00     0.120 A 
ATOM     34  H   LIG d   1      10.895   3.117  -5.328  0.00  0.00     0.065 H 
ATOM     35  C   LIG d   1       8.187   1.985  -3.637  0.00  0.00    -0.019 A 
ATOM     36  C   LIG d   1       7.502   1.396  -4.677  0.00  0.00    -0.046 A 
ATOM     37  H   LIG d   1       7.772   1.967  -2.640  0.00  0.00     0.065 H 
ATOM     38  H   LIG d   1       6.551   0.918  -4.496  0.00  0.00     0.063 H 
BRANCH  33  39
ATOM     39  O   LIG d   1      10.076   3.192  -2.843  0.00  0.00    -0.495 OA
BRANCH  39  40
ATOM     40  C   LIG d   1       9.919   4.604  -2.687  0.00  0.00     0.079 C 
ATOM     41  H   LIG d   1      10.823   5.115  -3.050  0.00  0.00     0.066 H 
ATOM     42  H   LIG d   1       9.766   4.840  -1.624  0.00  0.00     0.066 H 
ATOM     43  H   LIG d   1       9.049   4.942  -3.268  0.00  0.00     0.066 H 
ENDBRANCH  39  40
ENDBRANCH  33  39
ENDBRANCH   1  29
BRANCH  12  44
ATOM     44  C   LIG d   1       3.393  -1.105  -9.204  0.00  0.00    -0.014 C 
ATOM     45  C   LIG d   1       2.077  -1.856  -9.428  0.00  0.00    -0.046 C 
ATOM     46  C   LIG d   1       1.907  -2.151 -10.920  0.00  0.00    -0.052 C 
ATOM     47  H   LIG d   1       2.095  -2.802  -8.867  0.00  0.00     0.027 H 
ATOM     48  H   LIG d   1       1.238  -1.238  -9.078  0.00  0.00     0.027 H 
ATOM     49  C   LIG d   1       1.882  -0.835 -11.700  0.00  0.00    -0.053 C 
ATOM     50  H   LIG d   1       0.962  -2.690 -11.080  0.00  0.00     0.026 H 
ATOM     51  H   LIG d   1       2.746  -2.770 -11.270  0.00  0.00     0.026 H 
ATOM     52  C   LIG d   1       3.197  -0.085 -11.477  0.00  0.00    -0.052 C 
ATOM     53  H   LIG d   1       1.043  -0.217 -11.351  0.00  0.00     0.026 H 
ATOM     54  H   LIG d   1       1.759  -1.048 -12.773  0.00  0.00     0.026 H 
ATOM     55  C   LIG d   1       3.367   0.210  -9.985  0.00  0.00    -0.046 C 
ATOM     56  H   LIG d   1       3.179   0.860 -12.038  0.00  0.00     0.026 H 
ATOM     57  H   LIG d   1       4.036  -0.703 -11.827  0.00  0.00     0.026 H 
ATOM     58  H   LIG d   1       2.528   0.829  -9.635  0.00  0.00     0.027 H 
ATOM     59  H   LIG d   1       4.313   0.750  -9.825  0.00  0.00     0.027 H 
ATOM     60  H   LIG d   1       4.238  -1.724  -9.541  0.00  0.00     0.035 H 
ENDBRANCH  12  44
TORSDOF 4
ENDMDL
MODEL 4
REMARK VINA RESULT:      -6.3      3.067      5.940
REMARK  4 active torsions:
REMARK  status: ('A' for Active; 'I' for Inactive)
REMARK    1  A    between atoms: C_1  and  O_2 
REMARK    2  A    between atoms: O_2  and  C_3 
REMARK    3  A    between atoms: C_6  and  C_9 
REMARK       I    between atoms: C_9  and  N_11 
REMARK    4  A    between atoms: C_20  and  C_27 
ROOT
ATOM      1  C   LIG d   1       4.744  -5.559  -6.171  0.00  0.00     0.247 C 
ATOM      2  O   LIG d   1       3.909  -5.206  -5.361  0.00  0.00    -0.270 OA
ATOM      3  N   LIG d   1       6.006  -5.094  -6.084  0.00  0.00    -0.297 N 
ATOM      4  C   LIG d   1       6.992  -5.404  -7.126  0.00  0.00     0.019 C 
ATOM      5  C   LIG d   1       7.681  -4.130  -7.596  0.00  0.00    -0.006 C 
ATOM      6  H   LIG d   1       8.531  -4.444  -8.220  0.00  0.00     0.033 H 
ATOM      7  C   LIG d   1       8.195  -3.312  -6.411  0.00  0.00    -0.037 C 
ATOM      8  C   LIG d   1       7.004  -2.958  -5.517  0.00  0.00     0.016 C 
ATOM      9  H   LIG d   1       7.328  -2.267  -4.724  0.00  0.00     0.038 H 
ATOM     10  C   LIG d   1       6.425  -4.263  -4.944  0.00  0.00     0.023 C 
ATOM     11  C   LIG d   1       5.925  -2.299  -6.343  0.00  0.00     0.030 A 
ATOM     12  C   LIG d   1       5.063  -1.468  -5.696  0.00  0.00    -0.024 A 
ATOM     13  C   LIG d   1       3.976  -0.904  -6.371  0.00  0.00    -0.051 A 
ATOM     14  C   LIG d   1       3.787  -1.211  -7.687  0.00  0.00     0.003 A 
ATOM     15  C   LIG d   1       4.702  -2.058  -8.328  0.00  0.00     0.252 A 
ATOM     16  O   LIG d   1       4.522  -2.366  -9.496  0.00  0.00    -0.268 OA
ATOM     17  N   LIG d   1       5.782  -2.539  -7.667  0.00  0.00    -0.311 N 
ATOM     18  C   LIG d   1       6.769  -3.275  -8.457  0.00  0.00     0.031 C 
ATOM     19  H   LIG d   1       7.749  -6.093  -6.721  0.00  0.00     0.047 H 
ATOM     20  H   LIG d   1       6.487  -5.876  -7.981  0.00  0.00     0.047 H 
ATOM     21  H   LIG d   1       8.927  -3.908  -5.846  0.00  0.00     0.028 H 
ATOM     22  H   LIG d   1       8.675  -2.394  -6.780  0.00  0.00     0.028 H 
ATOM     23  H   LIG d   1       5.554  -4.051  -4.306  0.00  0.00     0.047 H 
ATOM     24  H   LIG d   1       7.186  -4.800  -4.360  0.00  0.00     0.047 H 
ATOM     25  H   LIG d   1       3.299  -0.236  -5.861  0.00  0.00     0.062 H 
ATOM     26  H   LIG d   1       2.944  -0.806  -8.227  0.00  0.00     0.067 H 
ATOM     27  H   LIG d   1       7.373  -2.541  -9.013  0.00  0.00     0.050 H 
ATOM     28  H   LIG d   1       6.227  -3.916  -9.166  0.00  0.00     0.050 H 
ENDROOT
BRANCH   1  29
ATOM     29  C   LIG d   1       4.376  -6.499  -7.248  0.00  0.00     0.037 A 
ATOM     30  C   LIG d   1       3.848  -6.018  -8.448  0.00  0.00    -0.046 A 
ATOM     31  C   LIG d   1       3.507  -6.898  -9.451  0.00  0.00    -0.019 A 
ATOM     32  H   LIG d   1       3.709  -4.957  -8.591  0.00  0.00     0.063 H 
ATOM     33  C   LIG d   1       3.687  -8.264  -9.269  0.00  0.00     0.120 A 
ATOM     34  H   LIG d   1       3.099  -6.527 -10.379  0.00  0.00     0.065 H 
ATOM     35  C   LIG d   1       4.211  -8.748  -8.076  0.00  0.00    -0.019 A 
ATOM     36  C   LIG d   1       4.560  -7.874  -7.071  0.00  0.00    -0.046 A 
ATOM     37  H   LIG d   1       4.349  -9.810  -7.938  0.00  0.00     0.065 H 
ATOM     38  H   LIG d   1       4.972  -8.249  -6.146  0.00  0.00     0.063 H 
BRANCH  33  39
ATOM     39  O   LIG d   1       3.349  -9.129 -10.260  0.00  0.00    -0.495 OA
BRANCH  39  40
ATOM     40  C   LIG d   1       1.983  -9.132 -10.681  0.00  0.00     0.079 C 
ATOM     41  H   LIG d   1       1.502 -10.065 -10.354  0.00  0.00     0.066 H 
ATOM     42  H   LIG d   1       1.939  -9.060 -11.778  0.00  0.00     0.066 H 
ATOM     43  H   LIG d   1       1.461  -8.273 -10.235  0.00  0.00     0.066 H 
ENDBRANCH  39  40
ENDBRANCH  33  39
ENDBRANCH   1  29
BRANCH  12  44
ATOM     44  C   LIG d   1       5.283  -1.152  -4.239  0.00  0.00    -0.014 C 
ATOM     45  C   LIG d   1       5.326   0.366  -4.047  0.00  0.00    -0.046 C 
ATOM     46  C   LIG d   1       5.549   0.687  -2.568  0.00  0.00    -0.052 C 
ATOM     47  H   LIG d   1       6.149   0.787  -4.643  0.00  0.00     0.027 H 
ATOM     48  H   LIG d   1       4.373   0.804  -4.378  0.00  0.00     0.027 H 
ATOM     49  C   LIG d   1       4.403   0.100  -1.741  0.00  0.00    -0.053 C 
ATOM     50  H   LIG d   1       5.579   1.777  -2.431  0.00  0.00     0.026 H 
ATOM     51  H   LIG d   1       6.502   0.249  -2.237  0.00  0.00     0.026 H 
ATOM     52  C   LIG d   1       4.361  -1.417  -1.932  0.00  0.00    -0.052 C 
ATOM     53  H   LIG d   1       3.451   0.538  -2.071  0.00  0.00     0.026 H 
ATOM     54  H   LIG d   1       4.564   0.331  -0.677  0.00  0.00     0.026 H 
ATOM     55  C   LIG d   1       4.138  -1.738  -3.411  0.00  0.00    -0.046 C 
ATOM     56  H   LIG d   1       3.538  -1.839  -1.337  0.00  0.00     0.026 H 
ATOM     57  H   LIG d   1       5.315  -1.856  -1.601  0.00  0.00     0.026 H 
ATOM     58  H   LIG d   1       3.185  -1.301  -3.742  0.00  0.00     0.027 H 
ATOM     59  H   LIG d   1       4.107  -2.830  -3.549  0.00  0.00     0.027 H 
ATOM     60  H   LIG d   1       6.239  -1.596  -3.922  0.00  0.00     0.035 H 
ENDBRANCH  12  44
TORSDOF 4
ENDMDL
MODEL 5
REMARK VINA RESULT:      -6.1      3.098      5.591
REMARK  4 active torsions:
REMARK  status: ('A' for Active; 'I' for Inactive)
REMARK    1  A    between atoms: C_1  and  O_2 
REMARK    2  A    between atoms: O_2  and  C_3 
REMARK    3  A    between atoms: C_6  and  C_9 
REMARK       I    between atoms: C_9  and  N_11 
REMARK    4  A    between atoms: C_20  and  C_27 
ROOT
ATOM      1  C   LIG d   1       7.251  -1.444  -8.081  0.00  0.00     0.247 C 
ATOM      2  O   LIG d   1       7.817  -1.144  -7.049  0.00  0.00    -0.270 OA
ATOM      3  N   LIG d   1       6.009  -0.984  -8.327  0.00  0.00    -0.297 N 
ATOM      4  C   LIG d   1       5.259  -1.441  -9.502  0.00  0.00     0.019 C 
ATOM      5  C   LIG d   1       3.865  -1.899  -9.094  0.00  0.00    -0.006 C 
ATOM      6  H   LIG d   1       3.294  -2.039 -10.025  0.00  0.00     0.033 H 
ATOM      7  C   LIG d   1       3.171  -0.848  -8.228  0.00  0.00    -0.037 C 
ATOM      8  C   LIG d   1       4.027  -0.613  -6.979  0.00  0.00     0.016 C 
ATOM      9  H   LIG d   1       3.490   0.047  -6.281  0.00  0.00     0.038 H 
ATOM     10  C   LIG d   1       5.373  -0.014  -7.421  0.00  0.00     0.023 C 
ATOM     11  C   LIG d   1       4.311  -1.933  -6.300  0.00  0.00     0.030 A 
ATOM     12  C   LIG d   1       4.576  -1.904  -4.966  0.00  0.00    -0.024 A 
ATOM     13  C   LIG d   1       4.951  -3.069  -4.290  0.00  0.00    -0.051 A 
ATOM     14  C   LIG d   1       5.058  -4.234  -4.994  0.00  0.00     0.003 A 
ATOM     15  C   LIG d   1       4.761  -4.232  -6.364  0.00  0.00     0.252 A 
ATOM     16  O   LIG d   1       4.887  -5.261  -7.009  0.00  0.00    -0.268 OA
ATOM     17  N   LIG d   1       4.339  -3.102  -6.980  0.00  0.00    -0.311 N 
ATOM     18  C   LIG d   1       3.893  -3.231  -8.368  0.00  0.00     0.031 C 
ATOM     19  H   LIG d   1       5.168  -0.615 -10.224  0.00  0.00     0.047 H 
ATOM     20  H   LIG d   1       5.790  -2.281  -9.973  0.00  0.00     0.047 H 
ATOM     21  H   LIG d   1       3.071   0.088  -8.797  0.00  0.00     0.028 H 
ATOM     22  H   LIG d   1       2.175  -1.211  -7.938  0.00  0.00     0.028 H 
ATOM     23  H   LIG d   1       6.024   0.155  -6.550  0.00  0.00     0.047 H 
ATOM     24  H   LIG d   1       5.216   0.936  -7.953  0.00  0.00     0.047 H 
ATOM     25  H   LIG d   1       5.150  -3.049  -3.229  0.00  0.00     0.062 H 
ATOM     26  H   LIG d   1       5.365  -5.144  -4.501  0.00  0.00     0.067 H 
ATOM     27  H   LIG d   1       2.882  -3.665  -8.360  0.00  0.00     0.050 H 
ATOM     28  H   LIG d   1       4.582  -3.915  -8.884  0.00  0.00     0.050 H 
ENDROOT
BRANCH   1  29
ATOM     29  C   LIG d   1       7.925  -2.312  -9.067  0.00  0.00     0.037 A 
ATOM     30  C   LIG d   1       7.779  -3.700  -8.995  0.00  0.00    -0.046 A 
ATOM     31  C   LIG d   1       8.409  -4.506  -9.917  0.00  0.00    -0.019 A 
ATOM     32  H   LIG d   1       7.172  -4.140  -8.219  0.00  0.00     0.063 H 
ATOM     33  C   LIG d   1       9.190  -3.939 -10.918  0.00  0.00     0.120 A 
ATOM     34  H   LIG d   1       8.296  -5.578  -9.862  0.00  0.00     0.065 H 
ATOM     35  C   LIG d   1       9.339  -2.560 -10.992  0.00  0.00    -0.019 A 
ATOM     36  C   LIG d   1       8.708  -1.747 -10.078  0.00  0.00    -0.046 A 
ATOM     37  H   LIG d   1       9.947  -2.124 -11.771  0.00  0.00     0.065 H 
ATOM     38  H   LIG d   1       8.819  -0.674 -10.139  0.00  0.00     0.063 H 
BRANCH  33  39
ATOM     39  O   LIG d   1       9.809  -4.737 -11.825  0.00  0.00    -0.495 OA
BRANCH  39  40
ATOM     40  C   LIG d   1       9.032  -5.789 -12.402  0.00  0.00     0.079 C 
ATOM     41  H   LIG d   1       9.688  -6.451 -12.986  0.00  0.00     0.066 H 
ATOM     42  H   LIG d   1       8.265  -5.358 -13.061  0.00  0.00     0.066 H 
ATOM     43  H   LIG d   1       8.547  -6.367 -11.602  0.00  0.00     0.066 H 
ENDBRANCH  39  40
ENDBRANCH  33  39
ENDBRANCH   1  29
BRANCH  12  44
ATOM     44  C   LIG d   1       4.465  -0.605  -4.211  0.00  0.00    -0.014 C 
ATOM     45  C   LIG d   1       3.363  -0.722  -3.154  0.00  0.00    -0.046 C 
ATOM     46  C   LIG d   1       3.250   0.596  -2.387  0.00  0.00    -0.052 C 
ATOM     47  H   LIG d   1       2.405  -0.944  -3.647  0.00  0.00     0.027 H 
ATOM     48  H   LIG d   1       3.611  -1.534  -2.455  0.00  0.00     0.027 H 
ATOM     49  C   LIG d   1       4.583   0.903  -1.702  0.00  0.00    -0.053 C 
ATOM     50  H   LIG d   1       2.459   0.512  -1.628  0.00  0.00     0.026 H 
ATOM     51  H   LIG d   1       3.001   1.408  -3.087  0.00  0.00     0.026 H 
ATOM     52  C   LIG d   1       5.684   1.022  -2.758  0.00  0.00    -0.052 C 
ATOM     53  H   LIG d   1       4.831   0.093  -1.002  0.00  0.00     0.026 H 
ATOM     54  H   LIG d   1       4.501   1.852  -1.150  0.00  0.00     0.026 H 
ATOM     55  C   LIG d   1       5.797  -0.297  -3.525  0.00  0.00    -0.046 C 
ATOM     56  H   LIG d   1       6.642   1.243  -2.265  0.00  0.00     0.026 H 
ATOM     57  H   LIG d   1       5.436   1.833  -3.458  0.00  0.00     0.026 H 
ATOM     58  H   LIG d   1       6.046  -1.109  -2.826  0.00  0.00     0.027 H 
ATOM     59  H   LIG d   1       6.589  -0.213  -4.284  0.00  0.00     0.027 H 
ATOM     60  H   LIG d   1       4.216   0.197  -4.922  0.00  0.00     0.035 H 
ENDBRANCH  12  44
TORSDOF 4
ENDMDL
MODEL 6
REMARK VINA RESULT:      -6.0      2.138      7.219
REMARK  4 active torsions:
REMARK  status: ('A' for Active; 'I' for Inactive)
REMARK    1  A    between atoms: C_1  and  O_2 
REMARK    2  A    between atoms: O_2  and  C_3 
REMARK    3  A    between atoms: C_6  and  C_9 
REMARK       I    between atoms: C_9  and  N_11 
REMARK    4  A    between atoms: C_20  and  C_27 
ROOT
ATOM      1  C   LIG d   1       6.413  -3.455  -6.190  0.00  0.00     0.247 C 
ATOM      2  O   LIG d   1       6.563  -3.428  -7.396  0.00  0.00    -0.270 OA
ATOM      3  N   LIG d   1       5.370  -2.816  -5.626  0.00  0.00    -0.297 N 
ATOM      4  C   LIG d   1       5.245  -2.727  -4.166  0.00  0.00     0.019 C 
ATOM      5  C   LIG d   1       4.995  -1.285  -3.745  0.00  0.00    -0.006 C 
ATOM      6  H   LIG d   1       4.717  -1.312  -2.681  0.00  0.00     0.033 H 
ATOM      7  C   LIG d   1       3.854  -0.665  -4.552  0.00  0.00    -0.037 C 
ATOM      8  C   LIG d   1       4.231  -0.714  -6.035  0.00  0.00     0.016 C 
ATOM      9  H   LIG d   1       3.483  -0.165  -6.626  0.00  0.00     0.038 H 
ATOM     10  C   LIG d   1       4.331  -2.189  -6.460  0.00  0.00     0.023 C 
ATOM     11  C   LIG d   1       5.588  -0.083  -6.237  0.00  0.00     0.030 A 
ATOM     12  C   LIG d   1       5.859   0.435  -7.466  0.00  0.00    -0.024 A 
ATOM     13  C   LIG d   1       7.130   0.940  -7.761  0.00  0.00    -0.051 A 
ATOM     14  C   LIG d   1       8.096   0.894  -6.799  0.00  0.00     0.003 A 
ATOM     15  C   LIG d   1       7.780   0.369  -5.538  0.00  0.00     0.252 A 
ATOM     16  O   LIG d   1       8.647   0.291  -4.682  0.00  0.00    -0.268 OA
ATOM     17  N   LIG d   1       6.523  -0.055  -5.260  0.00  0.00    -0.311 N 
ATOM     18  C   LIG d   1       6.243  -0.430  -3.873  0.00  0.00     0.031 C 
ATOM     19  H   LIG d   1       4.402  -3.350  -3.832  0.00  0.00     0.047 H 
ATOM     20  H   LIG d   1       6.173  -3.083  -3.697  0.00  0.00     0.047 H 
ATOM     21  H   LIG d   1       2.931  -1.237  -4.379  0.00  0.00     0.028 H 
ATOM     22  H   LIG d   1       3.706   0.377  -4.235  0.00  0.00     0.028 H 
ATOM     23  H   LIG d   1       4.617  -2.267  -7.520  0.00  0.00     0.047 H 
ATOM     24  H   LIG d   1       3.372  -2.704  -6.299  0.00  0.00     0.047 H 
ATOM     25  H   LIG d   1       7.341   1.361  -8.732  0.00  0.00     0.062 H 
ATOM     26  H   LIG d   1       9.091   1.258  -7.006  0.00  0.00     0.067 H 
ATOM     27  H   LIG d   1       6.113   0.496  -3.292  0.00  0.00     0.050 H 
ATOM     28  H   LIG d   1       7.109  -0.986  -3.490  0.00  0.00     0.050 H 
ENDROOT
BRANCH   1  29
ATOM     29  C   LIG d   1       7.373  -4.192  -5.344  0.00  0.00     0.037 A 
ATOM     30  C   LIG d   1       8.269  -3.494  -4.531  0.00  0.00    -0.046 A 
ATOM     31  C   LIG d   1       9.162  -4.185  -3.742  0.00  0.00    -0.019 A 
ATOM     32  H   LIG d   1       8.261  -2.415  -4.519  0.00  0.00     0.063 H 
ATOM     33  C   LIG d   1       9.172  -5.574  -3.755  0.00  0.00     0.120 A 
ATOM     34  H   LIG d   1       9.856  -3.646  -3.113  0.00  0.00     0.065 H 
ATOM     35  C   LIG d   1       8.283  -6.273  -4.563  0.00  0.00    -0.019 A 
ATOM     36  C   LIG d   1       7.383  -5.590  -5.350  0.00  0.00    -0.046 A 
ATOM     37  H   LIG d   1       8.294  -7.353  -4.571  0.00  0.00     0.065 H 
ATOM     38  H   LIG d   1       6.688  -6.132  -5.974  0.00  0.00     0.063 H 
BRANCH  33  39
ATOM     39  O   LIG d   1      10.054  -6.252  -2.976  0.00  0.00    -0.495 OA
BRANCH  39  40
ATOM     40  C   LIG d   1       9.917  -6.104  -1.561  0.00  0.00     0.079 C 
ATOM     41  H   LIG d   1       9.723  -5.048  -1.321  0.00  0.00     0.066 H 
ATOM     42  H   LIG d   1      10.844  -6.429  -1.067  0.00  0.00     0.066 H 
ATOM     43  H   LIG d   1       9.077  -6.720  -1.208  0.00  0.00     0.066 H 
ENDBRANCH  39  40
ENDBRANCH  33  39
ENDBRANCH   1  29
BRANCH  12  44
ATOM     44  C   LIG d   1       4.781   0.464  -8.518  0.00  0.00    -0.014 C 
ATOM     45  C   LIG d   1       4.638   1.888  -9.062  0.00  0.00    -0.046 C 
ATOM     46  C   LIG d   1       3.543   1.918 -10.130  0.00  0.00    -0.052 C 
ATOM     47  H   LIG d   1       4.368   2.568  -8.241  0.00  0.00     0.027 H 
ATOM     48  H   LIG d   1       5.592   2.208  -9.505  0.00  0.00     0.027 H 
ATOM     49  C   LIG d   1       3.919   0.971 -11.272  0.00  0.00    -0.053 C 
ATOM     50  H   LIG d   1       3.441   2.941 -10.521  0.00  0.00     0.026 H 
ATOM     51  H   LIG d   1       2.589   1.598  -9.687  0.00  0.00     0.026 H 
ATOM     52  C   LIG d   1       4.061  -0.452 -10.728  0.00  0.00    -0.052 C 
ATOM     53  H   LIG d   1       4.872   1.291 -11.715  0.00  0.00     0.026 H 
ATOM     54  H   LIG d   1       3.132   0.993 -12.040  0.00  0.00     0.026 H 
ATOM     55  C   LIG d   1       5.156  -0.482  -9.660  0.00  0.00    -0.046 C 
ATOM     56  H   LIG d   1       4.331  -1.133 -11.549  0.00  0.00     0.026 H 
ATOM     57  H   LIG d   1       3.107  -0.773 -10.285  0.00  0.00     0.026 H 
ATOM     58  H   LIG d   1       6.110  -0.162 -10.103  0.00  0.00     0.027 H 
ATOM     59  H   LIG d   1       5.258  -1.506  -9.269  0.00  0.00     0.027 H 
ATOM     60  H   LIG d   1       3.833   0.141  -8.061  0.00  0.00     0.035 H 
ENDBRANCH  12  44
TORSDOF 4
ENDMDL
MODEL 7
REMARK VINA RESULT:      -5.9     10.166     13.023
REMARK  4 active torsions:
REMARK  status: ('A' for Active; 'I' for Inactive)
REMARK    1  A    between atoms: C_1  and  O_2 
REMARK    2  A    between atoms: O_2  and  C_3 
REMARK    3  A    between atoms: C_6  and  C_9 
REMARK       I    between atoms: C_9  and  N_11 
REMARK    4  A    between atoms: C_20  and  C_27 
ROOT
ATOM      1  C   LIG d   1      10.016   6.123  -2.710  0.00  0.00     0.247 C 
ATOM      2  O   LIG d   1       9.543   6.815  -3.589  0.00  0.00    -0.270 OA
ATOM      3  N   LIG d   1      10.084   6.589  -1.448  0.00  0.00    -0.297 N 
ATOM      4  C   LIG d   1      10.770   5.823  -0.401  0.00  0.00     0.019 C 
ATOM      5  C   LIG d   1      11.757   6.713   0.343  0.00  0.00    -0.006 C 
ATOM      6  H   LIG d   1      12.088   6.146   1.227  0.00  0.00     0.033 H 
ATOM      7  C   LIG d   1      11.094   8.014   0.795  0.00  0.00    -0.037 C 
ATOM      8  C   LIG d   1      10.571   8.744  -0.446  0.00  0.00     0.016 C 
ATOM      9  H   LIG d   1      10.199   9.739  -0.162  0.00  0.00     0.038 H 
ATOM     10  C   LIG d   1       9.472   7.879  -1.088  0.00  0.00     0.023 C 
ATOM     11  C   LIG d   1      11.685   8.897  -1.455  0.00  0.00     0.030 A 
ATOM     12  C   LIG d   1      11.589   9.925  -2.340  0.00  0.00    -0.024 A 
ATOM     13  C   LIG d   1      12.526  10.069  -3.369  0.00  0.00    -0.051 A 
ATOM     14  C   LIG d   1      13.531   9.153  -3.476  0.00  0.00     0.003 A 
ATOM     15  C   LIG d   1      13.611   8.114  -2.538  0.00  0.00     0.252 A 
ATOM     16  O   LIG d   1      14.487   7.270  -2.646  0.00  0.00    -0.268 OA
ATOM     17  N   LIG d   1      12.727   8.036  -1.514  0.00  0.00    -0.311 N 
ATOM     18  C   LIG d   1      12.986   7.022  -0.491  0.00  0.00     0.031 C 
ATOM     19  H   LIG d   1      10.029   5.433   0.314  0.00  0.00     0.047 H 
ATOM     20  H   LIG d   1      11.315   4.985  -0.858  0.00  0.00     0.047 H 
ATOM     21  H   LIG d   1      10.260   7.784   1.475  0.00  0.00     0.028 H 
ATOM     22  H   LIG d   1      11.832   8.640   1.316  0.00  0.00     0.028 H 
ATOM     23  H   LIG d   1       9.081   8.364  -1.995  0.00  0.00     0.047 H 
ATOM     24  H   LIG d   1       8.650   7.710  -0.378  0.00  0.00     0.047 H 
ATOM     25  H   LIG d   1      12.456  10.892  -4.064  0.00  0.00     0.062 H 
ATOM     26  H   LIG d   1      14.256   9.228  -4.273  0.00  0.00     0.067 H 
ATOM     27  H   LIG d   1      13.788   7.398   0.163  0.00  0.00     0.050 H 
ATOM     28  H   LIG d   1      13.325   6.107  -0.998  0.00  0.00     0.050 H 
ENDROOT
BRANCH   1  29
ATOM     29  C   LIG d   1      10.516   4.770  -3.025  0.00  0.00     0.037 A 
ATOM     30  C   LIG d   1       9.630   3.692  -3.084  0.00  0.00    -0.046 A 
ATOM     31  C   LIG d   1      10.100   2.431  -3.379  0.00  0.00    -0.019 A 
ATOM     32  H   LIG d   1       8.578   3.846  -2.899  0.00  0.00     0.063 H 
ATOM     33  C   LIG d   1      11.455   2.232  -3.618  0.00  0.00     0.120 A 
ATOM     34  H   LIG d   1       9.416   1.597  -3.425  0.00  0.00     0.065 H 
ATOM     35  C   LIG d   1      12.340   3.301  -3.560  0.00  0.00    -0.019 A 
ATOM     36  C   LIG d   1      11.877   4.566  -3.271  0.00  0.00    -0.046 A 
ATOM     37  H   LIG d   1      13.392   3.142  -3.745  0.00  0.00     0.065 H 
ATOM     38  H   LIG d   1      12.564   5.398  -3.231  0.00  0.00     0.063 H 
BRANCH  33  39
ATOM     39  O   LIG d   1      11.915   0.988  -3.909  0.00  0.00    -0.495 OA
BRANCH  39  40
ATOM     40  C   LIG d   1      13.303   0.739  -3.678  0.00  0.00     0.079 C 
ATOM     41  H   LIG d   1      13.762   0.344  -4.596  0.00  0.00     0.066 H 
ATOM     42  H   LIG d   1      13.413   0.004  -2.867  0.00  0.00     0.066 H 
ATOM     43  H   LIG d   1      13.801   1.677  -3.393  0.00  0.00     0.066 H 
ENDBRANCH  39  40
ENDBRANCH  33  39
ENDBRANCH   1  29
BRANCH  12  44
ATOM     44  C   LIG d   1      10.463  10.918  -2.211  0.00  0.00    -0.014 C 
ATOM     45  C   LIG d   1      11.039  12.334  -2.123  0.00  0.00    -0.046 C 
ATOM     46  C   LIG d   1       9.896  13.342  -1.992  0.00  0.00    -0.052 C 
ATOM     47  H   LIG d   1      11.697  12.408  -1.245  0.00  0.00     0.027 H 
ATOM     48  H   LIG d   1      11.618  12.550  -3.033  0.00  0.00     0.027 H 
ATOM     49  C   LIG d   1       8.982  13.238  -3.215  0.00  0.00    -0.053 C 
ATOM     50  H   LIG d   1      10.311  14.359  -1.930  0.00  0.00     0.026 H 
ATOM     51  H   LIG d   1       9.318  13.126  -1.082  0.00  0.00     0.026 H 
ATOM     52  C   LIG d   1       8.406  11.824  -3.302  0.00  0.00    -0.052 C 
ATOM     53  H   LIG d   1       9.560  13.456  -4.125  0.00  0.00     0.026 H 
ATOM     54  H   LIG d   1       8.161  13.964  -3.121  0.00  0.00     0.026 H 
ATOM     55  C   LIG d   1       9.549  10.815  -3.433  0.00  0.00    -0.046 C 
ATOM     56  H   LIG d   1       7.748  11.750  -4.181  0.00  0.00     0.026 H 
ATOM     57  H   LIG d   1       7.827  11.607  -2.392  0.00  0.00     0.026 H 
ATOM     58  H   LIG d   1      10.127  11.032  -4.343  0.00  0.00     0.027 H 
ATOM     59  H   LIG d   1       9.134   9.798  -3.496  0.00  0.00     0.027 H 
ATOM     60  H   LIG d   1       9.894  10.689  -1.298  0.00  0.00     0.035 H 
ENDBRANCH  12  44
TORSDOF 4
ENDMDL
MODEL 8
REMARK VINA RESULT:      -5.8      3.203      5.743
REMARK  4 active torsions:
REMARK  status: ('A' for Active; 'I' for Inactive)
REMARK    1  A    between atoms: C_1  and  O_2 
REMARK    2  A    between atoms: O_2  and  C_3 
REMARK    3  A    between atoms: C_6  and  C_9 
REMARK       I    between atoms: C_9  and  N_11 
REMARK    4  A    between atoms: C_20  and  C_27 
ROOT
ATOM      1  C   LIG d   1       7.374  -2.165  -8.044  0.00  0.00     0.247 C 
ATOM      2  O   LIG d   1       7.667  -1.097  -7.546  0.00  0.00    -0.270 OA
ATOM      3  N   LIG d   1       6.200  -2.752  -7.739  0.00  0.00    -0.297 N 
ATOM      4  C   LIG d   1       5.887  -4.101  -8.226  0.00  0.00     0.019 C 
ATOM      5  C   LIG d   1       5.416  -4.981  -7.077  0.00  0.00    -0.006 C 
ATOM      6  H   LIG d   1       5.014  -5.901  -7.528  0.00  0.00     0.033 H 
ATOM      7  C   LIG d   1       4.316  -4.291  -6.269  0.00  0.00    -0.037 C 
ATOM      8  C   LIG d   1       4.876  -2.976  -5.719  0.00  0.00     0.016 C 
ATOM      9  H   LIG d   1       4.146  -2.520  -5.034  0.00  0.00     0.038 H 
ATOM     10  C   LIG d   1       5.204  -2.056  -6.908  0.00  0.00     0.023 C 
ATOM     11  C   LIG d   1       6.162  -3.241  -4.973  0.00  0.00     0.030 A 
ATOM     12  C   LIG d   1       6.518  -2.353  -4.007  0.00  0.00    -0.024 A 
ATOM     13  C   LIG d   1       7.746  -2.473  -3.347  0.00  0.00    -0.051 A 
ATOM     14  C   LIG d   1       8.585  -3.490  -3.697  0.00  0.00     0.003 A 
ATOM     15  C   LIG d   1       8.181  -4.398  -4.685  0.00  0.00     0.252 A 
ATOM     16  O   LIG d   1       8.939  -5.291  -5.030  0.00  0.00    -0.268 OA
ATOM     17  N   LIG d   1       6.960  -4.295  -5.264  0.00  0.00    -0.311 N 
ATOM     18  C   LIG d   1       6.558  -5.380  -6.160  0.00  0.00     0.031 C 
ATOM     19  H   LIG d   1       5.089  -4.041  -8.982  0.00  0.00     0.047 H 
ATOM     20  H   LIG d   1       6.786  -4.546  -8.675  0.00  0.00     0.047 H 
ATOM     21  H   LIG d   1       3.454  -4.090  -6.921  0.00  0.00     0.028 H 
ATOM     22  H   LIG d   1       4.006  -4.944  -5.440  0.00  0.00     0.028 H 
ATOM     23  H   LIG d   1       5.625  -1.103  -6.554  0.00  0.00     0.047 H 
ATOM     24  H   LIG d   1       4.302  -1.860  -7.505  0.00  0.00     0.047 H 
ATOM     25  H   LIG d   1       8.023  -1.774  -2.571  0.00  0.00     0.062 H 
ATOM     26  H   LIG d   1       9.547  -3.594  -3.218  0.00  0.00     0.067 H 
ATOM     27  H   LIG d   1       6.247  -6.234  -5.539  0.00  0.00     0.050 H 
ATOM     28  H   LIG d   1       7.431  -5.663  -6.764  0.00  0.00     0.050 H 
ENDROOT
BRANCH   1  29
ATOM     29  C   LIG d   1       8.304  -2.820  -8.986  0.00  0.00     0.037 A 
ATOM     30  C   LIG d   1       9.265  -3.716  -8.513  0.00  0.00    -0.046 A 
ATOM     31  C   LIG d   1      10.130  -4.324  -9.395  0.00  0.00    -0.019 A 
ATOM     32  H   LIG d   1       9.330  -3.932  -7.457  0.00  0.00     0.063 H 
ATOM     33  C   LIG d   1      10.046  -4.048 -10.754  0.00  0.00     0.120 A 
ATOM     34  H   LIG d   1      10.874  -5.017  -9.030  0.00  0.00     0.065 H 
ATOM     35  C   LIG d   1       9.092  -3.156 -11.230  0.00  0.00    -0.019 A 
ATOM     36  C   LIG d   1       8.220  -2.548 -10.355  0.00  0.00    -0.046 A 
ATOM     37  H   LIG d   1       9.031  -2.944 -12.287  0.00  0.00     0.065 H 
ATOM     38  H   LIG d   1       7.474  -1.860 -10.725  0.00  0.00     0.063 H 
BRANCH  33  39
ATOM     39  O   LIG d   1      10.901  -4.650 -11.621  0.00  0.00    -0.495 OA
BRANCH  39  40
ATOM     40  C   LIG d   1      11.232  -6.017 -11.361  0.00  0.00     0.079 C 
ATOM     41  H   LIG d   1      12.047  -6.329 -12.031  0.00  0.00     0.066 H 
ATOM     42  H   LIG d   1      10.349  -6.647 -11.538  0.00  0.00     0.066 H 
ATOM     43  H   LIG d   1      11.555  -6.122 -10.316  0.00  0.00     0.066 H 
ENDBRANCH  39  40
ENDBRANCH  33  39
ENDBRANCH   1  29
BRANCH  12  44
ATOM     44  C   LIG d   1       5.582  -1.229  -3.644  0.00  0.00    -0.014 C 
ATOM     45  C   LIG d   1       4.728  -1.645  -2.444  0.00  0.00    -0.046 C 
ATOM     46  C   LIG d   1       3.777  -0.504  -2.076  0.00  0.00    -0.052 C 
ATOM     47  H   LIG d   1       4.144  -2.540  -2.703  0.00  0.00     0.027 H 
ATOM     48  H   LIG d   1       5.381  -1.868  -1.589  0.00  0.00     0.027 H 
ATOM     49  C   LIG d   1       4.590   0.741  -1.717  0.00  0.00    -0.053 C 
ATOM     50  H   LIG d   1       3.163  -0.803  -1.214  0.00  0.00     0.026 H 
ATOM     51  H   LIG d   1       3.122  -0.281  -2.931  0.00  0.00     0.026 H 
ATOM     52  C   LIG d   1       5.443   1.157  -2.916  0.00  0.00    -0.052 C 
ATOM     53  H   LIG d   1       5.243   0.519  -0.861  0.00  0.00     0.026 H 
ATOM     54  H   LIG d   1       3.906   1.561  -1.451  0.00  0.00     0.026 H 
ATOM     55  C   LIG d   1       6.394   0.016  -3.284  0.00  0.00    -0.046 C 
ATOM     56  H   LIG d   1       6.027   2.053  -2.658  0.00  0.00     0.026 H 
ATOM     57  H   LIG d   1       4.789   1.381  -3.773  0.00  0.00     0.026 H 
ATOM     58  H   LIG d   1       7.048  -0.207  -2.429  0.00  0.00     0.027 H 
ATOM     59  H   LIG d   1       7.008   0.316  -4.147  0.00  0.00     0.027 H 
ATOM     60  H   LIG d   1       4.935  -1.017  -4.508  0.00  0.00     0.035 H 
ENDBRANCH  12  44
TORSDOF 4
ENDMDL
MODEL 9
REMARK VINA RESULT:      -5.7     14.671     17.585
REMARK  4 active torsions:
REMARK  status: ('A' for Active; 'I' for Inactive)
REMARK    1  A    between atoms: C_1  and  O_2 
REMARK    2  A    between atoms: O_2  and  C_3 
REMARK    3  A    between atoms: C_6  and  C_9 
REMARK       I    between atoms: C_9  and  N_11 
REMARK    4  A    between atoms: C_20  and  C_27 
ROOT
ATOM      1  C   LIG d   1      -1.239   8.536 -15.226  0.00  0.00     0.247 C 
ATOM      2  O   LIG d   1      -0.964   7.487 -14.677  0.00  0.00    -0.270 OA
ATOM      3  N   LIG d   1      -2.463   9.077 -15.073  0.00  0.00    -0.297 N 
ATOM      4  C   LIG d   1      -2.855  10.271 -15.831  0.00  0.00     0.019 C 
ATOM      5  C   LIG d   1      -4.199  10.046 -16.510  0.00  0.00    -0.006 C 
ATOM      6  H   LIG d   1      -4.528  11.026 -16.891  0.00  0.00     0.033 H 
ATOM      7  C   LIG d   1      -5.235   9.515 -15.519  0.00  0.00    -0.037 C 
ATOM      8  C   LIG d   1      -4.718   8.194 -14.944  0.00  0.00     0.016 C 
ATOM      9  H   LIG d   1      -5.497   7.729 -14.322  0.00  0.00     0.038 H 
ATOM     10  C   LIG d   1      -3.437   8.484 -14.143  0.00  0.00     0.023 C 
ATOM     11  C   LIG d   1      -4.353   7.255 -16.071  0.00  0.00     0.030 A 
ATOM     12  C   LIG d   1      -4.384   5.921 -15.806  0.00  0.00    -0.024 A 
ATOM     13  C   LIG d   1      -3.958   4.996 -16.765  0.00  0.00    -0.051 A 
ATOM     14  C   LIG d   1      -3.501   5.455 -17.966  0.00  0.00     0.003 A 
ATOM     15  C   LIG d   1      -3.498   6.835 -18.213  0.00  0.00     0.252 A 
ATOM     16  O   LIG d   1      -3.059   7.258 -19.270  0.00  0.00    -0.268 OA
ATOM     17  N   LIG d   1      -3.975   7.705 -17.290  0.00  0.00    -0.311 N 
ATOM     18  C   LIG d   1      -4.089   9.106 -17.696  0.00  0.00     0.031 C 
ATOM     19  H   LIG d   1      -2.938  11.129 -15.147  0.00  0.00     0.047 H 
ATOM     20  H   LIG d   1      -2.096  10.484 -16.598  0.00  0.00     0.047 H 
ATOM     21  H   LIG d   1      -5.378  10.247 -14.711  0.00  0.00     0.028 H 
ATOM     22  H   LIG d   1      -6.190   9.351 -16.039  0.00  0.00     0.028 H 
ATOM     23  H   LIG d   1      -3.024   7.553 -13.725  0.00  0.00     0.047 H 
ATOM     24  H   LIG d   1      -3.644   9.192 -13.327  0.00  0.00     0.047 H 
ATOM     25  H   LIG d   1      -3.994   3.937 -16.560  0.00  0.00     0.062 H 
ATOM     26  H   LIG d   1      -3.148   4.764 -18.717  0.00  0.00     0.067 H 
ATOM     27  H   LIG d   1      -4.986   9.204 -18.326  0.00  0.00     0.050 H 
ATOM     28  H   LIG d   1      -3.197   9.362 -18.285  0.00  0.00     0.050 H 
ENDROOT
BRANCH   1  29
ATOM     29  C   LIG d   1      -0.229   9.218 -16.060  0.00  0.00     0.037 A 
ATOM     30  C   LIG d   1       0.764   9.997 -15.460  0.00  0.00    -0.046 A 
ATOM     31  C   LIG d   1       1.705  10.631 -16.242  0.00  0.00    -0.019 A 
ATOM     32  H   LIG d   1       0.795  10.102 -14.387  0.00  0.00     0.063 H 
ATOM     33  C   LIG d   1       1.667  10.495 -17.625  0.00  0.00     0.120 A 
ATOM     34  H   LIG d   1       2.473  11.233 -15.779  0.00  0.00     0.065 H 
ATOM     35  C   LIG d   1       0.681   9.721 -18.225  0.00  0.00    -0.019 A 
ATOM     36  C   LIG d   1      -0.260   9.080 -17.450  0.00  0.00    -0.046 A 
ATOM     37  H   LIG d   1       0.654   9.619 -19.300  0.00  0.00     0.065 H 
ATOM     38  H   LIG d   1      -1.023   8.474 -17.916  0.00  0.00     0.063 H 
BRANCH  33  39
ATOM     39  O   LIG d   1       2.597  11.121 -18.392  0.00  0.00    -0.495 OA
BRANCH  39  40
ATOM     40  C   LIG d   1       3.594  11.884 -17.709  0.00  0.00     0.079 C 
ATOM     41  H   LIG d   1       4.577  11.412 -17.852  0.00  0.00     0.066 H 
ATOM     42  H   LIG d   1       3.357  11.919 -16.635  0.00  0.00     0.066 H 
ATOM     43  H   LIG d   1       3.615  12.905 -18.114  0.00  0.00     0.066 H 
ENDBRANCH  39  40
ENDBRANCH  33  39
ENDBRANCH   1  29
BRANCH  12  44
ATOM     44  C   LIG d   1      -4.880   5.436 -14.469  0.00  0.00    -0.014 C 
ATOM     45  C   LIG d   1      -6.296   4.876 -14.624  0.00  0.00    -0.046 C 
ATOM     46  C   LIG d   1      -6.801   4.383 -13.266  0.00  0.00    -0.052 C 
ATOM     47  H   LIG d   1      -6.964   5.665 -14.999  0.00  0.00     0.027 H 
ATOM     48  H   LIG d   1      -6.283   4.038 -15.336  0.00  0.00     0.027 H 
ATOM     49  C   LIG d   1      -5.871   3.285 -12.745  0.00  0.00    -0.053 C 
ATOM     50  H   LIG d   1      -7.818   3.980 -13.377  0.00  0.00     0.026 H 
ATOM     51  H   LIG d   1      -6.815   5.221 -12.554  0.00  0.00     0.026 H 
ATOM     52  C   LIG d   1      -4.456   3.845 -12.590  0.00  0.00    -0.052 C 
ATOM     53  H   LIG d   1      -5.858   2.447 -13.456  0.00  0.00     0.026 H 
ATOM     54  H   LIG d   1      -6.234   2.930 -11.768  0.00  0.00     0.026 H 
ATOM     55  C   LIG d   1      -3.952   4.338 -13.947  0.00  0.00    -0.046 C 
ATOM     56  H   LIG d   1      -3.789   3.056 -12.214  0.00  0.00     0.026 H 
ATOM     57  H   LIG d   1      -4.469   4.683 -11.877  0.00  0.00     0.026 H 
ATOM     58  H   LIG d   1      -3.938   3.500 -14.660  0.00  0.00     0.027 H 
ATOM     59  H   LIG d   1      -2.934   4.741 -13.836  0.00  0.00     0.027 H 
ATOM     60  H   LIG d   1      -4.888   6.284 -13.767  0.00  0.00     0.035 H 
ENDBRANCH  12  44
TORSDOF 4
ENDMDL
MODEL 10
REMARK VINA RESULT:      -5.6      3.225      5.585
REMARK  4 active torsions:
REMARK  status: ('A' for Active; 'I' for Inactive)
REMARK    1  A    between atoms: C_1  and  O_2 
REMARK    2  A    between atoms: O_2  and  C_3 
REMARK    3  A    between atoms: C_6  and  C_9 
REMARK       I    between atoms: C_9  and  N_11 
REMARK    4  A    between atoms: C_20  and  C_27 
ROOT
ATOM      1  C   LIG d   1       4.584  -3.217  -8.827  0.00  0.00     0.247 C 
ATOM      2  O   LIG d   1       3.898  -3.619  -7.908  0.00  0.00    -0.270 OA
ATOM      3  N   LIG d   1       5.735  -2.565  -8.574  0.00  0.00    -0.297 N 
ATOM      4  C   LIG d   1       6.508  -1.959  -9.664  0.00  0.00     0.019 C 
ATOM      5  C   LIG d   1       6.849  -0.513  -9.329  0.00  0.00    -0.006 C 
ATOM      6  H   LIG d   1       7.584  -0.181 -10.078  0.00  0.00     0.033 H 
ATOM      7  C   LIG d   1       7.461  -0.400  -7.933  0.00  0.00    -0.037 C 
ATOM      8  C   LIG d   1       6.451  -0.943  -6.918  0.00  0.00     0.016 C 
ATOM      9  H   LIG d   1       6.816  -0.761  -5.896  0.00  0.00     0.038 H 
ATOM     10  C   LIG d   1       6.243  -2.442  -7.198  0.00  0.00     0.023 C 
ATOM     11  C   LIG d   1       5.120  -0.252  -7.104  0.00  0.00     0.030 A 
ATOM     12  C   LIG d   1       4.291  -0.194  -6.027  0.00  0.00    -0.024 A 
ATOM     13  C   LIG d   1       3.002   0.335  -6.148  0.00  0.00    -0.051 A 
ATOM     14  C   LIG d   1       2.587   0.783  -7.368  0.00  0.00     0.003 A 
ATOM     15  C   LIG d   1       3.471   0.725  -8.454  0.00  0.00     0.252 A 
ATOM     16  O   LIG d   1       3.097   1.091  -9.557  0.00  0.00    -0.268 OA
ATOM     17  N   LIG d   1       4.736   0.266  -8.294  0.00  0.00    -0.311 N 
ATOM     18  C   LIG d   1       5.639   0.397  -9.438  0.00  0.00     0.031 C 
ATOM     19  H   LIG d   1       7.443  -2.523  -9.808  0.00  0.00     0.047 H 
ATOM     20  H   LIG d   1       5.918  -1.984 -10.591  0.00  0.00     0.047 H 
ATOM     21  H   LIG d   1       8.389  -0.988  -7.891  0.00  0.00     0.028 H 
ATOM     22  H   LIG d   1       7.684   0.654  -7.714  0.00  0.00     0.028 H 
ATOM     23  H   LIG d   1       5.509  -2.866  -6.497  0.00  0.00     0.047 H 
ATOM     24  H   LIG d   1       7.194  -2.986  -7.108  0.00  0.00     0.047 H 
ATOM     25  H   LIG d   1       2.349   0.392  -5.290  0.00  0.00     0.062 H 
ATOM     26  H   LIG d   1       1.590   1.178  -7.495  0.00  0.00     0.067 H 
ATOM     27  H   LIG d   1       5.972   1.445  -9.487  0.00  0.00     0.050 H 
ATOM     28  H   LIG d   1       5.074   0.148 -10.347  0.00  0.00     0.050 H 
ENDROOT
BRANCH   1  29
ATOM     29  C   LIG d   1       4.157  -3.448 -10.221  0.00  0.00     0.037 A 
ATOM     30  C   LIG d   1       4.548  -4.609 -10.891  0.00  0.00    -0.046 A 
ATOM     31  C   LIG d   1       4.146  -4.821 -12.192  0.00  0.00    -0.019 A 
ATOM     32  H   LIG d   1       5.163  -5.341 -10.390  0.00  0.00     0.063 H 
ATOM     33  C   LIG d   1       3.352  -3.880 -12.836  0.00  0.00     0.120 A 
ATOM     34  H   LIG d   1       4.448  -5.719 -12.710  0.00  0.00     0.065 H 
ATOM     35  C   LIG d   1       2.961  -2.722 -12.174  0.00  0.00    -0.019 A 
ATOM     36  C   LIG d   1       3.354  -2.506 -10.872  0.00  0.00    -0.046 A 
ATOM     37  H   LIG d   1       2.345  -1.993 -12.679  0.00  0.00     0.065 H 
ATOM     38  H   LIG d   1       3.045  -1.610 -10.355  0.00  0.00     0.063 H 
BRANCH  33  39
ATOM     39  O   LIG d   1       2.958  -4.092 -14.118  0.00  0.00    -0.495 OA
BRANCH  39  40
ATOM     40  C   LIG d   1       2.379  -2.983 -14.811  0.00  0.00     0.079 C 
ATOM     41  H   LIG d   1       2.747  -2.967 -15.847  0.00  0.00     0.066 H 
ATOM     42  H   LIG d   1       2.663  -2.048 -14.306  0.00  0.00     0.066 H 
ATOM     43  H   LIG d   1       1.284  -3.083 -14.811  0.00  0.00     0.066 H 
ENDBRANCH  39  40
ENDBRANCH  33  39
ENDBRANCH   1  29
BRANCH  12  44
ATOM     44  C   LIG d   1       4.766  -0.706  -4.691  0.00  0.00    -0.014 C 
ATOM     45  C   LIG d   1       4.611   0.395  -3.639  0.00  0.00    -0.046 C 
ATOM     46  C   LIG d   1       5.093  -0.124  -2.283  0.00  0.00    -0.052 C 
ATOM     47  H   LIG d   1       5.212   1.269  -3.932  0.00  0.00     0.027 H 
ATOM     48  H   LIG d   1       3.554   0.686  -3.566  0.00  0.00     0.027 H 
ATOM     49  C   LIG d   1       4.257  -1.339  -1.876  0.00  0.00    -0.053 C 
ATOM     50  H   LIG d   1       4.981   0.667  -1.527  0.00  0.00     0.026 H 
ATOM     51  H   LIG d   1       6.151  -0.414  -2.356  0.00  0.00     0.026 H 
ATOM     52  C   LIG d   1       4.412  -2.440  -2.927  0.00  0.00    -0.052 C 
ATOM     53  H   LIG d   1       3.199  -1.048  -1.802  0.00  0.00     0.026 H 
ATOM     54  H   LIG d   1       4.603  -1.712  -0.901  0.00  0.00     0.026 H 
ATOM     55  C   LIG d   1       3.930  -1.920  -4.283  0.00  0.00    -0.046 C 
ATOM     56  H   LIG d   1       3.811  -3.313  -2.634  0.00  0.00     0.026 H 
ATOM     57  H   LIG d   1       5.470  -2.731  -3.001  0.00  0.00     0.026 H 
ATOM     58  H   LIG d   1       2.872  -1.630  -4.211  0.00  0.00     0.027 H 
ATOM     59  H   LIG d   1       4.041  -2.712  -5.039  0.00  0.00     0.027 H 
ATOM     60  H   LIG d   1       5.824  -0.993  -4.779  0.00  0.00     0.035 H 
ENDBRANCH  12  44
TORSDOF 4
ENDMDL
