MODEL 1
REMARK VINA RESULT:      -8.3      0.000      0.000
REMARK  4 active torsions:
REMARK  status: ('A' for Active; 'I' for Inactive)
REMARK    1  A    between atoms: C_4  and  C_7 
REMARK    2  A    between atoms: C_7  and  N_8 
REMARK    3  A    between atoms: C_17  and  C_19 
REMARK    4  A    between atoms: C_21  and  C_24 
ROOT
ATOM      1  N   LIG d   1       6.608  -0.056  -5.946  0.00  0.00    -0.279 N 
ATOM      2  C   LIG d   1       5.817  -1.051  -6.690  0.00  0.00     0.066 C 
ATOM      3  C   LIG d   1       5.397  -0.436  -8.002  0.00  0.00     0.159 A 
ATOM      4  C   LIG d   1       5.974   0.673  -8.520  0.00  0.00     0.148 A 
ATOM      5  N   LIG d   1       5.349   0.937  -9.698  0.00  0.00    -0.247 N 
ATOM      6  H   LIG d   1       5.541   1.672 -10.301  0.00  0.00     0.310 HD
ATOM      7  C   LIG d   1       4.406  -0.021  -9.868  0.00  0.00     0.243 A 
ATOM      8  N   LIG d   1       4.446  -0.837  -8.846  0.00  0.00    -0.246 N 
ATOM      9  C   LIG d   1       7.101   1.415  -7.850  0.00  0.00     0.037 C 
ATOM     10  C   LIG d   1       7.692   0.496  -6.771  0.00  0.00     0.098 C 
ATOM     11  H   LIG d   1       8.237  -0.319  -7.246  0.00  0.00     0.057 H 
ATOM     12  H   LIG d   1       6.422  -1.937  -6.877  0.00  0.00     0.051 H 
ATOM     13  H   LIG d   1       4.933  -1.323  -6.114  0.00  0.00     0.051 H 
ATOM     14  H   LIG d   1       3.732  -0.097 -10.708  0.00  0.00     0.158 H 
ATOM     15  H   LIG d   1       7.868   1.662  -8.584  0.00  0.00     0.037 H 
ATOM     16  H   LIG d   1       6.721   2.327  -7.391  0.00  0.00     0.037 H 
ATOM     17  H   LIG d   1       3.874  -1.611  -8.723  0.00  0.00     0.310 HD
ENDROOT
BRANCH  10  18
ATOM     18  C   LIG d   1       8.633   1.287  -5.899  0.00  0.00     0.245 A 
ATOM     19  O   LIG d   1       9.838   0.882  -5.480  0.00  0.00    -0.336 OA
ATOM     20  N   LIG d   1      10.365   1.939  -4.691  0.00  0.00    -0.056 NA
ATOM     21  C   LIG d   1       9.457   2.883  -4.683  0.00  0.00     0.202 A 
ATOM     22  N   LIG d   1       8.407   2.477  -5.420  0.00  0.00    -0.190 NA
BRANCH  21  23
ATOM     23  C   LIG d   1       9.568   4.184  -3.978  0.00  0.00     0.023 A 
ATOM     24  C   LIG d   1      10.059   4.225  -2.687  0.00  0.00    -0.043 A 
ATOM     25  C   LIG d   1      10.167   5.459  -2.028  0.00  0.00    -0.017 A 
ATOM     26  H   LIG d   1      10.361   3.314  -2.192  0.00  0.00     0.063 H 
ATOM     27  C   LIG d   1       9.761   6.644  -2.692  0.00  0.00    -0.018 A 
ATOM     28  C   LIG d   1      10.668   5.541  -0.716  0.00  0.00    -0.054 A 
ATOM     29  C   LIG d   1       9.260   6.567  -4.005  0.00  0.00    -0.053 A 
ATOM     30  C   LIG d   1       9.865   7.875  -2.026  0.00  0.00    -0.054 A 
ATOM     31  C   LIG d   1       9.168   5.363  -4.627  0.00  0.00    -0.050 A 
ATOM     32  H   LIG d   1       8.948   7.465  -4.517  0.00  0.00     0.062 H 
ATOM     33  H   LIG d   1       8.782   5.313  -5.635  0.00  0.00     0.062 H 
ATOM     34  C   LIG d   1      10.354   7.917  -0.757  0.00  0.00    -0.061 A 
ATOM     35  H   LIG d   1       9.560   8.786  -2.520  0.00  0.00     0.062 H 
ATOM     36  C   LIG d   1      10.754   6.753  -0.103  0.00  0.00    -0.061 A 
ATOM     37  H   LIG d   1      10.433   8.867  -0.248  0.00  0.00     0.062 H 
ATOM     38  H   LIG d   1      11.138   6.813   0.904  0.00  0.00     0.062 H 
ATOM     39  H   LIG d   1      10.982   4.647  -0.198  0.00  0.00     0.062 H 
ENDBRANCH  21  23
ENDBRANCH  10  18
BRANCH   1  40
ATOM     40  C   LIG d   1       7.134  -0.628  -4.699  0.00  0.00     0.025 C 
ATOM     41  H   LIG d   1       8.070  -0.133  -4.439  0.00  0.00     0.048 H 
ATOM     42  H   LIG d   1       7.312  -1.694  -4.836  0.00  0.00     0.048 H 
BRANCH  40  43
ATOM     43  C   LIG d   1       6.133  -0.424  -3.592  0.00  0.00    -0.033 A 
ATOM     44  C   LIG d   1       5.849   0.852  -3.143  0.00  0.00    -0.057 A 
ATOM     45  C   LIG d   1       4.929   1.040  -2.128  0.00  0.00    -0.061 A 
ATOM     46  H   LIG d   1       6.346   1.703  -3.585  0.00  0.00     0.062 H 
ATOM     47  C   LIG d   1       4.293  -0.050  -1.562  0.00  0.00    -0.062 A 
ATOM     48  H   LIG d   1       4.708   2.036  -1.777  0.00  0.00     0.062 H 
ATOM     49  C   LIG d   1       4.576  -1.326  -2.012  0.00  0.00    -0.061 A 
ATOM     50  H   LIG d   1       3.578   0.096  -0.767  0.00  0.00     0.062 H 
ATOM     51  C   LIG d   1       5.496  -1.514  -3.026  0.00  0.00    -0.057 A 
ATOM     52  H   LIG d   1       4.079  -2.177  -1.570  0.00  0.00     0.062 H 
ATOM     53  H   LIG d   1       5.718  -2.511  -3.377  0.00  0.00     0.062 H 
ENDBRANCH  40  43
ENDBRANCH   1  40
TORSDOF 4
ENDMDL
MODEL 2
REMARK VINA RESULT:      -8.2      1.252      1.993
REMARK  4 active torsions:
REMARK  status: ('A' for Active; 'I' for Inactive)
REMARK    1  A    between atoms: C_4  and  C_7 
REMARK    2  A    between atoms: C_7  and  N_8 
REMARK    3  A    between atoms: C_17  and  C_19 
REMARK    4  A    between atoms: C_21  and  C_24 
ROOT
ATOM      1  N   LIG d   1       5.556  -0.518  -6.330  0.00  0.00    -0.279 N 
ATOM      2  C   LIG d   1       4.523  -1.414  -6.875  0.00  0.00     0.066 C 
ATOM      3  C   LIG d   1       3.900  -0.744  -8.074  0.00  0.00     0.159 A 
ATOM      4  C   LIG d   1       4.467   0.303  -8.716  0.00  0.00     0.148 A 
ATOM      5  N   LIG d   1       3.635   0.645  -9.736  0.00  0.00    -0.247 N 
ATOM      6  H   LIG d   1       3.770   1.362 -10.375  0.00  0.00     0.310 HD
ATOM      7  C   LIG d   1       2.582  -0.204  -9.689  0.00  0.00     0.243 A 
ATOM      8  N   LIG d   1       2.752  -1.031  -8.689  0.00  0.00    -0.246 N 
ATOM      9  C   LIG d   1       5.783   0.913  -8.313  0.00  0.00     0.037 C 
ATOM     10  C   LIG d   1       6.491  -0.076  -7.374  0.00  0.00     0.098 C 
ATOM     11  H   LIG d   1       6.831  -0.939  -7.946  0.00  0.00     0.057 H 
ATOM     12  H   LIG d   1       4.976  -2.358  -7.176  0.00  0.00     0.051 H 
ATOM     13  H   LIG d   1       3.759  -1.598  -6.119  0.00  0.00     0.051 H 
ATOM     14  H   LIG d   1       1.739  -0.198 -10.364  0.00  0.00     0.158 H 
ATOM     15  H   LIG d   1       6.397   1.085  -9.197  0.00  0.00     0.037 H 
ATOM     16  H   LIG d   1       5.610   1.855  -7.793  0.00  0.00     0.037 H 
ATOM     17  H   LIG d   1       2.141  -1.741  -8.437  0.00  0.00     0.310 HD
ENDROOT
BRANCH  10  18
ATOM     18  C   LIG d   1       7.676   0.601  -6.733  0.00  0.00     0.245 A 
ATOM     19  O   LIG d   1       8.935   0.146  -6.742  0.00  0.00    -0.336 OA
ATOM     20  N   LIG d   1       9.710   1.097  -6.026  0.00  0.00    -0.056 NA
ATOM     21  C   LIG d   1       8.880   2.034  -5.638  0.00  0.00     0.202 A 
ATOM     22  N   LIG d   1       7.646   1.722  -6.073  0.00  0.00    -0.190 NA
BRANCH  21  23
ATOM     23  C   LIG d   1       9.243   3.238  -4.849  0.00  0.00     0.023 A 
ATOM     24  C   LIG d   1       9.256   4.478  -5.458  0.00  0.00    -0.043 A 
ATOM     25  C   LIG d   1       9.593   5.613  -4.705  0.00  0.00    -0.017 A 
ATOM     26  H   LIG d   1       9.003   4.572  -6.504  0.00  0.00     0.063 H 
ATOM     27  C   LIG d   1       9.928   5.469  -3.336  0.00  0.00    -0.018 A 
ATOM     28  C   LIG d   1       9.611   6.893  -5.289  0.00  0.00    -0.054 A 
ATOM     29  C   LIG d   1       9.910   4.191  -2.747  0.00  0.00    -0.053 A 
ATOM     30  C   LIG d   1      10.271   6.607  -2.588  0.00  0.00    -0.054 A 
ATOM     31  C   LIG d   1       9.575   3.105  -3.491  0.00  0.00    -0.050 A 
ATOM     32  H   LIG d   1      10.164   4.073  -1.704  0.00  0.00     0.062 H 
ATOM     33  H   LIG d   1       9.565   2.128  -3.032  0.00  0.00     0.062 H 
ATOM     34  C   LIG d   1      10.278   7.830  -3.186  0.00  0.00    -0.061 A 
ATOM     35  H   LIG d   1      10.527   6.513  -1.544  0.00  0.00     0.062 H 
ATOM     36  C   LIG d   1       9.950   7.973  -4.533  0.00  0.00    -0.061 A 
ATOM     37  H   LIG d   1      10.543   8.703  -2.607  0.00  0.00     0.062 H 
ATOM     38  H   LIG d   1       9.963   8.954  -4.983  0.00  0.00     0.062 H 
ATOM     39  H   LIG d   1       9.358   7.018  -6.332  0.00  0.00     0.062 H 
ENDBRANCH  21  23
ENDBRANCH  10  18
BRANCH   1  40
ATOM     40  C   LIG d   1       6.274  -1.157  -5.218  0.00  0.00     0.025 C 
ATOM     41  H   LIG d   1       7.308  -0.813  -5.208  0.00  0.00     0.048 H 
ATOM     42  H   LIG d   1       6.251  -2.239  -5.345  0.00  0.00     0.048 H 
BRANCH  40  43
ATOM     43  C   LIG d   1       5.610  -0.790  -3.915  0.00  0.00    -0.033 A 
ATOM     44  C   LIG d   1       5.664   0.512  -3.454  0.00  0.00    -0.057 A 
ATOM     45  C   LIG d   1       5.054   0.849  -2.261  0.00  0.00    -0.061 A 
ATOM     46  H   LIG d   1       6.183   1.266  -4.027  0.00  0.00     0.062 H 
ATOM     47  C   LIG d   1       4.388  -0.117  -1.528  0.00  0.00    -0.062 A 
ATOM     48  H   LIG d   1       5.096   1.865  -1.900  0.00  0.00     0.062 H 
ATOM     49  C   LIG d   1       4.333  -1.419  -1.990  0.00  0.00    -0.061 A 
ATOM     50  H   LIG d   1       3.915   0.145  -0.594  0.00  0.00     0.062 H 
ATOM     51  C   LIG d   1       4.944  -1.756  -3.183  0.00  0.00    -0.057 A 
ATOM     52  H   LIG d   1       3.813  -2.173  -1.418  0.00  0.00     0.062 H 
ATOM     53  H   LIG d   1       4.902  -2.773  -3.543  0.00  0.00     0.062 H 
ENDBRANCH  40  43
ENDBRANCH   1  40
TORSDOF 4
ENDMDL
MODEL 3
REMARK VINA RESULT:      -7.8      2.845      8.059
REMARK  4 active torsions:
REMARK  status: ('A' for Active; 'I' for Inactive)
REMARK    1  A    between atoms: C_4  and  C_7 
REMARK    2  A    between atoms: C_7  and  N_8 
REMARK    3  A    between atoms: C_17  and  C_19 
REMARK    4  A    between atoms: C_21  and  C_24 
ROOT
ATOM      1  N   LIG d   1      10.056   6.282  -4.254  0.00  0.00    -0.279 N 
ATOM      2  C   LIG d   1       9.972   7.660  -4.764  0.00  0.00     0.066 C 
ATOM      3  C   LIG d   1      10.792   7.748  -6.027  0.00  0.00     0.159 A 
ATOM      4  C   LIG d   1      11.197   6.663  -6.726  0.00  0.00     0.148 A 
ATOM      5  N   LIG d   1      11.908   7.115  -7.792  0.00  0.00    -0.247 N 
ATOM      6  H   LIG d   1      12.330   6.573  -8.477  0.00  0.00     0.310 HD
ATOM      7  C   LIG d   1      11.916   8.467  -7.716  0.00  0.00     0.243 A 
ATOM      8  N   LIG d   1      11.245   8.834  -6.655  0.00  0.00    -0.246 N 
ATOM      9  C   LIG d   1      10.872   5.247  -6.326  0.00  0.00     0.037 C 
ATOM     10  C   LIG d   1       9.732   5.299  -5.297  0.00  0.00     0.098 C 
ATOM     11  H   LIG d   1       8.807   5.590  -5.795  0.00  0.00     0.057 H 
ATOM     12  H   LIG d   1       8.933   7.908  -4.983  0.00  0.00     0.051 H 
ATOM     13  H   LIG d   1      10.367   8.353  -4.021  0.00  0.00     0.051 H 
ATOM     14  H   LIG d   1      12.400   9.133  -8.416  0.00  0.00     0.158 H 
ATOM     15  H   LIG d   1      10.552   4.681  -7.201  0.00  0.00     0.037 H 
ATOM     16  H   LIG d   1      11.749   4.778  -5.882  0.00  0.00     0.037 H 
ATOM     17  H   LIG d   1      11.098   9.750  -6.371  0.00  0.00     0.310 HD
ENDROOT
BRANCH  10  18
ATOM     18  C   LIG d   1       9.559   3.939  -4.671  0.00  0.00     0.245 A 
ATOM     19  O   LIG d   1      10.500   3.260  -4.004  0.00  0.00    -0.336 OA
ATOM     20  N   LIG d   1       9.899   2.040  -3.593  0.00  0.00    -0.056 NA
ATOM     21  C   LIG d   1       8.668   2.066  -4.040  0.00  0.00     0.202 A 
ATOM     22  N   LIG d   1       8.471   3.225  -4.694  0.00  0.00    -0.190 NA
BRANCH  21  23
ATOM     23  C   LIG d   1       7.658   0.994  -3.853  0.00  0.00     0.023 A 
ATOM     24  C   LIG d   1       6.459   1.282  -3.232  0.00  0.00    -0.043 A 
ATOM     25  C   LIG d   1       5.506   0.266  -3.064  0.00  0.00    -0.017 A 
ATOM     26  H   LIG d   1       6.255   2.284  -2.882  0.00  0.00     0.063 H 
ATOM     27  C   LIG d   1       5.793  -1.044  -3.524  0.00  0.00    -0.018 A 
ATOM     28  C   LIG d   1       4.271   0.523  -2.442  0.00  0.00    -0.054 A 
ATOM     29  C   LIG d   1       7.027  -1.305  -4.148  0.00  0.00    -0.053 A 
ATOM     30  C   LIG d   1       4.839  -2.059  -3.349  0.00  0.00    -0.054 A 
ATOM     31  C   LIG d   1       7.933  -0.306  -4.306  0.00  0.00    -0.050 A 
ATOM     32  H   LIG d   1       7.253  -2.301  -4.502  0.00  0.00     0.062 H 
ATOM     33  H   LIG d   1       8.878  -0.516  -4.786  0.00  0.00     0.062 H 
ATOM     34  C   LIG d   1       3.655  -1.774  -2.741  0.00  0.00    -0.061 A 
ATOM     35  H   LIG d   1       5.044  -3.061  -3.695  0.00  0.00     0.062 H 
ATOM     36  C   LIG d   1       3.371  -0.488  -2.289  0.00  0.00    -0.061 A 
ATOM     37  H   LIG d   1       2.923  -2.559  -2.608  0.00  0.00     0.062 H 
ATOM     38  H   LIG d   1       2.425  -0.288  -1.810  0.00  0.00     0.062 H 
ATOM     39  H   LIG d   1       4.038   1.516  -2.087  0.00  0.00     0.062 H 
ENDBRANCH  21  23
ENDBRANCH  10  18
BRANCH   1  40
ATOM     40  C   LIG d   1       9.195   6.102  -3.076  0.00  0.00     0.025 C 
ATOM     41  H   LIG d   1       8.777   5.095  -3.082  0.00  0.00     0.048 H 
ATOM     42  H   LIG d   1       8.386   6.832  -3.104  0.00  0.00     0.048 H 
BRANCH  40  43
ATOM     43  C   LIG d   1      10.009   6.302  -1.824  0.00  0.00    -0.033 A 
ATOM     44  C   LIG d   1       9.901   7.480  -1.109  0.00  0.00    -0.057 A 
ATOM     45  C   LIG d   1      10.646   7.663   0.040  0.00  0.00    -0.061 A 
ATOM     46  H   LIG d   1       9.233   8.258  -1.450  0.00  0.00     0.062 H 
ATOM     47  C   LIG d   1      11.500   6.666   0.475  0.00  0.00    -0.062 A 
ATOM     48  H   LIG d   1      10.562   8.583   0.598  0.00  0.00     0.062 H 
ATOM     49  C   LIG d   1      11.607   5.487  -0.238  0.00  0.00    -0.061 A 
ATOM     50  H   LIG d   1      12.085   6.810   1.371  0.00  0.00     0.062 H 
ATOM     51  C   LIG d   1      10.863   5.305  -1.389  0.00  0.00    -0.057 A 
ATOM     52  H   LIG d   1      12.274   4.708   0.102  0.00  0.00     0.062 H 
ATOM     53  H   LIG d   1      10.947   4.384  -1.947  0.00  0.00     0.062 H 
ENDBRANCH  40  43
ENDBRANCH   1  40
TORSDOF 4
ENDMDL
MODEL 4
REMARK VINA RESULT:      -7.7      2.583      3.788
REMARK  4 active torsions:
REMARK  status: ('A' for Active; 'I' for Inactive)
REMARK    1  A    between atoms: C_4  and  C_7 
REMARK    2  A    between atoms: C_7  and  N_8 
REMARK    3  A    between atoms: C_17  and  C_19 
REMARK    4  A    between atoms: C_21  and  C_24 
ROOT
ATOM      1  N   LIG d   1       6.003  -2.561  -5.094  0.00  0.00    -0.279 N 
ATOM      2  C   LIG d   1       5.109  -3.728  -5.006  0.00  0.00     0.066 C 
ATOM      3  C   LIG d   1       4.596  -4.037  -6.391  0.00  0.00     0.159 A 
ATOM      4  C   LIG d   1       5.167  -3.553  -7.518  0.00  0.00     0.148 A 
ATOM      5  N   LIG d   1       4.448  -4.032  -8.568  0.00  0.00    -0.247 N 
ATOM      6  H   LIG d   1       4.613  -3.857  -9.508  0.00  0.00     0.310 HD
ATOM      7  C   LIG d   1       3.457  -4.797  -8.052  0.00  0.00     0.243 A 
ATOM      8  N   LIG d   1       3.557  -4.793  -6.747  0.00  0.00    -0.246 N 
ATOM      9  C   LIG d   1       6.378  -2.658  -7.519  0.00  0.00     0.037 C 
ATOM     10  C   LIG d   1       7.029  -2.745  -6.131  0.00  0.00     0.098 C 
ATOM     11  H   LIG d   1       7.496  -3.722  -6.009  0.00  0.00     0.057 H 
ATOM     12  H   LIG d   1       5.660  -4.585  -4.619  0.00  0.00     0.051 H 
ATOM     13  H   LIG d   1       4.271  -3.501  -4.347  0.00  0.00     0.051 H 
ATOM     14  H   LIG d   1       2.707  -5.323  -8.624  0.00  0.00     0.158 H 
ATOM     15  H   LIG d   1       7.085  -2.994  -8.279  0.00  0.00     0.037 H 
ATOM     16  H   LIG d   1       6.078  -1.630  -7.722  0.00  0.00     0.037 H 
ATOM     17  H   LIG d   1       2.969  -5.265  -6.137  0.00  0.00     0.310 HD
ENDROOT
BRANCH  10  18
ATOM     18  C   LIG d   1       8.075  -1.669  -5.998  0.00  0.00     0.245 A 
ATOM     19  O   LIG d   1       9.288  -1.820  -5.450  0.00  0.00    -0.336 OA
ATOM     20  N   LIG d   1       9.929  -0.556  -5.541  0.00  0.00    -0.056 NA
ATOM     21  C   LIG d   1       9.074   0.253  -6.116  0.00  0.00     0.202 A 
ATOM     22  N   LIG d   1       7.949  -0.433  -6.390  0.00  0.00    -0.190 NA
BRANCH  21  23
ATOM     23  C   LIG d   1       9.307   1.688  -6.416  0.00  0.00     0.023 A 
ATOM     24  C   LIG d   1       9.230   2.622  -5.401  0.00  0.00    -0.043 A 
ATOM     25  C   LIG d   1       9.458   3.976  -5.691  0.00  0.00    -0.017 A 
ATOM     26  H   LIG d   1       9.001   2.311  -4.393  0.00  0.00     0.063 H 
ATOM     27  C   LIG d   1       9.752   4.366  -7.021  0.00  0.00    -0.018 A 
ATOM     28  C   LIG d   1       9.394   4.955  -4.683  0.00  0.00    -0.054 A 
ATOM     29  C   LIG d   1       9.818   3.390  -8.033  0.00  0.00    -0.053 A 
ATOM     30  C   LIG d   1       9.973   5.724  -7.306  0.00  0.00    -0.054 A 
ATOM     31  C   LIG d   1       9.600   2.084  -7.731  0.00  0.00    -0.050 A 
ATOM     32  H   LIG d   1      10.041   3.681  -9.049  0.00  0.00     0.062 H 
ATOM     33  H   LIG d   1       9.651   1.342  -8.514  0.00  0.00     0.062 H 
ATOM     34  C   LIG d   1       9.902   6.643  -6.306  0.00  0.00    -0.061 A 
ATOM     35  H   LIG d   1      10.199   6.036  -8.315  0.00  0.00     0.062 H 
ATOM     36  C   LIG d   1       9.614   6.261  -4.998  0.00  0.00    -0.061 A 
ATOM     37  H   LIG d   1      10.073   7.687  -6.530  0.00  0.00     0.062 H 
ATOM     38  H   LIG d   1       9.564   7.010  -4.223  0.00  0.00     0.062 H 
ATOM     39  H   LIG d   1       9.172   4.672  -3.664  0.00  0.00     0.062 H 
ENDBRANCH  21  23
ENDBRANCH  10  18
BRANCH   1  40
ATOM     40  C   LIG d   1       6.617  -2.269  -3.792  0.00  0.00     0.025 C 
ATOM     41  H   LIG d   1       7.662  -1.994  -3.937  0.00  0.00     0.048 H 
ATOM     42  H   LIG d   1       6.558  -3.152  -3.156  0.00  0.00     0.048 H 
BRANCH  40  43
ATOM     43  C   LIG d   1       5.884  -1.128  -3.136  0.00  0.00    -0.033 A 
ATOM     44  C   LIG d   1       4.801  -1.382  -2.315  0.00  0.00    -0.057 A 
ATOM     45  C   LIG d   1       4.129  -0.335  -1.712  0.00  0.00    -0.061 A 
ATOM     46  H   LIG d   1       4.481  -2.399  -2.144  0.00  0.00     0.062 H 
ATOM     47  C   LIG d   1       4.541   0.967  -1.930  0.00  0.00    -0.062 A 
ATOM     48  H   LIG d   1       3.284  -0.534  -1.071  0.00  0.00     0.062 H 
ATOM     49  C   LIG d   1       5.624   1.221  -2.751  0.00  0.00    -0.061 A 
ATOM     50  H   LIG d   1       4.013   1.785  -1.463  0.00  0.00     0.062 H 
ATOM     51  C   LIG d   1       6.295   0.175  -3.354  0.00  0.00    -0.057 A 
ATOM     52  H   LIG d   1       5.945   2.238  -2.921  0.00  0.00     0.062 H 
ATOM     53  H   LIG d   1       7.141   0.373  -3.995  0.00  0.00     0.062 H 
ENDBRANCH  40  43
ENDBRANCH   1  40
TORSDOF 4
ENDMDL
MODEL 5
REMARK VINA RESULT:      -7.6      2.973      8.381
REMARK  4 active torsions:
REMARK  status: ('A' for Active; 'I' for Inactive)
REMARK    1  A    between atoms: C_4  and  C_7 
REMARK    2  A    between atoms: C_7  and  N_8 
REMARK    3  A    between atoms: C_17  and  C_19 
REMARK    4  A    between atoms: C_21  and  C_24 
ROOT
ATOM      1  N   LIG d   1      10.445   5.782  -5.064  0.00  0.00    -0.279 N 
ATOM      2  C   LIG d   1      11.100   7.098  -4.978  0.00  0.00     0.066 C 
ATOM      3  C   LIG d   1      10.547   7.824  -3.777  0.00  0.00     0.159 A 
ATOM      4  C   LIG d   1       9.869   7.205  -2.784  0.00  0.00     0.148 A 
ATOM      5  N   LIG d   1       9.525   8.159  -1.879  0.00  0.00    -0.247 N 
ATOM      6  H   LIG d   1       9.029   8.022  -1.056  0.00  0.00     0.310 HD
ATOM      7  C   LIG d   1      10.006   9.337  -2.344  0.00  0.00     0.243 A 
ATOM      8  N   LIG d   1      10.616   9.122  -3.481  0.00  0.00    -0.246 N 
ATOM      9  C   LIG d   1       9.592   5.725  -2.762  0.00  0.00     0.037 C 
ATOM     10  C   LIG d   1      10.521   5.058  -3.788  0.00  0.00     0.098 C 
ATOM     11  H   LIG d   1      11.546   5.081  -3.418  0.00  0.00     0.057 H 
ATOM     12  H   LIG d   1      12.176   6.967  -4.865  0.00  0.00     0.051 H 
ATOM     13  H   LIG d   1      10.892   7.672  -5.881  0.00  0.00     0.051 H 
ATOM     14  H   LIG d   1       9.900  10.295  -1.856  0.00  0.00     0.158 H 
ATOM     15  H   LIG d   1       9.795   5.326  -1.768  0.00  0.00     0.037 H 
ATOM     16  H   LIG d   1       8.552   5.539  -3.030  0.00  0.00     0.037 H 
ATOM     17  H   LIG d   1      11.050   9.800  -4.022  0.00  0.00     0.310 HD
ENDROOT
BRANCH  10  18
ATOM     18  C   LIG d   1      10.095   3.627  -3.996  0.00  0.00     0.245 A 
ATOM     19  O   LIG d   1      10.845   2.658  -4.533  0.00  0.00    -0.336 OA
ATOM     20  N   LIG d   1      10.046   1.484  -4.530  0.00  0.00    -0.056 NA
ATOM     21  C   LIG d   1       8.892   1.823  -4.012  0.00  0.00     0.202 A 
ATOM     22  N   LIG d   1       8.931   3.128  -3.690  0.00  0.00    -0.190 NA
BRANCH  21  23
ATOM     23  C   LIG d   1       7.733   0.916  -3.812  0.00  0.00     0.023 A 
ATOM     24  C   LIG d   1       6.541   1.423  -3.334  0.00  0.00    -0.043 A 
ATOM     25  C   LIG d   1       5.448   0.562  -3.153  0.00  0.00    -0.017 A 
ATOM     26  H   LIG d   1       6.449   2.475  -3.105  0.00  0.00     0.063 H 
ATOM     27  C   LIG d   1       5.587  -0.817  -3.452  0.00  0.00    -0.018 A 
ATOM     28  C   LIG d   1       4.215   1.042  -2.674  0.00  0.00    -0.054 A 
ATOM     29  C   LIG d   1       6.818  -1.302  -3.932  0.00  0.00    -0.053 A 
ATOM     30  C   LIG d   1       4.492  -1.675  -3.264  0.00  0.00    -0.054 A 
ATOM     31  C   LIG d   1       7.862  -0.451  -4.106  0.00  0.00    -0.050 A 
ATOM     32  H   LIG d   1       6.932  -2.351  -4.163  0.00  0.00     0.062 H 
ATOM     33  H   LIG d   1       8.803  -0.832  -4.474  0.00  0.00     0.062 H 
ATOM     34  C   LIG d   1       3.315  -1.176  -2.798  0.00  0.00    -0.061 A 
ATOM     35  H   LIG d   1       4.584  -2.728  -3.488  0.00  0.00     0.062 H 
ATOM     36  C   LIG d   1       3.177   0.179  -2.504  0.00  0.00    -0.061 A 
ATOM     37  H   LIG d   1       2.475  -1.840  -2.654  0.00  0.00     0.062 H 
ATOM     38  H   LIG d   1       2.232   0.550  -2.136  0.00  0.00     0.062 H 
ATOM     39  H   LIG d   1       4.094   2.090  -2.443  0.00  0.00     0.062 H 
ENDBRANCH  21  23
ENDBRANCH  10  18
BRANCH   1  40
ATOM     40  C   LIG d   1      11.013   4.982  -6.158  0.00  0.00     0.025 C 
ATOM     41  H   LIG d   1      11.061   3.935  -5.855  0.00  0.00     0.048 H 
ATOM     42  H   LIG d   1      12.016   5.341  -6.388  0.00  0.00     0.048 H 
BRANCH  40  43
ATOM     43  C   LIG d   1      10.141   5.112  -7.380  0.00  0.00    -0.033 A 
ATOM     44  C   LIG d   1       9.927   6.353  -7.949  0.00  0.00    -0.057 A 
ATOM     45  C   LIG d   1       9.129   6.472  -9.070  0.00  0.00    -0.061 A 
ATOM     46  H   LIG d   1      10.386   7.230  -7.516  0.00  0.00     0.062 H 
ATOM     47  C   LIG d   1       8.543   5.348  -9.624  0.00  0.00    -0.062 A 
ATOM     48  H   LIG d   1       8.961   7.442  -9.514  0.00  0.00     0.062 H 
ATOM     49  C   LIG d   1       8.757   4.107  -9.056  0.00  0.00    -0.061 A 
ATOM     50  H   LIG d   1       7.916   5.442 -10.497  0.00  0.00     0.062 H 
ATOM     51  C   LIG d   1       9.555   3.988  -7.934  0.00  0.00    -0.057 A 
ATOM     52  H   LIG d   1       8.300   3.229  -9.489  0.00  0.00     0.062 H 
ATOM     53  H   LIG d   1       9.722   3.017  -7.490  0.00  0.00     0.062 H 
ENDBRANCH  40  43
ENDBRANCH   1  40
TORSDOF 4
ENDMDL
MODEL 6
REMARK VINA RESULT:      -7.5      1.450      2.403
REMARK  4 active torsions:
REMARK  status: ('A' for Active; 'I' for Inactive)
REMARK    1  A    between atoms: C_4  and  C_7 
REMARK    2  A    between atoms: C_7  and  N_8 
REMARK    3  A    between atoms: C_17  and  C_19 
REMARK    4  A    between atoms: C_21  and  C_24 
ROOT
ATOM      1  N   LIG d   1       7.584   1.174  -5.036  0.00  0.00    -0.279 N 
ATOM      2  C   LIG d   1       7.039   0.162  -5.956  0.00  0.00     0.066 C 
ATOM      3  C   LIG d   1       7.116   0.708  -7.360  0.00  0.00     0.159 A 
ATOM      4  C   LIG d   1       7.890   1.764  -7.704  0.00  0.00     0.148 A 
ATOM      5  N   LIG d   1       7.711   1.975  -9.034  0.00  0.00    -0.247 N 
ATOM      6  H   LIG d   1       8.132   2.665  -9.571  0.00  0.00     0.310 HD
ATOM      7  C   LIG d   1       6.832   1.040  -9.468  0.00  0.00     0.243 A 
ATOM      8  N   LIG d   1       6.484   0.288  -8.456  0.00  0.00    -0.246 N 
ATOM      9  C   LIG d   1       8.763   2.508  -6.728  0.00  0.00     0.037 C 
ATOM     10  C   LIG d   1       8.909   1.638  -5.470  0.00  0.00     0.098 C 
ATOM     11  H   LIG d   1       9.539   0.778  -5.695  0.00  0.00     0.057 H 
ATOM     12  H   LIG d   1       7.625  -0.754  -5.886  0.00  0.00     0.051 H 
ATOM     13  H   LIG d   1       6.000  -0.046  -5.701  0.00  0.00     0.051 H 
ATOM     14  H   LIG d   1       6.477   0.935 -10.483  0.00  0.00     0.158 H 
ATOM     15  H   LIG d   1       9.743   2.684  -7.170  0.00  0.00     0.037 H 
ATOM     16  H   LIG d   1       8.298   3.459  -6.467  0.00  0.00     0.037 H 
ATOM     17  H   LIG d   1       5.865  -0.458  -8.498  0.00  0.00     0.310 HD
ENDROOT
BRANCH  10  18
ATOM     18  C   LIG d   1       9.542   2.450  -4.369  0.00  0.00     0.245 A 
ATOM     19  O   LIG d   1      10.391   1.986  -3.444  0.00  0.00    -0.336 OA
ATOM     20  N   LIG d   1      10.729   3.092  -2.619  0.00  0.00    -0.056 NA
ATOM     21  C   LIG d   1      10.068   4.120  -3.089  0.00  0.00     0.202 A 
ATOM     22  N   LIG d   1       9.349   3.720  -4.153  0.00  0.00    -0.190 NA
BRANCH  21  23
ATOM     23  C   LIG d   1      10.107   5.499  -2.539  0.00  0.00     0.023 A 
ATOM     24  C   LIG d   1      10.000   6.580  -3.392  0.00  0.00    -0.043 A 
ATOM     25  C   LIG d   1      10.032   7.880  -2.865  0.00  0.00    -0.017 A 
ATOM     26  H   LIG d   1       9.889   6.426  -4.455  0.00  0.00     0.063 H 
ATOM     27  C   LIG d   1      10.185   8.064  -1.468  0.00  0.00    -0.018 A 
ATOM     28  C   LIG d   1       9.919   9.006  -3.701  0.00  0.00    -0.054 A 
ATOM     29  C   LIG d   1      10.297   6.941  -0.628  0.00  0.00    -0.053 A 
ATOM     30  C   LIG d   1      10.222   9.368  -0.946  0.00  0.00    -0.054 A 
ATOM     31  C   LIG d   1      10.258   5.691  -1.157  0.00  0.00    -0.050 A 
ATOM     32  H   LIG d   1      10.413   7.073   0.438  0.00  0.00     0.062 H 
ATOM     33  H   LIG d   1      10.346   4.834  -0.505  0.00  0.00     0.062 H 
ATOM     34  C   LIG d   1      10.111  10.433  -1.785  0.00  0.00    -0.061 A 
ATOM     35  H   LIG d   1      10.338   9.523   0.116  0.00  0.00     0.062 H 
ATOM     36  C   LIG d   1       9.961  10.254  -3.158  0.00  0.00    -0.061 A 
ATOM     37  H   LIG d   1      10.140  11.435  -1.379  0.00  0.00     0.062 H 
ATOM     38  H   LIG d   1       9.875  11.116  -3.801  0.00  0.00     0.062 H 
ATOM     39  H   LIG d   1       9.802   8.881  -4.767  0.00  0.00     0.062 H 
ENDBRANCH  21  23
ENDBRANCH  10  18
BRANCH   1  40
ATOM     40  C   LIG d   1       7.631   0.662  -3.659  0.00  0.00     0.025 C 
ATOM     41  H   LIG d   1       8.090   1.408  -3.010  0.00  0.00     0.048 H 
ATOM     42  H   LIG d   1       8.218  -0.255  -3.632  0.00  0.00     0.048 H 
BRANCH  40  43
ATOM     43  C   LIG d   1       6.230   0.375  -3.183  0.00  0.00    -0.033 A 
ATOM     44  C   LIG d   1       5.341   1.415  -2.983  0.00  0.00    -0.057 A 
ATOM     45  C   LIG d   1       4.056   1.151  -2.547  0.00  0.00    -0.061 A 
ATOM     46  H   LIG d   1       5.651   2.432  -3.168  0.00  0.00     0.062 H 
ATOM     47  C   LIG d   1       3.660  -0.153  -2.312  0.00  0.00    -0.062 A 
ATOM     48  H   LIG d   1       3.362   1.963  -2.391  0.00  0.00     0.062 H 
ATOM     49  C   LIG d   1       4.548  -1.192  -2.513  0.00  0.00    -0.061 A 
ATOM     50  H   LIG d   1       2.657  -0.358  -1.968  0.00  0.00     0.062 H 
ATOM     51  C   LIG d   1       5.834  -0.929  -2.947  0.00  0.00    -0.057 A 
ATOM     52  H   LIG d   1       4.239  -2.211  -2.329  0.00  0.00     0.062 H 
ATOM     53  H   LIG d   1       6.528  -1.741  -3.104  0.00  0.00     0.062 H 
ENDBRANCH  40  43
ENDBRANCH   1  40
TORSDOF 4
ENDMDL
MODEL 7
REMARK VINA RESULT:      -7.4      2.823      9.060
REMARK  4 active torsions:
REMARK  status: ('A' for Active; 'I' for Inactive)
REMARK    1  A    between atoms: C_4  and  C_7 
REMARK    2  A    between atoms: C_7  and  N_8 
REMARK    3  A    between atoms: C_17  and  C_19 
REMARK    4  A    between atoms: C_21  and  C_24 
ROOT
ATOM      1  N   LIG d   1       9.630   6.003  -3.320  0.00  0.00    -0.279 N 
ATOM      2  C   LIG d   1      10.292   7.274  -2.984  0.00  0.00     0.066 C 
ATOM      3  C   LIG d   1      11.012   7.099  -1.670  0.00  0.00     0.159 A 
ATOM      4  C   LIG d   1      11.288   5.890  -1.130  0.00  0.00     0.148 A 
ATOM      5  N   LIG d   1      11.936   6.113   0.043  0.00  0.00    -0.247 N 
ATOM      6  H   LIG d   1      12.261   5.439   0.660  0.00  0.00     0.310 HD
ATOM      7  C   LIG d   1      12.040   7.455   0.188  0.00  0.00     0.243 A 
ATOM      8  N   LIG d   1      11.483   8.035  -0.844  0.00  0.00    -0.246 N 
ATOM      9  C   LIG d   1      10.913   4.584  -1.781  0.00  0.00     0.037 C 
ATOM     10  C   LIG d   1      10.566   4.872  -3.249  0.00  0.00     0.098 C 
ATOM     11  H   LIG d   1      11.476   5.120  -3.795  0.00  0.00     0.057 H 
ATOM     12  H   LIG d   1      11.008   7.534  -3.763  0.00  0.00     0.051 H 
ATOM     13  H   LIG d   1       9.546   8.064  -2.891  0.00  0.00     0.051 H 
ATOM     14  H   LIG d   1      12.504   7.963   1.021  0.00  0.00     0.158 H 
ATOM     15  H   LIG d   1      11.754   3.892  -1.730  0.00  0.00     0.037 H 
ATOM     16  H   LIG d   1      10.049   4.154  -1.275  0.00  0.00     0.037 H 
ATOM     17  H   LIG d   1      11.423   8.992  -0.987  0.00  0.00     0.310 HD
ENDROOT
BRANCH  10  18
ATOM     18  C   LIG d   1       9.929   3.652  -3.863  0.00  0.00     0.245 A 
ATOM     19  O   LIG d   1      10.236   3.126  -5.055  0.00  0.00    -0.336 OA
ATOM     20  N   LIG d   1       9.394   1.994  -5.223  0.00  0.00    -0.056 NA
ATOM     21  C   LIG d   1       8.649   1.925  -4.147  0.00  0.00     0.202 A 
ATOM     22  N   LIG d   1       8.982   2.938  -3.327  0.00  0.00    -0.190 NA
BRANCH  21  23
ATOM     23  C   LIG d   1       7.611   0.898  -3.879  0.00  0.00     0.023 A 
ATOM     24  C   LIG d   1       6.389   1.278  -3.358  0.00  0.00    -0.043 A 
ATOM     25  C   LIG d   1       5.410   0.304  -3.113  0.00  0.00    -0.017 A 
ATOM     26  H   LIG d   1       6.188   2.318  -3.147  0.00  0.00     0.063 H 
ATOM     27  C   LIG d   1       5.693  -1.057  -3.391  0.00  0.00    -0.018 A 
ATOM     28  C   LIG d   1       4.152   0.653  -2.590  0.00  0.00    -0.054 A 
ATOM     29  C   LIG d   1       6.950  -1.411  -3.916  0.00  0.00    -0.053 A 
ATOM     30  C   LIG d   1       4.712  -2.029  -3.138  0.00  0.00    -0.054 A 
ATOM     31  C   LIG d   1       7.882  -0.452  -4.152  0.00  0.00    -0.050 A 
ATOM     32  H   LIG d   1       7.173  -2.446  -4.131  0.00  0.00     0.062 H 
ATOM     33  H   LIG d   1       8.844  -0.733  -4.554  0.00  0.00     0.062 H 
ATOM     34  C   LIG d   1       3.507  -1.655  -2.630  0.00  0.00    -0.061 A 
ATOM     35  H   LIG d   1       4.913  -3.070  -3.346  0.00  0.00     0.062 H 
ATOM     36  C   LIG d   1       3.227  -0.318  -2.357  0.00  0.00    -0.061 A 
ATOM     37  H   LIG d   1       2.754  -2.406  -2.437  0.00  0.00     0.062 H 
ATOM     38  H   LIG d   1       2.262  -0.047  -1.954  0.00  0.00     0.062 H 
ATOM     39  H   LIG d   1       3.922   1.686  -2.373  0.00  0.00     0.062 H 
ENDBRANCH  21  23
ENDBRANCH  10  18
BRANCH   1  40
ATOM     40  C   LIG d   1       8.992   6.075  -4.643  0.00  0.00     0.025 C 
ATOM     41  H   LIG d   1       7.966   6.425  -4.532  0.00  0.00     0.048 H 
ATOM     42  H   LIG d   1       8.993   5.086  -5.100  0.00  0.00     0.048 H 
BRANCH  40  43
ATOM     43  C   LIG d   1       9.759   7.034  -5.517  0.00  0.00    -0.033 A 
ATOM     44  C   LIG d   1      10.939   6.633  -6.114  0.00  0.00    -0.057 A 
ATOM     45  C   LIG d   1      11.641   7.512  -6.917  0.00  0.00    -0.061 A 
ATOM     46  H   LIG d   1      11.312   5.633  -5.953  0.00  0.00     0.062 H 
ATOM     47  C   LIG d   1      11.162   8.793  -7.124  0.00  0.00    -0.062 A 
ATOM     48  H   LIG d   1      12.563   7.199  -7.383  0.00  0.00     0.062 H 
ATOM     49  C   LIG d   1       9.981   9.193  -6.528  0.00  0.00    -0.061 A 
ATOM     50  H   LIG d   1      11.712   9.481  -7.748  0.00  0.00     0.062 H 
ATOM     51  C   LIG d   1       9.279   8.315  -5.724  0.00  0.00    -0.057 A 
ATOM     52  H   LIG d   1       9.606  10.193  -6.689  0.00  0.00     0.062 H 
ATOM     53  H   LIG d   1       8.356   8.627  -5.258  0.00  0.00     0.062 H 
ENDBRANCH  40  43
ENDBRANCH   1  40
TORSDOF 4
ENDMDL
MODEL 8
REMARK VINA RESULT:      -7.3      6.018     10.116
REMARK  4 active torsions:
REMARK  status: ('A' for Active; 'I' for Inactive)
REMARK    1  A    between atoms: C_4  and  C_7 
REMARK    2  A    between atoms: C_7  and  N_8 
REMARK    3  A    between atoms: C_17  and  C_19 
REMARK    4  A    between atoms: C_21  and  C_24 
ROOT
ATOM      1  N   LIG d   1       6.896  -2.853  -4.712  0.00  0.00    -0.279 N 
ATOM      2  C   LIG d   1       8.217  -2.334  -4.321  0.00  0.00     0.066 C 
ATOM      3  C   LIG d   1       9.053  -3.489  -3.827  0.00  0.00     0.159 A 
ATOM      4  C   LIG d   1       8.745  -4.784  -4.070  0.00  0.00     0.148 A 
ATOM      5  N   LIG d   1       9.707  -5.541  -3.480  0.00  0.00    -0.247 N 
ATOM      6  H   LIG d   1       9.759  -6.510  -3.478  0.00  0.00     0.310 HD
ATOM      7  C   LIG d   1      10.578  -4.686  -2.893  0.00  0.00     0.243 A 
ATOM      8  N   LIG d   1      10.176  -3.460  -3.109  0.00  0.00    -0.246 N 
ATOM      9  C   LIG d   1       7.540  -5.218  -4.862  0.00  0.00     0.037 C 
ATOM     10  C   LIG d   1       7.016  -3.995  -5.630  0.00  0.00     0.098 C 
ATOM     11  H   LIG d   1       7.710  -3.745  -6.432  0.00  0.00     0.057 H 
ATOM     12  H   LIG d   1       8.701  -1.873  -5.182  0.00  0.00     0.051 H 
ATOM     13  H   LIG d   1       8.103  -1.598  -3.525  0.00  0.00     0.051 H 
ATOM     14  H   LIG d   1      11.460  -4.971  -2.337  0.00  0.00     0.158 H 
ATOM     15  H   LIG d   1       7.824  -6.001  -5.566  0.00  0.00     0.037 H 
ATOM     16  H   LIG d   1       6.769  -5.589  -4.188  0.00  0.00     0.037 H 
ATOM     17  H   LIG d   1      10.623  -2.659  -2.796  0.00  0.00     0.310 HD
ENDROOT
BRANCH  10  18
ATOM     18  C   LIG d   1       5.664  -4.312  -6.216  0.00  0.00     0.245 A 
ATOM     19  O   LIG d   1       4.705  -5.034  -5.624  0.00  0.00    -0.336 OA
ATOM     20  N   LIG d   1       3.614  -5.073  -6.533  0.00  0.00    -0.056 NA
ATOM     21  C   LIG d   1       3.987  -4.393  -7.589  0.00  0.00     0.202 A 
ATOM     22  N   LIG d   1       5.236  -3.934  -7.386  0.00  0.00    -0.190 NA
BRANCH  21  23
ATOM     23  C   LIG d   1       3.168  -4.166  -8.806  0.00  0.00     0.023 A 
ATOM     24  C   LIG d   1       2.814  -2.880  -9.164  0.00  0.00    -0.043 A 
ATOM     25  C   LIG d   1       2.045  -2.672 -10.319  0.00  0.00    -0.017 A 
ATOM     26  H   LIG d   1       3.132  -2.041  -8.563  0.00  0.00     0.063 H 
ATOM     27  C   LIG d   1       1.632  -3.786 -11.094  0.00  0.00    -0.018 A 
ATOM     28  C   LIG d   1       1.671  -1.377 -10.720  0.00  0.00    -0.054 A 
ATOM     29  C   LIG d   1       2.005  -5.083 -10.697  0.00  0.00    -0.053 A 
ATOM     30  C   LIG d   1       0.857  -3.573 -12.245  0.00  0.00    -0.054 A 
ATOM     31  C   LIG d   1       2.755  -5.263  -9.579  0.00  0.00    -0.050 A 
ATOM     32  H   LIG d   1       1.694  -5.937 -11.283  0.00  0.00     0.062 H 
ATOM     33  H   LIG d   1       3.036  -6.262  -9.282  0.00  0.00     0.062 H 
ATOM     34  C   LIG d   1       0.513  -2.305 -12.602  0.00  0.00    -0.061 A 
ATOM     35  H   LIG d   1       0.536  -4.411 -12.845  0.00  0.00     0.062 H 
ATOM     36  C   LIG d   1       0.918  -1.210 -11.842  0.00  0.00    -0.061 A 
ATOM     37  H   LIG d   1      -0.084  -2.146 -13.489  0.00  0.00     0.062 H 
ATOM     38  H   LIG d   1       0.632  -0.215 -12.147  0.00  0.00     0.062 H 
ATOM     39  H   LIG d   1       1.978  -0.519 -10.140  0.00  0.00     0.062 H 
ENDBRANCH  21  23
ENDBRANCH  10  18
BRANCH   1  40
ATOM     40  C   LIG d   1       6.066  -1.792  -5.298  0.00  0.00     0.025 C 
ATOM     41  H   LIG d   1       5.683  -2.122  -6.264  0.00  0.00     0.048 H 
ATOM     42  H   LIG d   1       6.667  -0.893  -5.432  0.00  0.00     0.048 H 
BRANCH  40  43
ATOM     43  C   LIG d   1       4.912  -1.491  -4.377  0.00  0.00    -0.033 A 
ATOM     44  C   LIG d   1       4.028  -0.474  -4.684  0.00  0.00    -0.057 A 
ATOM     45  C   LIG d   1       2.968  -0.199  -3.840  0.00  0.00    -0.061 A 
ATOM     46  H   LIG d   1       4.165   0.105  -5.585  0.00  0.00     0.062 H 
ATOM     47  C   LIG d   1       2.793  -0.943  -2.687  0.00  0.00    -0.062 A 
ATOM     48  H   LIG d   1       2.279   0.595  -4.080  0.00  0.00     0.062 H 
ATOM     49  C   LIG d   1       3.677  -1.960  -2.380  0.00  0.00    -0.061 A 
ATOM     50  H   LIG d   1       1.969  -0.725  -2.025  0.00  0.00     0.062 H 
ATOM     51  C   LIG d   1       4.736  -2.234  -3.224  0.00  0.00    -0.057 A 
ATOM     52  H   LIG d   1       3.540  -2.541  -1.479  0.00  0.00     0.062 H 
ATOM     53  H   LIG d   1       5.427  -3.029  -2.984  0.00  0.00     0.062 H 
ENDBRANCH  40  43
ENDBRANCH   1  40
TORSDOF 4
ENDMDL
MODEL 9
REMARK VINA RESULT:      -7.2      2.521      8.352
REMARK  4 active torsions:
REMARK  status: ('A' for Active; 'I' for Inactive)
REMARK    1  A    between atoms: C_4  and  C_7 
REMARK    2  A    between atoms: C_7  and  N_8 
REMARK    3  A    between atoms: C_17  and  C_19 
REMARK    4  A    between atoms: C_21  and  C_24 
ROOT
ATOM      1  N   LIG d   1      11.930   3.737  -3.798  0.00  0.00    -0.279 N 
ATOM      2  C   LIG d   1      13.322   4.215  -3.768  0.00  0.00     0.066 C 
ATOM      3  C   LIG d   1      14.223   3.031  -3.517  0.00  0.00     0.159 A 
ATOM      4  C   LIG d   1      13.824   1.748  -3.674  0.00  0.00     0.148 A 
ATOM      5  N   LIG d   1      14.884   0.957  -3.362  0.00  0.00    -0.247 N 
ATOM      6  H   LIG d   1      14.905  -0.012  -3.377  0.00  0.00     0.310 HD
ATOM      7  C   LIG d   1      15.905   1.780  -3.023  0.00  0.00     0.243 A 
ATOM      8  N   LIG d   1      15.497   3.020  -3.121  0.00  0.00    -0.246 N 
ATOM      9  C   LIG d   1      12.439   1.357  -4.121  0.00  0.00     0.037 C 
ATOM     10  C   LIG d   1      11.768   2.603  -4.718  0.00  0.00     0.098 C 
ATOM     11  H   LIG d   1      12.233   2.843  -5.674  0.00  0.00     0.057 H 
ATOM     12  H   LIG d   1      13.575   4.672  -4.725  0.00  0.00     0.051 H 
ATOM     13  H   LIG d   1      13.445   4.945  -2.968  0.00  0.00     0.051 H 
ATOM     14  H   LIG d   1      16.892   1.465  -2.721  0.00  0.00     0.158 H 
ATOM     15  H   LIG d   1      12.503   0.575  -4.877  0.00  0.00     0.037 H 
ATOM     16  H   LIG d   1      11.863   1.000  -3.268  0.00  0.00     0.037 H 
ATOM     17  H   LIG d   1      16.035   3.805  -2.935  0.00  0.00     0.310 HD
ENDROOT
BRANCH  10  18
ATOM     18  C   LIG d   1      10.301   2.331  -4.927  0.00  0.00     0.245 A 
ATOM     19  O   LIG d   1       9.568   2.749  -5.967  0.00  0.00    -0.336 OA
ATOM     20  N   LIG d   1       8.251   2.264  -5.751  0.00  0.00    -0.056 NA
ATOM     21  C   LIG d   1       8.279   1.610  -4.616  0.00  0.00     0.202 A 
ATOM     22  N   LIG d   1       9.530   1.656  -4.123  0.00  0.00    -0.190 NA
BRANCH  21  23
ATOM     23  C   LIG d   1       7.123   0.930  -3.981  0.00  0.00     0.023 A 
ATOM     24  C   LIG d   1       6.857  -0.393  -4.278  0.00  0.00    -0.043 A 
ATOM     25  C   LIG d   1       5.766  -1.032  -3.670  0.00  0.00    -0.017 A 
ATOM     26  H   LIG d   1       7.488  -0.932  -4.970  0.00  0.00     0.063 H 
ATOM     27  C   LIG d   1       4.946  -0.307  -2.768  0.00  0.00    -0.018 A 
ATOM     28  C   LIG d   1       5.468  -2.379  -3.943  0.00  0.00    -0.054 A 
ATOM     29  C   LIG d   1       5.241   1.040  -2.491  0.00  0.00    -0.053 A 
ATOM     30  C   LIG d   1       3.851  -0.949  -2.167  0.00  0.00    -0.054 A 
ATOM     31  C   LIG d   1       6.305   1.639  -3.086  0.00  0.00    -0.050 A 
ATOM     32  H   LIG d   1       4.621   1.599  -1.805  0.00  0.00     0.062 H 
ATOM     33  H   LIG d   1       6.524   2.674  -2.869  0.00  0.00     0.062 H 
ATOM     34  C   LIG d   1       3.593  -2.254  -2.455  0.00  0.00    -0.061 A 
ATOM     35  H   LIG d   1       3.218  -0.410  -1.478  0.00  0.00     0.062 H 
ATOM     36  C   LIG d   1       4.398  -2.967  -3.341  0.00  0.00    -0.061 A 
ATOM     37  H   LIG d   1       2.749  -2.744  -1.990  0.00  0.00     0.062 H 
ATOM     38  H   LIG d   1       4.171  -4.001  -3.552  0.00  0.00     0.062 H 
ATOM     39  H   LIG d   1       6.084  -2.944  -4.627  0.00  0.00     0.062 H 
ENDBRANCH  21  23
ENDBRANCH  10  18
BRANCH   1  40
ATOM     40  C   LIG d   1      11.007   4.828  -4.140  0.00  0.00     0.025 C 
ATOM     41  H   LIG d   1      10.101   4.412  -4.582  0.00  0.00     0.048 H 
ATOM     42  H   LIG d   1      11.485   5.499  -4.853  0.00  0.00     0.048 H 
BRANCH  40  43
ATOM     43  C   LIG d   1      10.650   5.594  -2.892  0.00  0.00    -0.033 A 
ATOM     44  C   LIG d   1      11.035   5.116  -1.654  0.00  0.00    -0.057 A 
ATOM     45  C   LIG d   1      10.709   5.819  -0.509  0.00  0.00    -0.061 A 
ATOM     46  H   LIG d   1      11.590   4.193  -1.581  0.00  0.00     0.062 H 
ATOM     47  C   LIG d   1       9.999   7.002  -0.604  0.00  0.00    -0.062 A 
ATOM     48  H   LIG d   1      11.009   5.446   0.458  0.00  0.00     0.062 H 
ATOM     49  C   LIG d   1       9.616   7.481  -1.842  0.00  0.00    -0.061 A 
ATOM     50  H   LIG d   1       9.741   7.549   0.291  0.00  0.00     0.062 H 
ATOM     51  C   LIG d   1       9.940   6.777  -2.986  0.00  0.00    -0.057 A 
ATOM     52  H   LIG d   1       9.061   8.405  -1.916  0.00  0.00     0.062 H 
ATOM     53  H   LIG d   1       9.640   7.151  -3.954  0.00  0.00     0.062 H 
ENDBRANCH  40  43
ENDBRANCH   1  40
TORSDOF 4
ENDMDL
MODEL 10
REMARK VINA RESULT:      -7.2      1.897      2.869
REMARK  4 active torsions:
REMARK  status: ('A' for Active; 'I' for Inactive)
REMARK    1  A    between atoms: C_4  and  C_7 
REMARK    2  A    between atoms: C_7  and  N_8 
REMARK    3  A    between atoms: C_17  and  C_19 
REMARK    4  A    between atoms: C_21  and  C_24 
ROOT
ATOM      1  N   LIG d   1       7.030  -1.007  -5.678  0.00  0.00    -0.279 N 
ATOM      2  C   LIG d   1       6.405  -2.294  -6.026  0.00  0.00     0.066 C 
ATOM      3  C   LIG d   1       6.101  -2.288  -7.504  0.00  0.00     0.159 A 
ATOM      4  C   LIG d   1       6.655  -1.411  -8.372  0.00  0.00     0.148 A 
ATOM      5  N   LIG d   1       6.157  -1.697  -9.603  0.00  0.00    -0.247 N 
ATOM      6  H   LIG d   1       6.366  -1.238 -10.432  0.00  0.00     0.310 HD
ATOM      7  C   LIG d   1       5.312  -2.744  -9.454  0.00  0.00     0.243 A 
ATOM      8  N   LIG d   1       5.287  -3.089  -8.192  0.00  0.00    -0.246 N 
ATOM      9  C   LIG d   1       7.640  -0.346  -7.964  0.00  0.00     0.037 C 
ATOM     10  C   LIG d   1       8.163  -0.701  -6.564  0.00  0.00     0.098 C 
ATOM     11  H   LIG d   1       8.816  -1.570  -6.630  0.00  0.00     0.057 H 
ATOM     12  H   LIG d   1       7.090  -3.110  -5.795  0.00  0.00     0.051 H 
ATOM     13  H   LIG d   1       5.481  -2.418  -5.462  0.00  0.00     0.051 H 
ATOM     14  H   LIG d   1       4.749  -3.215 -10.246  0.00  0.00     0.158 H 
ATOM     15  H   LIG d   1       8.469  -0.320  -8.671  0.00  0.00     0.037 H 
ATOM     16  H   LIG d   1       7.144   0.624  -7.937  0.00  0.00     0.037 H 
ATOM     17  H   LIG d   1       4.761  -3.813  -7.817  0.00  0.00     0.310 HD
ENDROOT
BRANCH  10  18
ATOM     18  C   LIG d   1       8.935   0.467  -6.005  0.00  0.00     0.245 A 
ATOM     19  O   LIG d   1      10.032   0.386  -5.242  0.00  0.00    -0.336 OA
ATOM     20  N   LIG d   1      10.419   1.721  -4.952  0.00  0.00    -0.056 NA
ATOM     21  C   LIG d   1       9.542   2.496  -5.542  0.00  0.00     0.202 A 
ATOM     22  N   LIG d   1       8.644   1.724  -6.179  0.00  0.00    -0.190 NA
BRANCH  21  23
ATOM     23  C   LIG d   1       9.541   3.981  -5.511  0.00  0.00     0.023 A 
ATOM     24  C   LIG d   1       9.653   4.691  -6.690  0.00  0.00    -0.043 A 
ATOM     25  C   LIG d   1       9.645   6.094  -6.655  0.00  0.00    -0.017 A 
ATOM     26  H   LIG d   1       9.741   4.170  -7.632  0.00  0.00     0.063 H 
ATOM     27  C   LIG d   1       9.535   6.760  -5.409  0.00  0.00    -0.018 A 
ATOM     28  C   LIG d   1       9.751   6.851  -7.835  0.00  0.00    -0.054 A 
ATOM     29  C   LIG d   1       9.429   6.007  -4.225  0.00  0.00    -0.053 A 
ATOM     30  C   LIG d   1       9.534   8.164  -5.378  0.00  0.00    -0.054 A 
ATOM     31  C   LIG d   1       9.432   4.650  -4.281  0.00  0.00    -0.050 A 
ATOM     32  H   LIG d   1       9.344   6.508  -3.272  0.00  0.00     0.062 H 
ATOM     33  H   LIG d   1       9.351   4.080  -3.368  0.00  0.00     0.062 H 
ATOM     34  C   LIG d   1       9.639   8.865  -6.540  0.00  0.00    -0.061 A 
ATOM     35  H   LIG d   1       9.450   8.686  -4.436  0.00  0.00     0.062 H 
ATOM     36  C   LIG d   1       9.747   8.211  -7.765  0.00  0.00    -0.061 A 
ATOM     37  H   LIG d   1       9.638   9.945  -6.512  0.00  0.00     0.062 H 
ATOM     38  H   LIG d   1       9.828   8.790  -8.673  0.00  0.00     0.062 H 
ATOM     39  H   LIG d   1       9.835   6.357  -8.792  0.00  0.00     0.062 H 
ENDBRANCH  21  23
ENDBRANCH  10  18
BRANCH   1  40
ATOM     40  C   LIG d   1       7.444  -0.986  -4.268  0.00  0.00     0.025 C 
ATOM     41  H   LIG d   1       8.295  -0.315  -4.149  0.00  0.00     0.048 H 
ATOM     42  H   LIG d   1       7.728  -1.992  -3.959  0.00  0.00     0.048 H 
BRANCH  40  43
ATOM     43  C   LIG d   1       6.299  -0.503  -3.416  0.00  0.00    -0.033 A 
ATOM     44  C   LIG d   1       6.055   0.852  -3.290  0.00  0.00    -0.057 A 
ATOM     45  C   LIG d   1       5.004   1.295  -2.509  0.00  0.00    -0.061 A 
ATOM     46  H   LIG d   1       6.685   1.563  -3.802  0.00  0.00     0.062 H 
ATOM     47  C   LIG d   1       4.196   0.383  -1.855  0.00  0.00    -0.062 A 
ATOM     48  H   LIG d   1       4.813   2.353  -2.410  0.00  0.00     0.062 H 
ATOM     49  C   LIG d   1       4.440  -0.972  -1.982  0.00  0.00    -0.061 A 
ATOM     50  H   LIG d   1       3.378   0.729  -1.242  0.00  0.00     0.062 H 
ATOM     51  C   LIG d   1       5.492  -1.415  -2.761  0.00  0.00    -0.057 A 
ATOM     52  H   LIG d   1       3.809  -1.684  -1.471  0.00  0.00     0.062 H 
ATOM     53  H   LIG d   1       5.682  -2.474  -2.861  0.00  0.00     0.062 H 
ENDBRANCH  40  43
ENDBRANCH   1  40
TORSDOF 4
ENDMDL
