MODEL 1
REMARK VINA RESULT:      -6.5      0.000      0.000
REMARK  3 active torsions:
REMARK  status: ('A' for Active; 'I' for Inactive)
REMARK    1  A    between atoms: C_1  and  C_2 
REMARK    2  A    between atoms: C_5  and  O_33 
REMARK    3  A    between atoms: C_18  and  C_28 
ROOT
ATOM      1  C   LIG d   1       7.550  -1.938  -5.625  0.00  0.00    -0.026 C 
ATOM      2  C   LIG d   1       9.046  -2.017  -5.969  0.00  0.00    -0.045 C 
ATOM      3  C   LIG d   1       9.656  -3.304  -5.424  0.00  0.00    -0.026 C 
ATOM      4  C   LIG d   1       9.469  -3.400  -3.911  0.00  0.00     0.056 C 
ATOM      5  H   LIG d   1      10.021  -2.595  -3.425  0.00  0.00     0.059 H 
ATOM      6  C   LIG d   1       7.987  -3.290  -3.549  0.00  0.00    -0.023 C 
ATOM      7  C   LIG d   1       7.419  -1.988  -4.099  0.00  0.00    -0.028 C 
ATOM      8  H   LIG d   1       7.991  -1.151  -3.679  0.00  0.00     0.031 H 
ATOM      9  C   LIG d   1       5.955  -1.824  -3.699  0.00  0.00     0.005 C 
ATOM     10  C   LIG d   1       5.479  -0.438  -4.140  0.00  0.00     0.174 C 
ATOM     11  C   LIG d   1       5.596  -0.282  -5.656  0.00  0.00     0.020 C 
ATOM     12  H   LIG d   1       5.432   0.797  -5.873  0.00  0.00     0.036 H 
ATOM     13  C   LIG d   1       6.996  -0.613  -6.128  0.00  0.00    -0.027 C 
ATOM     14  H   LIG d   1       7.659   0.171  -5.673  0.00  0.00     0.031 H 
ATOM     15  C   LIG d   1       7.134  -0.432  -7.629  0.00  0.00    -0.049 C 
ATOM     16  C   LIG d   1       6.064  -1.146  -8.425  0.00  0.00    -0.042 C 
ATOM     17  C   LIG d   1       4.661  -1.015  -7.902  0.00  0.00     0.025 C 
ATOM     18  C   LIG d   1       4.498  -1.051  -6.378  0.00  0.00    -0.023 C 
ATOM     19  H   LIG d   1       4.417  -2.083  -6.008  0.00  0.00     0.031 H 
ATOM     20  C   LIG d   1       3.169  -0.288  -6.111  0.00  0.00    -0.044 C 
ATOM     21  C   LIG d   1       2.751   0.381  -7.434  0.00  0.00     0.002 C 
ATOM     22  C   LIG d   1       3.992   0.295  -8.337  0.00  0.00     0.176 C 
ATOM     23  O   LIG d   1       4.858   1.415  -8.132  0.00  0.00    -0.346 OA
ATOM     24  C   LIG d   1       4.361   2.408  -9.062  0.00  0.00     0.074 C 
ATOM     25  C   LIG d   1       3.918   1.552 -10.271  0.00  0.00     0.074 C 
ATOM     26  O   LIG d   1       3.628   0.255  -9.715  0.00  0.00    -0.346 OA
ATOM     27  O   LIG d   1       6.299   0.560  -3.506  0.00  0.00    -0.346 OA
ATOM     28  C   LIG d   1       5.418   1.415  -2.751  0.00  0.00     0.074 C 
ATOM     29  C   LIG d   1       4.201   0.494  -2.479  0.00  0.00     0.074 C 
ATOM     30  O   LIG d   1       4.122  -0.254  -3.716  0.00  0.00    -0.346 OA
ATOM     31  H   LIG d   1       9.165  -1.990  -7.052  0.00  0.00     0.027 H 
ATOM     32  H   LIG d   1       9.554  -1.156  -5.531  0.00  0.00     0.027 H 
ATOM     33  H   LIG d   1       9.223  -4.175  -5.911  0.00  0.00     0.029 H 
ATOM     34  H   LIG d   1      10.734  -3.301  -5.643  0.00  0.00     0.029 H 
ATOM     35  H   LIG d   1       7.896  -3.284  -2.455  0.00  0.00     0.029 H 
ATOM     36  H   LIG d   1       7.444  -4.151  -3.926  0.00  0.00     0.029 H 
ATOM     37  H   LIG d   1       5.335  -2.592  -4.148  0.00  0.00     0.032 H 
ATOM     38  H   LIG d   1       5.871  -1.895  -2.610  0.00  0.00     0.032 H 
ATOM     39  H   LIG d   1       8.123  -0.782  -7.954  0.00  0.00     0.027 H 
ATOM     40  H   LIG d   1       7.096   0.644  -7.861  0.00  0.00     0.027 H 
ATOM     41  H   LIG d   1       6.312  -2.197  -8.563  0.00  0.00     0.027 H 
ATOM     42  H   LIG d   1       6.065  -0.714  -9.447  0.00  0.00     0.027 H 
ATOM     43  H   LIG d   1       2.399  -0.984  -5.781  0.00  0.00     0.027 H 
ATOM     44  H   LIG d   1       3.321   0.486  -5.356  0.00  0.00     0.027 H 
ATOM     45  H   LIG d   1       1.913  -0.148  -7.881  0.00  0.00     0.032 H 
ATOM     46  H   LIG d   1       2.486   1.425  -7.259  0.00  0.00     0.032 H 
ATOM     47  H   LIG d   1       5.153   3.099  -9.350  0.00  0.00     0.058 H 
ATOM     48  H   LIG d   1       3.514   2.946  -8.639  0.00  0.00     0.058 H 
ATOM     49  H   LIG d   1       4.725   1.481 -11.000  0.00  0.00     0.058 H 
ATOM     50  H   LIG d   1       3.026   1.977 -10.730  0.00  0.00     0.058 H 
ATOM     51  H   LIG d   1       5.122   2.283  -3.340  0.00  0.00     0.058 H 
ATOM     52  H   LIG d   1       5.885   1.723  -1.816  0.00  0.00     0.058 H 
ATOM     53  H   LIG d   1       3.297   1.080  -2.318  0.00  0.00     0.058 H 
ATOM     54  H   LIG d   1       4.393  -0.166  -1.633  0.00  0.00     0.058 H 
ENDROOT
BRANCH   1  55
ATOM     55  C   LIG d   1       6.840  -3.135  -6.248  0.00  0.00    -0.059 C 
ATOM     56  H   LIG d   1       7.335  -3.406  -7.181  0.00  0.00     0.024 H 
ATOM     57  H   LIG d   1       6.877  -3.979  -5.559  0.00  0.00     0.024 H 
ATOM     58  H   LIG d   1       5.800  -2.877  -6.450  0.00  0.00     0.024 H 
ENDBRANCH   1  55
BRANCH  17  59
ATOM     59  C   LIG d   1       3.833  -2.173  -8.493  0.00  0.00    -0.054 C 
ATOM     60  H   LIG d   1       3.828  -3.011  -7.795  0.00  0.00     0.024 H 
ATOM     61  H   LIG d   1       2.811  -1.838  -8.666  0.00  0.00     0.024 H 
ATOM     62  H   LIG d   1       4.276  -2.490  -9.439  0.00  0.00     0.024 H 
ENDBRANCH  17  59
BRANCH   4  63
ATOM     63  O   LIG d   1       9.974  -4.657  -3.452  0.00  0.00    -0.392 OA
ATOM     64  H   LIG d   1      10.283  -5.239  -4.159  0.00  0.00     0.210 HD
ENDBRANCH   4  63
TORSDOF 3
ENDMDL
MODEL 2
REMARK VINA RESULT:      -6.4      2.114      6.317
REMARK  3 active torsions:
REMARK  status: ('A' for Active; 'I' for Inactive)
REMARK    1  A    between atoms: C_1  and  C_2 
REMARK    2  A    between atoms: C_5  and  O_33 
REMARK    3  A    between atoms: C_18  and  C_28 
ROOT
ATOM      1  C   LIG d   1       3.578  -0.509  -8.657  0.00  0.00    -0.026 C 
ATOM      2  C   LIG d   1       2.187  -0.018  -9.090  0.00  0.00    -0.045 C 
ATOM      3  C   LIG d   1       1.706  -0.780 -10.320  0.00  0.00    -0.026 C 
ATOM      4  C   LIG d   1       2.690  -0.626 -11.478  0.00  0.00     0.056 C 
ATOM      5  H   LIG d   1       2.727   0.419 -11.787  0.00  0.00     0.059 H 
ATOM      6  C   LIG d   1       4.088  -1.080 -11.054  0.00  0.00    -0.023 C 
ATOM      7  C   LIG d   1       4.537  -0.288  -9.832  0.00  0.00    -0.028 C 
ATOM      8  H   LIG d   1       4.528   0.781 -10.085  0.00  0.00     0.031 H 
ATOM      9  C   LIG d   1       5.955  -0.678  -9.425  0.00  0.00     0.005 C 
ATOM     10  C   LIG d   1       6.412   0.250  -8.297  0.00  0.00     0.174 C 
ATOM     11  C   LIG d   1       5.497   0.118  -7.081  0.00  0.00     0.020 C 
ATOM     12  H   LIG d   1       5.763   0.954  -6.397  0.00  0.00     0.036 H 
ATOM     13  C   LIG d   1       4.047   0.319  -7.471  0.00  0.00    -0.027 C 
ATOM     14  H   LIG d   1       3.974   1.386  -7.813  0.00  0.00     0.031 H 
ATOM     15  C   LIG d   1       3.129   0.222  -6.266  0.00  0.00    -0.049 C 
ATOM     16  C   LIG d   1       3.345  -1.028  -5.440  0.00  0.00    -0.042 C 
ATOM     17  C   LIG d   1       4.777  -1.395  -5.172  0.00  0.00     0.025 C 
ATOM     18  C   LIG d   1       5.764  -1.176  -6.324  0.00  0.00    -0.023 C 
ATOM     19  H   LIG d   1       5.788  -2.042  -7.000  0.00  0.00     0.031 H 
ATOM     20  C   LIG d   1       7.145  -1.008  -5.629  0.00  0.00    -0.044 C 
ATOM     21  C   LIG d   1       6.883  -0.874  -4.116  0.00  0.00     0.002 C 
ATOM     22  C   LIG d   1       5.373  -0.615  -3.992  0.00  0.00     0.176 C 
ATOM     23  O   LIG d   1       5.079   0.782  -4.092  0.00  0.00    -0.346 OA
ATOM     24  C   LIG d   1       5.180   1.252  -2.725  0.00  0.00     0.074 C 
ATOM     25  C   LIG d   1       4.635   0.055  -1.911  0.00  0.00     0.074 C 
ATOM     26  O   LIG d   1       4.865  -1.094  -2.748  0.00  0.00    -0.346 OA
ATOM     27  O   LIG d   1       6.370   1.609  -8.766  0.00  0.00    -0.346 OA
ATOM     28  C   LIG d   1       7.698   2.149  -8.623  0.00  0.00     0.074 C 
ATOM     29  C   LIG d   1       8.587   0.881  -8.664  0.00  0.00     0.074 C 
ATOM     30  O   LIG d   1       7.766  -0.073  -7.949  0.00  0.00    -0.346 OA
ATOM     31  H   LIG d   1       1.484  -0.172  -8.271  0.00  0.00     0.027 H 
ATOM     32  H   LIG d   1       2.245   1.047  -9.318  0.00  0.00     0.027 H 
ATOM     33  H   LIG d   1       1.560  -1.834 -10.092  0.00  0.00     0.029 H 
ATOM     34  H   LIG d   1       0.735  -0.368 -10.631  0.00  0.00     0.029 H 
ATOM     35  H   LIG d   1       4.783  -0.882 -11.880  0.00  0.00     0.029 H 
ATOM     36  H   LIG d   1       4.092  -2.147 -10.859  0.00  0.00     0.029 H 
ATOM     37  H   LIG d   1       6.001  -1.711  -9.100  0.00  0.00     0.032 H 
ATOM     38  H   LIG d   1       6.623  -0.547 -10.282  0.00  0.00     0.032 H 
ATOM     39  H   LIG d   1       2.082   0.262  -6.594  0.00  0.00     0.027 H 
ATOM     40  H   LIG d   1       3.287   1.105  -5.628  0.00  0.00     0.027 H 
ATOM     41  H   LIG d   1       2.818  -1.878  -5.869  0.00  0.00     0.027 H 
ATOM     42  H   LIG d   1       2.867  -0.862  -4.453  0.00  0.00     0.027 H 
ATOM     43  H   LIG d   1       7.770  -1.878  -5.826  0.00  0.00     0.027 H 
ATOM     44  H   LIG d   1       7.642  -0.104  -5.983  0.00  0.00     0.027 H 
ATOM     45  H   LIG d   1       7.160  -1.788  -3.598  0.00  0.00     0.032 H 
ATOM     46  H   LIG d   1       7.443  -0.029  -3.713  0.00  0.00     0.032 H 
ATOM     47  H   LIG d   1       4.561   2.135  -2.572  0.00  0.00     0.058 H 
ATOM     48  H   LIG d   1       6.218   1.456  -2.461  0.00  0.00     0.058 H 
ATOM     49  H   LIG d   1       3.569   0.181  -1.723  0.00  0.00     0.058 H 
ATOM     50  H   LIG d   1       5.178  -0.044  -0.972  0.00  0.00     0.058 H 
ATOM     51  H   LIG d   1       7.806   2.665  -7.669  0.00  0.00     0.058 H 
ATOM     52  H   LIG d   1       7.937   2.815  -9.452  0.00  0.00     0.058 H 
ATOM     53  H   LIG d   1       9.532   1.049  -8.147  0.00  0.00     0.058 H 
ATOM     54  H   LIG d   1       8.758   0.558  -9.691  0.00  0.00     0.058 H 
ENDROOT
BRANCH   1  55
ATOM     55  C   LIG d   1       3.493  -1.996  -8.328  0.00  0.00    -0.059 C 
ATOM     56  H   LIG d   1       2.980  -2.128  -7.374  0.00  0.00     0.024 H 
ATOM     57  H   LIG d   1       2.938  -2.511  -9.112  0.00  0.00     0.024 H 
ATOM     58  H   LIG d   1       4.498  -2.412  -8.261  0.00  0.00     0.024 H 
ENDBRANCH   1  55
BRANCH  17  59
ATOM     59  C   LIG d   1       4.812  -2.891  -4.798  0.00  0.00    -0.054 C 
ATOM     60  H   LIG d   1       5.005  -2.994  -3.730  0.00  0.00     0.024 H 
ATOM     61  H   LIG d   1       3.854  -3.348  -5.039  0.00  0.00     0.024 H 
ATOM     62  H   LIG d   1       5.604  -3.387  -5.360  0.00  0.00     0.024 H 
ENDBRANCH  17  59
BRANCH   4  63
ATOM     63  O   LIG d   1       2.250  -1.424 -12.581  0.00  0.00    -0.392 OA
ATOM     64  H   LIG d   1       2.717  -2.266 -12.669  0.00  0.00     0.210 HD
ENDBRANCH   4  63
TORSDOF 3
ENDMDL
MODEL 3
REMARK VINA RESULT:      -6.4      2.812      5.603
REMARK  3 active torsions:
REMARK  status: ('A' for Active; 'I' for Inactive)
REMARK    1  A    between atoms: C_1  and  C_2 
REMARK    2  A    between atoms: C_5  and  O_33 
REMARK    3  A    between atoms: C_18  and  C_28 
ROOT
ATOM      1  C   LIG d   1       5.197  -2.189  -4.118  0.00  0.00    -0.026 C 
ATOM      2  C   LIG d   1       4.074  -2.402  -3.090  0.00  0.00    -0.045 C 
ATOM      3  C   LIG d   1       3.570  -1.064  -2.559  0.00  0.00    -0.026 C 
ATOM      4  C   LIG d   1       4.706  -0.265  -1.923  0.00  0.00     0.056 C 
ATOM      5  H   LIG d   1       5.079  -0.797  -1.047  0.00  0.00     0.059 H 
ATOM      6  C   LIG d   1       5.848  -0.072  -2.923  0.00  0.00    -0.023 C 
ATOM      7  C   LIG d   1       6.330  -1.429  -3.420  0.00  0.00    -0.028 C 
ATOM      8  H   LIG d   1       6.658  -2.022  -2.556  0.00  0.00     0.031 H 
ATOM      9  C   LIG d   1       7.511  -1.268  -4.374  0.00  0.00     0.005 C 
ATOM     10  C   LIG d   1       8.054  -2.657  -4.719  0.00  0.00     0.174 C 
ATOM     11  C   LIG d   1       6.981  -3.504  -5.402  0.00  0.00     0.020 C 
ATOM     12  H   LIG d   1       7.376  -4.543  -5.434  0.00  0.00     0.036 H 
ATOM     13  C   LIG d   1       5.714  -3.545  -4.573  0.00  0.00    -0.027 C 
ATOM     14  H   LIG d   1       5.994  -4.082  -3.627  0.00  0.00     0.031 H 
ATOM     15  C   LIG d   1       4.651  -4.410  -5.225  0.00  0.00    -0.049 C 
ATOM     16  C   LIG d   1       4.390  -4.058  -6.674  0.00  0.00    -0.042 C 
ATOM     17  C   LIG d   1       5.609  -3.815  -7.518  0.00  0.00     0.025 C 
ATOM     18  C   LIG d   1       6.765  -3.067  -6.845  0.00  0.00    -0.023 C 
ATOM     19  H   LIG d   1       6.636  -1.978  -6.923  0.00  0.00     0.031 H 
ATOM     20  C   LIG d   1       8.029  -3.508  -7.637  0.00  0.00    -0.044 C 
ATOM     21  C   LIG d   1       7.612  -4.675  -8.553  0.00  0.00     0.002 C 
ATOM     22  C   LIG d   1       6.234  -5.119  -8.035  0.00  0.00     0.176 C 
ATOM     23  O   LIG d   1       6.363  -6.084  -6.987  0.00  0.00    -0.346 OA
ATOM     24  C   LIG d   1       6.406  -7.350  -7.691  0.00  0.00     0.074 C 
ATOM     25  C   LIG d   1       5.439  -7.115  -8.875  0.00  0.00     0.074 C 
ATOM     26  O   LIG d   1       5.447  -5.689  -9.078  0.00  0.00    -0.346 OA
ATOM     27  O   LIG d   1       8.461  -3.313  -3.506  0.00  0.00    -0.346 OA
ATOM     28  C   LIG d   1       9.856  -3.647  -3.652  0.00  0.00     0.074 C 
ATOM     29  C   LIG d   1      10.347  -2.608  -4.691  0.00  0.00     0.074 C 
ATOM     30  O   LIG d   1       9.200  -2.511  -5.569  0.00  0.00    -0.346 OA
ATOM     31  H   LIG d   1       3.251  -2.936  -3.566  0.00  0.00     0.027 H 
ATOM     32  H   LIG d   1       4.461  -3.002  -2.265  0.00  0.00     0.027 H 
ATOM     33  H   LIG d   1       3.102  -0.484  -3.351  0.00  0.00     0.029 H 
ATOM     34  H   LIG d   1       2.807  -1.257  -1.791  0.00  0.00     0.029 H 
ATOM     35  H   LIG d   1       6.676   0.434  -2.412  0.00  0.00     0.029 H 
ATOM     36  H   LIG d   1       5.523   0.558  -3.744  0.00  0.00     0.029 H 
ATOM     37  H   LIG d   1       7.218  -0.746  -5.278  0.00  0.00     0.032 H 
ATOM     38  H   LIG d   1       8.299  -0.696  -3.874  0.00  0.00     0.032 H 
ATOM     39  H   LIG d   1       3.713  -4.332  -4.659  0.00  0.00     0.027 H 
ATOM     40  H   LIG d   1       4.963  -5.463  -5.162  0.00  0.00     0.027 H 
ATOM     41  H   LIG d   1       3.707  -3.214  -6.756  0.00  0.00     0.027 H 
ATOM     42  H   LIG d   1       3.848  -4.911  -7.131  0.00  0.00     0.027 H 
ATOM     43  H   LIG d   1       8.404  -2.677  -8.234  0.00  0.00     0.027 H 
ATOM     44  H   LIG d   1       8.805  -3.855  -6.953  0.00  0.00     0.027 H 
ATOM     45  H   LIG d   1       7.546  -4.344  -9.586  0.00  0.00     0.032 H 
ATOM     46  H   LIG d   1       8.328  -5.494  -8.466  0.00  0.00     0.032 H 
ATOM     47  H   LIG d   1       6.047  -8.159  -7.056  0.00  0.00     0.058 H 
ATOM     48  H   LIG d   1       7.413  -7.559  -8.052  0.00  0.00     0.058 H 
ATOM     49  H   LIG d   1       4.436  -7.456  -8.617  0.00  0.00     0.058 H 
ATOM     50  H   LIG d   1       5.798  -7.628  -9.766  0.00  0.00     0.058 H 
ATOM     51  H   LIG d   1       9.973  -4.660  -4.034  0.00  0.00     0.058 H 
ATOM     52  H   LIG d   1      10.383  -3.526  -2.706  0.00  0.00     0.058 H 
ATOM     53  H   LIG d   1      11.221  -2.976  -5.228  0.00  0.00     0.058 H 
ATOM     54  H   LIG d   1      10.558  -1.650  -4.215  0.00  0.00     0.058 H 
ENDROOT
BRANCH   1  55
ATOM     55  C   LIG d   1       4.651  -1.360  -5.276  0.00  0.00    -0.059 C 
ATOM     56  H   LIG d   1       5.411  -1.276  -6.053  0.00  0.00     0.024 H 
ATOM     57  H   LIG d   1       3.766  -1.846  -5.686  0.00  0.00     0.024 H 
ATOM     58  H   LIG d   1       4.385  -0.365  -4.918  0.00  0.00     0.024 H 
ENDBRANCH   1  55
BRANCH  17  59
ATOM     59  C   LIG d   1       5.169  -2.997  -8.748  0.00  0.00    -0.054 C 
ATOM     60  H   LIG d   1       4.207  -2.527  -8.547  0.00  0.00     0.024 H 
ATOM     61  H   LIG d   1       5.912  -2.229  -8.959  0.00  0.00     0.024 H 
ATOM     62  H   LIG d   1       5.077  -3.659  -9.610  0.00  0.00     0.024 H 
ENDBRANCH  17  59
BRANCH   4  63
ATOM     63  O   LIG d   1       4.214   1.015  -1.517  0.00  0.00    -0.392 OA
ATOM     64  H   LIG d   1       4.074   1.633  -2.248  0.00  0.00     0.210 HD
ENDBRANCH   4  63
TORSDOF 3
ENDMDL
MODEL 4
REMARK VINA RESULT:      -6.2      2.579      4.233
REMARK  3 active torsions:
REMARK  status: ('A' for Active; 'I' for Inactive)
REMARK    1  A    between atoms: C_1  and  C_2 
REMARK    2  A    between atoms: C_5  and  O_33 
REMARK    3  A    between atoms: C_18  and  C_28 
ROOT
ATOM      1  C   LIG d   1       7.677   0.634  -5.595  0.00  0.00    -0.026 C 
ATOM      2  C   LIG d   1       8.152   1.683  -6.613  0.00  0.00    -0.045 C 
ATOM      3  C   LIG d   1       9.352   2.452  -6.071  0.00  0.00    -0.026 C 
ATOM      4  C   LIG d   1       9.012   3.136  -4.748  0.00  0.00     0.056 C 
ATOM      5  H   LIG d   1       8.242   3.890  -4.916  0.00  0.00     0.059 H 
ATOM      6  C   LIG d   1       8.504   2.110  -3.733  0.00  0.00    -0.023 C 
ATOM      7  C   LIG d   1       7.301   1.373  -4.306  0.00  0.00    -0.028 C 
ATOM      8  H   LIG d   1       6.522   2.108  -4.548  0.00  0.00     0.031 H 
ATOM      9  C   LIG d   1       6.736   0.385  -3.288  0.00  0.00     0.005 C 
ATOM     10  C   LIG d   1       5.445  -0.212  -3.850  0.00  0.00     0.174 C 
ATOM     11  C   LIG d   1       5.715  -0.954  -5.159  0.00  0.00     0.020 C 
ATOM     12  H   LIG d   1       4.720  -1.178  -5.603  0.00  0.00     0.036 H 
ATOM     13  C   LIG d   1       6.442  -0.064  -6.145  0.00  0.00    -0.027 C 
ATOM     14  H   LIG d   1       5.723   0.764  -6.388  0.00  0.00     0.031 H 
ATOM     15  C   LIG d   1       6.689  -0.780  -7.461  0.00  0.00    -0.049 C 
ATOM     16  C   LIG d   1       7.346  -2.133  -7.300  0.00  0.00    -0.042 C 
ATOM     17  C   LIG d   1       6.794  -3.002  -6.206  0.00  0.00     0.025 C 
ATOM     18  C   LIG d   1       6.398  -2.291  -4.907  0.00  0.00    -0.023 C 
ATOM     19  H   LIG d   1       7.258  -2.185  -4.231  0.00  0.00     0.031 H 
ATOM     20  C   LIG d   1       5.331  -3.222  -4.262  0.00  0.00    -0.044 C 
ATOM     21  C   LIG d   1       4.956  -4.285  -5.313  0.00  0.00     0.002 C 
ATOM     22  C   LIG d   1       5.531  -3.760  -6.638  0.00  0.00     0.176 C 
ATOM     23  O   LIG d   1       4.603  -2.892  -7.295  0.00  0.00    -0.346 OA
ATOM     24  C   LIG d   1       3.804  -3.791  -8.102  0.00  0.00     0.074 C 
ATOM     25  C   LIG d   1       4.832  -4.859  -8.543  0.00  0.00     0.074 C 
ATOM     26  O   LIG d   1       5.850  -4.830  -7.525  0.00  0.00    -0.346 OA
ATOM     27  O   LIG d   1       4.510   0.851  -4.104  0.00  0.00    -0.346 OA
ATOM     28  C   LIG d   1       3.324   0.567  -3.336  0.00  0.00     0.074 C 
ATOM     29  C   LIG d   1       3.868  -0.321  -2.188  0.00  0.00     0.074 C 
ATOM     30  O   LIG d   1       4.878  -1.098  -2.875  0.00  0.00    -0.346 OA
ATOM     31  H   LIG d   1       8.433   1.179  -7.539  0.00  0.00     0.027 H 
ATOM     32  H   LIG d   1       7.334   2.374  -6.815  0.00  0.00     0.027 H 
ATOM     33  H   LIG d   1      10.209   1.795  -5.943  0.00  0.00     0.029 H 
ATOM     34  H   LIG d   1       9.631   3.226  -6.802  0.00  0.00     0.029 H 
ATOM     35  H   LIG d   1       8.196   2.644  -2.825  0.00  0.00     0.029 H 
ATOM     36  H   LIG d   1       9.300   1.423  -3.466  0.00  0.00     0.029 H 
ATOM     37  H   LIG d   1       7.447  -0.403  -3.068  0.00  0.00     0.032 H 
ATOM     38  H   LIG d   1       6.503   0.919  -2.361  0.00  0.00     0.032 H 
ATOM     39  H   LIG d   1       7.311  -0.150  -8.113  0.00  0.00     0.027 H 
ATOM     40  H   LIG d   1       5.728  -0.907  -7.981  0.00  0.00     0.027 H 
ATOM     41  H   LIG d   1       8.425  -2.036  -7.189  0.00  0.00     0.027 H 
ATOM     42  H   LIG d   1       7.204  -2.688  -8.251  0.00  0.00     0.027 H 
ATOM     43  H   LIG d   1       5.741  -3.700  -3.373  0.00  0.00     0.027 H 
ATOM     44  H   LIG d   1       4.438  -2.653  -4.001  0.00  0.00     0.027 H 
ATOM     45  H   LIG d   1       5.396  -5.246  -5.057  0.00  0.00     0.032 H 
ATOM     46  H   LIG d   1       3.871  -4.376  -5.383  0.00  0.00     0.032 H 
ATOM     47  H   LIG d   1       3.392  -3.273  -8.967  0.00  0.00     0.058 H 
ATOM     48  H   LIG d   1       3.010  -4.243  -7.508  0.00  0.00     0.058 H 
ATOM     49  H   LIG d   1       5.257  -4.597  -9.512  0.00  0.00     0.058 H 
ATOM     50  H   LIG d   1       4.364  -5.841  -8.585  0.00  0.00     0.058 H 
ATOM     51  H   LIG d   1       2.597   0.020  -3.936  0.00  0.00     0.058 H 
ATOM     52  H   LIG d   1       2.889   1.484  -2.942  0.00  0.00     0.058 H 
ATOM     53  H   LIG d   1       3.084  -0.964  -1.788  0.00  0.00     0.058 H 
ATOM     54  H   LIG d   1       4.311   0.289  -1.400  0.00  0.00     0.058 H 
ENDROOT
BRANCH   1  55
ATOM     55  C   LIG d   1       8.819  -0.339  -5.323  0.00  0.00    -0.059 C 
ATOM     56  H   LIG d   1       9.380  -0.507  -6.243  0.00  0.00     0.024 H 
ATOM     57  H   LIG d   1       9.481   0.080  -4.565  0.00  0.00     0.024 H 
ATOM     58  H   LIG d   1       8.413  -1.287  -4.967  0.00  0.00     0.024 H 
ENDBRANCH   1  55
BRANCH  17  59
ATOM     59  C   LIG d   1       7.866  -4.055  -5.861  0.00  0.00    -0.054 C 
ATOM     60  H   LIG d   1       8.830  -3.563  -5.729  0.00  0.00     0.024 H 
ATOM     61  H   LIG d   1       7.590  -4.566  -4.939  0.00  0.00     0.024 H 
ATOM     62  H   LIG d   1       7.936  -4.781  -6.672  0.00  0.00     0.024 H 
ENDBRANCH  17  59
BRANCH   4  63
ATOM     63  O   LIG d   1      10.184   3.772  -4.230  0.00  0.00    -0.392 OA
ATOM     64  H   LIG d   1      10.959   3.697  -4.803  0.00  0.00     0.210 HD
ENDBRANCH   4  63
TORSDOF 3
ENDMDL
MODEL 5
REMARK VINA RESULT:      -6.0      9.340     12.464
REMARK  3 active torsions:
REMARK  status: ('A' for Active; 'I' for Inactive)
REMARK    1  A    between atoms: C_1  and  C_2 
REMARK    2  A    between atoms: C_5  and  O_33 
REMARK    3  A    between atoms: C_18  and  C_28 
ROOT
ATOM      1  C   LIG d   1      10.535   9.076  -4.950  0.00  0.00    -0.026 C 
ATOM      2  C   LIG d   1      11.204   9.859  -6.090  0.00  0.00    -0.045 C 
ATOM      3  C   LIG d   1      10.190  10.196  -7.178  0.00  0.00    -0.026 C 
ATOM      4  C   LIG d   1       9.543   8.929  -7.735  0.00  0.00     0.056 C 
ATOM      5  H   LIG d   1      10.301   8.321  -8.229  0.00  0.00     0.059 H 
ATOM      6  C   LIG d   1       8.901   8.119  -6.607  0.00  0.00    -0.023 C 
ATOM      7  C   LIG d   1       9.946   7.793  -5.548  0.00  0.00    -0.028 C 
ATOM      8  H   LIG d   1      10.762   7.231  -6.023  0.00  0.00     0.031 H 
ATOM      9  C   LIG d   1       9.345   6.932  -4.440  0.00  0.00     0.005 C 
ATOM     10  C   LIG d   1      10.466   6.506  -3.490  0.00  0.00     0.174 C 
ATOM     11  C   LIG d   1      11.134   7.726  -2.857  0.00  0.00     0.020 C 
ATOM     12  H   LIG d   1      12.052   7.352  -2.352  0.00  0.00     0.036 H 
ATOM     13  C   LIG d   1      11.591   8.704  -3.920  0.00  0.00    -0.027 C 
ATOM     14  H   LIG d   1      12.387   8.166  -4.500  0.00  0.00     0.031 H 
ATOM     15  C   LIG d   1      12.285   9.907  -3.306  0.00  0.00    -0.049 C 
ATOM     16  C   LIG d   1      11.487  10.569  -2.205  0.00  0.00    -0.042 C 
ATOM     17  C   LIG d   1      10.844   9.641  -1.213  0.00  0.00     0.025 C 
ATOM     18  C   LIG d   1      10.255   8.343  -1.779  0.00  0.00    -0.023 C 
ATOM     19  H   LIG d   1       9.225   8.493  -2.134  0.00  0.00     0.031 H 
ATOM     20  C   LIG d   1      10.262   7.356  -0.578  0.00  0.00    -0.044 C 
ATOM     21  C   LIG d   1      11.081   8.012   0.550  0.00  0.00     0.002 C 
ATOM     22  C   LIG d   1      11.817   9.184  -0.118  0.00  0.00     0.176 C 
ATOM     23  O   LIG d   1      13.065   8.760  -0.676  0.00  0.00    -0.346 OA
ATOM     24  C   LIG d   1      14.000   8.915   0.420  0.00  0.00     0.074 C 
ATOM     25  C   LIG d   1      13.476  10.179   1.140  0.00  0.00     0.074 C 
ATOM     26  O   LIG d   1      12.075  10.233   0.812  0.00  0.00    -0.346 OA
ATOM     27  O   LIG d   1      11.452   5.768  -4.233  0.00  0.00    -0.346 OA
ATOM     28  C   LIG d   1      11.567   4.471  -3.615  0.00  0.00     0.074 C 
ATOM     29  C   LIG d   1      10.189   4.299  -2.926  0.00  0.00     0.074 C 
ATOM     30  O   LIG d   1       9.918   5.649  -2.479  0.00  0.00    -0.346 OA
ATOM     31  H   LIG d   1      11.625  10.782  -5.690  0.00  0.00     0.027 H 
ATOM     32  H   LIG d   1      12.006   9.252  -6.512  0.00  0.00     0.027 H 
ATOM     33  H   LIG d   1       9.425  10.872  -6.801  0.00  0.00     0.029 H 
ATOM     34  H   LIG d   1      10.713  10.709  -7.999  0.00  0.00     0.029 H 
ATOM     35  H   LIG d   1       8.517   7.181  -7.028  0.00  0.00     0.029 H 
ATOM     36  H   LIG d   1       8.064   8.665  -6.184  0.00  0.00     0.029 H 
ATOM     37  H   LIG d   1       8.579   7.472  -3.895  0.00  0.00     0.032 H 
ATOM     38  H   LIG d   1       8.899   6.037  -4.884  0.00  0.00     0.032 H 
ATOM     39  H   LIG d   1      12.505  10.645  -4.089  0.00  0.00     0.027 H 
ATOM     40  H   LIG d   1      13.258   9.586  -2.902  0.00  0.00     0.027 H 
ATOM     41  H   LIG d   1      10.742  11.250  -2.613  0.00  0.00     0.027 H 
ATOM     42  H   LIG d   1      12.183  11.216  -1.632  0.00  0.00     0.027 H 
ATOM     43  H   LIG d   1       9.242   7.168  -0.242  0.00  0.00     0.027 H 
ATOM     44  H   LIG d   1      10.740   6.416  -0.861  0.00  0.00     0.027 H 
ATOM     45  H   LIG d   1      10.425   8.370   1.339  0.00  0.00     0.032 H 
ATOM     46  H   LIG d   1      11.801   7.298   0.955  0.00  0.00     0.032 H 
ATOM     47  H   LIG d   1      15.011   9.076   0.046  0.00  0.00     0.058 H 
ATOM     48  H   LIG d   1      13.967   8.051   1.083  0.00  0.00     0.058 H 
ATOM     49  H   LIG d   1      13.988  11.066   0.767  0.00  0.00     0.058 H 
ATOM     50  H   LIG d   1      13.612  10.086   2.216  0.00  0.00     0.058 H 
ATOM     51  H   LIG d   1      12.370   4.464  -2.878  0.00  0.00     0.058 H 
ATOM     52  H   LIG d   1      11.724   3.697  -4.365  0.00  0.00     0.058 H 
ATOM     53  H   LIG d   1      10.257   3.613  -2.083  0.00  0.00     0.058 H 
ATOM     54  H   LIG d   1       9.437   3.965  -3.641  0.00  0.00     0.058 H 
ENDROOT
BRANCH   1  55
ATOM     55  C   LIG d   1       9.421   9.931  -4.354  0.00  0.00    -0.059 C 
ATOM     56  H   LIG d   1       8.459   9.450  -4.533  0.00  0.00     0.024 H 
ATOM     57  H   LIG d   1       9.579  10.038  -3.281  0.00  0.00     0.024 H 
ATOM     58  H   LIG d   1       9.428  10.915  -4.823  0.00  0.00     0.024 H 
ENDBRANCH   1  55
BRANCH  17  59
ATOM     59  C   LIG d   1       9.704  10.415  -0.522  0.00  0.00    -0.054 C 
ATOM     60  H   LIG d   1       9.528   9.995   0.469  0.00  0.00     0.024 H 
ATOM     61  H   LIG d   1       9.982  11.464  -0.427  0.00  0.00     0.024 H 
ATOM     62  H   LIG d   1       8.795  10.333  -1.118  0.00  0.00     0.024 H 
ENDBRANCH  17  59
BRANCH   4  63
ATOM     63  O   LIG d   1       8.539   9.290  -8.687  0.00  0.00    -0.392 OA
ATOM     64  H   LIG d   1       7.636   9.236  -8.346  0.00  0.00     0.210 HD
ENDBRANCH   4  63
TORSDOF 3
ENDMDL
MODEL 6
REMARK VINA RESULT:      -5.9      4.210      7.021
REMARK  3 active torsions:
REMARK  status: ('A' for Active; 'I' for Inactive)
REMARK    1  A    between atoms: C_1  and  C_2 
REMARK    2  A    between atoms: C_5  and  O_33 
REMARK    3  A    between atoms: C_18  and  C_28 
ROOT
ATOM      1  C   LIG d   1       3.575  -0.081  -9.948  0.00  0.00    -0.026 C 
ATOM      2  C   LIG d   1       3.039   1.225  -9.341  0.00  0.00    -0.045 C 
ATOM      3  C   LIG d   1       4.021   2.369  -9.574  0.00  0.00    -0.026 C 
ATOM      4  C   LIG d   1       5.389   2.046  -8.976  0.00  0.00     0.056 C 
ATOM      5  H   LIG d   1       5.301   1.962  -7.892  0.00  0.00     0.059 H 
ATOM      6  C   LIG d   1       5.923   0.730  -9.545  0.00  0.00    -0.023 C 
ATOM      7  C   LIG d   1       4.921  -0.387  -9.282  0.00  0.00    -0.028 C 
ATOM      8  H   LIG d   1       4.757  -0.463  -8.199  0.00  0.00     0.031 H 
ATOM      9  C   LIG d   1       5.457  -1.725  -9.786  0.00  0.00     0.005 C 
ATOM     10  C   LIG d   1       4.489  -2.831  -9.361  0.00  0.00     0.174 C 
ATOM     11  C   LIG d   1       3.103  -2.599  -9.961  0.00  0.00     0.020 C 
ATOM     12  H   LIG d   1       2.418  -3.312  -9.451  0.00  0.00     0.036 H 
ATOM     13  C   LIG d   1       2.600  -1.207  -9.638  0.00  0.00    -0.027 C 
ATOM     14  H   LIG d   1       2.475  -1.185  -8.522  0.00  0.00     0.031 H 
ATOM     15  C   LIG d   1       1.210  -0.974 -10.201  0.00  0.00    -0.049 C 
ATOM     16  C   LIG d   1       1.087  -1.314 -11.670  0.00  0.00    -0.042 C 
ATOM     17  C   LIG d   1       1.733  -2.601 -12.100  0.00  0.00     0.025 C 
ATOM     18  C   LIG d   1       3.075  -2.941 -11.443  0.00  0.00    -0.023 C 
ATOM     19  H   LIG d   1       3.913  -2.476 -11.982  0.00  0.00     0.031 H 
ATOM     20  C   LIG d   1       3.178  -4.490 -11.545  0.00  0.00    -0.044 C 
ATOM     21  C   LIG d   1       1.803  -5.010 -12.007  0.00  0.00     0.002 C 
ATOM     22  C   LIG d   1       0.843  -3.823 -11.830  0.00  0.00     0.176 C 
ATOM     23  O   LIG d   1       0.303  -3.789 -10.505  0.00  0.00    -0.346 OA
ATOM     24  C   LIG d   1      -0.883  -4.616 -10.599  0.00  0.00     0.074 C 
ATOM     25  C   LIG d   1      -1.405  -4.307 -12.021  0.00  0.00     0.074 C 
ATOM     26  O   LIG d   1      -0.239  -3.887 -12.756  0.00  0.00    -0.346 OA
ATOM     27  O   LIG d   1       4.381  -2.831  -7.927  0.00  0.00    -0.346 OA
ATOM     28  C   LIG d   1       4.768  -4.142  -7.471  0.00  0.00     0.074 C 
ATOM     29  C   LIG d   1       5.682  -4.644  -8.618  0.00  0.00     0.074 C 
ATOM     30  O   LIG d   1       5.015  -4.097  -9.781  0.00  0.00    -0.346 OA
ATOM     31  H   LIG d   1       2.083   1.468  -9.805  0.00  0.00     0.027 H 
ATOM     32  H   LIG d   1       2.891   1.081  -8.270  0.00  0.00     0.027 H 
ATOM     33  H   LIG d   1       4.119   2.587 -10.635  0.00  0.00     0.029 H 
ATOM     34  H   LIG d   1       3.630   3.272  -9.082  0.00  0.00     0.029 H 
ATOM     35  H   LIG d   1       6.865   0.489  -9.038  0.00  0.00     0.029 H 
ATOM     36  H   LIG d   1       6.128   0.837 -10.605  0.00  0.00     0.029 H 
ATOM     37  H   LIG d   1       5.570  -1.722 -10.864  0.00  0.00     0.032 H 
ATOM     38  H   LIG d   1       6.433  -1.915  -9.329  0.00  0.00     0.032 H 
ATOM     39  H   LIG d   1       0.919   0.074 -10.046  0.00  0.00     0.027 H 
ATOM     40  H   LIG d   1       0.490  -1.581  -9.631  0.00  0.00     0.027 H 
ATOM     41  H   LIG d   1       1.441  -0.495 -12.294  0.00  0.00     0.027 H 
ATOM     42  H   LIG d   1       0.006  -1.405 -11.902  0.00  0.00     0.027 H 
ATOM     43  H   LIG d   1       3.946  -4.767 -12.266  0.00  0.00     0.027 H 
ATOM     44  H   LIG d   1       3.409  -4.920 -10.569  0.00  0.00     0.027 H 
ATOM     45  H   LIG d   1       1.842  -5.321 -13.048  0.00  0.00     0.032 H 
ATOM     46  H   LIG d   1       1.487  -5.845 -11.378  0.00  0.00     0.032 H 
ATOM     47  H   LIG d   1      -1.617  -4.326  -9.848  0.00  0.00     0.058 H 
ATOM     48  H   LIG d   1      -0.628  -5.671 -10.502  0.00  0.00     0.058 H 
ATOM     49  H   LIG d   1      -2.142  -3.505 -11.988  0.00  0.00     0.058 H 
ATOM     50  H   LIG d   1      -1.835  -5.201 -12.470  0.00  0.00     0.058 H 
ATOM     51  H   LIG d   1       3.896  -4.787  -7.363  0.00  0.00     0.058 H 
ATOM     52  H   LIG d   1       5.322  -4.079  -6.536  0.00  0.00     0.058 H 
ATOM     53  H   LIG d   1       5.701  -5.733  -8.654  0.00  0.00     0.058 H 
ATOM     54  H   LIG d   1       6.689  -4.240  -8.518  0.00  0.00     0.058 H 
ENDROOT
BRANCH   1  55
ATOM     55  C   LIG d   1       3.770   0.118 -11.448  0.00  0.00    -0.059 C 
ATOM     56  H   LIG d   1       4.124   1.132 -11.636  0.00  0.00     0.024 H 
ATOM     57  H   LIG d   1       4.504  -0.597 -11.817  0.00  0.00     0.024 H 
ATOM     58  H   LIG d   1       2.821  -0.037 -11.962  0.00  0.00     0.024 H 
ENDBRANCH   1  55
BRANCH  17  59
ATOM     59  C   LIG d   1       1.957  -2.524 -13.623  0.00  0.00    -0.054 C 
ATOM     60  H   LIG d   1       2.948  -2.117 -13.825  0.00  0.00     0.024 H 
ATOM     61  H   LIG d   1       1.881  -3.523 -14.053  0.00  0.00     0.024 H 
ATOM     62  H   LIG d   1       1.200  -1.878 -14.069  0.00  0.00     0.024 H 
ENDBRANCH  17  59
BRANCH   4  63
ATOM     63  O   LIG d   1       6.303   3.100  -9.290  0.00  0.00    -0.392 OA
ATOM     64  H   LIG d   1       5.969   3.984  -9.087  0.00  0.00     0.210 HD
ENDBRANCH   4  63
TORSDOF 3
ENDMDL
MODEL 7
REMARK VINA RESULT:      -5.9      9.311     10.741
REMARK  3 active torsions:
REMARK  status: ('A' for Active; 'I' for Inactive)
REMARK    1  A    between atoms: C_1  and  C_2 
REMARK    2  A    between atoms: C_5  and  O_33 
REMARK    3  A    between atoms: C_18  and  C_28 
ROOT
ATOM      1  C   LIG d   1      11.312   6.387  -4.231  0.00  0.00    -0.026 C 
ATOM      2  C   LIG d   1      12.388   5.296  -4.348  0.00  0.00    -0.045 C 
ATOM      3  C   LIG d   1      11.851   3.956  -3.855  0.00  0.00    -0.026 C 
ATOM      4  C   LIG d   1      11.376   4.058  -2.407  0.00  0.00     0.056 C 
ATOM      5  H   LIG d   1      12.225   4.280  -1.760  0.00  0.00     0.059 H 
ATOM      6  C   LIG d   1      10.328   5.163  -2.265  0.00  0.00    -0.023 C 
ATOM      7  C   LIG d   1      10.906   6.484  -2.757  0.00  0.00    -0.028 C 
ATOM      8  H   LIG d   1      11.804   6.714  -2.168  0.00  0.00     0.031 H 
ATOM      9  C   LIG d   1       9.900   7.618  -2.570  0.00  0.00     0.005 C 
ATOM     10  C   LIG d   1      10.581   8.940  -2.931  0.00  0.00     0.174 C 
ATOM     11  C   LIG d   1      11.047   8.930  -4.386  0.00  0.00     0.020 C 
ATOM     12  H   LIG d   1      11.700   9.821  -4.512  0.00  0.00     0.036 H 
ATOM     13  C   LIG d   1      11.907   7.716  -4.671  0.00  0.00    -0.027 C 
ATOM     14  H   LIG d   1      12.827   7.847  -4.040  0.00  0.00     0.031 H 
ATOM     15  C   LIG d   1      12.403   7.711  -6.106  0.00  0.00    -0.049 C 
ATOM     16  C   LIG d   1      11.302   7.900  -7.127  0.00  0.00    -0.042 C 
ATOM     17  C   LIG d   1      10.295   8.971  -6.813  0.00  0.00     0.025 C 
ATOM     18  C   LIG d   1       9.876   9.101  -5.344  0.00  0.00    -0.023 C 
ATOM     19  H   LIG d   1       9.052   8.415  -5.102  0.00  0.00     0.031 H 
ATOM     20  C   LIG d   1       9.397  10.574  -5.205  0.00  0.00    -0.044 C 
ATOM     21  C   LIG d   1       9.794  11.309  -6.499  0.00  0.00     0.002 C 
ATOM     22  C   LIG d   1      10.785  10.371  -7.206  0.00  0.00     0.176 C 
ATOM     23  O   LIG d   1      12.124  10.599  -6.754  0.00  0.00    -0.346 OA
ATOM     24  C   LIG d   1      12.612  11.636  -7.641  0.00  0.00     0.074 C 
ATOM     25  C   LIG d   1      11.938  11.281  -8.986  0.00  0.00     0.074 C 
ATOM     26  O   LIG d   1      10.751  10.551  -8.620  0.00  0.00    -0.346 OA
ATOM     27  O   LIG d   1      11.724   9.124  -2.079  0.00  0.00    -0.346 OA
ATOM     28  C   LIG d   1      11.537  10.371  -1.381  0.00  0.00     0.074 C 
ATOM     29  C   LIG d   1       9.997  10.542  -1.397  0.00  0.00     0.074 C 
ATOM     30  O   LIG d   1       9.660  10.015  -2.702  0.00  0.00    -0.346 OA
ATOM     31  H   LIG d   1      12.689   5.203  -5.392  0.00  0.00     0.027 H 
ATOM     32  H   LIG d   1      13.252   5.587  -3.750  0.00  0.00     0.027 H 
ATOM     33  H   LIG d   1      11.042   3.604  -4.490  0.00  0.00     0.029 H 
ATOM     34  H   LIG d   1      12.662   3.214  -3.904  0.00  0.00     0.029 H 
ATOM     35  H   LIG d   1      10.068   5.261  -1.204  0.00  0.00     0.029 H 
ATOM     36  H   LIG d   1       9.428   4.897  -2.809  0.00  0.00     0.029 H 
ATOM     37  H   LIG d   1       9.021   7.470  -3.187  0.00  0.00     0.032 H 
ATOM     38  H   LIG d   1       9.593   7.655  -1.520  0.00  0.00     0.032 H 
ATOM     39  H   LIG d   1      12.930   6.769  -6.311  0.00  0.00     0.027 H 
ATOM     40  H   LIG d   1      13.147   8.513  -6.227  0.00  0.00     0.027 H 
ATOM     41  H   LIG d   1      10.793   6.961  -7.334  0.00  0.00     0.027 H 
ATOM     42  H   LIG d   1      11.783   8.184  -8.086  0.00  0.00     0.027 H 
ATOM     43  H   LIG d   1       8.316  10.604  -5.071  0.00  0.00     0.027 H 
ATOM     44  H   LIG d   1       9.891  11.055  -4.359  0.00  0.00     0.027 H 
ATOM     45  H   LIG d   1       8.920  11.485  -7.122  0.00  0.00     0.032 H 
ATOM     46  H   LIG d   1      10.280  12.256  -6.258  0.00  0.00     0.032 H 
ATOM     47  H   LIG d   1      13.697  11.589  -7.730  0.00  0.00     0.058 H 
ATOM     48  H   LIG d   1      12.295  12.621  -7.298  0.00  0.00     0.058 H 
ATOM     49  H   LIG d   1      12.598  10.656  -9.587  0.00  0.00     0.058 H 
ATOM     50  H   LIG d   1      11.674  12.188  -9.529  0.00  0.00     0.058 H 
ATOM     51  H   LIG d   1      12.022  11.189  -1.914  0.00  0.00     0.058 H 
ATOM     52  H   LIG d   1      11.908  10.303  -0.359  0.00  0.00     0.058 H 
ATOM     53  H   LIG d   1       9.720  11.592  -1.315  0.00  0.00     0.058 H 
ATOM     54  H   LIG d   1       9.532   9.954  -0.605  0.00  0.00     0.058 H 
ENDROOT
BRANCH   1  55
ATOM     55  C   LIG d   1      10.110   5.983  -5.077  0.00  0.00    -0.059 C 
ATOM     56  H   LIG d   1       9.481   5.296  -4.510  0.00  0.00     0.024 H 
ATOM     57  H   LIG d   1       9.534   6.871  -5.339  0.00  0.00     0.024 H 
ATOM     58  H   LIG d   1      10.454   5.493  -5.989  0.00  0.00     0.024 H 
ENDBRANCH   1  55
BRANCH  17  59
ATOM     59  C   LIG d   1       9.029   8.677  -7.642  0.00  0.00    -0.054 C 
ATOM     60  H   LIG d   1       8.261   8.254  -6.995  0.00  0.00     0.024 H 
ATOM     61  H   LIG d   1       8.662   9.603  -8.085  0.00  0.00     0.024 H 
ATOM     62  H   LIG d   1       9.270   7.967  -8.434  0.00  0.00     0.024 H 
ENDBRANCH  17  59
BRANCH   4  63
ATOM     63  O   LIG d   1      10.801   2.809  -2.010  0.00  0.00    -0.392 OA
ATOM     64  H   LIG d   1      11.155   2.458  -1.182  0.00  0.00     0.210 HD
ENDBRANCH   4  63
TORSDOF 3
ENDMDL
MODEL 8
REMARK VINA RESULT:      -5.7      2.091      2.364
REMARK  3 active torsions:
REMARK  status: ('A' for Active; 'I' for Inactive)
REMARK    1  A    between atoms: C_1  and  C_2 
REMARK    2  A    between atoms: C_5  and  O_33 
REMARK    3  A    between atoms: C_18  and  C_28 
ROOT
ATOM      1  C   LIG d   1       5.673  -3.500  -7.063  0.00  0.00    -0.026 C 
ATOM      2  C   LIG d   1       6.821  -4.255  -7.752  0.00  0.00    -0.045 C 
ATOM      3  C   LIG d   1       6.700  -5.756  -7.508  0.00  0.00    -0.026 C 
ATOM      4  C   LIG d   1       6.702  -6.068  -6.013  0.00  0.00     0.056 C 
ATOM      5  H   LIG d   1       7.664  -5.786  -5.584  0.00  0.00     0.059 H 
ATOM      6  C   LIG d   1       5.586  -5.298  -5.305  0.00  0.00    -0.023 C 
ATOM      7  C   LIG d   1       5.748  -3.805  -5.563  0.00  0.00    -0.028 C 
ATOM      8  H   LIG d   1       6.736  -3.492  -5.199  0.00  0.00     0.031 H 
ATOM      9  C   LIG d   1       4.682  -3.008  -4.817  0.00  0.00     0.005 C 
ATOM     10  C   LIG d   1       4.982  -1.516  -4.983  0.00  0.00     0.174 C 
ATOM     11  C   LIG d   1       4.953  -1.118  -6.457  0.00  0.00     0.020 C 
ATOM     12  H   LIG d   1       5.375  -0.089  -6.512  0.00  0.00     0.036 H 
ATOM     13  C   LIG d   1       5.867  -2.006  -7.276  0.00  0.00    -0.027 C 
ATOM     14  H   LIG d   1       6.905  -1.791  -6.905  0.00  0.00     0.031 H 
ATOM     15  C   LIG d   1       5.872  -1.600  -8.739  0.00  0.00    -0.049 C 
ATOM     16  C   LIG d   1       4.487  -1.475  -9.337  0.00  0.00    -0.042 C 
ATOM     17  C   LIG d   1       3.471  -0.763  -8.490  0.00  0.00     0.025 C 
ATOM     18  C   LIG d   1       3.527  -1.040  -6.983  0.00  0.00    -0.023 C 
ATOM     19  H   LIG d   1       2.949  -1.937  -6.719  0.00  0.00     0.031 H 
ATOM     20  C   LIG d   1       2.880   0.216  -6.332  0.00  0.00    -0.044 C 
ATOM     21  C   LIG d   1       2.715   1.273  -7.441  0.00  0.00     0.002 C 
ATOM     22  C   LIG d   1       3.570   0.764  -8.612  0.00  0.00     0.176 C 
ATOM     23  O   LIG d   1       4.924   1.207  -8.494  0.00  0.00    -0.346 OA
ATOM     24  C   LIG d   1       4.925   2.489  -9.169  0.00  0.00     0.074 C 
ATOM     25  C   LIG d   1       3.925   2.266 -10.327  0.00  0.00     0.074 C 
ATOM     26  O   LIG d   1       3.056   1.215  -9.863  0.00  0.00    -0.346 OA
ATOM     27  O   LIG d   1       6.291  -1.242  -4.452  0.00  0.00    -0.346 OA
ATOM     28  C   LIG d   1       6.132  -0.245  -3.424  0.00  0.00     0.074 C 
ATOM     29  C   LIG d   1       4.661  -0.448  -2.978  0.00  0.00     0.074 C 
ATOM     30  O   LIG d   1       4.017  -0.762  -4.236  0.00  0.00    -0.346 OA
ATOM     31  H   LIG d   1       6.784  -4.059  -8.824  0.00  0.00     0.027 H 
ATOM     32  H   LIG d   1       7.770  -3.894  -7.354  0.00  0.00     0.027 H 
ATOM     33  H   LIG d   1       5.801  -6.154  -7.972  0.00  0.00     0.029 H 
ATOM     34  H   LIG d   1       7.564  -6.256  -7.970  0.00  0.00     0.029 H 
ATOM     35  H   LIG d   1       5.666  -5.483  -4.227  0.00  0.00     0.029 H 
ATOM     36  H   LIG d   1       4.617  -5.655  -5.637  0.00  0.00     0.029 H 
ATOM     37  H   LIG d   1       3.689  -3.233  -5.191  0.00  0.00     0.032 H 
ATOM     38  H   LIG d   1       4.725  -3.260  -3.753  0.00  0.00     0.032 H 
ATOM     39  H   LIG d   1       6.454  -2.326  -9.322  0.00  0.00     0.027 H 
ATOM     40  H   LIG d   1       6.394  -0.636  -8.837  0.00  0.00     0.027 H 
ATOM     41  H   LIG d   1       4.102  -2.447  -9.642  0.00  0.00     0.027 H 
ATOM     42  H   LIG d   1       4.582  -0.895 -10.278  0.00  0.00     0.027 H 
ATOM     43  H   LIG d   1       1.909  -0.040  -5.909  0.00  0.00     0.027 H 
ATOM     44  H   LIG d   1       3.531   0.619  -5.554  0.00  0.00     0.027 H 
ATOM     45  H   LIG d   1       1.671   1.358  -7.734  0.00  0.00     0.032 H 
ATOM     46  H   LIG d   1       3.087   2.239  -7.096  0.00  0.00     0.032 H 
ATOM     47  H   LIG d   1       5.916   2.722  -9.556  0.00  0.00     0.058 H 
ATOM     48  H   LIG d   1       4.575   3.278  -8.504  0.00  0.00     0.058 H 
ATOM     49  H   LIG d   1       4.453   1.953 -11.228  0.00  0.00     0.058 H 
ATOM     50  H   LIG d   1       3.355   3.174 -10.516  0.00  0.00     0.058 H 
ATOM     51  H   LIG d   1       6.277   0.756  -3.830  0.00  0.00     0.058 H 
ATOM     52  H   LIG d   1       6.815  -0.430  -2.596  0.00  0.00     0.058 H 
ATOM     53  H   LIG d   1       4.255   0.467  -2.548  0.00  0.00     0.058 H 
ATOM     54  H   LIG d   1       4.578  -1.278  -2.277  0.00  0.00     0.058 H 
ENDROOT
BRANCH   1  55
ATOM     55  C   LIG d   1       4.348  -3.998  -7.630  0.00  0.00    -0.059 C 
ATOM     56  H   LIG d   1       3.542  -3.757  -6.936  0.00  0.00     0.024 H 
ATOM     57  H   LIG d   1       4.158  -3.516  -8.589  0.00  0.00     0.024 H 
ATOM     58  H   LIG d   1       4.396  -5.078  -7.771  0.00  0.00     0.024 H 
ENDBRANCH   1  55
BRANCH  17  59
ATOM     59  C   LIG d   1       2.073  -1.175  -8.994  0.00  0.00    -0.054 C 
ATOM     60  H   LIG d   1       2.175  -1.952  -9.752  0.00  0.00     0.024 H 
ATOM     61  H   LIG d   1       1.484  -1.556  -8.161  0.00  0.00     0.024 H 
ATOM     62  H   LIG d   1       1.573  -0.307  -9.427  0.00  0.00     0.024 H 
ENDBRANCH  17  59
BRANCH   4  63
ATOM     63  O   LIG d   1       6.500  -7.472  -5.823  0.00  0.00    -0.392 OA
ATOM     64  H   LIG d   1       6.217  -7.712  -4.931  0.00  0.00     0.210 HD
ENDBRANCH   4  63
TORSDOF 3
ENDMDL
MODEL 9
REMARK VINA RESULT:      -5.7     10.473     12.907
REMARK  3 active torsions:
REMARK  status: ('A' for Active; 'I' for Inactive)
REMARK    1  A    between atoms: C_1  and  C_2 
REMARK    2  A    between atoms: C_5  and  O_33 
REMARK    3  A    between atoms: C_18  and  C_28 
ROOT
ATOM      1  C   LIG d   1      10.470   8.152  -1.992  0.00  0.00    -0.026 C 
ATOM      2  C   LIG d   1       9.640   7.374  -0.959  0.00  0.00    -0.045 C 
ATOM      3  C   LIG d   1      10.397   6.140  -0.480  0.00  0.00    -0.026 C 
ATOM      4  C   LIG d   1      10.749   5.225  -1.651  0.00  0.00     0.056 C 
ATOM      5  H   LIG d   1       9.832   4.841  -2.100  0.00  0.00     0.059 H 
ATOM      6  C   LIG d   1      11.547   5.992  -2.706  0.00  0.00    -0.023 C 
ATOM      7  C   LIG d   1      10.754   7.209  -3.167  0.00  0.00    -0.028 C 
ATOM      8  H   LIG d   1       9.792   6.867  -3.571  0.00  0.00     0.031 H 
ATOM      9  C   LIG d   1      11.503   7.959  -4.265  0.00  0.00     0.005 C 
ATOM     10  C   LIG d   1      10.600   9.074  -4.799  0.00  0.00     0.174 C 
ATOM     11  C   LIG d   1      10.240  10.058  -3.687  0.00  0.00     0.020 C 
ATOM     12  H   LIG d   1       9.433  10.708  -4.093  0.00  0.00     0.036 H 
ATOM     13  C   LIG d   1       9.655   9.335  -2.491  0.00  0.00    -0.027 C 
ATOM     14  H   LIG d   1       8.689   8.891  -2.853  0.00  0.00     0.031 H 
ATOM     15  C   LIG d   1       9.264  10.305  -1.392  0.00  0.00    -0.049 C 
ATOM     16  C   LIG d   1      10.370  11.266  -1.011  0.00  0.00    -0.042 C 
ATOM     17  C   LIG d   1      11.124  11.883  -2.155  0.00  0.00     0.025 C 
ATOM     18  C   LIG d   1      11.414  10.968  -3.351  0.00  0.00    -0.023 C 
ATOM     19  H   LIG d   1      12.339  10.394  -3.200  0.00  0.00     0.031 H 
ATOM     20  C   LIG d   1      11.584  11.940  -4.553  0.00  0.00    -0.044 C 
ATOM     21  C   LIG d   1      11.134  13.336  -4.081  0.00  0.00     0.002 C 
ATOM     22  C   LIG d   1      10.394  13.092  -2.756  0.00  0.00     0.176 C 
ATOM     23  O   LIG d   1       9.011  12.805  -2.982  0.00  0.00    -0.346 OA
ATOM     24  C   LIG d   1       8.386  14.112  -2.986  0.00  0.00     0.074 C 
ATOM     25  C   LIG d   1       9.202  14.885  -1.925  0.00  0.00     0.074 C 
ATOM     26  O   LIG d   1      10.483  14.226  -1.896  0.00  0.00    -0.346 OA
ATOM     27  O   LIG d   1       9.390   8.489  -5.311  0.00  0.00    -0.346 OA
ATOM     28  C   LIG d   1       9.282   8.879  -6.694  0.00  0.00     0.074 C 
ATOM     29  C   LIG d   1      10.757   9.153  -7.086  0.00  0.00     0.074 C 
ATOM     30  O   LIG d   1      11.274   9.746  -5.871  0.00  0.00    -0.346 OA
ATOM     31  H   LIG d   1       9.431   8.024  -0.108  0.00  0.00     0.027 H 
ATOM     32  H   LIG d   1       8.699   7.071  -1.419  0.00  0.00     0.027 H 
ATOM     33  H   LIG d   1      11.299   6.422   0.059  0.00  0.00     0.029 H 
ATOM     34  H   LIG d   1       9.753   5.583   0.217  0.00  0.00     0.029 H 
ATOM     35  H   LIG d   1      11.714   5.330  -3.565  0.00  0.00     0.029 H 
ATOM     36  H   LIG d   1      12.516   6.278  -2.308  0.00  0.00     0.029 H 
ATOM     37  H   LIG d   1      12.432   8.376  -3.894  0.00  0.00     0.032 H 
ATOM     38  H   LIG d   1      11.728   7.266  -5.083  0.00  0.00     0.032 H 
ATOM     39  H   LIG d   1       8.947   9.746  -0.501  0.00  0.00     0.027 H 
ATOM     40  H   LIG d   1       8.386  10.881  -1.723  0.00  0.00     0.027 H 
ATOM     41  H   LIG d   1      11.066  10.807  -0.312  0.00  0.00     0.027 H 
ATOM     42  H   LIG d   1       9.905  12.101  -0.447  0.00  0.00     0.027 H 
ATOM     43  H   LIG d   1      12.626  11.967  -4.867  0.00  0.00     0.027 H 
ATOM     44  H   LIG d   1      10.951  11.628  -5.386  0.00  0.00     0.027 H 
ATOM     45  H   LIG d   1      11.994  13.982  -3.928  0.00  0.00     0.032 H 
ATOM     46  H   LIG d   1      10.457  13.779  -4.813  0.00  0.00     0.032 H 
ATOM     47  H   LIG d   1       7.340  14.042  -2.691  0.00  0.00     0.058 H 
ATOM     48  H   LIG d   1       8.480  14.584  -3.964  0.00  0.00     0.058 H 
ATOM     49  H   LIG d   1       8.718  14.815  -0.951  0.00  0.00     0.058 H 
ATOM     50  H   LIG d   1       9.317  15.927  -2.219  0.00  0.00     0.058 H 
ATOM     51  H   LIG d   1       8.682   9.783  -6.796  0.00  0.00     0.058 H 
ATOM     52  H   LIG d   1       8.868   8.070  -7.294  0.00  0.00     0.058 H 
ATOM     53  H   LIG d   1      10.816   9.852  -7.919  0.00  0.00     0.058 H 
ATOM     54  H   LIG d   1      11.276   8.224  -7.320  0.00  0.00     0.058 H 
ENDROOT
BRANCH   1  55
ATOM     55  C   LIG d   1      11.781   8.584  -1.344  0.00  0.00    -0.059 C 
ATOM     56  H   LIG d   1      12.530   8.756  -2.118  0.00  0.00     0.024 H 
ATOM     57  H   LIG d   1      11.623   9.504  -0.781  0.00  0.00     0.024 H 
ATOM     58  H   LIG d   1      12.129   7.801  -0.669  0.00  0.00     0.024 H 
ENDBRANCH   1  55
BRANCH  17  59
ATOM     59  C   LIG d   1      12.473  12.386  -1.607  0.00  0.00    -0.054 C 
ATOM     60  H   LIG d   1      12.940  11.600  -1.012  0.00  0.00     0.024 H 
ATOM     61  H   LIG d   1      13.127  12.650  -2.437  0.00  0.00     0.024 H 
ATOM     62  H   LIG d   1      12.306  13.264  -0.982  0.00  0.00     0.024 H 
ENDBRANCH  17  59
BRANCH   4  63
ATOM     63  O   LIG d   1      11.531   4.126  -1.174  0.00  0.00    -0.392 OA
ATOM     64  H   LIG d   1      11.893   3.567  -1.875  0.00  0.00     0.210 HD
ENDBRANCH   4  63
TORSDOF 3
ENDMDL
MODEL 10
REMARK VINA RESULT:      -5.7      9.828     11.564
REMARK  3 active torsions:
REMARK  status: ('A' for Active; 'I' for Inactive)
REMARK    1  A    between atoms: C_1  and  C_2 
REMARK    2  A    between atoms: C_5  and  O_33 
REMARK    3  A    between atoms: C_18  and  C_28 
ROOT
ATOM      1  C   LIG d   1      11.316   7.455  -2.329  0.00  0.00    -0.026 C 
ATOM      2  C   LIG d   1      12.348   6.399  -1.903  0.00  0.00    -0.045 C 
ATOM      3  C   LIG d   1      11.753   5.453  -0.866  0.00  0.00    -0.026 C 
ATOM      4  C   LIG d   1      11.269   6.222   0.362  0.00  0.00     0.056 C 
ATOM      5  H   LIG d   1      12.120   6.690   0.857  0.00  0.00     0.059 H 
ATOM      6  C   LIG d   1      10.265   7.301  -0.047  0.00  0.00    -0.023 C 
ATOM      7  C   LIG d   1      10.899   8.231  -1.074  0.00  0.00    -0.028 C 
ATOM      8  H   LIG d   1      11.800   8.677  -0.632  0.00  0.00     0.031 H 
ATOM      9  C   LIG d   1       9.938   9.355  -1.454  0.00  0.00     0.005 C 
ATOM     10  C   LIG d   1      10.674  10.341  -2.363  0.00  0.00     0.174 C 
ATOM     11  C   LIG d   1      11.153   9.650  -3.638  0.00  0.00     0.020 C 
ATOM     12  H   LIG d   1      11.843  10.364  -4.141  0.00  0.00     0.036 H 
ATOM     13  C   LIG d   1      11.967   8.415  -3.312  0.00  0.00    -0.027 C 
ATOM     14  H   LIG d   1      12.886   8.792  -2.787  0.00  0.00     0.031 H 
ATOM     15  C   LIG d   1      12.476   7.736  -4.571  0.00  0.00    -0.049 C 
ATOM     16  C   LIG d   1      11.394   7.470  -5.595  0.00  0.00    -0.042 C 
ATOM     17  C   LIG d   1      10.427   8.596  -5.833  0.00  0.00     0.025 C 
ATOM     18  C   LIG d   1      10.000   9.399  -4.599  0.00  0.00    -0.023 C 
ATOM     19  H   LIG d   1       9.146   8.927  -4.092  0.00  0.00     0.031 H 
ATOM     20  C   LIG d   1       9.578  10.786  -5.163  0.00  0.00    -0.044 C 
ATOM     21  C   LIG d   1      10.017  10.832  -6.639  0.00  0.00     0.002 C 
ATOM     22  C   LIG d   1      10.977   9.644  -6.811  0.00  0.00     0.176 C 
ATOM     23  O   LIG d   1      12.319  10.012  -6.478  0.00  0.00    -0.346 OA
ATOM     24  C   LIG d   1      12.857  10.511  -7.728  0.00  0.00     0.074 C 
ATOM     25  C   LIG d   1      12.182   9.600  -8.778  0.00  0.00     0.074 C 
ATOM     26  O   LIG d   1      10.963   9.156  -8.151  0.00  0.00    -0.346 OA
ATOM     27  O   LIG d   1      11.816  10.860  -1.659  0.00  0.00    -0.346 OA
ATOM     28  C   LIG d   1      11.673  12.294  -1.616  0.00  0.00     0.074 C 
ATOM     29  C   LIG d   1      10.141  12.486  -1.749  0.00  0.00     0.074 C 
ATOM     30  O   LIG d   1       9.795  11.430  -2.677  0.00  0.00    -0.346 OA
ATOM     31  H   LIG d   1      12.655   5.828  -2.780  0.00  0.00     0.027 H 
ATOM     32  H   LIG d   1      13.218   6.905  -1.483  0.00  0.00     0.027 H 
ATOM     33  H   LIG d   1      10.937   4.874  -1.291  0.00  0.00     0.029 H 
ATOM     34  H   LIG d   1      12.534   4.746  -0.548  0.00  0.00     0.029 H 
ATOM     35  H   LIG d   1       9.998   7.884   0.844  0.00  0.00     0.029 H 
ATOM     36  H   LIG d   1       9.360   6.843  -0.433  0.00  0.00     0.029 H 
ATOM     37  H   LIG d   1       9.060   8.967  -1.958  0.00  0.00     0.032 H 
ATOM     38  H   LIG d   1       9.623   9.879  -0.546  0.00  0.00     0.032 H 
ATOM     39  H   LIG d   1      12.967   6.790  -4.308  0.00  0.00     0.027 H 
ATOM     40  H   LIG d   1      13.252   8.370  -5.027  0.00  0.00     0.027 H 
ATOM     41  H   LIG d   1      10.849   6.557  -5.362  0.00  0.00     0.027 H 
ATOM     42  H   LIG d   1      11.894   7.267  -6.564  0.00  0.00     0.027 H 
ATOM     43  H   LIG d   1       8.499  10.908  -5.087  0.00  0.00     0.027 H 
ATOM     44  H   LIG d   1      10.083  11.586  -4.619  0.00  0.00     0.027 H 
ATOM     45  H   LIG d   1       9.157  10.730  -7.296  0.00  0.00     0.032 H 
ATOM     46  H   LIG d   1      10.538  11.769  -6.846  0.00  0.00     0.032 H 
ATOM     47  H   LIG d   1      13.940  10.395  -7.756  0.00  0.00     0.058 H 
ATOM     48  H   LIG d   1      12.576  11.552  -7.883  0.00  0.00     0.058 H 
ATOM     49  H   LIG d   1      12.822   8.748  -9.008  0.00  0.00     0.058 H 
ATOM     50  H   LIG d   1      11.959  10.164  -9.683  0.00  0.00     0.058 H 
ATOM     51  H   LIG d   1      12.195  12.760  -2.451  0.00  0.00     0.058 H 
ATOM     52  H   LIG d   1      12.031  12.691  -0.666  0.00  0.00     0.058 H 
ATOM     53  H   LIG d   1       9.905  13.465  -2.165  0.00  0.00     0.058 H 
ATOM     54  H   LIG d   1       9.645  12.342  -0.789  0.00  0.00     0.058 H 
ENDROOT
BRANCH   1  55
ATOM     55  C   LIG d   1      10.106   6.746  -2.927  0.00  0.00    -0.059 C 
ATOM     56  H   LIG d   1       9.635   7.393  -3.668  0.00  0.00     0.024 H 
ATOM     57  H   LIG d   1      10.427   5.820  -3.405  0.00  0.00     0.024 H 
ATOM     58  H   LIG d   1       9.390   6.517  -2.137  0.00  0.00     0.024 H 
ENDBRANCH   1  55
BRANCH  17  59
ATOM     59  C   LIG d   1       9.159   7.995  -6.469  0.00  0.00    -0.054 C 
ATOM     60  H   LIG d   1       8.285   8.559  -6.142  0.00  0.00     0.024 H 
ATOM     61  H   LIG d   1       9.237   8.046  -7.555  0.00  0.00     0.024 H 
ATOM     62  H   LIG d   1       9.057   6.954  -6.161  0.00  0.00     0.024 H 
ENDBRANCH  17  59
BRANCH   4  63
ATOM     63  O   LIG d   1      10.640   5.314   1.271  0.00  0.00    -0.392 OA
ATOM     64  H   LIG d   1      11.233   4.637   1.624  0.00  0.00     0.210 HD
ENDBRANCH   4  63
TORSDOF 3
ENDMDL
