MODEL 1
REMARK VINA RESULT:      -5.8      0.000      0.000
REMARK  4 active torsions:
REMARK  status: ('A' for Active; 'I' for Inactive)
REMARK    1  A    between atoms: C_4  and  C_7 
REMARK    2  A    between atoms: C_7  and  C_8 
REMARK    3  A    between atoms: C_8  and  C_9 
REMARK    4  A    between atoms: C_9  and  C_10 
ROOT
ATOM      1  C   LIG d   1       2.470   0.344  -5.174  0.00  0.00    -0.027 C 
ATOM      2  H   LIG d   1       1.533  -0.213  -5.198  0.00  0.00     0.031 H 
ATOM      3  H   LIG d   1       2.263   1.410  -5.251  0.00  0.00     0.031 H 
ENDROOT
BRANCH   1   4
ATOM      4  C   LIG d   1       3.188   0.064  -3.879  0.00  0.00    -0.047 A 
ATOM      5  C   LIG d   1       3.399  -1.241  -3.473  0.00  0.00    -0.059 A 
ATOM      6  C   LIG d   1       4.059  -1.498  -2.286  0.00  0.00    -0.061 A 
ATOM      7  H   LIG d   1       3.048  -2.059  -4.084  0.00  0.00     0.062 H 
ATOM      8  C   LIG d   1       4.508  -0.449  -1.504  0.00  0.00    -0.062 A 
ATOM      9  H   LIG d   1       4.223  -2.516  -1.969  0.00  0.00     0.062 H 
ATOM     10  C   LIG d   1       4.299   0.855  -1.911  0.00  0.00    -0.061 A 
ATOM     11  H   LIG d   1       5.020  -0.649  -0.575  0.00  0.00     0.062 H 
ATOM     12  C   LIG d   1       3.638   1.112  -3.098  0.00  0.00    -0.059 A 
ATOM     13  H   LIG d   1       4.650   1.675  -1.301  0.00  0.00     0.062 H 
ATOM     14  H   LIG d   1       3.474   2.131  -3.415  0.00  0.00     0.062 H 
ENDBRANCH   1   4
BRANCH   1  15
ATOM     15  C   LIG d   1       3.351  -0.090  -6.348  0.00  0.00    -0.044 C 
ATOM     16  H   LIG d   1       4.255   0.518  -6.368  0.00  0.00     0.027 H 
ATOM     17  H   LIG d   1       3.621  -1.140  -6.233  0.00  0.00     0.027 H 
BRANCH  15  18
ATOM     18  C   LIG d   1       2.582   0.098  -7.659  0.00  0.00    -0.013 C 
ATOM     19  H   LIG d   1       2.685  -0.797  -8.272  0.00  0.00     0.033 H 
ATOM     20  H   LIG d   1       1.528   0.270  -7.440  0.00  0.00     0.033 H 
BRANCH  18  21
ATOM     21  C   LIG d   1       3.140   1.284  -8.403  0.00  0.00     0.042 C 
ATOM     22  O   LIG d   1       3.857   1.112  -9.374  0.00  0.00    -0.550 OA
ATOM     23  O   LIG d   1       2.874   2.415  -8.034  0.00  0.00    -0.550 OA
ENDBRANCH  18  21
ENDBRANCH  15  18
ENDBRANCH   1  15
TORSDOF 4
ENDMDL
MODEL 2
REMARK VINA RESULT:      -5.5      1.579      2.342
REMARK  4 active torsions:
REMARK  status: ('A' for Active; 'I' for Inactive)
REMARK    1  A    between atoms: C_4  and  C_7 
REMARK    2  A    between atoms: C_7  and  C_8 
REMARK    3  A    between atoms: C_8  and  C_9 
REMARK    4  A    between atoms: C_9  and  C_10 
ROOT
ATOM      1  C   LIG d   1       2.020   0.140  -4.745  0.00  0.00    -0.027 C 
ATOM      2  H   LIG d   1       1.559  -0.786  -5.092  0.00  0.00     0.031 H 
ATOM      3  H   LIG d   1       1.245   0.828  -4.408  0.00  0.00     0.031 H 
ENDROOT
BRANCH   1   4
ATOM      4  C   LIG d   1       2.956  -0.162  -3.604  0.00  0.00    -0.047 A 
ATOM      5  C   LIG d   1       3.540   0.873  -2.897  0.00  0.00    -0.059 A 
ATOM      6  C   LIG d   1       4.398   0.597  -1.849  0.00  0.00    -0.061 A 
ATOM      7  H   LIG d   1       3.326   1.897  -3.164  0.00  0.00     0.062 H 
ATOM      8  C   LIG d   1       4.672  -0.715  -1.507  0.00  0.00    -0.062 A 
ATOM      9  H   LIG d   1       4.854   1.404  -1.297  0.00  0.00     0.062 H 
ATOM     10  C   LIG d   1       4.087  -1.750  -2.213  0.00  0.00    -0.061 A 
ATOM     11  H   LIG d   1       5.345  -0.931  -0.691  0.00  0.00     0.062 H 
ATOM     12  C   LIG d   1       3.230  -1.473  -3.262  0.00  0.00    -0.059 A 
ATOM     13  H   LIG d   1       4.301  -2.774  -1.946  0.00  0.00     0.062 H 
ATOM     14  H   LIG d   1       2.773  -2.282  -3.814  0.00  0.00     0.062 H 
ENDBRANCH   1   4
BRANCH   1  15
ATOM     15  C   LIG d   1       2.805   0.779  -5.893  0.00  0.00    -0.044 C 
ATOM     16  H   LIG d   1       2.157   1.463  -6.440  0.00  0.00     0.027 H 
ATOM     17  H   LIG d   1       3.656   1.329  -5.490  0.00  0.00     0.027 H 
BRANCH  15  18
ATOM     18  C   LIG d   1       3.306  -0.315  -6.839  0.00  0.00    -0.013 C 
ATOM     19  H   LIG d   1       2.893  -1.276  -6.534  0.00  0.00     0.033 H 
ATOM     20  H   LIG d   1       2.989  -0.088  -7.857  0.00  0.00     0.033 H 
BRANCH  18  21
ATOM     21  C   LIG d   1       4.811  -0.375  -6.785  0.00  0.00     0.042 C 
ATOM     22  O   LIG d   1       5.474   0.558  -7.205  0.00  0.00    -0.550 OA
ATOM     23  O   LIG d   1       5.365  -1.356  -6.319  0.00  0.00    -0.550 OA
ENDBRANCH  18  21
ENDBRANCH  15  18
ENDBRANCH   1  15
TORSDOF 4
ENDMDL
MODEL 3
REMARK VINA RESULT:      -5.4      2.653      3.898
REMARK  4 active torsions:
REMARK  status: ('A' for Active; 'I' for Inactive)
REMARK    1  A    between atoms: C_4  and  C_7 
REMARK    2  A    between atoms: C_7  and  C_8 
REMARK    3  A    between atoms: C_8  and  C_9 
REMARK    4  A    between atoms: C_9  and  C_10 
ROOT
ATOM      1  C   LIG d   1       3.807  -1.934  -2.325  0.00  0.00    -0.027 C 
ATOM      2  H   LIG d   1       2.967  -2.598  -2.529  0.00  0.00     0.031 H 
ATOM      3  H   LIG d   1       4.122  -2.054  -1.288  0.00  0.00     0.031 H 
ENDROOT
BRANCH   1   4
ATOM      4  C   LIG d   1       4.953  -2.277  -3.241  0.00  0.00    -0.047 A 
ATOM      5  C   LIG d   1       4.792  -3.239  -4.220  0.00  0.00    -0.059 A 
ATOM      6  C   LIG d   1       5.843  -3.553  -5.062  0.00  0.00    -0.061 A 
ATOM      7  H   LIG d   1       3.844  -3.744  -4.329  0.00  0.00     0.062 H 
ATOM      8  C   LIG d   1       7.056  -2.904  -4.923  0.00  0.00    -0.062 A 
ATOM      9  H   LIG d   1       5.717  -4.304  -5.826  0.00  0.00     0.062 H 
ATOM     10  C   LIG d   1       7.217  -1.942  -3.944  0.00  0.00    -0.061 A 
ATOM     11  H   LIG d   1       7.878  -3.152  -5.577  0.00  0.00     0.062 H 
ATOM     12  C   LIG d   1       6.167  -1.629  -3.102  0.00  0.00    -0.059 A 
ATOM     13  H   LIG d   1       8.165  -1.435  -3.836  0.00  0.00     0.062 H 
ATOM     14  H   LIG d   1       6.293  -0.877  -2.337  0.00  0.00     0.062 H 
ENDBRANCH   1   4
BRANCH   1  15
ATOM     15  C   LIG d   1       3.381  -0.484  -2.564  0.00  0.00    -0.044 C 
ATOM     16  H   LIG d   1       2.887  -0.099  -1.672  0.00  0.00     0.027 H 
ATOM     17  H   LIG d   1       4.260   0.122  -2.783  0.00  0.00     0.027 H 
BRANCH  15  18
ATOM     18  C   LIG d   1       2.413  -0.426  -3.748  0.00  0.00    -0.013 C 
ATOM     19  H   LIG d   1       2.288  -1.426  -4.164  0.00  0.00     0.033 H 
ATOM     20  H   LIG d   1       1.448  -0.048  -3.411  0.00  0.00     0.033 H 
BRANCH  18  21
ATOM     21  C   LIG d   1       2.969   0.492  -4.806  0.00  0.00     0.042 C 
ATOM     22  O   LIG d   1       2.551   1.633  -4.905  0.00  0.00    -0.550 OA
ATOM     23  O   LIG d   1       3.838   0.094  -5.563  0.00  0.00    -0.550 OA
ENDBRANCH  18  21
ENDBRANCH  15  18
ENDBRANCH   1  15
TORSDOF 4
ENDMDL
MODEL 4
REMARK VINA RESULT:      -5.4      4.272      5.004
REMARK  4 active torsions:
REMARK  status: ('A' for Active; 'I' for Inactive)
REMARK    1  A    between atoms: C_4  and  C_7 
REMARK    2  A    between atoms: C_7  and  C_8 
REMARK    3  A    between atoms: C_8  and  C_9 
REMARK    4  A    between atoms: C_9  and  C_10 
ROOT
ATOM      1  C   LIG d   1       6.145  -2.715  -3.961  0.00  0.00    -0.027 C 
ATOM      2  H   LIG d   1       6.811  -2.472  -4.789  0.00  0.00     0.031 H 
ATOM      3  H   LIG d   1       6.674  -3.331  -3.236  0.00  0.00     0.031 H 
ENDROOT
BRANCH   1   4
ATOM      4  C   LIG d   1       5.682  -1.443  -3.298  0.00  0.00    -0.047 A 
ATOM      5  C   LIG d   1       4.691  -1.486  -2.335  0.00  0.00    -0.059 A 
ATOM      6  C   LIG d   1       4.268  -0.320  -1.726  0.00  0.00    -0.061 A 
ATOM      7  H   LIG d   1       4.248  -2.432  -2.059  0.00  0.00     0.062 H 
ATOM      8  C   LIG d   1       4.836   0.890  -2.079  0.00  0.00    -0.062 A 
ATOM      9  H   LIG d   1       3.494  -0.354  -0.975  0.00  0.00     0.062 H 
ATOM     10  C   LIG d   1       5.828   0.933  -3.041  0.00  0.00    -0.061 A 
ATOM     11  H   LIG d   1       4.503   1.801  -1.606  0.00  0.00     0.062 H 
ATOM     12  C   LIG d   1       6.251  -0.233  -3.651  0.00  0.00    -0.059 A 
ATOM     13  H   LIG d   1       6.272   1.878  -3.317  0.00  0.00     0.062 H 
ATOM     14  H   LIG d   1       7.025  -0.200  -4.403  0.00  0.00     0.062 H 
ENDBRANCH   1   4
BRANCH   1  15
ATOM     15  C   LIG d   1       4.932  -3.483  -4.493  0.00  0.00    -0.044 C 
ATOM     16  H   LIG d   1       4.462  -4.030  -3.676  0.00  0.00     0.027 H 
ATOM     17  H   LIG d   1       4.215  -2.781  -4.919  0.00  0.00     0.027 H 
BRANCH  15  18
ATOM     18  C   LIG d   1       5.385  -4.468  -5.572  0.00  0.00    -0.013 C 
ATOM     19  H   LIG d   1       5.528  -3.936  -6.513  0.00  0.00     0.033 H 
ATOM     20  H   LIG d   1       6.324  -4.931  -5.270  0.00  0.00     0.033 H 
BRANCH  18  21
ATOM     21  C   LIG d   1       4.335  -5.534  -5.752  0.00  0.00     0.042 C 
ATOM     22  O   LIG d   1       3.344  -5.306  -6.425  0.00  0.00    -0.550 OA
ATOM     23  O   LIG d   1       4.477  -6.625  -5.226  0.00  0.00    -0.550 OA
ENDBRANCH  18  21
ENDBRANCH  15  18
ENDBRANCH   1  15
TORSDOF 4
ENDMDL
MODEL 5
REMARK VINA RESULT:      -5.3      3.239      4.655
REMARK  4 active torsions:
REMARK  status: ('A' for Active; 'I' for Inactive)
REMARK    1  A    between atoms: C_4  and  C_7 
REMARK    2  A    between atoms: C_7  and  C_8 
REMARK    3  A    between atoms: C_8  and  C_9 
REMARK    4  A    between atoms: C_9  and  C_10 
ROOT
ATOM      1  C   LIG d   1       4.093  -1.548  -2.199  0.00  0.00    -0.027 C 
ATOM      2  H   LIG d   1       3.774  -2.305  -1.483  0.00  0.00     0.031 H 
ATOM      3  H   LIG d   1       4.571  -0.724  -1.671  0.00  0.00     0.031 H 
ENDROOT
BRANCH   1   4
ATOM      4  C   LIG d   1       5.070  -2.155  -3.172  0.00  0.00    -0.047 A 
ATOM      5  C   LIG d   1       6.391  -1.748  -3.171  0.00  0.00    -0.059 A 
ATOM      6  C   LIG d   1       7.288  -2.307  -4.062  0.00  0.00    -0.061 A 
ATOM      7  H   LIG d   1       6.722  -0.994  -2.473  0.00  0.00     0.062 H 
ATOM      8  C   LIG d   1       6.864  -3.273  -4.955  0.00  0.00    -0.062 A 
ATOM      9  H   LIG d   1       8.319  -1.988  -4.061  0.00  0.00     0.062 H 
ATOM     10  C   LIG d   1       5.543  -3.681  -4.956  0.00  0.00    -0.061 A 
ATOM     11  H   LIG d   1       7.563  -3.707  -5.654  0.00  0.00     0.062 H 
ATOM     12  C   LIG d   1       4.646  -3.122  -4.065  0.00  0.00    -0.059 A 
ATOM     13  H   LIG d   1       5.211  -4.437  -5.653  0.00  0.00     0.062 H 
ATOM     14  H   LIG d   1       3.614  -3.441  -4.066  0.00  0.00     0.062 H 
ENDBRANCH   1   4
BRANCH   1  15
ATOM     15  C   LIG d   1       2.874  -1.024  -2.963  0.00  0.00    -0.044 C 
ATOM     16  H   LIG d   1       2.483  -1.810  -3.607  0.00  0.00     0.027 H 
ATOM     17  H   LIG d   1       2.104  -0.719  -2.254  0.00  0.00     0.027 H 
BRANCH  15  18
ATOM     18  C   LIG d   1       3.286   0.178  -3.817  0.00  0.00    -0.013 C 
ATOM     19  H   LIG d   1       4.022  -0.138  -4.557  0.00  0.00     0.033 H 
ATOM     20  H   LIG d   1       2.410   0.580  -4.325  0.00  0.00     0.033 H 
BRANCH  18  21
ATOM     21  C   LIG d   1       3.885   1.240  -2.933  0.00  0.00     0.042 C 
ATOM     22  O   LIG d   1       4.982   1.704  -3.195  0.00  0.00    -0.550 OA
ATOM     23  O   LIG d   1       3.273   1.637  -1.956  0.00  0.00    -0.550 OA
ENDBRANCH  18  21
ENDBRANCH  15  18
ENDBRANCH   1  15
TORSDOF 4
ENDMDL
MODEL 6
REMARK VINA RESULT:      -4.9      2.046      2.921
REMARK  4 active torsions:
REMARK  status: ('A' for Active; 'I' for Inactive)
REMARK    1  A    between atoms: C_4  and  C_7 
REMARK    2  A    between atoms: C_7  and  C_8 
REMARK    3  A    between atoms: C_8  and  C_9 
REMARK    4  A    between atoms: C_9  and  C_10 
ROOT
ATOM      1  C   LIG d   1       5.531  -2.468  -3.851  0.00  0.00    -0.027 C 
ATOM      2  H   LIG d   1       6.604  -2.336  -3.985  0.00  0.00     0.031 H 
ATOM      3  H   LIG d   1       5.348  -3.298  -3.169  0.00  0.00     0.031 H 
ENDROOT
BRANCH   1   4
ATOM      4  C   LIG d   1       4.936  -1.207  -3.279  0.00  0.00    -0.047 A 
ATOM      5  C   LIG d   1       5.758  -0.160  -2.910  0.00  0.00    -0.059 A 
ATOM      6  C   LIG d   1       5.212   0.997  -2.387  0.00  0.00    -0.061 A 
ATOM      7  H   LIG d   1       6.828  -0.245  -3.033  0.00  0.00     0.062 H 
ATOM      8  C   LIG d   1       3.843   1.106  -2.232  0.00  0.00    -0.062 A 
ATOM      9  H   LIG d   1       5.855   1.815  -2.099  0.00  0.00     0.062 H 
ATOM     10  C   LIG d   1       3.020   0.059  -2.601  0.00  0.00    -0.061 A 
ATOM     11  H   LIG d   1       3.416   2.008  -1.819  0.00  0.00     0.062 H 
ATOM     12  C   LIG d   1       3.566  -1.099  -3.124  0.00  0.00    -0.059 A 
ATOM     13  H   LIG d   1       1.950   0.144  -2.480  0.00  0.00     0.062 H 
ATOM     14  H   LIG d   1       2.923  -1.917  -3.412  0.00  0.00     0.062 H 
ENDBRANCH   1   4
BRANCH   1  15
ATOM     15  C   LIG d   1       4.882  -2.769  -5.204  0.00  0.00    -0.044 C 
ATOM     16  H   LIG d   1       5.066  -3.809  -5.472  0.00  0.00     0.027 H 
ATOM     17  H   LIG d   1       3.807  -2.596  -5.139  0.00  0.00     0.027 H 
BRANCH  15  18
ATOM     18  C   LIG d   1       5.483  -1.852  -6.272  0.00  0.00    -0.013 C 
ATOM     19  H   LIG d   1       6.255  -1.228  -5.823  0.00  0.00     0.033 H 
ATOM     20  H   LIG d   1       5.920  -2.457  -7.066  0.00  0.00     0.033 H 
BRANCH  18  21
ATOM     21  C   LIG d   1       4.400  -0.975  -6.848  0.00  0.00     0.042 C 
ATOM     22  O   LIG d   1       3.678  -1.400  -7.734  0.00  0.00    -0.550 OA
ATOM     23  O   LIG d   1       4.246   0.158  -6.426  0.00  0.00    -0.550 OA
ENDBRANCH  18  21
ENDBRANCH  15  18
ENDBRANCH   1  15
TORSDOF 4
ENDMDL
MODEL 7
REMARK VINA RESULT:      -4.8      3.094      4.276
REMARK  4 active torsions:
REMARK  status: ('A' for Active; 'I' for Inactive)
REMARK    1  A    between atoms: C_4  and  C_7 
REMARK    2  A    between atoms: C_7  and  C_8 
REMARK    3  A    between atoms: C_8  and  C_9 
REMARK    4  A    between atoms: C_9  and  C_10 
ROOT
ATOM      1  C   LIG d   1       5.048  -1.364  -2.598  0.00  0.00    -0.027 C 
ATOM      2  H   LIG d   1       4.618  -2.101  -3.277  0.00  0.00     0.031 H 
ATOM      3  H   LIG d   1       5.431  -1.866  -1.710  0.00  0.00     0.031 H 
ENDROOT
BRANCH   1   4
ATOM      4  C   LIG d   1       6.174  -0.640  -3.291  0.00  0.00    -0.047 A 
ATOM      5  C   LIG d   1       6.325   0.724  -3.124  0.00  0.00    -0.059 A 
ATOM      6  C   LIG d   1       7.358   1.388  -3.758  0.00  0.00    -0.061 A 
ATOM      7  H   LIG d   1       5.636   1.270  -2.497  0.00  0.00     0.062 H 
ATOM      8  C   LIG d   1       8.241   0.687  -4.559  0.00  0.00    -0.062 A 
ATOM      9  H   LIG d   1       7.476   2.453  -3.628  0.00  0.00     0.062 H 
ATOM     10  C   LIG d   1       8.091  -0.677  -4.725  0.00  0.00    -0.061 A 
ATOM     11  H   LIG d   1       9.046   1.206  -5.058  0.00  0.00     0.062 H 
ATOM     12  C   LIG d   1       7.057  -1.340  -4.092  0.00  0.00    -0.059 A 
ATOM     13  H   LIG d   1       8.780  -1.224  -5.351  0.00  0.00     0.062 H 
ATOM     14  H   LIG d   1       6.939  -2.406  -4.222  0.00  0.00     0.062 H 
ENDBRANCH   1   4
BRANCH   1  15
ATOM     15  C   LIG d   1       3.970  -0.358  -2.190  0.00  0.00    -0.044 C 
ATOM     16  H   LIG d   1       3.672  -0.543  -1.159  0.00  0.00     0.027 H 
ATOM     17  H   LIG d   1       4.365   0.655  -2.278  0.00  0.00     0.027 H 
BRANCH  15  18
ATOM     18  C   LIG d   1       2.755  -0.512  -3.108  0.00  0.00    -0.013 C 
ATOM     19  H   LIG d   1       2.720  -1.530  -3.497  0.00  0.00     0.033 H 
ATOM     20  H   LIG d   1       1.845  -0.307  -2.544  0.00  0.00     0.033 H 
BRANCH  18  21
ATOM     21  C   LIG d   1       2.865   0.460  -4.254  0.00  0.00     0.042 C 
ATOM     22  O   LIG d   1       2.733   0.067  -5.401  0.00  0.00    -0.550 OA
ATOM     23  O   LIG d   1       3.085   1.639  -4.035  0.00  0.00    -0.550 OA
ENDBRANCH  18  21
ENDBRANCH  15  18
ENDBRANCH   1  15
TORSDOF 4
ENDMDL
MODEL 8
REMARK VINA RESULT:      -4.6      2.915      5.487
REMARK  4 active torsions:
REMARK  status: ('A' for Active; 'I' for Inactive)
REMARK    1  A    between atoms: C_4  and  C_7 
REMARK    2  A    between atoms: C_7  and  C_8 
REMARK    3  A    between atoms: C_8  and  C_9 
REMARK    4  A    between atoms: C_9  and  C_10 
ROOT
ATOM      1  C   LIG d   1       4.366  -0.300  -4.676  0.00  0.00    -0.027 C 
ATOM      2  H   LIG d   1       5.366  -0.709  -4.527  0.00  0.00     0.031 H 
ATOM      3  H   LIG d   1       4.392   0.781  -4.545  0.00  0.00     0.031 H 
ENDROOT
BRANCH   1   4
ATOM      4  C   LIG d   1       3.891  -0.626  -6.068  0.00  0.00    -0.047 A 
ATOM      5  C   LIG d   1       2.979   0.198  -6.699  0.00  0.00    -0.059 A 
ATOM      6  C   LIG d   1       2.544  -0.100  -7.977  0.00  0.00    -0.061 A 
ATOM      7  H   LIG d   1       2.606   1.076  -6.193  0.00  0.00     0.062 H 
ATOM      8  C   LIG d   1       3.023  -1.224  -8.624  0.00  0.00    -0.062 A 
ATOM      9  H   LIG d   1       1.831   0.544  -8.469  0.00  0.00     0.062 H 
ATOM     10  C   LIG d   1       3.936  -2.048  -7.994  0.00  0.00    -0.061 A 
ATOM     11  H   LIG d   1       2.681  -1.460  -9.621  0.00  0.00     0.062 H 
ATOM     12  C   LIG d   1       4.370  -1.751  -6.716  0.00  0.00    -0.059 A 
ATOM     13  H   LIG d   1       4.311  -2.926  -8.500  0.00  0.00     0.062 H 
ATOM     14  H   LIG d   1       5.084  -2.395  -6.223  0.00  0.00     0.062 H 
ENDBRANCH   1   4
BRANCH   1  15
ATOM     15  C   LIG d   1       3.407  -0.915  -3.654  0.00  0.00    -0.044 C 
ATOM     16  H   LIG d   1       2.425  -0.454  -3.755  0.00  0.00     0.027 H 
ATOM     17  H   LIG d   1       3.326  -1.987  -3.830  0.00  0.00     0.027 H 
BRANCH  15  18
ATOM     18  C   LIG d   1       3.942  -0.669  -2.241  0.00  0.00    -0.013 C 
ATOM     19  H   LIG d   1       3.211  -1.016  -1.510  0.00  0.00     0.033 H 
ATOM     20  H   LIG d   1       4.877  -1.213  -2.107  0.00  0.00     0.033 H 
BRANCH  18  21
ATOM     21  C   LIG d   1       4.187   0.805  -2.046  0.00  0.00     0.042 C 
ATOM     22  O   LIG d   1       3.245   1.579  -2.005  0.00  0.00    -0.550 OA
ATOM     23  O   LIG d   1       5.326   1.224  -1.928  0.00  0.00    -0.550 OA
ENDBRANCH  18  21
ENDBRANCH  15  18
ENDBRANCH   1  15
TORSDOF 4
ENDMDL
MODEL 9
REMARK VINA RESULT:      -4.5      2.494      5.808
REMARK  4 active torsions:
REMARK  status: ('A' for Active; 'I' for Inactive)
REMARK    1  A    between atoms: C_4  and  C_7 
REMARK    2  A    between atoms: C_7  and  C_8 
REMARK    3  A    between atoms: C_8  and  C_9 
REMARK    4  A    between atoms: C_9  and  C_10 
ROOT
ATOM      1  C   LIG d   1       3.558  -0.423  -6.180  0.00  0.00    -0.027 C 
ATOM      2  H   LIG d   1       3.252  -1.464  -6.073  0.00  0.00     0.031 H 
ATOM      3  H   LIG d   1       4.608  -0.322  -5.910  0.00  0.00     0.031 H 
ENDROOT
BRANCH   1   4
ATOM      4  C   LIG d   1       3.362   0.014  -7.609  0.00  0.00    -0.047 A 
ATOM      5  C   LIG d   1       4.271   0.871  -8.200  0.00  0.00    -0.059 A 
ATOM      6  C   LIG d   1       4.092   1.271  -9.511  0.00  0.00    -0.061 A 
ATOM      7  H   LIG d   1       5.121   1.228  -7.638  0.00  0.00     0.062 H 
ATOM      8  C   LIG d   1       3.004   0.813 -10.231  0.00  0.00    -0.062 A 
ATOM      9  H   LIG d   1       4.801   1.940  -9.973  0.00  0.00     0.062 H 
ATOM     10  C   LIG d   1       2.095  -0.045  -9.640  0.00  0.00    -0.061 A 
ATOM     11  H   LIG d   1       2.862   1.128 -11.254  0.00  0.00     0.062 H 
ATOM     12  C   LIG d   1       2.274  -0.444  -8.329  0.00  0.00    -0.059 A 
ATOM     13  H   LIG d   1       1.245  -0.403 -10.202  0.00  0.00     0.062 H 
ATOM     14  H   LIG d   1       1.564  -1.114  -7.866  0.00  0.00     0.062 H 
ENDBRANCH   1   4
BRANCH   1  15
ATOM     15  C   LIG d   1       2.708   0.454  -5.258  0.00  0.00    -0.044 C 
ATOM     16  H   LIG d   1       2.993   1.498  -5.386  0.00  0.00     0.027 H 
ATOM     17  H   LIG d   1       1.654   0.332  -5.508  0.00  0.00     0.027 H 
BRANCH  15  18
ATOM     18  C   LIG d   1       2.938   0.038  -3.803  0.00  0.00    -0.013 C 
ATOM     19  H   LIG d   1       2.003  -0.327  -3.377  0.00  0.00     0.033 H 
ATOM     20  H   LIG d   1       3.688  -0.752  -3.766  0.00  0.00     0.033 H 
BRANCH  18  21
ATOM     21  C   LIG d   1       3.421   1.226  -3.012  0.00  0.00     0.042 C 
ATOM     22  O   LIG d   1       3.678   1.105  -1.825  0.00  0.00    -0.550 OA
ATOM     23  O   LIG d   1       3.556   2.308  -3.557  0.00  0.00    -0.550 OA
ENDBRANCH  18  21
ENDBRANCH  15  18
ENDBRANCH   1  15
TORSDOF 4
ENDMDL
MODEL 10
REMARK VINA RESULT:      -4.4      3.893      4.461
REMARK  4 active torsions:
REMARK  status: ('A' for Active; 'I' for Inactive)
REMARK    1  A    between atoms: C_4  and  C_7 
REMARK    2  A    between atoms: C_7  and  C_8 
REMARK    3  A    between atoms: C_8  and  C_9 
REMARK    4  A    between atoms: C_9  and  C_10 
ROOT
ATOM      1  C   LIG d   1       7.316   1.353  -3.765  0.00  0.00    -0.027 C 
ATOM      2  H   LIG d   1       6.991   2.389  -3.864  0.00  0.00     0.031 H 
ATOM      3  H   LIG d   1       8.200   1.308  -3.128  0.00  0.00     0.031 H 
ENDROOT
BRANCH   1   4
ATOM      4  C   LIG d   1       6.211   0.535  -3.148  0.00  0.00    -0.047 A 
ATOM      5  C   LIG d   1       5.174   1.164  -2.483  0.00  0.00    -0.059 A 
ATOM      6  C   LIG d   1       4.160   0.414  -1.918  0.00  0.00    -0.061 A 
ATOM      7  H   LIG d   1       5.158   2.241  -2.405  0.00  0.00     0.062 H 
ATOM      8  C   LIG d   1       4.181  -0.965  -2.019  0.00  0.00    -0.062 A 
ATOM      9  H   LIG d   1       3.351   0.905  -1.399  0.00  0.00     0.062 H 
ATOM     10  C   LIG d   1       5.217  -1.593  -2.685  0.00  0.00    -0.061 A 
ATOM     11  H   LIG d   1       3.391  -1.551  -1.574  0.00  0.00     0.062 H 
ATOM     12  C   LIG d   1       6.232  -0.844  -3.248  0.00  0.00    -0.059 A 
ATOM     13  H   LIG d   1       5.234  -2.670  -2.763  0.00  0.00     0.062 H 
ATOM     14  H   LIG d   1       7.042  -1.334  -3.768  0.00  0.00     0.062 H 
ENDBRANCH   1   4
BRANCH   1  15
ATOM     15  C   LIG d   1       7.655   0.790  -5.147  0.00  0.00    -0.044 C 
ATOM     16  H   LIG d   1       7.702  -0.297  -5.095  0.00  0.00     0.027 H 
ATOM     17  H   LIG d   1       6.885   1.087  -5.859  0.00  0.00     0.027 H 
BRANCH  15  18
ATOM     18  C   LIG d   1       9.009   1.339  -5.603  0.00  0.00    -0.013 C 
ATOM     19  H   LIG d   1       9.486   1.863  -4.774  0.00  0.00     0.033 H 
ATOM     20  H   LIG d   1       9.645   0.515  -5.926  0.00  0.00     0.033 H 
BRANCH  18  21
ATOM     21  C   LIG d   1       8.804   2.295  -6.749  0.00  0.00     0.042 C 
ATOM     22  O   LIG d   1       8.031   2.011  -7.649  0.00  0.00    -0.550 OA
ATOM     23  O   LIG d   1       9.409   3.352  -6.777  0.00  0.00    -0.550 OA
ENDBRANCH  18  21
ENDBRANCH  15  18
ENDBRANCH   1  15
TORSDOF 4
ENDMDL
