MODEL 1
REMARK VINA RESULT:      -6.5      0.000      0.000
REMARK  4 active torsions:
REMARK  status: ('A' for Active; 'I' for Inactive)
REMARK    1  A    between atoms: C_9  and  C_12 
REMARK    2  A    between atoms: C_12  and  C_13 
REMARK    3  A    between atoms: C_13  and  C_14 
REMARK    4  A    between atoms: C_13  and  C_16 
ROOT
ATOM      1  C   LIG d   1       4.355   1.384 -10.400  0.00  0.00    -0.058 A 
ATOM      2  C   LIG d   1       3.381   2.251  -9.941  0.00  0.00    -0.058 A 
ATOM      3  C   LIG d   1       2.906   2.139  -8.648  0.00  0.00    -0.016 A 
ATOM      4  C   LIG d   1       3.408   1.157  -7.806  0.00  0.00     0.163 A 
ATOM      5  C   LIG d   1       4.386   0.285  -8.268  0.00  0.00     0.162 A 
ATOM      6  C   LIG d   1       4.858   0.403  -9.566  0.00  0.00    -0.016 A 
ATOM      7  O   LIG d   1       4.888  -0.688  -7.460  0.00  0.00    -0.485 OA
ATOM      8  C   LIG d   1       4.663  -0.538  -6.053  0.00  0.00     0.127 C 
ATOM      9  C   LIG d   1       3.190  -0.164  -5.841  0.00  0.00     0.135 C 
ATOM     10  H   LIG d   1       2.550  -0.952  -6.239  0.00  0.00     0.077 H 
ATOM     11  O   LIG d   1       2.934   1.062  -6.534  0.00  0.00    -0.482 OA
ATOM     12  H   LIG d   1       4.724   1.474 -11.411  0.00  0.00     0.062 H 
ATOM     13  H   LIG d   1       2.988   3.016 -10.595  0.00  0.00     0.062 H 
ATOM     14  H   LIG d   1       2.144   2.817  -8.292  0.00  0.00     0.066 H 
ATOM     15  H   LIG d   1       5.620  -0.273  -9.927  0.00  0.00     0.066 H 
ATOM     16  H   LIG d   1       5.303   0.252  -5.661  0.00  0.00     0.073 H 
ATOM     17  H   LIG d   1       4.882  -1.476  -5.542  0.00  0.00     0.073 H 
ENDROOT
BRANCH   9  18
ATOM     18  C   LIG d   1       2.913   0.018  -4.347  0.00  0.00     0.001 C 
ATOM     19  H   LIG d   1       2.530   1.022  -4.169  0.00  0.00     0.031 H 
ATOM     20  H   LIG d   1       2.176  -0.716  -4.023  0.00  0.00     0.031 H 
BRANCH  18  21
ATOM     21  C   LIG d   1       4.210  -0.180  -3.561  0.00  0.00     0.041 C 
ATOM     22  H   LIG d   1       5.050  -0.241  -4.253  0.00  0.00     0.042 H 
BRANCH  21  23
ATOM     23  C   LIG d   1       4.413   0.983  -2.625  0.00  0.00     0.050 C 
ATOM     24  O   LIG d   1       3.466   1.478  -2.062  0.00  0.00    -0.549 OA
ATOM     25  O   LIG d   1       5.647   1.469  -2.417  0.00  0.00    -0.549 OA
ENDBRANCH  21  23
BRANCH  21  26
ATOM     26  C   LIG d   1       4.124  -1.456  -2.764  0.00  0.00     0.050 C 
ATOM     27  O   LIG d   1       4.365  -1.447  -1.580  0.00  0.00    -0.549 OA
ATOM     28  O   LIG d   1       3.780  -2.604  -3.370  0.00  0.00    -0.549 OA
ENDBRANCH  21  26
ENDBRANCH  18  21
ENDBRANCH   9  18
TORSDOF 4
ENDMDL
MODEL 2
REMARK VINA RESULT:      -6.0      2.153      5.917
REMARK  4 active torsions:
REMARK  status: ('A' for Active; 'I' for Inactive)
REMARK    1  A    between atoms: C_9  and  C_12 
REMARK    2  A    between atoms: C_12  and  C_13 
REMARK    3  A    between atoms: C_13  and  C_14 
REMARK    4  A    between atoms: C_13  and  C_16 
ROOT
ATOM      1  C   LIG d   1       3.758  -1.566  -2.320  0.00  0.00    -0.058 A 
ATOM      2  C   LIG d   1       3.277  -0.299  -2.592  0.00  0.00    -0.058 A 
ATOM      3  C   LIG d   1       3.381   0.224  -3.868  0.00  0.00    -0.016 A 
ATOM      4  C   LIG d   1       3.968  -0.524  -4.879  0.00  0.00     0.163 A 
ATOM      5  C   LIG d   1       4.453  -1.796  -4.604  0.00  0.00     0.162 A 
ATOM      6  C   LIG d   1       4.345  -2.315  -3.322  0.00  0.00    -0.016 A 
ATOM      7  O   LIG d   1       5.037  -2.544  -5.579  0.00  0.00    -0.485 OA
ATOM      8  C   LIG d   1       4.791  -2.144  -6.933  0.00  0.00     0.127 C 
ATOM      9  C   LIG d   1       4.986  -0.625  -7.025  0.00  0.00     0.135 C 
ATOM     10  H   LIG d   1       6.006  -0.367  -6.739  0.00  0.00     0.077 H 
ATOM     11  O   LIG d   1       4.061   0.002  -6.131  0.00  0.00    -0.482 OA
ATOM     12  H   LIG d   1       3.674  -1.971  -1.322  0.00  0.00     0.062 H 
ATOM     13  H   LIG d   1       2.820   0.286  -1.807  0.00  0.00     0.062 H 
ATOM     14  H   LIG d   1       3.005   1.214  -4.078  0.00  0.00     0.066 H 
ATOM     15  H   LIG d   1       4.719  -3.305  -3.107  0.00  0.00     0.066 H 
ATOM     16  H   LIG d   1       3.769  -2.402  -7.213  0.00  0.00     0.073 H 
ATOM     17  H   LIG d   1       5.493  -2.646  -7.600  0.00  0.00     0.073 H 
ENDROOT
BRANCH   9  18
ATOM     18  C   LIG d   1       4.718  -0.156  -8.457  0.00  0.00     0.001 C 
ATOM     19  H   LIG d   1       5.357   0.695  -8.687  0.00  0.00     0.031 H 
ATOM     20  H   LIG d   1       4.932  -0.970  -9.151  0.00  0.00     0.031 H 
BRANCH  18  21
ATOM     21  C   LIG d   1       3.251   0.256  -8.593  0.00  0.00     0.041 C 
ATOM     22  H   LIG d   1       2.727   0.048  -7.660  0.00  0.00     0.042 H 
BRANCH  21  23
ATOM     23  C   LIG d   1       3.169   1.729  -8.897  0.00  0.00     0.050 C 
ATOM     24  O   LIG d   1       3.471   2.137  -9.994  0.00  0.00    -0.549 OA
ATOM     25  O   LIG d   1       2.762   2.589  -7.950  0.00  0.00    -0.549 OA
ENDBRANCH  21  23
BRANCH  21  26
ATOM     26  C   LIG d   1       2.611  -0.524  -9.711  0.00  0.00     0.050 C 
ATOM     27  O   LIG d   1       1.409  -0.525  -9.837  0.00  0.00    -0.549 OA
ATOM     28  O   LIG d   1       3.376  -1.218 -10.569  0.00  0.00    -0.549 OA
ENDBRANCH  21  26
ENDBRANCH  18  21
ENDBRANCH   9  18
TORSDOF 4
ENDMDL
MODEL 3
REMARK VINA RESULT:      -5.8      4.444      6.998
REMARK  4 active torsions:
REMARK  status: ('A' for Active; 'I' for Inactive)
REMARK    1  A    between atoms: C_9  and  C_12 
REMARK    2  A    between atoms: C_12  and  C_13 
REMARK    3  A    between atoms: C_13  and  C_14 
REMARK    4  A    between atoms: C_13  and  C_16 
ROOT
ATOM      1  C   LIG d   1       4.378  -1.505  -2.191  0.00  0.00    -0.058 A 
ATOM      2  C   LIG d   1       3.999  -0.229  -1.815  0.00  0.00    -0.058 A 
ATOM      3  C   LIG d   1       4.756   0.861  -2.199  0.00  0.00    -0.016 A 
ATOM      4  C   LIG d   1       5.898   0.678  -2.966  0.00  0.00     0.163 A 
ATOM      5  C   LIG d   1       6.279  -0.604  -3.342  0.00  0.00     0.162 A 
ATOM      6  C   LIG d   1       5.515  -1.693  -2.953  0.00  0.00    -0.016 A 
ATOM      7  O   LIG d   1       7.398  -0.806  -4.090  0.00  0.00    -0.485 OA
ATOM      8  C   LIG d   1       7.931   0.334  -4.776  0.00  0.00     0.127 C 
ATOM      9  C   LIG d   1       7.967   1.510  -3.791  0.00  0.00     0.135 C 
ATOM     10  H   LIG d   1       8.600   1.258  -2.940  0.00  0.00     0.077 H 
ATOM     11  O   LIG d   1       6.631   1.761  -3.341  0.00  0.00    -0.482 OA
ATOM     12  H   LIG d   1       3.783  -2.354  -1.889  0.00  0.00     0.062 H 
ATOM     13  H   LIG d   1       3.111  -0.084  -1.217  0.00  0.00     0.062 H 
ATOM     14  H   LIG d   1       4.458   1.856  -1.904  0.00  0.00     0.066 H 
ATOM     15  H   LIG d   1       5.808  -2.691  -3.246  0.00  0.00     0.066 H 
ATOM     16  H   LIG d   1       7.292   0.584  -5.623  0.00  0.00     0.073 H 
ATOM     17  H   LIG d   1       8.939   0.116  -5.126  0.00  0.00     0.073 H 
ENDROOT
BRANCH   9  18
ATOM     18  C   LIG d   1       8.518   2.754  -4.492  0.00  0.00     0.001 C 
ATOM     19  H   LIG d   1       8.888   2.480  -5.480  0.00  0.00     0.031 H 
ATOM     20  H   LIG d   1       7.724   3.494  -4.593  0.00  0.00     0.031 H 
BRANCH  18  21
ATOM     21  C   LIG d   1       9.662   3.341  -3.664  0.00  0.00     0.041 C 
ATOM     22  H   LIG d   1       9.495   3.125  -2.608  0.00  0.00     0.042 H 
BRANCH  21  23
ATOM     23  C   LIG d   1      10.966   2.728  -4.103  0.00  0.00     0.050 C 
ATOM     24  O   LIG d   1      11.662   2.151  -3.302  0.00  0.00    -0.549 OA
ATOM     25  O   LIG d   1      11.355   2.823  -5.384  0.00  0.00    -0.549 OA
ENDBRANCH  21  23
BRANCH  21  26
ATOM     26  C   LIG d   1       9.715   4.833  -3.868  0.00  0.00     0.050 C 
ATOM     27  O   LIG d   1      10.206   5.542  -3.021  0.00  0.00    -0.549 OA
ATOM     28  O   LIG d   1       9.217   5.376  -4.991  0.00  0.00    -0.549 OA
ENDBRANCH  21  26
ENDBRANCH  18  21
ENDBRANCH   9  18
TORSDOF 4
ENDMDL
MODEL 4
REMARK VINA RESULT:      -5.8      1.536      2.296
REMARK  4 active torsions:
REMARK  status: ('A' for Active; 'I' for Inactive)
REMARK    1  A    between atoms: C_9  and  C_12 
REMARK    2  A    between atoms: C_12  and  C_13 
REMARK    3  A    between atoms: C_13  and  C_14 
REMARK    4  A    between atoms: C_13  and  C_16 
ROOT
ATOM      1  C   LIG d   1       2.544   0.280  -9.849  0.00  0.00    -0.058 A 
ATOM      2  C   LIG d   1       2.553   1.396  -9.033  0.00  0.00    -0.058 A 
ATOM      3  C   LIG d   1       3.035   1.307  -7.740  0.00  0.00    -0.016 A 
ATOM      4  C   LIG d   1       3.514   0.097  -7.260  0.00  0.00     0.163 A 
ATOM      5  C   LIG d   1       3.504  -1.024  -8.080  0.00  0.00     0.162 A 
ATOM      6  C   LIG d   1       3.019  -0.928  -9.375  0.00  0.00    -0.016 A 
ATOM      7  O   LIG d   1       3.964  -2.223  -7.627  0.00  0.00    -0.485 OA
ATOM      8  C   LIG d   1       4.787  -2.195  -6.454  0.00  0.00     0.127 C 
ATOM      9  C   LIG d   1       4.115  -1.283  -5.419  0.00  0.00     0.135 C 
ATOM     10  H   LIG d   1       3.127  -1.673  -5.173  0.00  0.00     0.077 H 
ATOM     11  O   LIG d   1       3.990   0.025  -5.987  0.00  0.00    -0.482 OA
ATOM     12  H   LIG d   1       2.167   0.354 -10.858  0.00  0.00     0.062 H 
ATOM     13  H   LIG d   1       2.180   2.339  -9.404  0.00  0.00     0.062 H 
ATOM     14  H   LIG d   1       3.040   2.180  -7.105  0.00  0.00     0.066 H 
ATOM     15  H   LIG d   1       3.012  -1.798 -10.016  0.00  0.00     0.066 H 
ATOM     16  H   LIG d   1       5.772  -1.802  -6.705  0.00  0.00     0.073 H 
ATOM     17  H   LIG d   1       4.885  -3.202  -6.048  0.00  0.00     0.073 H 
ENDROOT
BRANCH   9  18
ATOM     18  C   LIG d   1       4.973  -1.217  -4.154  0.00  0.00     0.001 C 
ATOM     19  H   LIG d   1       4.569  -1.897  -3.405  0.00  0.00     0.031 H 
ATOM     20  H   LIG d   1       5.996  -1.508  -4.395  0.00  0.00     0.031 H 
BRANCH  18  21
ATOM     21  C   LIG d   1       4.964   0.211  -3.605  0.00  0.00     0.041 C 
ATOM     22  H   LIG d   1       4.424   0.861  -4.294  0.00  0.00     0.042 H 
BRANCH  21  23
ATOM     23  C   LIG d   1       4.287   0.228  -2.260  0.00  0.00     0.050 C 
ATOM     24  O   LIG d   1       4.398  -0.717  -1.516  0.00  0.00    -0.549 OA
ATOM     25  O   LIG d   1       3.561   1.294  -1.888  0.00  0.00    -0.549 OA
ENDBRANCH  21  23
BRANCH  21  26
ATOM     26  C   LIG d   1       6.381   0.701  -3.461  0.00  0.00     0.050 C 
ATOM     27  O   LIG d   1       6.600   1.879  -3.298  0.00  0.00    -0.549 OA
ATOM     28  O   LIG d   1       7.403  -0.169  -3.512  0.00  0.00    -0.549 OA
ENDBRANCH  21  26
ENDBRANCH  18  21
ENDBRANCH   9  18
TORSDOF 4
ENDMDL
MODEL 5
REMARK VINA RESULT:      -5.7      1.328      2.215
REMARK  4 active torsions:
REMARK  status: ('A' for Active; 'I' for Inactive)
REMARK    1  A    between atoms: C_9  and  C_12 
REMARK    2  A    between atoms: C_12  and  C_13 
REMARK    3  A    between atoms: C_13  and  C_14 
REMARK    4  A    between atoms: C_13  and  C_16 
ROOT
ATOM      1  C   LIG d   1       3.910   2.267  -9.832  0.00  0.00    -0.058 A 
ATOM      2  C   LIG d   1       2.781   2.075  -9.058  0.00  0.00    -0.058 A 
ATOM      3  C   LIG d   1       2.841   1.276  -7.930  0.00  0.00    -0.016 A 
ATOM      4  C   LIG d   1       4.036   0.668  -7.573  0.00  0.00     0.163 A 
ATOM      5  C   LIG d   1       5.169   0.860  -8.352  0.00  0.00     0.162 A 
ATOM      6  C   LIG d   1       5.103   1.663  -9.481  0.00  0.00    -0.016 A 
ATOM      7  O   LIG d   1       6.350   0.269  -8.023  0.00  0.00    -0.485 OA
ATOM      8  C   LIG d   1       6.472  -0.223  -6.682  0.00  0.00     0.127 C 
ATOM      9  C   LIG d   1       5.195  -1.002  -6.340  0.00  0.00     0.135 C 
ATOM     10  H   LIG d   1       5.076  -1.835  -7.033  0.00  0.00     0.077 H 
ATOM     11  O   LIG d   1       4.080  -0.112  -6.459  0.00  0.00    -0.482 OA
ATOM     12  H   LIG d   1       3.860   2.892 -10.711  0.00  0.00     0.062 H 
ATOM     13  H   LIG d   1       1.850   2.547  -9.334  0.00  0.00     0.062 H 
ATOM     14  H   LIG d   1       1.958   1.127  -7.328  0.00  0.00     0.066 H 
ATOM     15  H   LIG d   1       5.984   1.816 -10.088  0.00  0.00     0.066 H 
ATOM     16  H   LIG d   1       6.588   0.615  -5.993  0.00  0.00     0.073 H 
ATOM     17  H   LIG d   1       7.337  -0.882  -6.608  0.00  0.00     0.073 H 
ENDROOT
BRANCH   9  18
ATOM     18  C   LIG d   1       5.283  -1.532  -4.907  0.00  0.00     0.001 C 
ATOM     19  H   LIG d   1       4.776  -2.494  -4.844  0.00  0.00     0.031 H 
ATOM     20  H   LIG d   1       6.330  -1.654  -4.629  0.00  0.00     0.031 H 
BRANCH  18  21
ATOM     21  C   LIG d   1       4.614  -0.539  -3.954  0.00  0.00     0.041 C 
ATOM     22  H   LIG d   1       4.164   0.270  -4.529  0.00  0.00     0.042 H 
BRANCH  21  23
ATOM     23  C   LIG d   1       3.547  -1.246  -3.160  0.00  0.00     0.050 C 
ATOM     24  O   LIG d   1       2.479  -0.714  -2.975  0.00  0.00    -0.549 OA
ATOM     25  O   LIG d   1       3.784  -2.468  -2.657  0.00  0.00    -0.549 OA
ENDBRANCH  21  23
BRANCH  21  26
ATOM     26  C   LIG d   1       5.647   0.028  -3.015  0.00  0.00     0.050 C 
ATOM     27  O   LIG d   1       5.355   0.936  -2.273  0.00  0.00    -0.549 OA
ATOM     28  O   LIG d   1       6.892  -0.476  -3.002  0.00  0.00    -0.549 OA
ENDBRANCH  21  26
ENDBRANCH  18  21
ENDBRANCH   9  18
TORSDOF 4
ENDMDL
MODEL 6
REMARK VINA RESULT:      -5.6      1.372      2.477
REMARK  4 active torsions:
REMARK  status: ('A' for Active; 'I' for Inactive)
REMARK    1  A    between atoms: C_9  and  C_12 
REMARK    2  A    between atoms: C_12  and  C_13 
REMARK    3  A    between atoms: C_13  and  C_14 
REMARK    4  A    between atoms: C_13  and  C_16 
ROOT
ATOM      1  C   LIG d   1       3.543   2.034 -10.327  0.00  0.00    -0.058 A 
ATOM      2  C   LIG d   1       4.341   0.956 -10.659  0.00  0.00    -0.058 A 
ATOM      3  C   LIG d   1       4.654   0.004  -9.705  0.00  0.00    -0.016 A 
ATOM      4  C   LIG d   1       4.165   0.129  -8.413  0.00  0.00     0.163 A 
ATOM      5  C   LIG d   1       3.364   1.214  -8.080  0.00  0.00     0.162 A 
ATOM      6  C   LIG d   1       3.054   2.165  -9.041  0.00  0.00    -0.016 A 
ATOM      7  O   LIG d   1       2.878   1.359  -6.817  0.00  0.00    -0.485 OA
ATOM      8  C   LIG d   1       2.899   0.195  -5.981  0.00  0.00     0.127 C 
ATOM      9  C   LIG d   1       4.278  -0.464  -6.114  0.00  0.00     0.135 C 
ATOM     10  H   LIG d   1       5.052   0.236  -5.798  0.00  0.00     0.077 H 
ATOM     11  O   LIG d   1       4.477  -0.817  -7.486  0.00  0.00    -0.482 OA
ATOM     12  H   LIG d   1       3.300   2.775 -11.074  0.00  0.00     0.062 H 
ATOM     13  H   LIG d   1       4.724   0.856 -11.664  0.00  0.00     0.062 H 
ATOM     14  H   LIG d   1       5.278  -0.836  -9.967  0.00  0.00     0.066 H 
ATOM     15  H   LIG d   1       2.429   3.009  -8.785  0.00  0.00     0.066 H 
ATOM     16  H   LIG d   1       2.125  -0.502  -6.303  0.00  0.00     0.073 H 
ATOM     17  H   LIG d   1       2.726   0.483  -4.944  0.00  0.00     0.073 H 
ENDROOT
BRANCH   9  18
ATOM     18  C   LIG d   1       4.335  -1.722  -5.243  0.00  0.00     0.001 C 
ATOM     19  H   LIG d   1       3.322  -2.043  -5.003  0.00  0.00     0.031 H 
ATOM     20  H   LIG d   1       4.849  -2.515  -5.787  0.00  0.00     0.031 H 
BRANCH  18  21
ATOM     21  C   LIG d   1       5.093  -1.414  -3.951  0.00  0.00     0.041 C 
ATOM     22  H   LIG d   1       5.435  -0.378  -3.968  0.00  0.00     0.042 H 
BRANCH  21  23
ATOM     23  C   LIG d   1       4.181  -1.624  -2.771  0.00  0.00     0.050 C 
ATOM     24  O   LIG d   1       3.687  -2.708  -2.575  0.00  0.00    -0.549 OA
ATOM     25  O   LIG d   1       3.918  -0.605  -1.936  0.00  0.00    -0.549 OA
ENDBRANCH  21  23
BRANCH  21  26
ATOM     26  C   LIG d   1       6.283  -2.331  -3.836  0.00  0.00     0.050 C 
ATOM     27  O   LIG d   1       7.192  -2.052  -3.091  0.00  0.00    -0.549 OA
ATOM     28  O   LIG d   1       6.333  -3.460  -4.562  0.00  0.00    -0.549 OA
ENDBRANCH  21  26
ENDBRANCH  18  21
ENDBRANCH   9  18
TORSDOF 4
ENDMDL
MODEL 7
REMARK VINA RESULT:      -5.3      3.848      5.278
REMARK  4 active torsions:
REMARK  status: ('A' for Active; 'I' for Inactive)
REMARK    1  A    between atoms: C_9  and  C_12 
REMARK    2  A    between atoms: C_12  and  C_13 
REMARK    3  A    between atoms: C_13  and  C_14 
REMARK    4  A    between atoms: C_13  and  C_16 
ROOT
ATOM      1  C   LIG d   1      10.272   4.285  -5.477  0.00  0.00    -0.058 A 
ATOM      2  C   LIG d   1      10.290   4.299  -4.095  0.00  0.00    -0.058 A 
ATOM      3  C   LIG d   1       9.489   3.425  -3.382  0.00  0.00    -0.016 A 
ATOM      4  C   LIG d   1       8.668   2.531  -4.054  0.00  0.00     0.163 A 
ATOM      5  C   LIG d   1       8.650   2.519  -5.443  0.00  0.00     0.162 A 
ATOM      6  C   LIG d   1       9.455   3.398  -6.152  0.00  0.00    -0.016 A 
ATOM      7  O   LIG d   1       7.847   1.654  -6.121  0.00  0.00    -0.485 OA
ATOM      8  C   LIG d   1       7.336   0.536  -5.384  0.00  0.00     0.127 C 
ATOM      9  C   LIG d   1       6.807   1.051  -4.040  0.00  0.00     0.135 C 
ATOM     10  H   LIG d   1       6.013   1.779  -4.212  0.00  0.00     0.077 H 
ATOM     11  O   LIG d   1       7.889   1.674  -3.340  0.00  0.00    -0.482 OA
ATOM     12  H   LIG d   1      10.899   4.969  -6.031  0.00  0.00     0.062 H 
ATOM     13  H   LIG d   1      10.928   4.994  -3.570  0.00  0.00     0.062 H 
ATOM     14  H   LIG d   1       9.505   3.438  -2.303  0.00  0.00     0.066 H 
ATOM     15  H   LIG d   1       9.444   3.389  -7.232  0.00  0.00     0.066 H 
ATOM     16  H   LIG d   1       8.135  -0.187  -5.213  0.00  0.00     0.073 H 
ATOM     17  H   LIG d   1       6.527   0.065  -5.943  0.00  0.00     0.073 H 
ENDROOT
BRANCH   9  18
ATOM     18  C   LIG d   1       6.264  -0.119  -3.217  0.00  0.00     0.001 C 
ATOM     19  H   LIG d   1       6.585  -1.058  -3.664  0.00  0.00     0.031 H 
ATOM     20  H   LIG d   1       6.645  -0.052  -2.197  0.00  0.00     0.031 H 
BRANCH  18  21
ATOM     21  C   LIG d   1       4.735  -0.061  -3.195  0.00  0.00     0.041 C 
ATOM     22  H   LIG d   1       4.371   0.300  -4.157  0.00  0.00     0.042 H 
BRANCH  21  23
ATOM     23  C   LIG d   1       4.184  -1.438  -2.933  0.00  0.00     0.050 C 
ATOM     24  O   LIG d   1       3.741  -2.095  -3.845  0.00  0.00    -0.549 OA
ATOM     25  O   LIG d   1       4.185  -1.935  -1.686  0.00  0.00    -0.549 OA
ENDBRANCH  21  23
BRANCH  21  26
ATOM     26  C   LIG d   1       4.284   0.877  -2.105  0.00  0.00     0.050 C 
ATOM     27  O   LIG d   1       5.007   1.101  -1.163  0.00  0.00    -0.549 OA
ATOM     28  O   LIG d   1       3.078   1.464  -2.181  0.00  0.00    -0.549 OA
ENDBRANCH  21  26
ENDBRANCH  18  21
ENDBRANCH   9  18
TORSDOF 4
ENDMDL
MODEL 8
REMARK VINA RESULT:      -5.1      3.722      5.837
REMARK  4 active torsions:
REMARK  status: ('A' for Active; 'I' for Inactive)
REMARK    1  A    between atoms: C_9  and  C_12 
REMARK    2  A    between atoms: C_12  and  C_13 
REMARK    3  A    between atoms: C_13  and  C_14 
REMARK    4  A    between atoms: C_13  and  C_16 
ROOT
ATOM      1  C   LIG d   1       9.225  -5.529  -5.484  0.00  0.00    -0.058 A 
ATOM      2  C   LIG d   1       9.832  -4.721  -4.541  0.00  0.00    -0.058 A 
ATOM      3  C   LIG d   1       9.104  -3.736  -3.900  0.00  0.00    -0.016 A 
ATOM      4  C   LIG d   1       7.761  -3.558  -4.200  0.00  0.00     0.163 A 
ATOM      5  C   LIG d   1       7.152  -4.370  -5.150  0.00  0.00     0.162 A 
ATOM      6  C   LIG d   1       7.888  -5.356  -5.789  0.00  0.00    -0.016 A 
ATOM      7  O   LIG d   1       5.838  -4.208  -5.463  0.00  0.00    -0.485 OA
ATOM      8  C   LIG d   1       5.040  -3.462  -4.535  0.00  0.00     0.127 C 
ATOM      9  C   LIG d   1       5.815  -2.194  -4.152  0.00  0.00     0.135 C 
ATOM     10  H   LIG d   1       6.006  -1.597  -5.043  0.00  0.00     0.077 H 
ATOM     11  O   LIG d   1       7.056  -2.588  -3.558  0.00  0.00    -0.482 OA
ATOM     12  H   LIG d   1       9.796  -6.298  -5.983  0.00  0.00     0.062 H 
ATOM     13  H   LIG d   1      10.877  -4.858  -4.306  0.00  0.00     0.062 H 
ATOM     14  H   LIG d   1       9.580  -3.107  -3.164  0.00  0.00     0.066 H 
ATOM     15  H   LIG d   1       7.416  -5.990  -6.526  0.00  0.00     0.066 H 
ATOM     16  H   LIG d   1       4.854  -4.063  -3.645  0.00  0.00     0.073 H 
ATOM     17  H   LIG d   1       4.093  -3.189  -5.000  0.00  0.00     0.073 H 
ENDROOT
BRANCH   9  18
ATOM     18  C   LIG d   1       4.999  -1.375  -3.149  0.00  0.00     0.001 C 
ATOM     19  H   LIG d   1       4.045  -1.868  -2.967  0.00  0.00     0.031 H 
ATOM     20  H   LIG d   1       5.551  -1.295  -2.212  0.00  0.00     0.031 H 
BRANCH  18  21
ATOM     21  C   LIG d   1       4.750   0.024  -3.715  0.00  0.00     0.041 C 
ATOM     22  H   LIG d   1       5.212   0.105  -4.700  0.00  0.00     0.042 H 
BRANCH  21  23
ATOM     23  C   LIG d   1       3.267   0.262  -3.834  0.00  0.00     0.050 C 
ATOM     24  O   LIG d   1       2.489  -0.500  -3.309  0.00  0.00    -0.549 OA
ATOM     25  O   LIG d   1       2.810   1.320  -4.522  0.00  0.00    -0.549 OA
ENDBRANCH  21  23
BRANCH  21  26
ATOM     26  C   LIG d   1       5.351   1.053  -2.794  0.00  0.00     0.050 C 
ATOM     27  O   LIG d   1       4.921   1.185  -1.672  0.00  0.00    -0.549 OA
ATOM     28  O   LIG d   1       6.366   1.824  -3.218  0.00  0.00    -0.549 OA
ENDBRANCH  21  26
ENDBRANCH  18  21
ENDBRANCH   9  18
TORSDOF 4
ENDMDL
MODEL 9
REMARK VINA RESULT:      -5.0      4.113      6.133
REMARK  4 active torsions:
REMARK  status: ('A' for Active; 'I' for Inactive)
REMARK    1  A    between atoms: C_9  and  C_12 
REMARK    2  A    between atoms: C_12  and  C_13 
REMARK    3  A    between atoms: C_13  and  C_14 
REMARK    4  A    between atoms: C_13  and  C_16 
ROOT
ATOM      1  C   LIG d   1      11.051  -4.330  -3.761  0.00  0.00    -0.058 A 
ATOM      2  C   LIG d   1      10.231  -4.567  -2.674  0.00  0.00    -0.058 A 
ATOM      3  C   LIG d   1       9.015  -3.917  -2.568  0.00  0.00    -0.016 A 
ATOM      4  C   LIG d   1       8.615  -3.027  -3.554  0.00  0.00     0.163 A 
ATOM      5  C   LIG d   1       9.441  -2.788  -4.645  0.00  0.00     0.162 A 
ATOM      6  C   LIG d   1      10.659  -3.444  -4.746  0.00  0.00    -0.016 A 
ATOM      7  O   LIG d   1       9.071  -1.915  -5.621  0.00  0.00    -0.485 OA
ATOM      8  C   LIG d   1       7.683  -1.561  -5.677  0.00  0.00     0.127 C 
ATOM      9  C   LIG d   1       7.215  -1.237  -4.252  0.00  0.00     0.135 C 
ATOM     10  H   LIG d   1       7.795  -0.405  -3.855  0.00  0.00     0.077 H 
ATOM     11  O   LIG d   1       7.414  -2.397  -3.439  0.00  0.00    -0.482 OA
ATOM     12  H   LIG d   1      12.000  -4.840  -3.841  0.00  0.00     0.062 H 
ATOM     13  H   LIG d   1      10.540  -5.259  -1.905  0.00  0.00     0.062 H 
ATOM     14  H   LIG d   1       8.376  -4.103  -1.718  0.00  0.00     0.066 H 
ATOM     15  H   LIG d   1      11.303  -3.261  -5.595  0.00  0.00     0.066 H 
ATOM     16  H   LIG d   1       7.107  -2.398  -6.073  0.00  0.00     0.073 H 
ATOM     17  H   LIG d   1       7.550  -0.688  -6.316  0.00  0.00     0.073 H 
ENDROOT
BRANCH   9  18
ATOM     18  C   LIG d   1       5.729  -0.867  -4.269  0.00  0.00     0.001 C 
ATOM     19  H   LIG d   1       5.603   0.105  -4.743  0.00  0.00     0.031 H 
ATOM     20  H   LIG d   1       5.175  -1.620  -4.830  0.00  0.00     0.031 H 
BRANCH  18  21
ATOM     21  C   LIG d   1       5.202  -0.809  -2.835  0.00  0.00     0.041 C 
ATOM     22  H   LIG d   1       5.848  -1.401  -2.186  0.00  0.00     0.042 H 
BRANCH  21  23
ATOM     23  C   LIG d   1       5.189   0.621  -2.362  0.00  0.00     0.050 C 
ATOM     24  O   LIG d   1       4.764   0.891  -1.264  0.00  0.00    -0.549 OA
ATOM     25  O   LIG d   1       5.650   1.596  -3.161  0.00  0.00    -0.549 OA
ENDBRANCH  21  23
BRANCH  21  26
ATOM     26  C   LIG d   1       3.803  -1.365  -2.791  0.00  0.00     0.050 C 
ATOM     27  O   LIG d   1       3.597  -2.448  -2.295  0.00  0.00    -0.549 OA
ATOM     28  O   LIG d   1       2.782  -0.658  -3.304  0.00  0.00    -0.549 OA
ENDBRANCH  21  26
ENDBRANCH  18  21
ENDBRANCH   9  18
TORSDOF 4
ENDMDL
MODEL 10
REMARK VINA RESULT:      -5.0      3.412      4.798
REMARK  4 active torsions:
REMARK  status: ('A' for Active; 'I' for Inactive)
REMARK    1  A    between atoms: C_9  and  C_12 
REMARK    2  A    between atoms: C_12  and  C_13 
REMARK    3  A    between atoms: C_13  and  C_14 
REMARK    4  A    between atoms: C_13  and  C_16 
ROOT
ATOM      1  C   LIG d   1      10.055   3.454  -4.922  0.00  0.00    -0.058 A 
ATOM      2  C   LIG d   1       9.758   3.192  -6.247  0.00  0.00    -0.058 A 
ATOM      3  C   LIG d   1       8.746   2.306  -6.568  0.00  0.00    -0.016 A 
ATOM      4  C   LIG d   1       8.026   1.680  -5.561  0.00  0.00     0.163 A 
ATOM      5  C   LIG d   1       8.327   1.942  -4.230  0.00  0.00     0.162 A 
ATOM      6  C   LIG d   1       9.343   2.832  -3.915  0.00  0.00    -0.016 A 
ATOM      7  O   LIG d   1       7.637   1.335  -3.227  0.00  0.00    -0.485 OA
ATOM      8  C   LIG d   1       6.381   0.738  -3.578  0.00  0.00     0.127 C 
ATOM      9  C   LIG d   1       6.581  -0.075  -4.863  0.00  0.00     0.135 C 
ATOM     10  H   LIG d   1       7.329  -0.851  -4.695  0.00  0.00     0.077 H 
ATOM     11  O   LIG d   1       7.030   0.813  -5.892  0.00  0.00    -0.482 OA
ATOM     12  H   LIG d   1      10.846   4.147  -4.675  0.00  0.00     0.062 H 
ATOM     13  H   LIG d   1      10.317   3.678  -7.032  0.00  0.00     0.062 H 
ATOM     14  H   LIG d   1       8.516   2.102  -7.603  0.00  0.00     0.066 H 
ATOM     15  H   LIG d   1       9.577   3.040  -2.881  0.00  0.00     0.066 H 
ATOM     16  H   LIG d   1       5.639   1.518  -3.747  0.00  0.00     0.073 H 
ATOM     17  H   LIG d   1       6.048   0.081  -2.774  0.00  0.00     0.073 H 
ENDROOT
BRANCH   9  18
ATOM     18  C   LIG d   1       5.256  -0.719  -5.278  0.00  0.00     0.001 C 
ATOM     19  H   LIG d   1       5.059  -0.501  -6.327  0.00  0.00     0.031 H 
ATOM     20  H   LIG d   1       5.317  -1.798  -5.135  0.00  0.00     0.031 H 
BRANCH  18  21
ATOM     21  C   LIG d   1       4.124  -0.153  -4.418  0.00  0.00     0.041 C 
ATOM     22  H   LIG d   1       4.528   0.584  -3.724  0.00  0.00     0.042 H 
BRANCH  21  23
ATOM     23  C   LIG d   1       3.097   0.500  -5.306  0.00  0.00     0.050 C 
ATOM     24  O   LIG d   1       2.525   1.497  -4.935  0.00  0.00    -0.549 OA
ATOM     25  O   LIG d   1       2.818  -0.026  -6.509  0.00  0.00    -0.549 OA
ENDBRANCH  21  23
BRANCH  21  26
ATOM     26  C   LIG d   1       3.478  -1.271  -3.641  0.00  0.00     0.050 C 
ATOM     27  O   LIG d   1       3.870  -2.406  -3.776  0.00  0.00    -0.549 OA
ATOM     28  O   LIG d   1       2.466  -1.006  -2.798  0.00  0.00    -0.549 OA
ENDBRANCH  21  26
ENDBRANCH  18  21
ENDBRANCH   9  18
TORSDOF 4
ENDMDL
