MODEL 1
REMARK VINA RESULT:      -6.0      0.000      0.000
REMARK  5 active torsions:
REMARK  status: ('A' for Active; 'I' for Inactive)
REMARK    1  A    between atoms: C_1  and  C_2 
REMARK    2  A    between atoms: C_2  and  O_4 
REMARK    3  A    between atoms: O_4  and  C_5 
REMARK    4  A    between atoms: C_5  and  C_28 
REMARK    5  A    between atoms: C_10  and  C_27 
ROOT
ATOM      1  C   LIG d   1       4.425  -1.529  -3.020  0.00  0.00    -0.058 C 
ATOM      2  C   LIG d   1       3.944  -1.881  -2.008  0.00  0.00    -0.115 C 
ATOM      3  H   LIG d   1       3.513  -2.196  -1.104  0.00  0.00     0.123 H 
ENDROOT
BRANCH   1   4
ATOM      4  C   LIG d   1       5.026  -1.089  -4.283  0.00  0.00     0.178 C 
ATOM      5  C   LIG d   1       6.425  -1.679  -4.501  0.00  0.00     0.022 C 
ATOM      6  C   LIG d   1       6.086  -3.116  -4.950  0.00  0.00    -0.028 C 
ATOM      7  C   LIG d   1       7.359  -1.696  -3.317  0.00  0.00    -0.043 C 
ATOM      8  C   LIG d   1       4.999  -2.873  -6.014  0.00  0.00    -0.045 C 
ATOM      9  H   LIG d   1       5.665  -3.698  -4.121  0.00  0.00     0.031 H 
ATOM     10  C   LIG d   1       7.323  -3.826  -5.496  0.00  0.00    -0.034 C 
ATOM     11  C   LIG d   1       4.209  -1.654  -5.476  0.00  0.00    -0.001 C 
ATOM     12  H   LIG d   1       4.345  -3.746  -6.089  0.00  0.00     0.027 H 
ATOM     13  H   LIG d   1       5.440  -2.658  -6.985  0.00  0.00     0.027 H 
ATOM     14  H   LIG d   1       4.109  -0.897  -6.252  0.00  0.00     0.031 H 
ATOM     15  H   LIG d   1       3.224  -1.970  -5.133  0.00  0.00     0.031 H 
ATOM     16  C   LIG d   1       8.484  -3.534  -4.574  0.00  0.00    -0.031 C 
ATOM     17  H   LIG d   1       7.551  -3.447  -6.495  0.00  0.00     0.031 H 
ATOM     18  C   LIG d   1       6.972  -5.302  -5.619  0.00  0.00    -0.046 C 
ATOM     19  C   LIG d   1       7.986  -3.099  -3.197  0.00  0.00    -0.049 C 
ATOM     20  H   LIG d   1       8.951  -2.624  -4.988  0.00  0.00     0.031 H 
ATOM     21  C   LIG d   1       9.611  -4.523  -4.524  0.00  0.00    -0.016 C 
ATOM     22  H   LIG d   1       8.813  -3.052  -2.490  0.00  0.00     0.027 H 
ATOM     23  H   LIG d   1       7.239  -3.805  -2.838  0.00  0.00     0.027 H 
ATOM     24  C   LIG d   1       9.232  -5.928  -4.852  0.00  0.00    -0.063 C 
ATOM     25  C   LIG d   1      10.407  -4.416  -3.233  0.00  0.00    -0.039 C 
ATOM     26  H   LIG d   1      10.305  -4.218  -5.317  0.00  0.00     0.035 H 
ATOM     27  C   LIG d   1       8.183  -6.168  -5.919  0.00  0.00    -0.031 C 
ATOM     28  C   LIG d   1       9.763  -6.989  -4.245  0.00  0.00    -0.020 C 
ATOM     29  H   LIG d   1       7.893  -7.221  -5.909  0.00  0.00     0.031 H 
ATOM     30  H   LIG d   1       8.589  -5.917  -6.900  0.00  0.00     0.031 H 
ATOM     31  C   LIG d   1      10.875  -6.831  -3.301  0.00  0.00     0.156 C 
ATOM     32  H   LIG d   1       9.405  -7.981  -4.487  0.00  0.00     0.065 H 
ATOM     33  O   LIG d   1      11.262  -7.761  -2.621  0.00  0.00    -0.293 OA
ATOM     34  C   LIG d   1      11.521  -5.465  -3.200  0.00  0.00     0.010 C 
ATOM     35  H   LIG d   1      12.033  -5.402  -2.343  0.00  0.00     0.035 H 
ATOM     36  H   LIG d   1      12.198  -5.312  -4.041  0.00  0.00     0.035 H 
ATOM     37  H   LIG d   1       9.745  -4.585  -2.385  0.00  0.00     0.028 H 
ATOM     38  H   LIG d   1      10.848  -3.425  -3.165  0.00  0.00     0.028 H 
ATOM     39  H   LIG d   1       6.522  -5.631  -4.678  0.00  0.00     0.027 H 
ATOM     40  H   LIG d   1       6.234  -5.426  -6.413  0.00  0.00     0.027 H 
ATOM     41  H   LIG d   1       8.167  -0.967  -3.478  0.00  0.00     0.027 H 
ATOM     42  H   LIG d   1       6.856  -1.442  -2.388  0.00  0.00     0.027 H 
BRANCH   4  43
ATOM     43  O   LIG d   1       5.072   0.359  -4.352  0.00  0.00    -0.445 OA
BRANCH  43  44
ATOM     44  C   LIG d   1       4.927   1.029  -3.199  0.00  0.00     0.305 C 
ATOM     45  O   LIG d   1       5.880   1.201  -2.476  0.00  0.00    -0.251 OA
BRANCH  44  46
ATOM     46  C   LIG d   1       3.576   1.567  -2.806  0.00  0.00     0.033 C 
ATOM     47  H   LIG d   1       2.921   1.576  -3.677  0.00  0.00     0.034 H 
ATOM     48  H   LIG d   1       3.142   0.932  -2.033  0.00  0.00     0.034 H 
ATOM     49  H   LIG d   1       3.685   2.581  -2.422  0.00  0.00     0.034 H 
ENDBRANCH  44  46
ENDBRANCH  43  44
ENDBRANCH   4  43
BRANCH   5  50
ATOM     50  C   LIG d   1       7.081  -0.897  -5.652  0.00  0.00    -0.055 C 
ATOM     51  H   LIG d   1       7.581  -1.593  -6.326  0.00  0.00     0.024 H 
ATOM     52  H   LIG d   1       6.316  -0.347  -6.201  0.00  0.00     0.024 H 
ATOM     53  H   LIG d   1       7.812  -0.197  -5.247  0.00  0.00     0.024 H 
ENDBRANCH   5  50
ENDBRANCH   1   4
TORSDOF 5
ENDMDL
MODEL 2
REMARK VINA RESULT:      -5.9      2.723      4.595
REMARK  5 active torsions:
REMARK  status: ('A' for Active; 'I' for Inactive)
REMARK    1  A    between atoms: C_1  and  C_2 
REMARK    2  A    between atoms: C_2  and  O_4 
REMARK    3  A    between atoms: O_4  and  C_5 
REMARK    4  A    between atoms: C_5  and  C_28 
REMARK    5  A    between atoms: C_10  and  C_27 
ROOT
ATOM      1  C   LIG d   1       6.618  -0.003  -5.793  0.00  0.00    -0.058 C 
ATOM      2  C   LIG d   1       7.163   0.466  -6.722  0.00  0.00    -0.115 C 
ATOM      3  H   LIG d   1       7.650   0.886  -7.551  0.00  0.00     0.123 H 
ENDROOT
BRANCH   1   4
ATOM      4  C   LIG d   1       5.937  -0.590  -4.635  0.00  0.00     0.178 C 
ATOM      5  C   LIG d   1       5.282  -1.938  -4.962  0.00  0.00     0.022 C 
ATOM      6  C   LIG d   1       6.502  -2.882  -4.954  0.00  0.00    -0.028 C 
ATOM      7  C   LIG d   1       4.534  -2.044  -6.267  0.00  0.00    -0.043 C 
ATOM      8  C   LIG d   1       7.211  -2.482  -3.646  0.00  0.00    -0.045 C 
ATOM      9  H   LIG d   1       7.162  -2.680  -5.806  0.00  0.00     0.031 H 
ATOM     10  C   LIG d   1       6.065  -4.345  -4.985  0.00  0.00    -0.034 C 
ATOM     11  C   LIG d   1       6.979  -0.953  -3.543  0.00  0.00    -0.001 C 
ATOM     12  H   LIG d   1       8.281  -2.699  -3.716  0.00  0.00     0.027 H 
ATOM     13  H   LIG d   1       6.784  -3.002  -2.792  0.00  0.00     0.027 H 
ATOM     14  H   LIG d   1       6.594  -0.696  -2.558  0.00  0.00     0.031 H 
ATOM     15  H   LIG d   1       7.911  -0.421  -3.731  0.00  0.00     0.031 H 
ATOM     16  C   LIG d   1       4.956  -4.488  -6.000  0.00  0.00    -0.031 C 
ATOM     17  H   LIG d   1       5.692  -4.635  -4.000  0.00  0.00     0.031 H 
ATOM     18  C   LIG d   1       7.304  -5.176  -5.284  0.00  0.00    -0.046 C 
ATOM     19  C   LIG d   1       4.978  -3.328  -6.994  0.00  0.00    -0.049 C 
ATOM     20  H   LIG d   1       4.026  -4.329  -5.427  0.00  0.00     0.031 H 
ATOM     21  C   LIG d   1       4.755  -5.829  -6.642  0.00  0.00    -0.016 C 
ATOM     22  H   LIG d   1       4.292  -3.518  -7.818  0.00  0.00     0.027 H 
ATOM     23  H   LIG d   1       5.987  -3.199  -7.383  0.00  0.00     0.027 H 
ATOM     24  C   LIG d   1       5.979  -6.678  -6.725  0.00  0.00    -0.063 C 
ATOM     25  C   LIG d   1       4.024  -5.722  -7.971  0.00  0.00    -0.039 C 
ATOM     26  H   LIG d   1       4.070  -6.373  -5.979  0.00  0.00     0.035 H 
ATOM     27  C   LIG d   1       6.976  -6.628  -5.585  0.00  0.00    -0.031 C 
ATOM     28  C   LIG d   1       6.247  -7.474  -7.758  0.00  0.00    -0.020 C 
ATOM     29  H   LIG d   1       7.886  -7.156  -5.878  0.00  0.00     0.031 H 
ATOM     30  H   LIG d   1       6.553  -7.107  -4.701  0.00  0.00     0.031 H 
ATOM     31  C   LIG d   1       5.263  -7.668  -8.828  0.00  0.00     0.156 C 
ATOM     32  H   LIG d   1       7.180  -8.022  -7.786  0.00  0.00     0.065 H 
ATOM     33  O   LIG d   1       5.550  -8.259  -9.851  0.00  0.00    -0.293 OA
ATOM     34  C   LIG d   1       3.874  -7.103  -8.614  0.00  0.00     0.010 C 
ATOM     35  H   LIG d   1       3.407  -7.028  -9.495  0.00  0.00     0.035 H 
ATOM     36  H   LIG d   1       3.304  -7.758  -7.955  0.00  0.00     0.035 H 
ATOM     37  H   LIG d   1       4.593  -5.084  -8.646  0.00  0.00     0.028 H 
ATOM     38  H   LIG d   1       3.038  -5.297  -7.805  0.00  0.00     0.028 H 
ATOM     39  H   LIG d   1       7.815  -4.739  -6.147  0.00  0.00     0.027 H 
ATOM     40  H   LIG d   1       7.979  -5.128  -4.428  0.00  0.00     0.027 H 
ATOM     41  H   LIG d   1       3.455  -2.114  -6.066  0.00  0.00     0.027 H 
ATOM     42  H   LIG d   1       4.701  -1.185  -6.912  0.00  0.00     0.027 H 
BRANCH   4  43
ATOM     43  O   LIG d   1       4.954   0.331  -4.097  0.00  0.00    -0.445 OA
BRANCH  43  44
ATOM     44  C   LIG d   1       5.313   1.045  -3.019  0.00  0.00     0.305 C 
ATOM     45  O   LIG d   1       6.191   1.871  -3.107  0.00  0.00    -0.251 OA
BRANCH  44  46
ATOM     46  C   LIG d   1       4.623   0.816  -1.700  0.00  0.00     0.033 C 
ATOM     47  H   LIG d   1       4.689   1.720  -1.093  0.00  0.00     0.034 H 
ATOM     48  H   LIG d   1       3.574   0.574  -1.875  0.00  0.00     0.034 H 
ATOM     49  H   LIG d   1       5.103  -0.010  -1.176  0.00  0.00     0.034 H 
ENDBRANCH  44  46
ENDBRANCH  43  44
ENDBRANCH   4  43
BRANCH   5  50
ATOM     50  C   LIG d   1       4.329  -2.282  -3.803  0.00  0.00    -0.055 C 
ATOM     51  H   LIG d   1       3.955  -1.361  -3.355  0.00  0.00     0.024 H 
ATOM     52  H   LIG d   1       3.491  -2.867  -4.183  0.00  0.00     0.024 H 
ATOM     53  H   LIG d   1       4.865  -2.860  -3.050  0.00  0.00     0.024 H 
ENDBRANCH   5  50
ENDBRANCH   1   4
TORSDOF 5
ENDMDL
MODEL 3
REMARK VINA RESULT:      -5.9      4.639      7.664
REMARK  5 active torsions:
REMARK  status: ('A' for Active; 'I' for Inactive)
REMARK    1  A    between atoms: C_1  and  C_2 
REMARK    2  A    between atoms: C_2  and  O_4 
REMARK    3  A    between atoms: O_4  and  C_5 
REMARK    4  A    between atoms: C_5  and  C_28 
REMARK    5  A    between atoms: C_10  and  C_27 
ROOT
ATOM      1  C   LIG d   1       6.188  -0.326 -10.125  0.00  0.00    -0.058 C 
ATOM      2  C   LIG d   1       7.133   0.370 -10.175  0.00  0.00    -0.115 C 
ATOM      3  H   LIG d   1       7.978   0.992 -10.219  0.00  0.00     0.123 H 
ENDROOT
BRANCH   1   4
ATOM      4  C   LIG d   1       5.008  -1.194 -10.063  0.00  0.00     0.178 C 
ATOM      5  C   LIG d   1       4.590  -1.509  -8.621  0.00  0.00     0.022 C 
ATOM      6  C   LIG d   1       3.877  -0.203  -8.215  0.00  0.00    -0.028 C 
ATOM      7  C   LIG d   1       5.686  -1.845  -7.642  0.00  0.00    -0.043 C 
ATOM      8  C   LIG d   1       2.952   0.048  -9.421  0.00  0.00    -0.045 C 
ATOM      9  H   LIG d   1       4.592   0.623  -8.122  0.00  0.00     0.031 H 
ATOM     10  C   LIG d   1       3.123  -0.375  -6.898  0.00  0.00    -0.034 C 
ATOM     11  C   LIG d   1       3.776  -0.445 -10.638  0.00  0.00    -0.001 C 
ATOM     12  H   LIG d   1       2.739   1.117  -9.516  0.00  0.00     0.027 H 
ATOM     13  H   LIG d   1       2.022  -0.507  -9.326  0.00  0.00     0.027 H 
ATOM     14  H   LIG d   1       3.179  -1.122 -11.248  0.00  0.00     0.031 H 
ATOM     15  H   LIG d   1       4.105   0.405 -11.235  0.00  0.00     0.031 H 
ATOM     16  C   LIG d   1       4.014  -1.127  -5.936  0.00  0.00    -0.031 C 
ATOM     17  H   LIG d   1       2.212  -0.952  -7.071  0.00  0.00     0.031 H 
ATOM     18  C   LIG d   1       2.720   1.015  -6.428  0.00  0.00    -0.046 C 
ATOM     19  C   LIG d   1       5.478  -1.019  -6.357  0.00  0.00    -0.049 C 
ATOM     20  H   LIG d   1       3.768  -2.190  -6.097  0.00  0.00     0.031 H 
ATOM     21  C   LIG d   1       3.792  -0.927  -4.466  0.00  0.00    -0.016 C 
ATOM     22  H   LIG d   1       6.128  -1.415  -5.578  0.00  0.00     0.027 H 
ATOM     23  H   LIG d   1       5.729   0.023  -6.547  0.00  0.00     0.027 H 
ATOM     24  C   LIG d   1       3.205   0.393  -4.090  0.00  0.00    -0.063 C 
ATOM     25  C   LIG d   1       5.026  -1.274  -3.650  0.00  0.00    -0.039 C 
ATOM     26  H   LIG d   1       3.037  -1.670  -4.178  0.00  0.00     0.035 H 
ATOM     27  C   LIG d   1       2.177   1.019  -5.010  0.00  0.00    -0.031 C 
ATOM     28  C   LIG d   1       3.548   1.058  -2.988  0.00  0.00    -0.020 C 
ATOM     29  H   LIG d   1       1.988   2.047  -4.693  0.00  0.00     0.031 H 
ATOM     30  H   LIG d   1       1.246   0.453  -4.965  0.00  0.00     0.031 H 
ATOM     31  C   LIG d   1       4.436   0.447  -1.993  0.00  0.00     0.156 C 
ATOM     32  H   LIG d   1       3.130   2.038  -2.800  0.00  0.00     0.065 H 
ATOM     33  O   LIG d   1       4.886   1.094  -1.067  0.00  0.00    -0.293 OA
ATOM     34  C   LIG d   1       4.776  -1.019  -2.162  0.00  0.00     0.010 C 
ATOM     35  H   LIG d   1       5.595  -1.234  -1.629  0.00  0.00     0.035 H 
ATOM     36  H   LIG d   1       3.945  -1.635  -1.816  0.00  0.00     0.035 H 
ATOM     37  H   LIG d   1       5.860  -0.652  -3.974  0.00  0.00     0.028 H 
ATOM     38  H   LIG d   1       5.270  -2.323  -3.796  0.00  0.00     0.028 H 
ATOM     39  H   LIG d   1       3.599   1.666  -6.476  0.00  0.00     0.027 H 
ATOM     40  H   LIG d   1       1.964   1.414  -7.106  0.00  0.00     0.027 H 
ATOM     41  H   LIG d   1       5.630  -2.912  -7.381  0.00  0.00     0.027 H 
ATOM     42  H   LIG d   1       6.676  -1.648  -8.044  0.00  0.00     0.027 H 
BRANCH   4  43
ATOM     43  O   LIG d   1       5.235  -2.421 -10.802  0.00  0.00    -0.445 OA
BRANCH  43  44
ATOM     44  C   LIG d   1       5.045  -2.376 -12.130  0.00  0.00     0.305 C 
ATOM     45  O   LIG d   1       5.894  -1.900 -12.846  0.00  0.00    -0.251 OA
BRANCH  44  46
ATOM     46  C   LIG d   1       3.773  -2.919 -12.727  0.00  0.00     0.033 C 
ATOM     47  H   LIG d   1       3.025  -3.038 -11.943  0.00  0.00     0.034 H 
ATOM     48  H   LIG d   1       3.400  -2.226 -13.482  0.00  0.00     0.034 H 
ATOM     49  H   LIG d   1       3.971  -3.886 -13.189  0.00  0.00     0.034 H 
ENDBRANCH  44  46
ENDBRANCH  43  44
ENDBRANCH   4  43
BRANCH   5  50
ATOM     50  C   LIG d   1       3.586  -2.675  -8.676  0.00  0.00    -0.055 C 
ATOM     51  H   LIG d   1       3.996  -3.479  -9.288  0.00  0.00     0.024 H 
ATOM     52  H   LIG d   1       3.402  -3.044  -7.667  0.00  0.00     0.024 H 
ATOM     53  H   LIG d   1       2.649  -2.329  -9.112  0.00  0.00     0.024 H 
ENDBRANCH   5  50
ENDBRANCH   1   4
TORSDOF 5
ENDMDL
MODEL 4
REMARK VINA RESULT:      -5.8      9.440     12.388
REMARK  5 active torsions:
REMARK  status: ('A' for Active; 'I' for Inactive)
REMARK    1  A    between atoms: C_1  and  C_2 
REMARK    2  A    between atoms: C_2  and  O_4 
REMARK    3  A    between atoms: O_4  and  C_5 
REMARK    4  A    between atoms: C_5  and  C_28 
REMARK    5  A    between atoms: C_10  and  C_27 
ROOT
ATOM      1  C   LIG d   1      12.890   8.300  -0.417  0.00  0.00    -0.058 C 
ATOM      2  C   LIG d   1      14.022   8.449  -0.694  0.00  0.00    -0.115 C 
ATOM      3  H   LIG d   1      15.033   8.583  -0.942  0.00  0.00     0.123 H 
ENDROOT
BRANCH   1   4
ATOM      4  C   LIG d   1      11.478   8.113  -0.071  0.00  0.00     0.178 C 
ATOM      5  C   LIG d   1      10.568   8.113  -1.306  0.00  0.00     0.022 C 
ATOM      6  C   LIG d   1      10.809   6.695  -1.865  0.00  0.00    -0.028 C 
ATOM      7  C   LIG d   1      10.838   9.155  -2.362  0.00  0.00    -0.043 C 
ATOM      8  C   LIG d   1      10.668   5.823  -0.603  0.00  0.00    -0.045 C 
ATOM      9  H   LIG d   1      11.824   6.597  -2.268  0.00  0.00     0.031 H 
ATOM     10  C   LIG d   1       9.794   6.355  -2.954  0.00  0.00    -0.034 C 
ATOM     11  C   LIG d   1      11.268   6.696   0.528  0.00  0.00    -0.001 C 
ATOM     12  H   LIG d   1      11.245   4.901  -0.716  0.00  0.00     0.027 H 
ATOM     13  H   LIG d   1       9.626   5.584  -0.404  0.00  0.00     0.027 H 
ATOM     14  H   LIG d   1      10.580   6.745   1.371  0.00  0.00     0.031 H 
ATOM     15  H   LIG d   1      12.225   6.285   0.849  0.00  0.00     0.031 H 
ATOM     16  C   LIG d   1       9.652   7.554  -3.863  0.00  0.00    -0.031 C 
ATOM     17  H   LIG d   1       8.827   6.133  -2.496  0.00  0.00     0.031 H 
ATOM     18  C   LIG d   1      10.288   5.093  -3.648  0.00  0.00    -0.046 C 
ATOM     19  C   LIG d   1      10.868   8.470  -3.743  0.00  0.00    -0.049 C 
ATOM     20  H   LIG d   1       8.829   8.144  -3.424  0.00  0.00     0.031 H 
ATOM     21  C   LIG d   1       9.209   7.319  -5.277  0.00  0.00    -0.016 C 
ATOM     22  H   LIG d   1      10.843   9.239  -4.514  0.00  0.00     0.027 H 
ATOM     23  H   LIG d   1      11.780   7.884  -3.842  0.00  0.00     0.027 H 
ATOM     24  C   LIG d   1       9.556   5.978  -5.832  0.00  0.00    -0.063 C 
ATOM     25  C   LIG d   1       9.615   8.458  -6.198  0.00  0.00    -0.039 C 
ATOM     26  H   LIG d   1       8.113   7.346  -5.251  0.00  0.00     0.035 H 
ATOM     27  C   LIG d   1       9.507   4.776  -4.911  0.00  0.00    -0.031 C 
ATOM     28  C   LIG d   1       9.918   5.783  -7.099  0.00  0.00    -0.020 C 
ATOM     29  H   LIG d   1       9.957   3.917  -5.414  0.00  0.00     0.031 H 
ATOM     30  H   LIG d   1       8.471   4.543  -4.661  0.00  0.00     0.031 H 
ATOM     31  C   LIG d   1       9.857   6.880  -8.071  0.00  0.00     0.156 C 
ATOM     32  H   LIG d   1      10.213   4.795  -7.427  0.00  0.00     0.065 H 
ATOM     33  O   LIG d   1      10.333   6.764  -9.184  0.00  0.00    -0.293 OA
ATOM     34  C   LIG d   1       9.184   8.165  -7.637  0.00  0.00     0.010 C 
ATOM     35  H   LIG d   1       9.465   8.909  -8.244  0.00  0.00     0.035 H 
ATOM     36  H   LIG d   1       8.100   8.049  -7.682  0.00  0.00     0.035 H 
ATOM     37  H   LIG d   1      10.698   8.572  -6.176  0.00  0.00     0.028 H 
ATOM     38  H   LIG d   1       9.141   9.376  -5.863  0.00  0.00     0.028 H 
ATOM     39  H   LIG d   1      11.343   5.230  -3.905  0.00  0.00     0.027 H 
ATOM     40  H   LIG d   1      10.212   4.254  -2.955  0.00  0.00     0.027 H 
ATOM     41  H   LIG d   1      10.026   9.897  -2.360  0.00  0.00     0.027 H 
ATOM     42  H   LIG d   1      11.774   9.680  -2.197  0.00  0.00     0.027 H 
BRANCH   4  43
ATOM     43  O   LIG d   1      11.043   9.123   0.875  0.00  0.00    -0.445 OA
BRANCH  43  44
ATOM     44  C   LIG d   1      11.793   9.290   1.975  0.00  0.00     0.305 C 
ATOM     45  O   LIG d   1      11.793   8.446   2.841  0.00  0.00    -0.251 OA
BRANCH  44  46
ATOM     46  C   LIG d   1      12.635  10.530   2.131  0.00  0.00     0.033 C 
ATOM     47  H   LIG d   1      12.024  11.411   1.935  0.00  0.00     0.034 H 
ATOM     48  H   LIG d   1      13.025  10.579   3.149  0.00  0.00     0.034 H 
ATOM     49  H   LIG d   1      13.465  10.498   1.426  0.00  0.00     0.034 H 
ENDBRANCH  44  46
ENDBRANCH  43  44
ENDBRANCH   4  43
BRANCH   5  50
ATOM     50  C   LIG d   1       9.118   8.257  -0.812  0.00  0.00    -0.055 C 
ATOM     51  H   LIG d   1       8.432   8.019  -1.625  0.00  0.00     0.024 H 
ATOM     52  H   LIG d   1       8.947   7.572   0.020  0.00  0.00     0.024 H 
ATOM     53  H   LIG d   1       8.946   9.281  -0.481  0.00  0.00     0.024 H 
ENDBRANCH   5  50
ENDBRANCH   1   4
TORSDOF 5
ENDMDL
MODEL 5
REMARK VINA RESULT:      -5.8      3.080      4.096
REMARK  5 active torsions:
REMARK  status: ('A' for Active; 'I' for Inactive)
REMARK    1  A    between atoms: C_1  and  C_2 
REMARK    2  A    between atoms: C_2  and  O_4 
REMARK    3  A    between atoms: O_4  and  C_5 
REMARK    4  A    between atoms: C_5  and  C_28 
REMARK    5  A    between atoms: C_10  and  C_27 
ROOT
ATOM      1  C   LIG d   1       4.214  -0.257  -4.711  0.00  0.00    -0.058 C 
ATOM      2  C   LIG d   1       3.111  -0.015  -5.036  0.00  0.00    -0.115 C 
ATOM      3  H   LIG d   1       2.126   0.202  -5.327  0.00  0.00     0.123 H 
ENDROOT
BRANCH   1   4
ATOM      4  C   LIG d   1       5.590  -0.559  -4.305  0.00  0.00     0.178 C 
ATOM      5  C   LIG d   1       5.925  -2.050  -4.440  0.00  0.00     0.022 C 
ATOM      6  C   LIG d   1       6.150  -2.179  -5.961  0.00  0.00    -0.028 C 
ATOM      7  C   LIG d   1       4.885  -3.036  -3.969  0.00  0.00    -0.043 C 
ATOM      8  C   LIG d   1       7.078  -0.984  -6.251  0.00  0.00    -0.045 C 
ATOM      9  H   LIG d   1       5.209  -2.054  -6.510  0.00  0.00     0.031 H 
ATOM     10  C   LIG d   1       6.771  -3.529  -6.311  0.00  0.00    -0.034 C 
ATOM     11  C   LIG d   1       6.585   0.122  -5.283  0.00  0.00    -0.001 C 
ATOM     12  H   LIG d   1       6.960  -0.659  -7.289  0.00  0.00     0.027 H 
ATOM     13  H   LIG d   1       8.119  -1.237  -6.060  0.00  0.00     0.027 H 
ATOM     14  H   LIG d   1       7.425   0.540  -4.729  0.00  0.00     0.031 H 
ATOM     15  H   LIG d   1       6.077   0.907  -5.841  0.00  0.00     0.031 H 
ATOM     16  C   LIG d   1       6.057  -4.600  -5.520  0.00  0.00    -0.031 C 
ATOM     17  H   LIG d   1       7.830  -3.525  -6.040  0.00  0.00     0.031 H 
ATOM     18  C   LIG d   1       6.671  -3.688  -7.822  0.00  0.00    -0.046 C 
ATOM     19  C   LIG d   1       4.687  -4.109  -5.059  0.00  0.00    -0.049 C 
ATOM     20  H   LIG d   1       6.636  -4.692  -4.585  0.00  0.00     0.031 H 
ATOM     21  C   LIG d   1       6.044  -5.995  -6.073  0.00  0.00    -0.016 C 
ATOM     22  H   LIG d   1       4.109  -4.930  -4.638  0.00  0.00     0.027 H 
ATOM     23  H   LIG d   1       4.148  -3.679  -5.902  0.00  0.00     0.027 H 
ATOM     24  C   LIG d   1       6.149  -6.085  -7.558  0.00  0.00    -0.063 C 
ATOM     25  C   LIG d   1       4.896  -6.819  -5.514  0.00  0.00    -0.039 C 
ATOM     26  H   LIG d   1       6.955  -6.471  -5.689  0.00  0.00     0.035 H 
ATOM     27  C   LIG d   1       7.028  -5.089  -8.287  0.00  0.00    -0.031 C 
ATOM     28  C   LIG d   1       5.500  -6.995  -8.282  0.00  0.00    -0.020 C 
ATOM     29  H   LIG d   1       6.855  -5.173  -9.362  0.00  0.00     0.031 H 
ATOM     30  H   LIG d   1       8.078  -5.297  -8.075  0.00  0.00     0.031 H 
ATOM     31  C   LIG d   1       4.741  -8.067  -7.629  0.00  0.00     0.156 C 
ATOM     32  H   LIG d   1       5.571  -6.973  -9.362  0.00  0.00     0.065 H 
ATOM     33  O   LIG d   1       4.014  -8.805  -8.266  0.00  0.00    -0.293 OA
ATOM     34  C   LIG d   1       4.891  -8.220  -6.130  0.00  0.00     0.010 C 
ATOM     35  H   LIG d   1       4.125  -8.755  -5.772  0.00  0.00     0.035 H 
ATOM     36  H   LIG d   1       5.828  -8.728  -5.901  0.00  0.00     0.035 H 
ATOM     37  H   LIG d   1       3.952  -6.331  -5.752  0.00  0.00     0.028 H 
ATOM     38  H   LIG d   1       5.006  -6.903  -4.436  0.00  0.00     0.028 H 
ATOM     39  H   LIG d   1       5.645  -3.461  -8.127  0.00  0.00     0.027 H 
ATOM     40  H   LIG d   1       7.337  -2.968  -8.300  0.00  0.00     0.027 H 
ATOM     41  H   LIG d   1       5.240  -3.532  -3.054  0.00  0.00     0.027 H 
ATOM     42  H   LIG d   1       3.933  -2.562  -3.748  0.00  0.00     0.027 H 
BRANCH   4  43
ATOM     43  O   LIG d   1       5.836  -0.107  -2.949  0.00  0.00    -0.445 OA
BRANCH  43  44
ATOM     44  C   LIG d   1       4.770   0.003  -2.141  0.00  0.00     0.305 C 
ATOM     45  O   LIG d   1       4.323  -0.977  -1.593  0.00  0.00    -0.251 OA
BRANCH  44  46
ATOM     46  C   LIG d   1       4.131   1.349  -1.917  0.00  0.00     0.033 C 
ATOM     47  H   LIG d   1       3.131   1.212  -1.503  0.00  0.00     0.034 H 
ATOM     48  H   LIG d   1       4.736   1.927  -1.219  0.00  0.00     0.034 H 
ATOM     49  H   LIG d   1       4.062   1.881  -2.865  0.00  0.00     0.034 H 
ENDBRANCH  44  46
ENDBRANCH  43  44
ENDBRANCH   4  43
BRANCH   5  50
ATOM     50  C   LIG d   1       7.239  -2.298  -3.678  0.00  0.00    -0.055 C 
ATOM     51  H   LIG d   1       7.226  -1.742  -2.740  0.00  0.00     0.024 H 
ATOM     52  H   LIG d   1       7.342  -3.363  -3.468  0.00  0.00     0.024 H 
ATOM     53  H   LIG d   1       8.080  -1.965  -4.286  0.00  0.00     0.024 H 
ENDBRANCH   5  50
ENDBRANCH   1   4
TORSDOF 5
ENDMDL
MODEL 6
REMARK VINA RESULT:      -5.6      3.299      6.345
REMARK  5 active torsions:
REMARK  status: ('A' for Active; 'I' for Inactive)
REMARK    1  A    between atoms: C_1  and  C_2 
REMARK    2  A    between atoms: C_2  and  O_4 
REMARK    3  A    between atoms: O_4  and  C_5 
REMARK    4  A    between atoms: C_5  and  C_28 
REMARK    5  A    between atoms: C_10  and  C_27 
ROOT
ATOM      1  C   LIG d   1       6.561   0.423  -3.659  0.00  0.00    -0.058 C 
ATOM      2  C   LIG d   1       7.068   1.468  -3.827  0.00  0.00    -0.115 C 
ATOM      3  H   LIG d   1       7.522   2.404  -3.978  0.00  0.00     0.123 H 
ENDROOT
BRANCH   1   4
ATOM      4  C   LIG d   1       5.928  -0.883  -3.449  0.00  0.00     0.178 C 
ATOM      5  C   LIG d   1       5.091  -1.328  -4.656  0.00  0.00     0.022 C 
ATOM      6  C   LIG d   1       6.187  -1.810  -5.630  0.00  0.00    -0.028 C 
ATOM      7  C   LIG d   1       4.216  -0.288  -5.310  0.00  0.00    -0.043 C 
ATOM      8  C   LIG d   1       7.058  -2.697  -4.720  0.00  0.00    -0.045 C 
ATOM      9  H   LIG d   1       6.783  -0.967  -6.000  0.00  0.00     0.031 H 
ATOM     10  C   LIG d   1       5.578  -2.563  -6.810  0.00  0.00    -0.034 C 
ATOM     11  C   LIG d   1       7.019  -1.983  -3.346  0.00  0.00    -0.001 C 
ATOM     12  H   LIG d   1       8.083  -2.733  -5.100  0.00  0.00     0.027 H 
ATOM     13  H   LIG d   1       6.655  -3.705  -4.651  0.00  0.00     0.027 H 
ATOM     14  H   LIG d   1       6.761  -2.692  -2.560  0.00  0.00     0.031 H 
ATOM     15  H   LIG d   1       7.985  -1.526  -3.134  0.00  0.00     0.031 H 
ATOM     16  C   LIG d   1       4.369  -1.796  -7.291  0.00  0.00    -0.031 C 
ATOM     17  H   LIG d   1       5.268  -3.560  -6.488  0.00  0.00     0.031 H 
ATOM     18  C   LIG d   1       6.678  -2.725  -7.851  0.00  0.00    -0.046 C 
ATOM     19  C   LIG d   1       4.435  -0.340  -6.835  0.00  0.00    -0.049 C 
ATOM     20  H   LIG d   1       3.524  -2.216  -6.721  0.00  0.00     0.031 H 
ATOM     21  C   LIG d   1       3.952  -1.961  -8.723  0.00  0.00    -0.016 C 
ATOM     22  H   LIG d   1       3.657   0.247  -7.319  0.00  0.00     0.027 H 
ATOM     23  H   LIG d   1       5.411   0.077  -7.079  0.00  0.00     0.027 H 
ATOM     24  C   LIG d   1       5.054  -2.317  -9.664  0.00  0.00    -0.063 C 
ATOM     25  C   LIG d   1       3.117  -0.789  -9.213  0.00  0.00    -0.039 C 
ATOM     26  H   LIG d   1       3.274  -2.824  -8.734  0.00  0.00     0.035 H 
ATOM     27  C   LIG d   1       6.154  -3.240  -9.180  0.00  0.00    -0.031 C 
ATOM     28  C   LIG d   1       5.128  -1.853 -10.911  0.00  0.00    -0.020 C 
ATOM     29  H   LIG d   1       6.963  -3.253  -9.913  0.00  0.00     0.031 H 
ATOM     30  H   LIG d   1       5.762  -4.251  -9.060  0.00  0.00     0.031 H 
ATOM     31  C   LIG d   1       4.031  -1.065 -11.481  0.00  0.00     0.156 C 
ATOM     32  H   LIG d   1       5.983  -2.101 -11.526  0.00  0.00     0.065 H 
ATOM     33  O   LIG d   1       4.148  -0.501 -12.552  0.00  0.00    -0.293 OA
ATOM     34  C   LIG d   1       2.746  -0.973 -10.686  0.00  0.00     0.010 C 
ATOM     35  H   LIG d   1       2.209  -0.194 -11.010  0.00  0.00     0.035 H 
ATOM     36  H   LIG d   1       2.167  -1.889 -10.810  0.00  0.00     0.035 H 
ATOM     37  H   LIG d   1       3.691   0.131  -9.112  0.00  0.00     0.028 H 
ATOM     38  H   LIG d   1       2.208  -0.724  -8.621  0.00  0.00     0.028 H 
ATOM     39  H   LIG d   1       7.152  -1.751  -8.008  0.00  0.00     0.027 H 
ATOM     40  H   LIG d   1       7.431  -3.415  -7.468  0.00  0.00     0.027 H 
ATOM     41  H   LIG d   1       3.160  -0.516  -5.103  0.00  0.00     0.027 H 
ATOM     42  H   LIG d   1       4.422   0.715  -4.947  0.00  0.00     0.027 H 
BRANCH   4  43
ATOM     43  O   LIG d   1       5.116  -0.873  -2.248  0.00  0.00    -0.445 OA
BRANCH  43  44
ATOM     44  C   LIG d   1       4.516   0.285  -1.929  0.00  0.00     0.305 C 
ATOM     45  O   LIG d   1       5.046   1.047  -1.155  0.00  0.00    -0.251 OA
BRANCH  44  46
ATOM     46  C   LIG d   1       3.181   0.633  -2.535  0.00  0.00     0.033 C 
ATOM     47  H   LIG d   1       2.441   0.749  -1.743  0.00  0.00     0.034 H 
ATOM     48  H   LIG d   1       3.267   1.568  -3.091  0.00  0.00     0.034 H 
ATOM     49  H   LIG d   1       2.869  -0.163  -3.211  0.00  0.00     0.034 H 
ENDBRANCH  44  46
ENDBRANCH  43  44
ENDBRANCH   4  43
BRANCH   5  50
ATOM     50  C   LIG d   1       4.218  -2.511  -4.201  0.00  0.00    -0.055 C 
ATOM     51  H   LIG d   1       3.356  -2.602  -4.863  0.00  0.00     0.024 H 
ATOM     52  H   LIG d   1       4.803  -3.430  -4.238  0.00  0.00     0.024 H 
ATOM     53  H   LIG d   1       3.875  -2.339  -3.181  0.00  0.00     0.024 H 
ENDBRANCH   5  50
ENDBRANCH   1   4
TORSDOF 5
ENDMDL
MODEL 7
REMARK VINA RESULT:      -5.4      4.620      7.311
REMARK  5 active torsions:
REMARK  status: ('A' for Active; 'I' for Inactive)
REMARK    1  A    between atoms: C_1  and  C_2 
REMARK    2  A    between atoms: C_2  and  O_4 
REMARK    3  A    between atoms: O_4  and  C_5 
REMARK    4  A    between atoms: C_5  and  C_28 
REMARK    5  A    between atoms: C_10  and  C_27 
ROOT
ATOM      1  C   LIG d   1       9.832   4.467  -5.216  0.00  0.00    -0.058 C 
ATOM      2  C   LIG d   1       9.270   5.481  -5.031  0.00  0.00    -0.115 C 
ATOM      3  H   LIG d   1       8.767   6.388  -4.866  0.00  0.00     0.123 H 
ENDROOT
BRANCH   1   4
ATOM      4  C   LIG d   1      10.534   3.200  -5.446  0.00  0.00     0.178 C 
ATOM      5  C   LIG d   1       9.734   1.990  -4.949  0.00  0.00     0.022 C 
ATOM      6  C   LIG d   1       8.690   1.828  -6.073  0.00  0.00    -0.028 C 
ATOM      7  C   LIG d   1       9.057   2.114  -3.607  0.00  0.00    -0.043 C 
ATOM      8  C   LIG d   1       9.564   1.912  -7.339  0.00  0.00    -0.045 C 
ATOM      9  H   LIG d   1       7.972   2.657  -6.067  0.00  0.00     0.031 H 
ATOM     10  C   LIG d   1       7.941   0.504  -5.940  0.00  0.00    -0.034 C 
ATOM     11  C   LIG d   1      10.662   2.943  -6.972  0.00  0.00    -0.001 C 
ATOM     12  H   LIG d   1       8.970   2.275  -8.183  0.00  0.00     0.027 H 
ATOM     13  H   LIG d   1       9.999   0.945  -7.582  0.00  0.00     0.027 H 
ATOM     14  H   LIG d   1      11.648   2.541  -7.201  0.00  0.00     0.031 H 
ATOM     15  H   LIG d   1      10.500   3.871  -7.518  0.00  0.00     0.031 H 
ATOM     16  C   LIG d   1       7.580   0.306  -4.486  0.00  0.00    -0.031 C 
ATOM     17  H   LIG d   1       8.586  -0.316  -6.266  0.00  0.00     0.031 H 
ATOM     18  C   LIG d   1       6.747   0.569  -6.883  0.00  0.00    -0.046 C 
ATOM     19  C   LIG d   1       7.596   1.637  -3.738  0.00  0.00    -0.049 C 
ATOM     20  H   LIG d   1       8.431  -0.251  -4.058  0.00  0.00     0.031 H 
ATOM     21  C   LIG d   1       6.392  -0.552  -4.165  0.00  0.00    -0.016 C 
ATOM     22  H   LIG d   1       7.177   1.520  -2.741  0.00  0.00     0.027 H 
ATOM     23  H   LIG d   1       7.019   2.376  -4.292  0.00  0.00     0.027 H 
ATOM     24  C   LIG d   1       5.343  -0.600  -5.224  0.00  0.00    -0.063 C 
ATOM     25  C   LIG d   1       5.823  -0.246  -2.789  0.00  0.00    -0.039 C 
ATOM     26  H   LIG d   1       6.780  -1.577  -4.095  0.00  0.00     0.035 H 
ATOM     27  C   LIG d   1       5.775  -0.580  -6.676  0.00  0.00    -0.031 C 
ATOM     28  C   LIG d   1       4.039  -0.650  -4.959  0.00  0.00    -0.020 C 
ATOM     29  H   LIG d   1       4.899  -0.437  -7.312  0.00  0.00     0.031 H 
ATOM     30  H   LIG d   1       6.255  -1.525  -6.933  0.00  0.00     0.031 H 
ATOM     31  C   LIG d   1       3.562  -0.806  -3.581  0.00  0.00     0.156 C 
ATOM     32  H   LIG d   1       3.324  -0.625  -5.771  0.00  0.00     0.065 H 
ATOM     33  O   LIG d   1       2.383  -0.692  -3.304  0.00  0.00    -0.293 OA
ATOM     34  C   LIG d   1       4.591  -1.110  -2.513  0.00  0.00     0.010 C 
ATOM     35  H   LIG d   1       4.209  -0.896  -1.613  0.00  0.00     0.035 H 
ATOM     36  H   LIG d   1       4.863  -2.166  -2.550  0.00  0.00     0.035 H 
ATOM     37  H   LIG d   1       5.530   0.802  -2.744  0.00  0.00     0.028 H 
ATOM     38  H   LIG d   1       6.578  -0.450  -2.034  0.00  0.00     0.028 H 
ATOM     39  H   LIG d   1       6.223   1.515  -6.713  0.00  0.00     0.027 H 
ATOM     40  H   LIG d   1       7.107   0.558  -7.913  0.00  0.00     0.027 H 
ATOM     41  H   LIG d   1       9.568   1.467  -2.878  0.00  0.00     0.027 H 
ATOM     42  H   LIG d   1       9.075   3.131  -3.226  0.00  0.00     0.027 H 
BRANCH   4  43
ATOM     43  O   LIG d   1      11.848   3.223  -4.833  0.00  0.00    -0.445 OA
BRANCH  43  44
ATOM     44  C   LIG d   1      12.855   3.716  -5.570  0.00  0.00     0.305 C 
ATOM     45  O   LIG d   1      12.972   4.910  -5.713  0.00  0.00    -0.251 OA
BRANCH  44  46
ATOM     46  C   LIG d   1      13.842   2.780  -6.218  0.00  0.00     0.033 C 
ATOM     47  H   LIG d   1      14.088   3.145  -7.216  0.00  0.00     0.034 H 
ATOM     48  H   LIG d   1      14.749   2.732  -5.615  0.00  0.00     0.034 H 
ATOM     49  H   LIG d   1      13.405   1.785  -6.294  0.00  0.00     0.034 H 
ENDBRANCH  44  46
ENDBRANCH  43  44
ENDBRANCH   4  43
BRANCH   5  50
ATOM     50  C   LIG d   1      10.689   0.784  -4.924  0.00  0.00    -0.055 C 
ATOM     51  H   LIG d   1      11.536   1.004  -4.273  0.00  0.00     0.024 H 
ATOM     52  H   LIG d   1      10.160  -0.092  -4.547  0.00  0.00     0.024 H 
ATOM     53  H   LIG d   1      11.049   0.583  -5.933  0.00  0.00     0.024 H 
ENDBRANCH   5  50
ENDBRANCH   1   4
TORSDOF 5
ENDMDL
MODEL 8
REMARK VINA RESULT:      -5.4      2.114      7.109
REMARK  5 active torsions:
REMARK  status: ('A' for Active; 'I' for Inactive)
REMARK    1  A    between atoms: C_1  and  C_2 
REMARK    2  A    between atoms: C_2  and  O_4 
REMARK    3  A    between atoms: O_4  and  C_5 
REMARK    4  A    between atoms: C_5  and  C_28 
REMARK    5  A    between atoms: C_10  and  C_27 
ROOT
ATOM      1  C   LIG d   1       9.712  -3.486  -7.315  0.00  0.00    -0.058 C 
ATOM      2  C   LIG d   1       9.636  -2.991  -8.377  0.00  0.00    -0.115 C 
ATOM      3  H   LIG d   1       9.569  -2.549  -9.327  0.00  0.00     0.123 H 
ENDROOT
BRANCH   1   4
ATOM      4  C   LIG d   1       9.806  -4.104  -5.988  0.00  0.00     0.178 C 
ATOM      5  C   LIG d   1       9.066  -3.297  -4.914  0.00  0.00     0.022 C 
ATOM      6  C   LIG d   1       7.599  -3.686  -5.193  0.00  0.00    -0.028 C 
ATOM      7  C   LIG d   1       9.234  -1.799  -4.937  0.00  0.00    -0.043 C 
ATOM      8  C   LIG d   1       7.690  -5.219  -5.312  0.00  0.00    -0.045 C 
ATOM      9  H   LIG d   1       7.254  -3.264  -6.145  0.00  0.00     0.031 H 
ATOM     10  C   LIG d   1       6.683  -3.218  -4.065  0.00  0.00    -0.034 C 
ATOM     11  C   LIG d   1       9.061  -5.466  -5.991  0.00  0.00    -0.001 C 
ATOM     12  H   LIG d   1       6.881  -5.596  -5.945  0.00  0.00     0.027 H 
ATOM     13  H   LIG d   1       7.645  -5.694  -4.334  0.00  0.00     0.027 H 
ATOM     14  H   LIG d   1       9.631  -6.205  -5.430  0.00  0.00     0.031 H 
ATOM     15  H   LIG d   1       8.914  -5.805  -7.016  0.00  0.00     0.031 H 
ATOM     16  C   LIG d   1       7.073  -1.807  -3.691  0.00  0.00    -0.031 C 
ATOM     17  H   LIG d   1       6.809  -3.870  -3.197  0.00  0.00     0.031 H 
ATOM     18  C   LIG d   1       5.251  -3.365  -4.562  0.00  0.00    -0.046 C 
ATOM     19  C   LIG d   1       7.845  -1.139  -4.826  0.00  0.00    -0.049 C 
ATOM     20  H   LIG d   1       7.825  -1.926  -2.891  0.00  0.00     0.031 H 
ATOM     21  C   LIG d   1       6.028  -0.927  -3.071  0.00  0.00    -0.016 C 
ATOM     22  H   LIG d   1       7.978  -0.078  -4.625  0.00  0.00     0.027 H 
ATOM     23  H   LIG d   1       7.303  -1.267  -5.762  0.00  0.00     0.027 H 
ATOM     24  C   LIG d   1       4.623  -1.254  -3.449  0.00  0.00    -0.063 C 
ATOM     25  C   LIG d   1       6.352   0.549  -3.239  0.00  0.00    -0.039 C 
ATOM     26  H   LIG d   1       6.088  -1.114  -1.991  0.00  0.00     0.035 H 
ATOM     27  C   LIG d   1       4.241  -2.708  -3.638  0.00  0.00    -0.031 C 
ATOM     28  C   LIG d   1       3.683  -0.330  -3.640  0.00  0.00    -0.020 C 
ATOM     29  H   LIG d   1       3.245  -2.765  -4.083  0.00  0.00     0.031 H 
ATOM     30  H   LIG d   1       4.232  -3.217  -2.673  0.00  0.00     0.031 H 
ATOM     31  C   LIG d   1       3.953   1.082  -3.345  0.00  0.00     0.156 C 
ATOM     32  H   LIG d   1       2.696  -0.627  -3.969  0.00  0.00     0.065 H 
ATOM     33  O   LIG d   1       3.168   1.955  -3.663  0.00  0.00    -0.293 OA
ATOM     34  C   LIG d   1       5.246   1.415  -2.632  0.00  0.00     0.010 C 
ATOM     35  H   LIG d   1       5.455   2.385  -2.758  0.00  0.00     0.035 H 
ATOM     36  H   LIG d   1       5.150   1.198  -1.568  0.00  0.00     0.035 H 
ATOM     37  H   LIG d   1       6.434   0.782  -4.300  0.00  0.00     0.028 H 
ATOM     38  H   LIG d   1       7.292   0.769  -2.740  0.00  0.00     0.028 H 
ATOM     39  H   LIG d   1       5.180  -2.906  -5.553  0.00  0.00     0.027 H 
ATOM     40  H   LIG d   1       5.016  -4.426  -4.660  0.00  0.00     0.027 H 
ATOM     41  H   LIG d   1       9.837  -1.485  -4.073  0.00  0.00     0.027 H 
ATOM     42  H   LIG d   1       9.730  -1.451  -5.838  0.00  0.00     0.027 H 
BRANCH   4  43
ATOM     43  O   LIG d   1      11.193  -4.296  -5.609  0.00  0.00    -0.445 OA
BRANCH  43  44
ATOM     44  C   LIG d   1      11.767  -5.455  -5.966  0.00  0.00     0.305 C 
ATOM     45  O   LIG d   1      12.127  -5.625  -7.107  0.00  0.00    -0.251 OA
BRANCH  44  46
ATOM     46  C   LIG d   1      11.963  -6.544  -4.943  0.00  0.00     0.033 C 
ATOM     47  H   LIG d   1      11.419  -6.290  -4.033  0.00  0.00     0.034 H 
ATOM     48  H   LIG d   1      11.586  -7.488  -5.340  0.00  0.00     0.034 H 
ATOM     49  H   LIG d   1      13.024  -6.644  -4.716  0.00  0.00     0.034 H 
ENDBRANCH  44  46
ENDBRANCH  43  44
ENDBRANCH   4  43
BRANCH   5  50
ATOM     50  C   LIG d   1       9.513  -3.835  -3.543  0.00  0.00    -0.055 C 
ATOM     51  H   LIG d   1       9.407  -3.051  -2.793  0.00  0.00     0.024 H 
ATOM     52  H   LIG d   1       8.892  -4.688  -3.267  0.00  0.00     0.024 H 
ATOM     53  H   LIG d   1      10.556  -4.147  -3.596  0.00  0.00     0.024 H 
ENDBRANCH   5  50
ENDBRANCH   1   4
TORSDOF 5
ENDMDL
MODEL 9
REMARK VINA RESULT:      -5.4      1.885      3.354
REMARK  5 active torsions:
REMARK  status: ('A' for Active; 'I' for Inactive)
REMARK    1  A    between atoms: C_1  and  C_2 
REMARK    2  A    between atoms: C_2  and  O_4 
REMARK    3  A    between atoms: O_4  and  C_5 
REMARK    4  A    between atoms: C_5  and  C_28 
REMARK    5  A    between atoms: C_10  and  C_27 
ROOT
ATOM      1  C   LIG d   1       5.016  -0.354  -6.477  0.00  0.00    -0.058 C 
ATOM      2  C   LIG d   1       5.165   0.016  -7.581  0.00  0.00    -0.115 C 
ATOM      3  H   LIG d   1       5.299   0.347  -8.569  0.00  0.00     0.123 H 
ENDROOT
BRANCH   1   4
ATOM      4  C   LIG d   1       4.830  -0.816  -5.098  0.00  0.00     0.178 C 
ATOM      5  C   LIG d   1       5.223  -2.288  -4.916  0.00  0.00     0.022 C 
ATOM      6  C   LIG d   1       6.763  -2.192  -4.870  0.00  0.00    -0.028 C 
ATOM      7  C   LIG d   1       4.781  -3.258  -5.983  0.00  0.00    -0.043 C 
ATOM      8  C   LIG d   1       6.983  -1.037  -3.875  0.00  0.00    -0.045 C 
ATOM      9  H   LIG d   1       7.169  -1.914  -5.850  0.00  0.00     0.031 H 
ATOM     10  C   LIG d   1       7.382  -3.511  -4.416  0.00  0.00    -0.034 C 
ATOM     11  C   LIG d   1       5.810  -0.065  -4.157  0.00  0.00    -0.001 C 
ATOM     12  H   LIG d   1       7.940  -0.544  -4.075  0.00  0.00     0.027 H 
ATOM     13  H   LIG d   1       6.960  -1.393  -2.847  0.00  0.00     0.027 H 
ATOM     14  H   LIG d   1       5.307   0.199  -3.227  0.00  0.00     0.031 H 
ATOM     15  H   LIG d   1       6.179   0.834  -4.650  0.00  0.00     0.031 H 
ATOM     16  C   LIG d   1       6.677  -4.638  -5.134  0.00  0.00    -0.031 C 
ATOM     17  H   LIG d   1       7.244  -3.628  -3.338  0.00  0.00     0.031 H 
ATOM     18  C   LIG d   1       8.876  -3.423  -4.694  0.00  0.00    -0.046 C 
ATOM     19  C   LIG d   1       5.985  -4.128  -6.396  0.00  0.00    -0.049 C 
ATOM     20  H   LIG d   1       5.844  -4.919  -4.468  0.00  0.00     0.031 H 
ATOM     21  C   LIG d   1       7.425  -5.924  -5.333  0.00  0.00    -0.016 C 
ATOM     22  H   LIG d   1       5.623  -4.961  -6.996  0.00  0.00     0.027 H 
ATOM     23  H   LIG d   1       6.683  -3.533  -6.982  0.00  0.00     0.027 H 
ATOM     24  C   LIG d   1       8.909  -5.787  -5.400  0.00  0.00    -0.063 C 
ATOM     25  C   LIG d   1       6.859  -6.740  -6.484  0.00  0.00    -0.039 C 
ATOM     26  H   LIG d   1       7.229  -6.521  -4.433  0.00  0.00     0.035 H 
ATOM     27  C   LIG d   1       9.583  -4.755  -4.519  0.00  0.00    -0.031 C 
ATOM     28  C   LIG d   1       9.675  -6.522  -6.204  0.00  0.00    -0.020 C 
ATOM     29  H   LIG d   1      10.630  -4.656  -4.816  0.00  0.00     0.031 H 
ATOM     30  H   LIG d   1       9.534  -5.070  -3.476  0.00  0.00     0.031 H 
ATOM     31  C   LIG d   1       9.100  -7.625  -6.982  0.00  0.00     0.156 C 
ATOM     32  H   LIG d   1      10.740  -6.336  -6.249  0.00  0.00     0.065 H 
ATOM     33  O   LIG d   1       9.746  -8.199  -7.837  0.00  0.00    -0.293 OA
ATOM     34  C   LIG d   1       7.670  -8.022  -6.684  0.00  0.00     0.010 C 
ATOM     35  H   LIG d   1       7.304  -8.550  -7.451  0.00  0.00     0.035 H 
ATOM     36  H   LIG d   1       7.634  -8.627  -5.777  0.00  0.00     0.035 H 
ATOM     37  H   LIG d   1       6.905  -6.154  -7.400  0.00  0.00     0.028 H 
ATOM     38  H   LIG d   1       5.826  -7.001  -6.265  0.00  0.00     0.028 H 
ATOM     39  H   LIG d   1       9.017  -3.076  -5.723  0.00  0.00     0.027 H 
ATOM     40  H   LIG d   1       9.320  -2.687  -4.022  0.00  0.00     0.027 H 
ATOM     41  H   LIG d   1       3.999  -3.916  -5.577  0.00  0.00     0.027 H 
ATOM     42  H   LIG d   1       4.378  -2.756  -6.858  0.00  0.00     0.027 H 
BRANCH   4  43
ATOM     43  O   LIG d   1       3.462  -0.603  -4.665  0.00  0.00    -0.445 OA
BRANCH  43  44
ATOM     44  C   LIG d   1       3.198   0.547  -4.026  0.00  0.00     0.305 C 
ATOM     45  O   LIG d   1       2.865   1.525  -4.654  0.00  0.00    -0.251 OA
BRANCH  44  46
ATOM     46  C   LIG d   1       3.316   0.620  -2.526  0.00  0.00     0.033 C 
ATOM     47  H   LIG d   1       3.090  -0.357  -2.096  0.00  0.00     0.034 H 
ATOM     48  H   LIG d   1       4.331   0.909  -2.254  0.00  0.00     0.034 H 
ATOM     49  H   LIG d   1       2.613   1.358  -2.140  0.00  0.00     0.034 H 
ENDBRANCH  44  46
ENDBRANCH  43  44
ENDBRANCH   4  43
BRANCH   5  50
ATOM     50  C   LIG d   1       4.673  -2.748  -3.554  0.00  0.00    -0.055 C 
ATOM     51  H   LIG d   1       4.761  -3.832  -3.474  0.00  0.00     0.024 H 
ATOM     52  H   LIG d   1       5.244  -2.278  -2.753  0.00  0.00     0.024 H 
ATOM     53  H   LIG d   1       3.625  -2.462  -3.469  0.00  0.00     0.024 H 
ENDBRANCH   5  50
ENDBRANCH   1   4
TORSDOF 5
ENDMDL
