MODEL 1
REMARK VINA RESULT:      -6.4      0.000      0.000
REMARK  6 active torsions:
REMARK  status: ('A' for Active; 'I' for Inactive)
REMARK    1  A    between atoms: CG1_1  and  CB_2 
REMARK    2  A    between atoms: CB_2  and  CG2_4 
REMARK    3  A    between atoms: CB_2  and  CA_5 
REMARK       I    between atoms: CA_5  and  C_7 
REMARK       I    between atoms: CA_5  and  N_18 
REMARK       I    between atoms: C_7  and  N_9 
REMARK       I    between atoms: N_9  and  CA_10 
REMARK    4  A    between atoms: CA_10  and  CB_12 
REMARK       I    between atoms: CA_10  and  C_16 
REMARK    5  A    between atoms: CB_12  and  CG1_14 
REMARK    6  A    between atoms: CB_12  and  CG2_15 
REMARK       I    between atoms: N_18  and  C_19 
REMARK       I    between atoms: C_19  and  N_21 
ROOT
ATOM      1  CA  VAL d   1      10.485   2.395  -4.685  0.00  0.00     0.103 C 
ATOM      2  HA  VAL d   1      11.483   1.967  -4.589  0.00  0.00     0.060 H 
ATOM      3  C   VAL d   1      10.287   3.451  -3.629  0.00  0.00     0.234 C 
ATOM      4  O   VAL d   1       9.221   3.548  -3.059  0.00  0.00    -0.274 OA
ATOM      5  N   VAL d   1      11.295   4.290  -3.318  0.00  0.00    -0.306 N 
ATOM      6  CA  VAL d   1      11.072   5.387  -2.375  0.00  0.00     0.065 C 
ATOM      7  HA  VAL d   1      10.369   5.066  -1.604  0.00  0.00     0.056 H 
ATOM      8  C   VAL d   1      10.504   6.574  -3.110  0.00  0.00     0.062 C 
ATOM      9  O   VAL d   1      10.306   6.510  -4.299  0.00  0.00    -0.548 OA
ATOM     10  N   VAL d   1       9.484   1.338  -4.511  0.00  0.00    -0.287 N 
ATOM     11  H   VAL d   1      12.170   4.167  -3.720  0.00  0.00     0.149 HD
ATOM     12  H   VAL d   1       8.641   1.536  -4.072  0.00  0.00     0.151 HD
ATOM     13  OXT VAL d   1      10.217   7.703  -2.441  0.00  0.00    -0.548 OA
ATOM     14  C   UNK d   0       9.733   0.093  -4.961  0.00  0.00     0.309 C 
ATOM     15  O   UNK d   0      10.788  -0.155  -5.511  0.00  0.00    -0.252 OA
ATOM     16  N   UNK d   0       8.812  -0.879  -4.801  0.00  0.00    -0.224 N 
ATOM     17  C   UNK d   0       8.959  -2.270  -5.243  0.00  0.00     0.042 A 
ATOM     18  C   UNK d   0       7.646  -2.949  -4.819  0.00  0.00     0.043 A 
ATOM     19  N   UNK d   0       6.865  -1.881  -4.180  0.00  0.00    -0.310 N 
ATOM     20  C   UNK d   0       7.576  -0.721  -4.193  0.00  0.00     0.207 A 
ATOM     21  N   UNK d   0       6.867   0.229  -3.612  0.00  0.00    -0.214 NA
ATOM     22  C   UNK d   0       5.675  -0.271  -3.201  0.00  0.00     0.091 A 
ATOM     23  C   UNK d   0       5.653  -1.628  -3.557  0.00  0.00     0.070 A 
ATOM     24  C   UNK d   0       4.544  -2.406  -3.259  0.00  0.00    -0.036 A 
ATOM     25  C   UNK d   0       3.464  -1.841  -2.612  0.00  0.00    -0.060 A 
ATOM     26  C   UNK d   0       3.480  -0.501  -2.258  0.00  0.00    -0.060 A 
ATOM     27  C   UNK d   0       4.573   0.285  -2.546  0.00  0.00    -0.034 A 
ATOM     28  H   UNK d   0       9.082  -2.314  -6.325  0.00  0.00     0.049 H 
ATOM     29  H   UNK d   0       9.805  -2.741  -4.744  0.00  0.00     0.049 H 
ATOM     30  H   UNK d   0       7.846  -3.751  -4.108  0.00  0.00     0.051 H 
ATOM     31  H   UNK d   0       7.119  -3.335  -5.691  0.00  0.00     0.051 H 
ATOM     32  H   UNK d   0       4.527  -3.451  -3.533  0.00  0.00     0.064 H 
ATOM     33  H   UNK d   0       2.601  -2.448  -2.380  0.00  0.00     0.062 H 
ATOM     34  H   UNK d   0       2.628  -0.070  -1.752  0.00  0.00     0.062 H 
ATOM     35  H   UNK d   0       4.577   1.329  -2.268  0.00  0.00     0.064 H 
ENDROOT
BRANCH   1  36
ATOM     36  CB  VAL d   1      10.328   3.022  -6.071  0.00  0.00    -0.020 C 
ATOM     37  HB  VAL d   1      10.316   4.108  -5.979  0.00  0.00     0.032 H 
BRANCH  36  38
ATOM     38  CG1 VAL d   1      11.500   2.599  -6.959  0.00  0.00    -0.060 C 
ATOM     39 1HG1 VAL d   1      11.143   2.435  -7.976  0.00  0.00     0.023 H 
ATOM     40 2HG1 VAL d   1      12.256   3.383  -6.960  0.00  0.00     0.023 H 
ATOM     41 3HG1 VAL d   1      11.934   1.676  -6.573  0.00  0.00     0.023 H 
ENDBRANCH  36  38
BRANCH  36  42
ATOM     42  CG2 VAL d   1       9.016   2.550  -6.699  0.00  0.00    -0.060 C 
ATOM     43 1HG2 VAL d   1       8.182   2.839  -6.059  0.00  0.00     0.023 H 
ATOM     44 2HG2 VAL d   1       8.896   3.009  -7.680  0.00  0.00     0.023 H 
ATOM     45 3HG2 VAL d   1       9.033   1.465  -6.805  0.00  0.00     0.023 H 
ENDBRANCH  36  42
ENDBRANCH   1  36
BRANCH   6  46
ATOM     46  CB  VAL d   1      12.400   5.779  -1.723  0.00  0.00    -0.023 C 
ATOM     47  HB  VAL d   1      12.617   6.824  -1.941  0.00  0.00     0.032 H 
BRANCH  46  48
ATOM     48  CG1 VAL d   1      13.520   4.899  -2.279  0.00  0.00    -0.061 C 
ATOM     49 1HG1 VAL d   1      14.367   5.524  -2.564  0.00  0.00     0.023 H 
ATOM     50 2HG1 VAL d   1      13.836   4.188  -1.516  0.00  0.00     0.023 H 
ATOM     51 3HG1 VAL d   1      13.158   4.358  -3.152  0.00  0.00     0.023 H 
ENDBRANCH  46  48
BRANCH  46  52
ATOM     52  CG2 VAL d   1      12.302   5.584  -0.208  0.00  0.00    -0.061 C 
ATOM     53 1HG2 VAL d   1      13.297   5.653   0.232  0.00  0.00     0.023 H 
ATOM     54 2HG2 VAL d   1      11.662   6.356   0.217  0.00  0.00     0.023 H 
ATOM     55 3HG2 VAL d   1      11.877   4.602   0.005  0.00  0.00     0.023 H 
ENDBRANCH  46  52
ENDBRANCH   6  46
TORSDOF 10
ENDMDL
MODEL 2
REMARK VINA RESULT:      -6.3      1.940      2.218
REMARK  6 active torsions:
REMARK  status: ('A' for Active; 'I' for Inactive)
REMARK    1  A    between atoms: CG1_1  and  CB_2 
REMARK    2  A    between atoms: CB_2  and  CG2_4 
REMARK    3  A    between atoms: CB_2  and  CA_5 
REMARK       I    between atoms: CA_5  and  C_7 
REMARK       I    between atoms: CA_5  and  N_18 
REMARK       I    between atoms: C_7  and  N_9 
REMARK       I    between atoms: N_9  and  CA_10 
REMARK    4  A    between atoms: CA_10  and  CB_12 
REMARK       I    between atoms: CA_10  and  C_16 
REMARK    5  A    between atoms: CB_12  and  CG1_14 
REMARK    6  A    between atoms: CB_12  and  CG2_15 
REMARK       I    between atoms: N_18  and  C_19 
REMARK       I    between atoms: C_19  and  N_21 
ROOT
ATOM      1  CA  VAL d   1      10.091   3.580  -6.323  0.00  0.00     0.103 C 
ATOM      2  HA  VAL d   1      11.150   3.319  -6.334  0.00  0.00     0.060 H 
ATOM      3  C   VAL d   1       9.892   4.842  -5.525  0.00  0.00     0.234 C 
ATOM      4  O   VAL d   1       8.933   4.950  -4.790  0.00  0.00    -0.274 OA
ATOM      5  N   VAL d   1      10.780   5.851  -5.627  0.00  0.00    -0.306 N 
ATOM      6  CA  VAL d   1      10.530   7.119  -4.939  0.00  0.00     0.065 C 
ATOM      7  HA  VAL d   1      10.028   6.926  -3.990  0.00  0.00     0.056 H 
ATOM      8  C   VAL d   1       9.655   7.994  -5.801  0.00  0.00     0.062 C 
ATOM      9  O   VAL d   1       9.279   7.598  -6.878  0.00  0.00    -0.548 OA
ATOM     10  N   VAL d   1       9.327   2.489  -5.710  0.00  0.00    -0.287 N 
ATOM     11  H   VAL d   1      11.585   5.737  -6.157  0.00  0.00     0.149 HD
ATOM     12  H   VAL d   1       8.547   2.688  -5.169  0.00  0.00     0.151 HD
ATOM     13  OXT VAL d   1       9.294   9.213  -5.370  0.00  0.00    -0.548 OA
ATOM     14  C   UNK d   0       9.708   1.210  -5.899  0.00  0.00     0.309 C 
ATOM     15  O   UNK d   0      10.685   0.961  -6.577  0.00  0.00    -0.252 OA
ATOM     16  N   UNK d   0       9.005   0.208  -5.335  0.00  0.00    -0.224 N 
ATOM     17  C   UNK d   0       9.312  -1.221  -5.462  0.00  0.00     0.042 A 
ATOM     18  C   UNK d   0       8.222  -1.923  -4.636  0.00  0.00     0.043 A 
ATOM     19  N   UNK d   0       7.386  -0.832  -4.119  0.00  0.00    -0.310 N 
ATOM     20  C   UNK d   0       7.876   0.363  -4.544  0.00  0.00     0.207 A 
ATOM     21  N   UNK d   0       7.121   1.337  -4.070  0.00  0.00    -0.214 NA
ATOM     22  C   UNK d   0       6.115   0.817  -3.323  0.00  0.00     0.091 A 
ATOM     23  C   UNK d   0       6.267  -0.578  -3.341  0.00  0.00     0.070 A 
ATOM     24  C   UNK d   0       5.371  -1.383  -2.654  0.00  0.00    -0.036 A 
ATOM     25  C   UNK d   0       4.332  -0.807  -1.952  0.00  0.00    -0.060 A 
ATOM     26  C   UNK d   0       4.177   0.570  -1.930  0.00  0.00    -0.060 A 
ATOM     27  C   UNK d   0       5.057   1.384  -2.608  0.00  0.00    -0.034 A 
ATOM     28  H   UNK d   0       9.262  -1.530  -6.506  0.00  0.00     0.049 H 
ATOM     29  H   UNK d   0      10.297  -1.437  -5.047  0.00  0.00     0.049 H 
ATOM     30  H   UNK d   0       8.669  -2.482  -3.813  0.00  0.00     0.051 H 
ATOM     31  H   UNK d   0       7.633  -2.586  -5.270  0.00  0.00     0.051 H 
ATOM     32  H   UNK d   0       5.487  -2.456  -2.667  0.00  0.00     0.064 H 
ATOM     33  H   UNK d   0       3.634  -1.435  -1.416  0.00  0.00     0.062 H 
ATOM     34  H   UNK d   0       3.358   1.009  -1.378  0.00  0.00     0.062 H 
ATOM     35  H   UNK d   0       4.929   2.456  -2.587  0.00  0.00     0.064 H 
ENDROOT
BRANCH   1  36
ATOM     36  CB  VAL d   1       9.605   3.800  -7.756  0.00  0.00    -0.020 C 
ATOM     37  HB  VAL d   1       9.278   4.833  -7.874  0.00  0.00     0.032 H 
BRANCH  36  38
ATOM     38  CG1 VAL d   1      10.747   3.513  -8.733  0.00  0.00    -0.060 C 
ATOM     39 1HG1 VAL d   1      11.414   2.766  -8.301  0.00  0.00     0.023 H 
ATOM     40 2HG1 VAL d   1      10.337   3.136  -9.670  0.00  0.00     0.023 H 
ATOM     41 3HG1 VAL d   1      11.303   4.430  -8.922  0.00  0.00     0.023 H 
ENDBRANCH  36  38
BRANCH  36  42
ATOM     42  CG2 VAL d   1       8.435   2.859  -8.048  0.00  0.00    -0.060 C 
ATOM     43 1HG2 VAL d   1       7.881   2.671  -7.128  0.00  0.00     0.023 H 
ATOM     44 2HG2 VAL d   1       7.773   3.318  -8.783  0.00  0.00     0.023 H 
ATOM     45 3HG2 VAL d   1       8.816   1.917  -8.442  0.00  0.00     0.023 H 
ENDBRANCH  36  42
ENDBRANCH   1  36
BRANCH   6  46
ATOM     46  CB  VAL d   1      11.861   7.829  -4.677  0.00  0.00    -0.023 C 
ATOM     47  HB  VAL d   1      11.792   8.864  -5.013  0.00  0.00     0.032 H 
BRANCH  46  48
ATOM     48  CG1 VAL d   1      12.977   7.118  -5.443  0.00  0.00    -0.061 C 
ATOM     49 1HG1 VAL d   1      12.825   7.250  -6.515  0.00  0.00     0.023 H 
ATOM     50 2HG1 VAL d   1      13.940   7.543  -5.159  0.00  0.00     0.023 H 
ATOM     51 3HG1 VAL d   1      12.964   6.055  -5.203  0.00  0.00     0.023 H 
ENDBRANCH  46  48
BRANCH  46  52
ATOM     52  CG2 VAL d   1      12.169   7.798  -3.179  0.00  0.00    -0.061 C 
ATOM     53 1HG2 VAL d   1      12.717   6.886  -2.941  0.00  0.00     0.023 H 
ATOM     54 2HG2 VAL d   1      12.774   8.665  -2.915  0.00  0.00     0.023 H 
ATOM     55 3HG2 VAL d   1      11.236   7.819  -2.616  0.00  0.00     0.023 H 
ENDBRANCH  46  52
ENDBRANCH   6  46
TORSDOF 10
ENDMDL
MODEL 3
REMARK VINA RESULT:      -6.3      1.591      2.161
REMARK  6 active torsions:
REMARK  status: ('A' for Active; 'I' for Inactive)
REMARK    1  A    between atoms: CG1_1  and  CB_2 
REMARK    2  A    between atoms: CB_2  and  CG2_4 
REMARK    3  A    between atoms: CB_2  and  CA_5 
REMARK       I    between atoms: CA_5  and  C_7 
REMARK       I    between atoms: CA_5  and  N_18 
REMARK       I    between atoms: C_7  and  N_9 
REMARK       I    between atoms: N_9  and  CA_10 
REMARK    4  A    between atoms: CA_10  and  CB_12 
REMARK       I    between atoms: CA_10  and  C_16 
REMARK    5  A    between atoms: CB_12  and  CG1_14 
REMARK    6  A    between atoms: CB_12  and  CG2_15 
REMARK       I    between atoms: N_18  and  C_19 
REMARK       I    between atoms: C_19  and  N_21 
ROOT
ATOM      1  CA  VAL d   1      10.514   4.335  -4.342  0.00  0.00     0.103 C 
ATOM      2  HA  VAL d   1      11.529   3.980  -4.521  0.00  0.00     0.060 H 
ATOM      3  C   VAL d   1      10.446   5.009  -2.996  0.00  0.00     0.234 C 
ATOM      4  O   VAL d   1       9.478   4.845  -2.284  0.00  0.00    -0.274 OA
ATOM      5  N   VAL d   1      11.460   5.794  -2.584  0.00  0.00    -0.306 N 
ATOM      6  CA  VAL d   1      11.348   6.537  -1.327  0.00  0.00     0.065 C 
ATOM      7  HA  VAL d   1      10.785   5.946  -0.604  0.00  0.00     0.056 H 
ATOM      8  C   VAL d   1      10.632   7.840  -1.576  0.00  0.00     0.062 C 
ATOM      9  O   VAL d   1      10.255   8.119  -2.689  0.00  0.00    -0.548 OA
ATOM     10  N   VAL d   1       9.589   3.199  -4.366  0.00  0.00    -0.287 N 
ATOM     11  H   VAL d   1      12.266   5.867  -3.120  0.00  0.00     0.149 HD
ATOM     12  H   VAL d   1       8.818   3.188  -3.777  0.00  0.00     0.151 HD
ATOM     13  OXT VAL d   1      10.414   8.691  -0.561  0.00  0.00    -0.548 OA
ATOM     14  C   UNK d   0       9.808   2.169  -5.207  0.00  0.00     0.309 C 
ATOM     15  O   UNK d   0      10.773   2.183  -5.946  0.00  0.00    -0.252 OA
ATOM     16  N   UNK d   0       8.957   1.124  -5.229  0.00  0.00    -0.224 N 
ATOM     17  C   UNK d   0       9.082  -0.055  -6.094  0.00  0.00     0.042 A 
ATOM     18  C   UNK d   0       7.874  -0.933  -5.723  0.00  0.00     0.043 A 
ATOM     19  N   UNK d   0       7.165  -0.172  -4.686  0.00  0.00    -0.310 N 
ATOM     20  C   UNK d   0       7.825   0.993  -4.439  0.00  0.00     0.207 A 
ATOM     21  N   UNK d   0       7.183   1.666  -3.502  0.00  0.00    -0.214 NA
ATOM     22  C   UNK d   0       6.087   0.972  -3.106  0.00  0.00     0.091 A 
ATOM     23  C   UNK d   0       6.056  -0.214  -3.856  0.00  0.00     0.070 A 
ATOM     24  C   UNK d   0       5.035  -1.132  -3.662  0.00  0.00    -0.036 A 
ATOM     25  C   UNK d   0       4.050  -0.875  -2.731  0.00  0.00    -0.060 A 
ATOM     26  C   UNK d   0       4.074   0.295  -1.987  0.00  0.00    -0.060 A 
ATOM     27  C   UNK d   0       5.081   1.217  -2.167  0.00  0.00    -0.034 A 
ATOM     28  H   UNK d   0       9.037   0.236  -7.143  0.00  0.00     0.049 H 
ATOM     29  H   UNK d   0      10.011  -0.585  -5.884  0.00  0.00     0.049 H 
ATOM     30  H   UNK d   0       8.209  -1.893  -5.328  0.00  0.00     0.051 H 
ATOM     31  H   UNK d   0       7.233  -1.082  -6.591  0.00  0.00     0.051 H 
ATOM     32  H   UNK d   0       5.011  -2.045  -4.239  0.00  0.00     0.064 H 
ATOM     33  H   UNK d   0       3.254  -1.590  -2.581  0.00  0.00     0.062 H 
ATOM     34  H   UNK d   0       3.296   0.486  -1.262  0.00  0.00     0.062 H 
ATOM     35  H   UNK d   0       5.092   2.127  -1.585  0.00  0.00     0.064 H 
ENDROOT
BRANCH   1  36
ATOM     36  CB  VAL d   1      10.122   5.333  -5.433  0.00  0.00    -0.020 C 
ATOM     37  HB  VAL d   1       9.758   4.792  -6.307  0.00  0.00     0.032 H 
BRANCH  36  38
ATOM     38  CG1 VAL d   1       9.019   6.255  -4.910  0.00  0.00    -0.060 C 
ATOM     39 1HG1 VAL d   1       9.234   6.528  -3.876  0.00  0.00     0.023 H 
ATOM     40 2HG1 VAL d   1       8.977   7.156  -5.522  0.00  0.00     0.023 H 
ATOM     41 3HG1 VAL d   1       8.060   5.739  -4.956  0.00  0.00     0.023 H 
ENDBRANCH  36  38
BRANCH  36  42
ATOM     42  CG2 VAL d   1      11.342   6.169  -5.823  0.00  0.00    -0.060 C 
ATOM     43 1HG2 VAL d   1      12.164   5.506  -6.094  0.00  0.00     0.023 H 
ATOM     44 2HG2 VAL d   1      11.093   6.804  -6.672  0.00  0.00     0.023 H 
ATOM     45 3HG2 VAL d   1      11.641   6.791  -4.979  0.00  0.00     0.023 H 
ENDBRANCH  36  42
ENDBRANCH   1  36
BRANCH   6  46
ATOM     46  CB  VAL d   1      12.747   6.822  -0.775  0.00  0.00    -0.023 C 
ATOM     47  HB  VAL d   1      12.661   7.310   0.196  0.00  0.00     0.032 H 
BRANCH  46  48
ATOM     48  CG1 VAL d   1      13.500   7.736  -1.741  0.00  0.00    -0.061 C 
ATOM     49 1HG1 VAL d   1      13.704   8.691  -1.255  0.00  0.00     0.023 H 
ATOM     50 2HG1 VAL d   1      14.442   7.267  -2.026  0.00  0.00     0.023 H 
ATOM     51 3HG1 VAL d   1      12.894   7.905  -2.631  0.00  0.00     0.023 H 
ENDBRANCH  46  48
BRANCH  46  52
ATOM     52  CG2 VAL d   1      13.510   5.505  -0.618  0.00  0.00    -0.061 C 
ATOM     53 1HG2 VAL d   1      13.939   5.218  -1.578  0.00  0.00     0.023 H 
ATOM     54 2HG2 VAL d   1      14.309   5.633   0.112  0.00  0.00     0.023 H 
ATOM     55 3HG2 VAL d   1      12.827   4.727  -0.277  0.00  0.00     0.023 H 
ENDBRANCH  46  52
ENDBRANCH   6  46
TORSDOF 10
ENDMDL
MODEL 4
REMARK VINA RESULT:      -6.2      5.188     10.319
REMARK  6 active torsions:
REMARK  status: ('A' for Active; 'I' for Inactive)
REMARK    1  A    between atoms: CG1_1  and  CB_2 
REMARK    2  A    between atoms: CB_2  and  CG2_4 
REMARK    3  A    between atoms: CB_2  and  CA_5 
REMARK       I    between atoms: CA_5  and  C_7 
REMARK       I    between atoms: CA_5  and  N_18 
REMARK       I    between atoms: C_7  and  N_9 
REMARK       I    between atoms: N_9  and  CA_10 
REMARK    4  A    between atoms: CA_10  and  CB_12 
REMARK       I    between atoms: CA_10  and  C_16 
REMARK    5  A    between atoms: CB_12  and  CG1_14 
REMARK    6  A    between atoms: CB_12  and  CG2_15 
REMARK       I    between atoms: N_18  and  C_19 
REMARK       I    between atoms: C_19  and  N_21 
ROOT
ATOM      1  CA  VAL d   1       7.585  -5.988  -6.011  0.00  0.00     0.103 C 
ATOM      2  HA  VAL d   1       7.957  -5.978  -7.036  0.00  0.00     0.060 H 
ATOM      3  C   VAL d   1       6.246  -6.677  -5.969  0.00  0.00     0.234 C 
ATOM      4  O   VAL d   1       5.363  -6.244  -5.259  0.00  0.00    -0.274 OA
ATOM      5  N   VAL d   1       6.029  -7.774  -6.720  0.00  0.00    -0.306 N 
ATOM      6  CA  VAL d   1       4.768  -8.509  -6.597  0.00  0.00     0.065 C 
ATOM      7  HA  VAL d   1       3.955  -7.808  -6.406  0.00  0.00     0.056 H 
ATOM      8  C   VAL d   1       4.866  -9.488  -5.454  0.00  0.00     0.062 C 
ATOM      9  O   VAL d   1       5.884  -9.563  -4.809  0.00  0.00    -0.548 OA
ATOM     10  N   VAL d   1       7.441  -4.611  -5.531  0.00  0.00    -0.287 N 
ATOM     11  H   VAL d   1       6.708  -8.078  -7.343  0.00  0.00     0.149 HD
ATOM     12  H   VAL d   1       6.715  -4.381  -4.929  0.00  0.00     0.151 HD
ATOM     13  OXT VAL d   1       3.821 -10.275  -5.153  0.00  0.00    -0.548 OA
ATOM     14  C   UNK d   0       8.316  -3.665  -5.924  0.00  0.00     0.309 C 
ATOM     15  O   UNK d   0       9.225  -3.954  -6.678  0.00  0.00    -0.252 OA
ATOM     16  N   UNK d   0       8.184  -2.399  -5.482  0.00  0.00    -0.224 N 
ATOM     17  C   UNK d   0       9.065  -1.279  -5.834  0.00  0.00     0.042 A 
ATOM     18  C   UNK d   0       8.478  -0.076  -5.078  0.00  0.00     0.043 A 
ATOM     19  N   UNK d   0       7.318  -0.618  -4.357  0.00  0.00    -0.310 N 
ATOM     20  C   UNK d   0       7.193  -1.947  -4.623  0.00  0.00     0.207 A 
ATOM     21  N   UNK d   0       6.146  -2.423  -3.975  0.00  0.00    -0.214 NA
ATOM     22  C   UNK d   0       5.553  -1.431  -3.266  0.00  0.00     0.091 A 
ATOM     23  C   UNK d   0       6.292  -0.260  -3.497  0.00  0.00     0.070 A 
ATOM     24  C   UNK d   0       5.914   0.930  -2.894  0.00  0.00    -0.036 A 
ATOM     25  C   UNK d   0       4.810   0.959  -2.067  0.00  0.00    -0.060 A 
ATOM     26  C   UNK d   0       4.076  -0.194  -1.835  0.00  0.00    -0.060 A 
ATOM     27  C   UNK d   0       4.437  -1.384  -2.425  0.00  0.00    -0.034 A 
ATOM     28  H   UNK d   0      10.084  -1.479  -5.504  0.00  0.00     0.049 H 
ATOM     29  H   UNK d   0       9.040  -1.098  -6.908  0.00  0.00     0.049 H 
ATOM     30  H   UNK d   0       8.161   0.696  -5.780  0.00  0.00     0.051 H 
ATOM     31  H   UNK d   0       9.208   0.325  -4.376  0.00  0.00     0.051 H 
ATOM     32  H   UNK d   0       6.483   1.831  -3.072  0.00  0.00     0.064 H 
ATOM     33  H   UNK d   0       4.516   1.887  -1.597  0.00  0.00     0.062 H 
ATOM     34  H   UNK d   0       3.214  -0.158  -1.184  0.00  0.00     0.062 H 
ATOM     35  H   UNK d   0       3.861  -2.278  -2.238  0.00  0.00     0.064 H 
ENDROOT
BRANCH   1  36
ATOM     36  CB  VAL d   1       8.573  -6.738  -5.117  0.00  0.00    -0.020 C 
ATOM     37  HB  VAL d   1       8.120  -7.669  -4.775  0.00  0.00     0.032 H 
BRANCH  36  38
ATOM     38  CG1 VAL d   1       9.843  -7.053  -5.910  0.00  0.00    -0.060 C 
ATOM     39 1HG1 VAL d   1      10.222  -8.032  -5.615  0.00  0.00     0.023 H 
ATOM     40 2HG1 VAL d   1       9.615  -7.057  -6.975  0.00  0.00     0.023 H 
ATOM     41 3HG1 VAL d   1      10.599  -6.294  -5.703  0.00  0.00     0.023 H 
ENDBRANCH  36  38
BRANCH  36  42
ATOM     42  CG2 VAL d   1       8.929  -5.871  -3.908  0.00  0.00    -0.060 C 
ATOM     43 1HG2 VAL d   1       8.366  -4.939  -3.952  0.00  0.00     0.023 H 
ATOM     44 2HG2 VAL d   1       8.678  -6.404  -2.991  0.00  0.00     0.023 H 
ATOM     45 3HG2 VAL d   1       9.996  -5.651  -3.920  0.00  0.00     0.023 H 
ENDBRANCH  36  42
ENDBRANCH   1  36
BRANCH   6  46
ATOM     46  CB  VAL d   1       4.490  -9.269  -7.896  0.00  0.00    -0.023 C 
ATOM     47  HB  VAL d   1       3.873 -10.141  -7.682  0.00  0.00     0.032 H 
BRANCH  46  48
ATOM     48  CG1 VAL d   1       5.814  -9.721  -8.515  0.00  0.00    -0.061 C 
ATOM     49 1HG1 VAL d   1       6.424  -8.848  -8.749  0.00  0.00     0.023 H 
ATOM     50 2HG1 VAL d   1       6.347 -10.357  -7.808  0.00  0.00     0.023 H 
ATOM     51 3HG1 VAL d   1       5.616 -10.280  -9.429  0.00  0.00     0.023 H 
ENDBRANCH  46  48
BRANCH  46  52
ATOM     52  CG2 VAL d   1       3.756  -8.352  -8.876  0.00  0.00    -0.061 C 
ATOM     53 1HG2 VAL d   1       4.357  -8.227  -9.776  0.00  0.00     0.023 H 
ATOM     54 2HG2 VAL d   1       2.796  -8.796  -9.139  0.00  0.00     0.023 H 
ATOM     55 3HG2 VAL d   1       3.591  -7.380  -8.410  0.00  0.00     0.023 H 
ENDBRANCH  46  52
ENDBRANCH   6  46
TORSDOF 10
ENDMDL
MODEL 5
REMARK VINA RESULT:      -5.8      7.170      8.984
REMARK  6 active torsions:
REMARK  status: ('A' for Active; 'I' for Inactive)
REMARK    1  A    between atoms: CG1_1  and  CB_2 
REMARK    2  A    between atoms: CB_2  and  CG2_4 
REMARK    3  A    between atoms: CB_2  and  CA_5 
REMARK       I    between atoms: CA_5  and  C_7 
REMARK       I    between atoms: CA_5  and  N_18 
REMARK       I    between atoms: C_7  and  N_9 
REMARK       I    between atoms: N_9  and  CA_10 
REMARK    4  A    between atoms: CA_10  and  CB_12 
REMARK       I    between atoms: CA_10  and  C_16 
REMARK    5  A    between atoms: CB_12  and  CG1_14 
REMARK    6  A    between atoms: CB_12  and  CG2_15 
REMARK       I    between atoms: N_18  and  C_19 
REMARK       I    between atoms: C_19  and  N_21 
ROOT
ATOM      1  CA  VAL d   1       4.495   0.272  -8.323  0.00  0.00     0.103 C 
ATOM      2  HA  VAL d   1       5.576   0.363  -8.436  0.00  0.00     0.060 H 
ATOM      3  C   VAL d   1       4.179  -0.345  -6.986  0.00  0.00     0.234 C 
ATOM      4  O   VAL d   1       3.284  -1.159  -6.889  0.00  0.00    -0.274 OA
ATOM      5  N   VAL d   1       4.890   0.006  -5.897  0.00  0.00    -0.306 N 
ATOM      6  CA  VAL d   1       4.514  -0.509  -4.578  0.00  0.00     0.065 C 
ATOM      7  HA  VAL d   1       4.134  -1.526  -4.679  0.00  0.00     0.056 H 
ATOM      8  C   VAL d   1       3.443   0.370  -3.984  0.00  0.00     0.062 C 
ATOM      9  O   VAL d   1       3.036   1.327  -4.598  0.00  0.00    -0.548 OA
ATOM     10  N   VAL d   1       3.963  -0.578  -9.392  0.00  0.00    -0.287 N 
ATOM     11  H   VAL d   1       5.653   0.599  -5.985  0.00  0.00     0.149 HD
ATOM     12  H   VAL d   1       3.213  -1.168  -9.214  0.00  0.00     0.151 HD
ATOM     13  OXT VAL d   1       2.940   0.088  -2.770  0.00  0.00    -0.548 OA
ATOM     14  C   UNK d   0       4.515  -0.542 -10.620  0.00  0.00     0.309 C 
ATOM     15  O   UNK d   0       5.455   0.197 -10.842  0.00  0.00    -0.252 OA
ATOM     16  N   UNK d   0       4.026  -1.324 -11.603  0.00  0.00    -0.224 N 
ATOM     17  C   UNK d   0       4.534  -1.379 -12.978  0.00  0.00     0.042 A 
ATOM     18  C   UNK d   0       3.641  -2.417 -13.677  0.00  0.00     0.043 A 
ATOM     19  N   UNK d   0       2.699  -2.856 -12.639  0.00  0.00    -0.310 N 
ATOM     20  C   UNK d   0       2.962  -2.204 -11.474  0.00  0.00     0.207 A 
ATOM     21  N   UNK d   0       2.113  -2.610 -10.548  0.00  0.00    -0.214 NA
ATOM     22  C   UNK d   0       1.269  -3.535 -11.069  0.00  0.00     0.091 A 
ATOM     23  C   UNK d   0       1.628  -3.708 -12.415  0.00  0.00     0.070 A 
ATOM     24  C   UNK d   0       0.930  -4.604 -13.210  0.00  0.00    -0.036 A 
ATOM     25  C   UNK d   0      -0.117  -5.325 -12.673  0.00  0.00    -0.060 A 
ATOM     26  C   UNK d   0      -0.477  -5.158 -11.345  0.00  0.00    -0.060 A 
ATOM     27  C   UNK d   0       0.205  -4.272 -10.542  0.00  0.00    -0.034 A 
ATOM     28  H   UNK d   0       4.438  -0.405 -13.458  0.00  0.00     0.049 H 
ATOM     29  H   UNK d   0       5.573  -1.707 -12.987  0.00  0.00     0.049 H 
ATOM     30  H   UNK d   0       4.240  -3.259 -14.027  0.00  0.00     0.051 H 
ATOM     31  H   UNK d   0       3.105  -1.960 -14.508  0.00  0.00     0.051 H 
ATOM     32  H   UNK d   0       1.206  -4.738 -14.245  0.00  0.00     0.064 H 
ATOM     33  H   UNK d   0      -0.661  -6.023 -13.293  0.00  0.00     0.062 H 
ATOM     34  H   UNK d   0      -1.300  -5.727 -10.937  0.00  0.00     0.062 H 
ATOM     35  H   UNK d   0      -0.081  -4.146  -9.508  0.00  0.00     0.064 H 
ENDROOT
BRANCH   1  36
ATOM     36  CB  VAL d   1       3.854   1.658  -8.409  0.00  0.00    -0.020 C 
ATOM     37  HB  VAL d   1       3.699   2.050  -7.404  0.00  0.00     0.032 H 
BRANCH  36  38
ATOM     38  CG1 VAL d   1       4.777   2.600  -9.186  0.00  0.00    -0.060 C 
ATOM     39 1HG1 VAL d   1       5.136   2.097 -10.084  0.00  0.00     0.023 H 
ATOM     40 2HG1 VAL d   1       4.227   3.498  -9.467  0.00  0.00     0.023 H 
ATOM     41 3HG1 VAL d   1       5.626   2.875  -8.560  0.00  0.00     0.023 H 
ENDBRANCH  36  38
BRANCH  36  42
ATOM     42  CG2 VAL d   1       2.509   1.555  -9.129  0.00  0.00    -0.060 C 
ATOM     43 1HG2 VAL d   1       1.722   1.355  -8.401  0.00  0.00     0.023 H 
ATOM     44 2HG2 VAL d   1       2.297   2.493  -9.643  0.00  0.00     0.023 H 
ATOM     45 3HG2 VAL d   1       2.546   0.743  -9.855  0.00  0.00     0.023 H 
ENDBRANCH  36  42
ENDBRANCH   1  36
BRANCH   6  46
ATOM     46  CB  VAL d   1       5.739  -0.510  -3.661  0.00  0.00    -0.023 C 
ATOM     47  HB  VAL d   1       5.449  -0.856  -2.669  0.00  0.00     0.032 H 
BRANCH  46  48
ATOM     48  CG1 VAL d   1       6.303   0.908  -3.561  0.00  0.00    -0.061 C 
ATOM     49 1HG1 VAL d   1       6.863   1.142  -4.467  0.00  0.00     0.023 H 
ATOM     50 2HG1 VAL d   1       5.483   1.618  -3.449  0.00  0.00     0.023 H 
ATOM     51 3HG1 VAL d   1       6.964   0.977  -2.698  0.00  0.00     0.023 H 
ENDBRANCH  46  48
BRANCH  46  52
ATOM     52  CG2 VAL d   1       6.805  -1.444  -4.236  0.00  0.00    -0.061 C 
ATOM     53 1HG2 VAL d   1       7.763  -0.924  -4.271  0.00  0.00     0.023 H 
ATOM     54 2HG2 VAL d   1       6.895  -2.327  -3.604  0.00  0.00     0.023 H 
ATOM     55 3HG2 VAL d   1       6.518  -1.746  -5.244  0.00  0.00     0.023 H 
ENDBRANCH  46  52
ENDBRANCH   6  46
TORSDOF 10
ENDMDL
MODEL 6
REMARK VINA RESULT:      -5.8      6.371      8.825
REMARK  6 active torsions:
REMARK  status: ('A' for Active; 'I' for Inactive)
REMARK    1  A    between atoms: CG1_1  and  CB_2 
REMARK    2  A    between atoms: CB_2  and  CG2_4 
REMARK    3  A    between atoms: CB_2  and  CA_5 
REMARK       I    between atoms: CA_5  and  C_7 
REMARK       I    between atoms: CA_5  and  N_18 
REMARK       I    between atoms: C_7  and  N_9 
REMARK       I    between atoms: N_9  and  CA_10 
REMARK    4  A    between atoms: CA_10  and  CB_12 
REMARK       I    between atoms: CA_10  and  C_16 
REMARK    5  A    between atoms: CB_12  and  CG1_14 
REMARK    6  A    between atoms: CB_12  and  CG2_15 
REMARK       I    between atoms: N_18  and  C_19 
REMARK       I    between atoms: C_19  and  N_21 
ROOT
ATOM      1  CA  VAL d   1       4.377   0.078  -7.810  0.00  0.00     0.103 C 
ATOM      2  HA  VAL d   1       5.074   0.915  -7.850  0.00  0.00     0.060 H 
ATOM      3  C   VAL d   1       4.563  -0.670  -6.516  0.00  0.00     0.234 C 
ATOM      4  O   VAL d   1       4.511  -1.882  -6.503  0.00  0.00    -0.274 OA
ATOM      5  N   VAL d   1       4.789   0.007  -5.373  0.00  0.00    -0.306 N 
ATOM      6  CA  VAL d   1       4.860  -0.710  -4.098  0.00  0.00     0.065 C 
ATOM      7  HA  VAL d   1       5.319  -1.687  -4.255  0.00  0.00     0.056 H 
ATOM      8  C   VAL d   1       3.469  -0.892  -3.546  0.00  0.00     0.062 C 
ATOM      9  O   VAL d   1       2.517  -0.467  -4.155  0.00  0.00    -0.548 OA
ATOM     10  N   VAL d   1       4.632  -0.824  -8.937  0.00  0.00    -0.287 N 
ATOM     11  H   VAL d   1       4.905   0.970  -5.394  0.00  0.00     0.149 HD
ATOM     12  H   VAL d   1       4.521  -1.781  -8.826  0.00  0.00     0.151 HD
ATOM     13  OXT VAL d   1       3.288  -1.528  -2.377  0.00  0.00    -0.548 OA
ATOM     14  C   UNK d   0       5.022  -0.324 -10.126  0.00  0.00     0.309 C 
ATOM     15  O   UNK d   0       5.162   0.876 -10.264  0.00  0.00    -0.252 OA
ATOM     16  N   UNK d   0       5.257  -1.153 -11.162  0.00  0.00    -0.224 N 
ATOM     17  C   UNK d   0       5.684  -0.739 -12.503  0.00  0.00     0.042 A 
ATOM     18  C   UNK d   0       5.811  -2.054 -13.289  0.00  0.00     0.043 A 
ATOM     19  N   UNK d   0       5.438  -3.100 -12.328  0.00  0.00    -0.310 N 
ATOM     20  C   UNK d   0       5.133  -2.535 -11.129  0.00  0.00     0.207 A 
ATOM     21  N   UNK d   0       4.803  -3.483 -10.272  0.00  0.00    -0.214 NA
ATOM     22  C   UNK d   0       4.879  -4.696 -10.875  0.00  0.00     0.091 A 
ATOM     23  C   UNK d   0       5.286  -4.472 -12.200  0.00  0.00     0.070 A 
ATOM     24  C   UNK d   0       5.451  -5.542 -13.066  0.00  0.00    -0.036 A 
ATOM     25  C   UNK d   0       5.215  -6.827 -12.620  0.00  0.00    -0.060 A 
ATOM     26  C   UNK d   0       4.813  -7.054 -11.313  0.00  0.00    -0.060 A 
ATOM     27  C   UNK d   0       4.644  -6.003 -10.441  0.00  0.00    -0.034 A 
ATOM     28  H   UNK d   0       4.935  -0.090 -12.957  0.00  0.00     0.049 H 
ATOM     29  H   UNK d   0       6.648  -0.233 -12.455  0.00  0.00     0.049 H 
ATOM     30  H   UNK d   0       6.839  -2.197 -13.626  0.00  0.00     0.051 H 
ATOM     31  H   UNK d   0       5.129  -2.056 -14.138  0.00  0.00     0.051 H 
ATOM     32  H   UNK d   0       5.764  -5.371 -14.085  0.00  0.00     0.064 H 
ATOM     33  H   UNK d   0       5.344  -7.661 -13.296  0.00  0.00     0.062 H 
ATOM     34  H   UNK d   0       4.630  -8.065 -10.977  0.00  0.00     0.062 H 
ATOM     35  H   UNK d   0       4.330  -6.188  -9.424  0.00  0.00     0.064 H 
ENDROOT
BRANCH   1  36
ATOM     36  CB  VAL d   1       2.943   0.603  -7.894  0.00  0.00    -0.020 C 
ATOM     37  HB  VAL d   1       2.491   0.585  -6.902  0.00  0.00     0.032 H 
BRANCH  36  38
ATOM     38  CG1 VAL d   1       2.955   2.040  -8.421  0.00  0.00    -0.060 C 
ATOM     39 1HG1 VAL d   1       3.621   2.104  -9.282  0.00  0.00     0.023 H 
ATOM     40 2HG1 VAL d   1       1.947   2.326  -8.719  0.00  0.00     0.023 H 
ATOM     41 3HG1 VAL d   1       3.308   2.712  -7.638  0.00  0.00     0.023 H 
ENDBRANCH  36  38
BRANCH  36  42
ATOM     42  CG2 VAL d   1       2.129  -0.280  -8.840  0.00  0.00    -0.060 C 
ATOM     43 1HG2 VAL d   1       2.214   0.103  -9.857  0.00  0.00     0.023 H 
ATOM     44 2HG2 VAL d   1       2.510  -1.301  -8.804  0.00  0.00     0.023 H 
ATOM     45 3HG2 VAL d   1       1.083  -0.272  -8.535  0.00  0.00     0.023 H 
ENDBRANCH  36  42
ENDBRANCH   1  36
BRANCH   6  46
ATOM     46  CB  VAL d   1       5.701   0.095  -3.105  0.00  0.00    -0.023 C 
ATOM     47  HB  VAL d   1       5.870  -0.500  -2.207  0.00  0.00     0.032 H 
BRANCH  46  48
ATOM     48  CG1 VAL d   1       4.960   1.380  -2.733  0.00  0.00    -0.061 C 
ATOM     49 1HG1 VAL d   1       5.631   2.042  -2.185  0.00  0.00     0.023 H 
ATOM     50 2HG1 VAL d   1       4.620   1.878  -3.641  0.00  0.00     0.023 H 
ATOM     51 3HG1 VAL d   1       4.101   1.137  -2.108  0.00  0.00     0.023 H 
ENDBRANCH  46  48
BRANCH  46  52
ATOM     52  CG2 VAL d   1       7.046   0.448  -3.743  0.00  0.00    -0.061 C 
ATOM     53 1HG2 VAL d   1       7.236   1.514  -3.622  0.00  0.00     0.023 H 
ATOM     54 2HG2 VAL d   1       7.839  -0.121  -3.259  0.00  0.00     0.023 H 
ATOM     55 3HG2 VAL d   1       7.019   0.202  -4.805  0.00  0.00     0.023 H 
ENDBRANCH  46  52
ENDBRANCH   6  46
TORSDOF 10
ENDMDL
MODEL 7
REMARK VINA RESULT:      -5.6      6.095      9.481
REMARK  6 active torsions:
REMARK  status: ('A' for Active; 'I' for Inactive)
REMARK    1  A    between atoms: CG1_1  and  CB_2 
REMARK    2  A    between atoms: CB_2  and  CG2_4 
REMARK    3  A    between atoms: CB_2  and  CA_5 
REMARK       I    between atoms: CA_5  and  C_7 
REMARK       I    between atoms: CA_5  and  N_18 
REMARK       I    between atoms: C_7  and  N_9 
REMARK       I    between atoms: N_9  and  CA_10 
REMARK    4  A    between atoms: CA_10  and  CB_12 
REMARK       I    between atoms: CA_10  and  C_16 
REMARK    5  A    between atoms: CB_12  and  CG1_14 
REMARK    6  A    between atoms: CB_12  and  CG2_15 
REMARK       I    between atoms: N_18  and  C_19 
REMARK       I    between atoms: C_19  and  N_21 
ROOT
ATOM      1  CA  VAL d   1       3.627   0.045  -8.359  0.00  0.00     0.103 C 
ATOM      2  HA  VAL d   1       2.571   0.069  -8.090  0.00  0.00     0.060 H 
ATOM      3  C   VAL d   1       3.819  -0.825  -9.573  0.00  0.00     0.234 C 
ATOM      4  O   VAL d   1       4.779  -1.562  -9.646  0.00  0.00    -0.274 OA
ATOM      5  N   VAL d   1       2.922  -0.785 -10.579  0.00  0.00    -0.306 N 
ATOM      6  CA  VAL d   1       3.164  -1.546 -11.807  0.00  0.00     0.065 C 
ATOM      7  HA  VAL d   1       3.670  -2.481 -11.562  0.00  0.00     0.056 H 
ATOM      8  C   VAL d   1       4.028  -0.735 -12.738  0.00  0.00     0.062 C 
ATOM      9  O   VAL d   1       4.404   0.365 -12.410  0.00  0.00    -0.548 OA
ATOM     10  N   VAL d   1       4.402  -0.499  -7.240  0.00  0.00    -0.287 N 
ATOM     11  H   VAL d   1       2.116  -0.252 -10.490  0.00  0.00     0.149 HD
ATOM     12  H   VAL d   1       5.183  -1.049  -7.414  0.00  0.00     0.151 HD
ATOM     13  OXT VAL d   1       4.382  -1.237 -13.933  0.00  0.00    -0.548 OA
ATOM     14  C   UNK d   0       4.032  -0.237  -5.972  0.00  0.00     0.309 C 
ATOM     15  O   UNK d   0       3.054   0.452  -5.755  0.00  0.00    -0.252 OA
ATOM     16  N   UNK d   0       4.745  -0.738  -4.944  0.00  0.00    -0.224 N 
ATOM     17  C   UNK d   0       4.449  -0.528  -3.522  0.00  0.00     0.042 A 
ATOM     18  C   UNK d   0       5.548  -1.307  -2.782  0.00  0.00     0.043 A 
ATOM     19  N   UNK d   0       6.377  -1.886  -3.848  0.00  0.00    -0.310 N 
ATOM     20  C   UNK d   0       5.875  -1.533  -5.062  0.00  0.00     0.207 A 
ATOM     21  N   UNK d   0       6.624  -2.062  -6.012  0.00  0.00    -0.214 NA
ATOM     22  C   UNK d   0       7.636  -2.774  -5.458  0.00  0.00     0.091 A 
ATOM     23  C   UNK d   0       7.496  -2.674  -4.065  0.00  0.00     0.070 A 
ATOM     24  C   UNK d   0       8.401  -3.310  -3.229  0.00  0.00    -0.036 A 
ATOM     25  C   UNK d   0       9.438  -4.042  -3.770  0.00  0.00    -0.060 A 
ATOM     26  C   UNK d   0       9.582  -4.144  -5.145  0.00  0.00    -0.060 A 
ATOM     27  C   UNK d   0       8.692  -3.518  -5.990  0.00  0.00    -0.034 A 
ATOM     28  H   UNK d   0       4.498   0.533  -3.276  0.00  0.00     0.049 H 
ATOM     29  H   UNK d   0       3.468  -0.932  -3.274  0.00  0.00     0.049 H 
ATOM     30  H   UNK d   0       5.108  -2.097  -2.172  0.00  0.00     0.051 H 
ATOM     31  H   UNK d   0       6.140  -0.634  -2.163  0.00  0.00     0.051 H 
ATOM     32  H   UNK d   0       8.294  -3.233  -2.157  0.00  0.00     0.064 H 
ATOM     33  H   UNK d   0      10.143  -4.537  -3.118  0.00  0.00     0.062 H 
ATOM     34  H   UNK d   0      10.398  -4.719  -5.557  0.00  0.00     0.062 H 
ATOM     35  H   UNK d   0       8.812  -3.602  -7.060  0.00  0.00     0.064 H 
ENDROOT
BRANCH   1  36
ATOM     36  CB  VAL d   1       4.107   1.464  -8.667  0.00  0.00    -0.020 C 
ATOM     37  HB  VAL d   1       4.126   2.050  -7.747  0.00  0.00     0.032 H 
BRANCH  36  38
ATOM     38  CG1 VAL d   1       5.515   1.409  -9.264  0.00  0.00    -0.060 C 
ATOM     39 1HG1 VAL d   1       5.828   2.415  -9.547  0.00  0.00     0.023 H 
ATOM     40 2HG1 VAL d   1       6.208   1.008  -8.525  0.00  0.00     0.023 H 
ATOM     41 3HG1 VAL d   1       5.512   0.768 -10.145  0.00  0.00     0.023 H 
ENDBRANCH  36  38
BRANCH  36  42
ATOM     42  CG2 VAL d   1       3.154   2.120  -9.668  0.00  0.00    -0.060 C 
ATOM     43 1HG2 VAL d   1       2.965   1.432 -10.493  0.00  0.00     0.023 H 
ATOM     44 2HG2 VAL d   1       2.214   2.360  -9.173  0.00  0.00     0.023 H 
ATOM     45 3HG2 VAL d   1       3.606   3.034 -10.054  0.00  0.00     0.023 H 
ENDBRANCH  36  42
ENDBRANCH   1  36
BRANCH   6  46
ATOM     46  CB  VAL d   1       1.829  -1.853 -12.489  0.00  0.00    -0.023 C 
ATOM     47  HB  VAL d   1       1.860  -1.506 -13.521  0.00  0.00     0.032 H 
BRANCH  46  48
ATOM     48  CG1 VAL d   1       0.700  -1.139 -11.744  0.00  0.00    -0.061 C 
ATOM     49 1HG1 VAL d   1       0.360  -1.759 -10.915  0.00  0.00     0.023 H 
ATOM     50 2HG1 VAL d   1       1.065  -0.187 -11.359  0.00  0.00     0.023 H 
ATOM     51 3HG1 VAL d   1      -0.130  -0.960 -12.427  0.00  0.00     0.023 H 
ENDBRANCH  46  48
BRANCH  46  52
ATOM     52  CG2 VAL d   1       1.580  -3.363 -12.465  0.00  0.00    -0.061 C 
ATOM     53 1HG2 VAL d   1       0.506  -3.553 -12.459  0.00  0.00     0.023 H 
ATOM     54 2HG2 VAL d   1       2.024  -3.818 -13.350  0.00  0.00     0.023 H 
ATOM     55 3HG2 VAL d   1       2.031  -3.792 -11.570  0.00  0.00     0.023 H 
ENDBRANCH  46  52
ENDBRANCH   6  46
TORSDOF 10
ENDMDL
MODEL 8
REMARK VINA RESULT:      -5.5      2.482      8.111
REMARK  6 active torsions:
REMARK  status: ('A' for Active; 'I' for Inactive)
REMARK    1  A    between atoms: CG1_1  and  CB_2 
REMARK    2  A    between atoms: CB_2  and  CG2_4 
REMARK    3  A    between atoms: CB_2  and  CA_5 
REMARK       I    between atoms: CA_5  and  C_7 
REMARK       I    between atoms: CA_5  and  N_18 
REMARK       I    between atoms: C_7  and  N_9 
REMARK       I    between atoms: N_9  and  CA_10 
REMARK    4  A    between atoms: CA_10  and  CB_12 
REMARK       I    between atoms: CA_10  and  C_16 
REMARK    5  A    between atoms: CB_12  and  CG1_14 
REMARK    6  A    between atoms: CB_12  and  CG2_15 
REMARK       I    between atoms: N_18  and  C_19 
REMARK       I    between atoms: C_19  and  N_21 
ROOT
ATOM      1  CA  VAL d   1       8.490   1.983  -5.838  0.00  0.00     0.103 C 
ATOM      2  HA  VAL d   1       7.953   2.192  -6.763  0.00  0.00     0.060 H 
ATOM      3  C   VAL d   1       7.534   1.422  -4.818  0.00  0.00     0.234 C 
ATOM      4  O   VAL d   1       7.620   1.758  -3.656  0.00  0.00    -0.274 OA
ATOM      5  N   VAL d   1       6.582   0.546  -5.196  0.00  0.00    -0.306 N 
ATOM      6  CA  VAL d   1       5.725  -0.085  -4.191  0.00  0.00     0.065 C 
ATOM      7  HA  VAL d   1       5.527   0.623  -3.386  0.00  0.00     0.056 H 
ATOM      8  C   VAL d   1       6.418  -1.301  -3.631  0.00  0.00     0.062 C 
ATOM      9  O   VAL d   1       7.515  -1.609  -4.031  0.00  0.00    -0.548 OA
ATOM     10  N   VAL d   1       9.078   3.223  -5.325  0.00  0.00    -0.287 N 
ATOM     11  H   VAL d   1       6.465   0.332  -6.136  0.00  0.00     0.149 HD
ATOM     12  H   VAL d   1       9.133   3.374  -4.368  0.00  0.00     0.151 HD
ATOM     13  OXT VAL d   1       5.815  -2.042  -2.687  0.00  0.00    -0.548 OA
ATOM     14  C   UNK d   0       9.543   4.154  -6.181  0.00  0.00     0.309 C 
ATOM     15  O   UNK d   0       9.474   3.965  -7.380  0.00  0.00    -0.252 OA
ATOM     16  N   UNK d   0      10.084   5.294  -5.709  0.00  0.00    -0.224 N 
ATOM     17  C   UNK d   0      10.624   6.383  -6.532  0.00  0.00     0.042 A 
ATOM     18  C   UNK d   0      11.105   7.431  -5.514  0.00  0.00     0.043 A 
ATOM     19  N   UNK d   0      10.803   6.843  -4.202  0.00  0.00    -0.310 N 
ATOM     20  C   UNK d   0      10.219   5.625  -4.369  0.00  0.00     0.207 A 
ATOM     21  N   UNK d   0       9.948   5.108  -3.185  0.00  0.00    -0.214 NA
ATOM     22  C   UNK d   0      10.342   5.962  -2.208  0.00  0.00     0.091 A 
ATOM     23  C   UNK d   0      10.895   7.085  -2.841  0.00  0.00     0.070 A 
ATOM     24  C   UNK d   0      11.388   8.137  -2.083  0.00  0.00    -0.036 A 
ATOM     25  C   UNK d   0      11.332   8.075  -0.706  0.00  0.00    -0.060 A 
ATOM     26  C   UNK d   0      10.787   6.968  -0.075  0.00  0.00    -0.060 A 
ATOM     27  C   UNK d   0      10.293   5.915  -0.812  0.00  0.00    -0.034 A 
ATOM     28  H   UNK d   0      11.457   6.025  -7.137  0.00  0.00     0.049 H 
ATOM     29  H   UNK d   0       9.844   6.803  -7.166  0.00  0.00     0.049 H 
ATOM     30  H   UNK d   0      10.559   8.366  -5.646  0.00  0.00     0.051 H 
ATOM     31  H   UNK d   0      12.176   7.598  -5.618  0.00  0.00     0.051 H 
ATOM     32  H   UNK d   0      11.814   9.002  -2.570  0.00  0.00     0.064 H 
ATOM     33  H   UNK d   0      11.717   8.894  -0.116  0.00  0.00     0.062 H 
ATOM     34  H   UNK d   0      10.750   6.930   1.004  0.00  0.00     0.062 H 
ATOM     35  H   UNK d   0       9.870   5.055  -0.313  0.00  0.00     0.064 H 
ENDROOT
BRANCH   1  36
ATOM     36  CB  VAL d   1       9.600   0.967  -6.109  0.00  0.00    -0.020 C 
ATOM     37  HB  VAL d   1      10.366   1.425  -6.736  0.00  0.00     0.032 H 
BRANCH  36  38
ATOM     38  CG1 VAL d   1      10.224   0.525  -4.784  0.00  0.00    -0.060 C 
ATOM     39 1HG1 VAL d   1       9.511  -0.092  -4.236  0.00  0.00     0.023 H 
ATOM     40 2HG1 VAL d   1      11.128  -0.051  -4.982  0.00  0.00     0.023 H 
ATOM     41 3HG1 VAL d   1      10.475   1.403  -4.189  0.00  0.00     0.023 H 
ENDBRANCH  36  38
BRANCH  36  42
ATOM     42  CG2 VAL d   1       9.015  -0.249  -6.828  0.00  0.00    -0.060 C 
ATOM     43 1HG2 VAL d   1       9.585  -1.139  -6.560  0.00  0.00     0.023 H 
ATOM     44 2HG2 VAL d   1       7.975  -0.382  -6.533  0.00  0.00     0.023 H 
ATOM     45 3HG2 VAL d   1       9.069  -0.095  -7.906  0.00  0.00     0.023 H 
ENDBRANCH  36  42
ENDBRANCH   1  36
BRANCH   6  46
ATOM     46  CB  VAL d   1       4.402  -0.505  -4.838  0.00  0.00    -0.023 C 
ATOM     47  HB  VAL d   1       4.208  -1.554  -4.619  0.00  0.00     0.032 H 
BRANCH  46  48
ATOM     48  CG1 VAL d   1       4.490  -0.308  -6.352  0.00  0.00    -0.061 C 
ATOM     49 1HG1 VAL d   1       5.096   0.572  -6.570  0.00  0.00     0.023 H 
ATOM     50 2HG1 VAL d   1       4.950  -1.186  -6.806  0.00  0.00     0.023 H 
ATOM     51 3HG1 VAL d   1       3.490  -0.169  -6.760  0.00  0.00     0.023 H 
ENDBRANCH  46  48
BRANCH  46  52
ATOM     52  CG2 VAL d   1       3.266   0.352  -4.277  0.00  0.00    -0.061 C 
ATOM     53 1HG2 VAL d   1       3.011   0.007  -3.275  0.00  0.00     0.023 H 
ATOM     54 2HG2 VAL d   1       3.584   1.394  -4.232  0.00  0.00     0.023 H 
ATOM     55 3HG2 VAL d   1       2.393   0.267  -4.925  0.00  0.00     0.023 H 
ENDBRANCH  46  52
ENDBRANCH   6  46
TORSDOF 10
ENDMDL
MODEL 9
REMARK VINA RESULT:      -5.3      7.243      9.658
REMARK  6 active torsions:
REMARK  status: ('A' for Active; 'I' for Inactive)
REMARK    1  A    between atoms: CG1_1  and  CB_2 
REMARK    2  A    between atoms: CB_2  and  CG2_4 
REMARK    3  A    between atoms: CB_2  and  CA_5 
REMARK       I    between atoms: CA_5  and  C_7 
REMARK       I    between atoms: CA_5  and  N_18 
REMARK       I    between atoms: C_7  and  N_9 
REMARK       I    between atoms: N_9  and  CA_10 
REMARK    4  A    between atoms: CA_10  and  CB_12 
REMARK       I    between atoms: CA_10  and  C_16 
REMARK    5  A    between atoms: CB_12  and  CG1_14 
REMARK    6  A    between atoms: CB_12  and  CG2_15 
REMARK       I    between atoms: N_18  and  C_19 
REMARK       I    between atoms: C_19  and  N_21 
ROOT
ATOM      1  CA  VAL d   1       5.723  -4.626  -5.554  0.00  0.00     0.103 C 
ATOM      2  HA  VAL d   1       6.098  -4.605  -4.530  0.00  0.00     0.060 H 
ATOM      3  C   VAL d   1       6.861  -4.901  -6.502  0.00  0.00     0.234 C 
ATOM      4  O   VAL d   1       6.921  -4.317  -7.563  0.00  0.00    -0.274 OA
ATOM      5  N   VAL d   1       7.812  -5.797  -6.170  0.00  0.00    -0.306 N 
ATOM      6  CA  VAL d   1       8.856  -6.148  -7.135  0.00  0.00     0.065 C 
ATOM      7  HA  VAL d   1       9.115  -5.269  -7.727  0.00  0.00     0.056 H 
ATOM      8  C   VAL d   1       8.352  -7.237  -8.047  0.00  0.00     0.062 C 
ATOM      9  O   VAL d   1       7.235  -7.675  -7.905  0.00  0.00    -0.548 OA
ATOM     10  N   VAL d   1       5.120  -3.329  -5.878  0.00  0.00    -0.287 N 
ATOM     11  H   VAL d   1       7.805  -6.209  -5.292  0.00  0.00     0.149 HD
ATOM     12  H   VAL d   1       5.196  -2.971  -6.776  0.00  0.00     0.151 HD
ATOM     13  OXT VAL d   1       9.145  -7.721  -9.017  0.00  0.00    -0.548 OA
ATOM     14  C   UNK d   0       4.462  -2.636  -4.929  0.00  0.00     0.309 C 
ATOM     15  O   UNK d   0       4.368  -3.085  -3.803  0.00  0.00    -0.252 OA
ATOM     16  N   UNK d   0       3.908  -1.444  -5.227  0.00  0.00    -0.224 N 
ATOM     17  C   UNK d   0       3.168  -0.592  -4.289  0.00  0.00     0.042 A 
ATOM     18  C   UNK d   0       2.762   0.635  -5.123  0.00  0.00     0.043 A 
ATOM     19  N   UNK d   0       3.300   0.369  -6.464  0.00  0.00    -0.310 N 
ATOM     20  C   UNK d   0       3.947  -0.828  -6.470  0.00  0.00     0.207 A 
ATOM     21  N   UNK d   0       4.431  -1.055  -7.677  0.00  0.00    -0.214 NA
ATOM     22  C   UNK d   0       4.120  -0.022  -8.499  0.00  0.00     0.091 A 
ATOM     23  C   UNK d   0       3.392   0.906  -7.738  0.00  0.00     0.070 A 
ATOM     24  C   UNK d   0       2.935   2.077  -8.323  0.00  0.00    -0.036 A 
ATOM     25  C   UNK d   0       3.199   2.327  -9.654  0.00  0.00    -0.060 A 
ATOM     26  C   UNK d   0       3.918   1.415 -10.411  0.00  0.00    -0.060 A 
ATOM     27  C   UNK d   0       4.379   0.247  -9.846  0.00  0.00    -0.034 A 
ATOM     28  H   UNK d   0       2.286  -1.112  -3.918  0.00  0.00     0.049 H 
ATOM     29  H   UNK d   0       3.810  -0.290  -3.462  0.00  0.00     0.049 H 
ATOM     30  H   UNK d   0       3.206   1.540  -4.708  0.00  0.00     0.051 H 
ATOM     31  H   UNK d   0       1.677   0.726  -5.161  0.00  0.00     0.051 H 
ATOM     32  H   UNK d   0       2.374   2.791  -7.738  0.00  0.00     0.064 H 
ATOM     33  H   UNK d   0       2.843   3.240 -10.109  0.00  0.00     0.062 H 
ATOM     34  H   UNK d   0       4.117   1.622 -11.452  0.00  0.00     0.062 H 
ATOM     35  H   UNK d   0       4.937  -0.460 -10.442  0.00  0.00     0.064 H 
ENDROOT
BRANCH   1  36
ATOM     36  CB  VAL d   1       4.668  -5.725  -5.689  0.00  0.00    -0.020 C 
ATOM     37  HB  VAL d   1       3.831  -5.510  -5.024  0.00  0.00     0.032 H 
BRANCH  36  38
ATOM     38  CG1 VAL d   1       4.169  -5.779  -7.134  0.00  0.00    -0.060 C 
ATOM     39 1HG1 VAL d   1       3.168  -6.211  -7.156  0.00  0.00     0.023 H 
ATOM     40 2HG1 VAL d   1       4.138  -4.770  -7.546  0.00  0.00     0.023 H 
ATOM     41 3HG1 VAL d   1       4.843  -6.395  -7.730  0.00  0.00     0.023 H 
ENDBRANCH  36  38
BRANCH  36  42
ATOM     42  CG2 VAL d   1       5.284  -7.073  -5.312  0.00  0.00    -0.060 C 
ATOM     43 1HG2 VAL d   1       6.371  -7.001  -5.358  0.00  0.00     0.023 H 
ATOM     44 2HG2 VAL d   1       4.980  -7.342  -4.301  0.00  0.00     0.023 H 
ATOM     45 3HG2 VAL d   1       4.941  -7.837  -6.010  0.00  0.00     0.023 H 
ENDBRANCH  36  42
ENDBRANCH   1  36
BRANCH   6  46
ATOM     46  CB  VAL d   1      10.097  -6.642  -6.387  0.00  0.00    -0.023 C 
ATOM     47  HB  VAL d   1      10.669  -7.307  -7.034  0.00  0.00     0.032 H 
BRANCH  46  48
ATOM     48  CG1 VAL d   1       9.667  -7.400  -5.131  0.00  0.00    -0.061 C 
ATOM     49 1HG1 VAL d   1       8.618  -7.684  -5.217  0.00  0.00     0.023 H 
ATOM     50 2HG1 VAL d   1      10.276  -8.297  -5.021  0.00  0.00     0.023 H 
ATOM     51 3HG1 VAL d   1       9.799  -6.762  -4.258  0.00  0.00     0.023 H 
ENDBRANCH  46  48
BRANCH  46  52
ATOM     52  CG2 VAL d   1      10.963  -5.445  -5.990  0.00  0.00    -0.061 C 
ATOM     53 1HG2 VAL d   1      11.798  -5.355  -6.685  0.00  0.00     0.023 H 
ATOM     54 2HG2 VAL d   1      10.364  -4.536  -6.022  0.00  0.00     0.023 H 
ATOM     55 3HG2 VAL d   1      11.346  -5.593  -4.980  0.00  0.00     0.023 H 
ENDBRANCH  46  52
ENDBRANCH   6  46
TORSDOF 10
ENDMDL
