MODEL 1
REMARK VINA RESULT:      -6.6      0.000      0.000
REMARK  9 active torsions:
REMARK  status: ('A' for Active; 'I' for Inactive)
REMARK    1  A    between atoms: C_1  and  C_2 
REMARK    2  A    between atoms: C_5  and  N_23 
REMARK    3  A    between atoms: C_10  and  C_11 
REMARK    4  A    between atoms: C_11  and  C_13 
REMARK    5  A    between atoms: C_16  and  O_21 
REMARK    6  A    between atoms: C_17  and  O_19 
REMARK    7  A    between atoms: O_19  and  C_20 
REMARK    8  A    between atoms: O_21  and  C_22 
REMARK       I    between atoms: N_23  and  C_24 
REMARK    9  A    between atoms: C_24  and  C_26 
ROOT
ATOM      1  C   LIG d   1       1.973  -2.178 -10.501  0.00  0.00     0.006 A 
ATOM      2  C   LIG d   1       2.511  -1.196  -9.561  0.00  0.00     0.025 A 
ATOM      3  C   LIG d   1       2.983  -1.265  -8.247  0.00  0.00    -0.029 A 
ATOM      4  C   LIG d   1       3.436  -0.117  -7.625  0.00  0.00     0.035 A 
ATOM      5  C   LIG d   1       3.423   1.101  -8.305  0.00  0.00    -0.037 A 
ATOM      6  C   LIG d   1       2.959   1.177  -9.600  0.00  0.00    -0.017 A 
ATOM      7  C   LIG d   1       2.499   0.035 -10.244  0.00  0.00     0.136 A 
ATOM      8  O   LIG d   1       2.001  -0.188 -11.478  0.00  0.00    -0.451 OA
ATOM      9  C   LIG d   1       1.687  -1.490 -11.640  0.00  0.00     0.179 A 
ATOM     10  H   LIG d   1       2.992  -2.207  -7.722  0.00  0.00     0.064 H 
ATOM     11  H   LIG d   1       3.779   1.993  -7.812  0.00  0.00     0.064 H 
ATOM     12  H   LIG d   1       2.955   2.127 -10.115  0.00  0.00     0.066 H 
ENDROOT
BRANCH   9  13
ATOM     13  C   LIG d   1       1.127  -2.078 -12.864  0.00  0.00     0.228 C 
ATOM     14  O   LIG d   1       1.866  -2.406 -13.774  0.00  0.00    -0.283 OA
BRANCH  13  15
ATOM     15  C   LIG d   1      -0.331  -2.272 -12.989  0.00  0.00     0.029 A 
ATOM     16  C   LIG d   1      -1.174  -1.167 -13.129  0.00  0.00    -0.005 A 
ATOM     17  C   LIG d   1      -2.538  -1.353 -13.249  0.00  0.00     0.162 A 
ATOM     18  H   LIG d   1      -0.762  -0.169 -13.146  0.00  0.00     0.066 H 
ATOM     19  C   LIG d   1      -3.070  -2.642 -13.222  0.00  0.00     0.162 A 
ATOM     20  C   LIG d   1      -2.232  -3.740 -13.078  0.00  0.00    -0.016 A 
ATOM     21  C   LIG d   1      -0.871  -3.561 -12.961  0.00  0.00    -0.047 A 
ATOM     22  H   LIG d   1      -2.648  -4.737 -13.055  0.00  0.00     0.066 H 
ATOM     23  H   LIG d   1      -0.222  -4.416 -12.849  0.00  0.00     0.063 H 
BRANCH  17  24
ATOM     24  O   LIG d   1      -3.361  -0.281 -13.390  0.00  0.00    -0.491 OA
BRANCH  24  25
ATOM     25  C   LIG d   1      -2.742   1.000 -13.529  0.00  0.00     0.079 C 
ATOM     26  H   LIG d   1      -2.776   1.524 -12.575  0.00  0.00     0.066 H 
ATOM     27  H   LIG d   1      -1.704   0.869 -13.835  0.00  0.00     0.066 H 
ATOM     28  H   LIG d   1      -3.273   1.581 -14.282  0.00  0.00     0.066 H 
ENDBRANCH  24  25
ENDBRANCH  17  24
BRANCH  19  29
ATOM     29  O   LIG d   1      -4.411  -2.825 -13.335  0.00  0.00    -0.491 OA
BRANCH  29  30
ATOM     30  C   LIG d   1      -5.144  -3.025 -12.126  0.00  0.00     0.079 C 
ATOM     31  H   LIG d   1      -5.443  -2.059 -11.718  0.00  0.00     0.066 H 
ATOM     32  H   LIG d   1      -6.032  -3.623 -12.334  0.00  0.00     0.066 H 
ATOM     33  H   LIG d   1      -4.516  -3.546 -11.403  0.00  0.00     0.066 H 
ENDBRANCH  29  30
ENDBRANCH  19  29
ENDBRANCH  13  15
ENDBRANCH   9  13
BRANCH   1  34
ATOM     34  C   LIG d   1       1.774  -3.651 -10.258  0.00  0.00    -0.035 C 
ATOM     35  H   LIG d   1       0.771  -3.939 -10.573  0.00  0.00     0.028 H 
ATOM     36  H   LIG d   1       2.510  -4.216 -10.831  0.00  0.00     0.028 H 
ATOM     37  H   LIG d   1       1.898  -3.865  -9.197  0.00  0.00     0.028 H 
ENDBRANCH   1  34
BRANCH   4  38
ATOM     38  N   LIG d   1       3.910  -0.176  -6.309  0.00  0.00    -0.281 N 
ATOM     39  C   LIG d   1       3.074   0.073  -5.280  0.00  0.00     0.248 C 
ATOM     40  O   LIG d   1       1.893   0.266  -5.490  0.00  0.00    -0.270 OA
ATOM     41  H   LIG d   1       4.838  -0.397  -6.137  0.00  0.00     0.155 HD
BRANCH  39  42
ATOM     42  C   LIG d   1       3.596   0.112  -3.898  0.00  0.00     0.037 A 
ATOM     43  C   LIG d   1       3.781   1.336  -3.253  0.00  0.00    -0.050 A 
ATOM     44  C   LIG d   1       4.269   1.365  -1.963  0.00  0.00    -0.061 A 
ATOM     45  H   LIG d   1       3.543   2.257  -3.762  0.00  0.00     0.062 H 
ATOM     46  C   LIG d   1       4.574   0.185  -1.308  0.00  0.00    -0.062 A 
ATOM     47  H   LIG d   1       4.413   2.311  -1.463  0.00  0.00     0.062 H 
ATOM     48  C   LIG d   1       4.392  -1.032  -1.941  0.00  0.00    -0.061 A 
ATOM     49  H   LIG d   1       4.954   0.214  -0.297  0.00  0.00     0.062 H 
ATOM     50  C   LIG d   1       3.900  -1.075  -3.229  0.00  0.00    -0.050 A 
ATOM     51  H   LIG d   1       4.631  -1.950  -1.424  0.00  0.00     0.062 H 
ATOM     52  H   LIG d   1       3.754  -2.026  -3.721  0.00  0.00     0.062 H 
ENDBRANCH  39  42
ENDBRANCH   4  38
TORSDOF 9
ENDMDL
MODEL 2
REMARK VINA RESULT:      -6.5      8.472     12.344
REMARK  9 active torsions:
REMARK  status: ('A' for Active; 'I' for Inactive)
REMARK    1  A    between atoms: C_1  and  C_2 
REMARK    2  A    between atoms: C_5  and  N_23 
REMARK    3  A    between atoms: C_10  and  C_11 
REMARK    4  A    between atoms: C_11  and  C_13 
REMARK    5  A    between atoms: C_16  and  O_21 
REMARK    6  A    between atoms: C_17  and  O_19 
REMARK    7  A    between atoms: O_19  and  C_20 
REMARK    8  A    between atoms: O_21  and  C_22 
REMARK       I    between atoms: N_23  and  C_24 
REMARK    9  A    between atoms: C_24  and  C_26 
ROOT
ATOM      1  C   LIG d   1       9.859   5.149  -5.154  0.00  0.00     0.006 A 
ATOM      2  C   LIG d   1       9.709   3.702  -5.015  0.00  0.00     0.025 A 
ATOM      3  C   LIG d   1       8.793   2.879  -4.354  0.00  0.00    -0.029 A 
ATOM      4  C   LIG d   1       8.937   1.506  -4.424  0.00  0.00     0.035 A 
ATOM      5  C   LIG d   1       9.989   0.948  -5.150  0.00  0.00    -0.037 A 
ATOM      6  C   LIG d   1      10.896   1.752  -5.803  0.00  0.00    -0.017 A 
ATOM      7  C   LIG d   1      10.770   3.135  -5.746  0.00  0.00     0.136 A 
ATOM      8  O   LIG d   1      11.488   4.148  -6.273  0.00  0.00    -0.451 OA
ATOM      9  C   LIG d   1      10.960   5.340  -5.930  0.00  0.00     0.179 A 
ATOM     10  H   LIG d   1       7.980   3.312  -3.793  0.00  0.00     0.064 H 
ATOM     11  H   LIG d   1      10.094  -0.126  -5.199  0.00  0.00     0.064 H 
ATOM     12  H   LIG d   1      11.706   1.307  -6.362  0.00  0.00     0.066 H 
ENDROOT
BRANCH   9  13
ATOM     13  C   LIG d   1      11.490   6.648  -6.339  0.00  0.00     0.228 C 
ATOM     14  O   LIG d   1      12.257   7.248  -5.608  0.00  0.00    -0.283 OA
BRANCH  13  15
ATOM     15  C   LIG d   1      11.094   7.233  -7.635  0.00  0.00     0.029 A 
ATOM     16  C   LIG d   1      11.433   8.554  -7.938  0.00  0.00    -0.005 A 
ATOM     17  C   LIG d   1      11.063   9.097  -9.154  0.00  0.00     0.162 A 
ATOM     18  H   LIG d   1      11.986   9.150  -7.227  0.00  0.00     0.066 H 
ATOM     19  C   LIG d   1      10.345   8.329 -10.070  0.00  0.00     0.162 A 
ATOM     20  C   LIG d   1      10.004   7.018  -9.766  0.00  0.00    -0.016 A 
ATOM     21  C   LIG d   1      10.373   6.470  -8.557  0.00  0.00    -0.047 A 
ATOM     22  H   LIG d   1       9.447   6.426 -10.477  0.00  0.00     0.066 H 
ATOM     23  H   LIG d   1      10.107   5.450  -8.323  0.00  0.00     0.063 H 
BRANCH  17  24
ATOM     24  O   LIG d   1      11.395  10.380  -9.455  0.00  0.00    -0.491 OA
BRANCH  24  25
ATOM     25  C   LIG d   1      11.501  11.297  -8.364  0.00  0.00     0.079 C 
ATOM     26  H   LIG d   1      10.641  11.966  -8.368  0.00  0.00     0.066 H 
ATOM     27  H   LIG d   1      11.525  10.743  -7.425  0.00  0.00     0.066 H 
ATOM     28  H   LIG d   1      12.416  11.880  -8.465  0.00  0.00     0.066 H 
ENDBRANCH  24  25
ENDBRANCH  17  24
BRANCH  19  29
ATOM     29  O   LIG d   1       9.978   8.865 -11.263  0.00  0.00    -0.491 OA
BRANCH  29  30
ATOM     30  C   LIG d   1      10.137   8.042 -12.420  0.00  0.00     0.079 C 
ATOM     31  H   LIG d   1      10.492   7.057 -12.119  0.00  0.00     0.066 H 
ATOM     32  H   LIG d   1       9.178   7.944 -12.930  0.00  0.00     0.066 H 
ATOM     33  H   LIG d   1      10.862   8.500 -13.094  0.00  0.00     0.066 H 
ENDBRANCH  29  30
ENDBRANCH  19  29
ENDBRANCH  13  15
ENDBRANCH   9  13
BRANCH   1  34
ATOM     34  C   LIG d   1       8.976   6.214  -4.557  0.00  0.00    -0.035 C 
ATOM     35  H   LIG d   1       9.568   7.106  -4.353  0.00  0.00     0.028 H 
ATOM     36  H   LIG d   1       8.179   6.461  -5.260  0.00  0.00     0.028 H 
ATOM     37  H   LIG d   1       8.541   5.847  -3.628  0.00  0.00     0.028 H 
ENDBRANCH   1  34
BRANCH   4  38
ATOM     38  N   LIG d   1       8.025   0.673  -3.765  0.00  0.00    -0.281 N 
ATOM     39  C   LIG d   1       6.859   0.348  -4.358  0.00  0.00     0.248 C 
ATOM     40  O   LIG d   1       6.636   0.708  -5.498  0.00  0.00    -0.270 OA
ATOM     41  H   LIG d   1       8.232   0.330  -2.881  0.00  0.00     0.155 HD
BRANCH  39  42
ATOM     42  C   LIG d   1       5.851  -0.446  -3.623  0.00  0.00     0.037 A 
ATOM     43  C   LIG d   1       5.520  -1.731  -4.056  0.00  0.00    -0.050 A 
ATOM     44  C   LIG d   1       4.579  -2.466  -3.365  0.00  0.00    -0.061 A 
ATOM     45  H   LIG d   1       5.999  -2.148  -4.928  0.00  0.00     0.062 H 
ATOM     46  C   LIG d   1       3.964  -1.932  -2.246  0.00  0.00    -0.062 A 
ATOM     47  H   LIG d   1       4.322  -3.460  -3.699  0.00  0.00     0.062 H 
ATOM     48  C   LIG d   1       4.288  -0.660  -1.811  0.00  0.00    -0.061 A 
ATOM     49  H   LIG d   1       3.229  -2.513  -1.709  0.00  0.00     0.062 H 
ATOM     50  C   LIG d   1       5.231   0.084  -2.490  0.00  0.00    -0.050 A 
ATOM     51  H   LIG d   1       3.805  -0.249  -0.937  0.00  0.00     0.062 H 
ATOM     52  H   LIG d   1       5.487   1.077  -2.147  0.00  0.00     0.062 H 
ENDBRANCH  39  42
ENDBRANCH   4  38
TORSDOF 9
ENDMDL
MODEL 3
REMARK VINA RESULT:      -6.4      5.976     12.676
REMARK  9 active torsions:
REMARK  status: ('A' for Active; 'I' for Inactive)
REMARK    1  A    between atoms: C_1  and  C_2 
REMARK    2  A    between atoms: C_5  and  N_23 
REMARK    3  A    between atoms: C_10  and  C_11 
REMARK    4  A    between atoms: C_11  and  C_13 
REMARK    5  A    between atoms: C_16  and  O_21 
REMARK    6  A    between atoms: C_17  and  O_19 
REMARK    7  A    between atoms: O_19  and  C_20 
REMARK    8  A    between atoms: O_21  and  C_22 
REMARK       I    between atoms: N_23  and  C_24 
REMARK    9  A    between atoms: C_24  and  C_26 
ROOT
ATOM      1  C   LIG d   1       8.723   1.622  -5.130  0.00  0.00     0.006 A 
ATOM      2  C   LIG d   1       7.444   0.915  -5.162  0.00  0.00     0.025 A 
ATOM      3  C   LIG d   1       6.708   0.281  -6.167  0.00  0.00    -0.029 A 
ATOM      4  C   LIG d   1       5.498  -0.309  -5.856  0.00  0.00     0.035 A 
ATOM      5  C   LIG d   1       5.016  -0.273  -4.548  0.00  0.00    -0.037 A 
ATOM      6  C   LIG d   1       5.734   0.350  -3.552  0.00  0.00    -0.017 A 
ATOM      7  C   LIG d   1       6.954   0.950  -3.843  0.00  0.00     0.136 A 
ATOM      8  O   LIG d   1       7.855   1.616  -3.091  0.00  0.00    -0.451 OA
ATOM      9  C   LIG d   1       8.902   2.016  -3.841  0.00  0.00     0.179 A 
ATOM     10  H   LIG d   1       7.082   0.254  -7.179  0.00  0.00     0.064 H 
ATOM     11  H   LIG d   1       4.070  -0.738  -4.314  0.00  0.00     0.064 H 
ATOM     12  H   LIG d   1       5.350   0.371  -2.543  0.00  0.00     0.066 H 
ENDROOT
BRANCH   9  13
ATOM     13  C   LIG d   1      10.065   2.762  -3.338  0.00  0.00     0.228 C 
ATOM     14  O   LIG d   1      11.092   2.171  -3.062  0.00  0.00    -0.283 OA
BRANCH  13  15
ATOM     15  C   LIG d   1       9.986   4.226  -3.170  0.00  0.00     0.029 A 
ATOM     16  C   LIG d   1      10.293   4.806  -1.937  0.00  0.00    -0.005 A 
ATOM     17  C   LIG d   1      10.222   6.177  -1.785  0.00  0.00     0.162 A 
ATOM     18  H   LIG d   1      10.589   4.185  -1.104  0.00  0.00     0.066 H 
ATOM     19  C   LIG d   1       9.834   6.978  -2.859  0.00  0.00     0.162 A 
ATOM     20  C   LIG d   1       9.525   6.401  -4.084  0.00  0.00    -0.016 A 
ATOM     21  C   LIG d   1       9.598   5.034  -4.242  0.00  0.00    -0.047 A 
ATOM     22  H   LIG d   1       9.224   7.024  -4.913  0.00  0.00     0.066 H 
ATOM     23  H   LIG d   1       9.357   4.588  -5.195  0.00  0.00     0.063 H 
BRANCH  17  24
ATOM     24  O   LIG d   1      10.524   6.745  -0.587  0.00  0.00    -0.491 OA
BRANCH  24  25
ATOM     25  C   LIG d   1      11.043   5.884   0.428  0.00  0.00     0.079 C 
ATOM     26  H   LIG d   1      10.307   5.776   1.224  0.00  0.00     0.066 H 
ATOM     27  H   LIG d   1      11.259   4.905  -0.002  0.00  0.00     0.066 H 
ATOM     28  H   LIG d   1      11.958   6.312   0.835  0.00  0.00     0.066 H 
ENDBRANCH  24  25
ENDBRANCH  17  24
BRANCH  19  29
ATOM     29  O   LIG d   1       9.760   8.326  -2.708  0.00  0.00    -0.491 OA
BRANCH  29  30
ATOM     30  C   LIG d   1      10.328   9.128  -3.744  0.00  0.00     0.079 C 
ATOM     31  H   LIG d   1      10.806  10.003  -3.305  0.00  0.00     0.066 H 
ATOM     32  H   LIG d   1      11.068   8.543  -4.291  0.00  0.00     0.066 H 
ATOM     33  H   LIG d   1       9.541   9.448  -4.428  0.00  0.00     0.066 H 
ENDBRANCH  29  30
ENDBRANCH  19  29
ENDBRANCH  13  15
ENDBRANCH   9  13
BRANCH   1  34
ATOM     34  C   LIG d   1       9.653   1.866  -6.290  0.00  0.00    -0.035 C 
ATOM     35  H   LIG d   1       9.172   2.529  -7.009  0.00  0.00     0.028 H 
ATOM     36  H   LIG d   1      10.571   2.330  -5.928  0.00  0.00     0.028 H 
ATOM     37  H   LIG d   1       9.890   0.919  -6.772  0.00  0.00     0.028 H 
ENDBRANCH   1  34
BRANCH   4  38
ATOM     38  N   LIG d   1       4.754  -0.946  -6.857  0.00  0.00    -0.281 N 
ATOM     39  C   LIG d   1       3.939  -0.225  -7.653  0.00  0.00     0.248 C 
ATOM     40  O   LIG d   1       3.915   0.987  -7.559  0.00  0.00    -0.270 OA
ATOM     41  H   LIG d   1       4.825  -1.906  -6.978  0.00  0.00     0.155 HD
BRANCH  39  42
ATOM     42  C   LIG d   1       3.077  -0.908  -8.640  0.00  0.00     0.037 A 
ATOM     43  C   LIG d   1       3.241  -2.271  -8.889  0.00  0.00    -0.050 A 
ATOM     44  C   LIG d   1       2.432  -2.902  -9.812  0.00  0.00    -0.061 A 
ATOM     45  H   LIG d   1       3.997  -2.831  -8.360  0.00  0.00     0.062 H 
ATOM     46  C   LIG d   1       1.461  -2.187 -10.490  0.00  0.00    -0.062 A 
ATOM     47  H   LIG d   1       2.558  -3.957 -10.006  0.00  0.00     0.062 H 
ATOM     48  C   LIG d   1       1.293  -0.835 -10.248  0.00  0.00    -0.061 A 
ATOM     49  H   LIG d   1       0.830  -2.686 -11.211  0.00  0.00     0.062 H 
ATOM     50  C   LIG d   1       2.091  -0.193  -9.324  0.00  0.00    -0.050 A 
ATOM     51  H   LIG d   1       0.533  -0.282 -10.780  0.00  0.00     0.062 H 
ATOM     52  H   LIG d   1       1.956   0.862  -9.132  0.00  0.00     0.062 H 
ENDBRANCH  39  42
ENDBRANCH   4  38
TORSDOF 9
ENDMDL
MODEL 4
REMARK VINA RESULT:      -6.4      8.427     13.295
REMARK  9 active torsions:
REMARK  status: ('A' for Active; 'I' for Inactive)
REMARK    1  A    between atoms: C_1  and  C_2 
REMARK    2  A    between atoms: C_5  and  N_23 
REMARK    3  A    between atoms: C_10  and  C_11 
REMARK    4  A    between atoms: C_11  and  C_13 
REMARK    5  A    between atoms: C_16  and  O_21 
REMARK    6  A    between atoms: C_17  and  O_19 
REMARK    7  A    between atoms: O_19  and  C_20 
REMARK    8  A    between atoms: O_21  and  C_22 
REMARK       I    between atoms: N_23  and  C_24 
REMARK    9  A    between atoms: C_24  and  C_26 
ROOT
ATOM      1  C   LIG d   1      10.544   4.806  -3.522  0.00  0.00     0.006 A 
ATOM      2  C   LIG d   1      10.111   3.478  -3.955  0.00  0.00     0.025 A 
ATOM      3  C   LIG d   1       9.189   2.549  -3.465  0.00  0.00    -0.029 A 
ATOM      4  C   LIG d   1       9.012   1.350  -4.130  0.00  0.00     0.035 A 
ATOM      5  C   LIG d   1       9.748   1.071  -5.281  0.00  0.00    -0.037 A 
ATOM      6  C   LIG d   1      10.659   1.981  -5.770  0.00  0.00    -0.017 A 
ATOM      7  C   LIG d   1      10.852   3.193  -5.117  0.00  0.00     0.136 A 
ATOM      8  O   LIG d   1      11.654   4.251  -5.358  0.00  0.00    -0.451 OA
ATOM      9  C   LIG d   1      11.480   5.208  -4.423  0.00  0.00     0.179 A 
ATOM     10  H   LIG d   1       8.620   2.765  -2.574  0.00  0.00     0.064 H 
ATOM     11  H   LIG d   1       9.603   0.132  -5.794  0.00  0.00     0.064 H 
ATOM     12  H   LIG d   1      11.223   1.753  -6.662  0.00  0.00     0.066 H 
ENDROOT
BRANCH   9  13
ATOM     13  C   LIG d   1      12.191   6.493  -4.388  0.00  0.00     0.228 C 
ATOM     14  O   LIG d   1      13.398   6.516  -4.234  0.00  0.00    -0.283 OA
BRANCH  13  15
ATOM     15  C   LIG d   1      11.441   7.756  -4.538  0.00  0.00     0.029 A 
ATOM     16  C   LIG d   1      10.675   7.982  -5.684  0.00  0.00    -0.005 A 
ATOM     17  C   LIG d   1       9.973   9.164  -5.819  0.00  0.00     0.162 A 
ATOM     18  H   LIG d   1      10.627   7.234  -6.461  0.00  0.00     0.066 H 
ATOM     19  C   LIG d   1      10.038  10.132  -4.818  0.00  0.00     0.162 A 
ATOM     20  C   LIG d   1      10.804   9.909  -3.681  0.00  0.00    -0.016 A 
ATOM     21  C   LIG d   1      11.504   8.730  -3.539  0.00  0.00    -0.047 A 
ATOM     22  H   LIG d   1      10.854  10.661  -2.908  0.00  0.00     0.066 H 
ATOM     23  H   LIG d   1      12.099   8.560  -2.654  0.00  0.00     0.063 H 
BRANCH  17  24
ATOM     24  O   LIG d   1       9.222   9.385  -6.931  0.00  0.00    -0.491 OA
BRANCH  24  25
ATOM     25  C   LIG d   1       9.087   8.300  -7.851  0.00  0.00     0.079 C 
ATOM     26  H   LIG d   1       8.034   8.158  -8.092  0.00  0.00     0.066 H 
ATOM     27  H   LIG d   1       9.641   8.527  -8.763  0.00  0.00     0.066 H 
ATOM     28  H   LIG d   1       9.483   7.391  -7.401  0.00  0.00     0.066 H 
ENDBRANCH  24  25
ENDBRANCH  17  24
BRANCH  19  29
ATOM     29  O   LIG d   1       9.351  11.296  -4.953  0.00  0.00    -0.491 OA
BRANCH  29  30
ATOM     30  C   LIG d   1       8.735  11.827  -3.779  0.00  0.00     0.079 C 
ATOM     31  H   LIG d   1       8.418  12.852  -3.967  0.00  0.00     0.066 H 
ATOM     32  H   LIG d   1       7.868  11.220  -3.517  0.00  0.00     0.066 H 
ATOM     33  H   LIG d   1       9.451  11.813  -2.956  0.00  0.00     0.066 H 
ENDBRANCH  29  30
ENDBRANCH  19  29
ENDBRANCH  13  15
ENDBRANCH   9  13
BRANCH   1  34
ATOM     34  C   LIG d   1      10.054   5.573  -2.322  0.00  0.00    -0.035 C 
ATOM     35  H   LIG d   1       9.447   4.919  -1.695  0.00  0.00     0.028 H 
ATOM     36  H   LIG d   1      10.908   5.934  -1.748  0.00  0.00     0.028 H 
ATOM     37  H   LIG d   1       9.453   6.419  -2.652  0.00  0.00     0.028 H 
ENDBRANCH   1  34
BRANCH   4  38
ATOM     38  N   LIG d   1       8.091   0.413  -3.646  0.00  0.00    -0.281 N 
ATOM     39  C   LIG d   1       6.870   0.314  -4.212  0.00  0.00     0.248 C 
ATOM     40  O   LIG d   1       6.600   0.979  -5.193  0.00  0.00    -0.270 OA
ATOM     41  H   LIG d   1       8.330  -0.166  -2.906  0.00  0.00     0.155 HD
BRANCH  39  42
ATOM     42  C   LIG d   1       5.862  -0.602  -3.637  0.00  0.00     0.037 A 
ATOM     43  C   LIG d   1       5.169  -0.244  -2.480  0.00  0.00    -0.050 A 
ATOM     44  C   LIG d   1       4.229  -1.104  -1.950  0.00  0.00    -0.061 A 
ATOM     45  H   LIG d   1       5.366   0.703  -2.002  0.00  0.00     0.062 H 
ATOM     46  C   LIG d   1       3.974  -2.318  -2.562  0.00  0.00    -0.062 A 
ATOM     47  H   LIG d   1       3.692  -0.828  -1.055  0.00  0.00     0.062 H 
ATOM     48  C   LIG d   1       4.657  -2.679  -3.709  0.00  0.00    -0.061 A 
ATOM     49  H   LIG d   1       3.237  -2.987  -2.143  0.00  0.00     0.062 H 
ATOM     50  C   LIG d   1       5.596  -1.826  -4.253  0.00  0.00    -0.050 A 
ATOM     51  H   LIG d   1       4.454  -3.628  -4.183  0.00  0.00     0.062 H 
ATOM     52  H   LIG d   1       6.126  -2.107  -5.152  0.00  0.00     0.062 H 
ENDBRANCH  39  42
ENDBRANCH   4  38
TORSDOF 9
ENDMDL
MODEL 5
REMARK VINA RESULT:      -6.3      7.412      9.267
REMARK  9 active torsions:
REMARK  status: ('A' for Active; 'I' for Inactive)
REMARK    1  A    between atoms: C_1  and  C_2 
REMARK    2  A    between atoms: C_5  and  N_23 
REMARK    3  A    between atoms: C_10  and  C_11 
REMARK    4  A    between atoms: C_11  and  C_13 
REMARK    5  A    between atoms: C_16  and  O_21 
REMARK    6  A    between atoms: C_17  and  O_19 
REMARK    7  A    between atoms: O_19  and  C_20 
REMARK    8  A    between atoms: O_21  and  C_22 
REMARK       I    between atoms: N_23  and  C_24 
REMARK    9  A    between atoms: C_24  and  C_26 
ROOT
ATOM      1  C   LIG d   1       5.102  -8.470  -5.940  0.00  0.00     0.006 A 
ATOM      2  C   LIG d   1       4.739  -7.074  -6.178  0.00  0.00     0.025 A 
ATOM      3  C   LIG d   1       4.619  -5.947  -5.361  0.00  0.00    -0.029 A 
ATOM      4  C   LIG d   1       4.245  -4.739  -5.916  0.00  0.00     0.035 A 
ATOM      5  C   LIG d   1       3.989  -4.646  -7.285  0.00  0.00    -0.037 A 
ATOM      6  C   LIG d   1       4.104  -5.752  -8.097  0.00  0.00    -0.017 A 
ATOM      7  C   LIG d   1       4.480  -6.977  -7.559  0.00  0.00     0.136 A 
ATOM      8  O   LIG d   1       4.670  -8.200  -8.096  0.00  0.00    -0.451 OA
ATOM      9  C   LIG d   1       5.037  -9.088  -7.150  0.00  0.00     0.179 A 
ATOM     10  H   LIG d   1       4.817  -6.021  -4.302  0.00  0.00     0.064 H 
ATOM     11  H   LIG d   1       3.697  -3.698  -7.711  0.00  0.00     0.064 H 
ATOM     12  H   LIG d   1       3.904  -5.666  -9.155  0.00  0.00     0.066 H 
ENDROOT
BRANCH   9  13
ATOM     13  C   LIG d   1       5.329 -10.507  -7.391  0.00  0.00     0.228 C 
ATOM     14  O   LIG d   1       6.480 -10.874  -7.543  0.00  0.00    -0.283 OA
BRANCH  13  15
ATOM     15  C   LIG d   1       4.227 -11.488  -7.450  0.00  0.00     0.029 A 
ATOM     16  C   LIG d   1       3.652 -11.821  -8.678  0.00  0.00    -0.005 A 
ATOM     17  C   LIG d   1       2.623 -12.742  -8.728  0.00  0.00     0.162 A 
ATOM     18  H   LIG d   1       4.011 -11.363  -9.588  0.00  0.00     0.066 H 
ATOM     19  C   LIG d   1       2.155 -13.329  -7.553  0.00  0.00     0.162 A 
ATOM     20  C   LIG d   1       2.725 -12.994  -6.331  0.00  0.00    -0.016 A 
ATOM     21  C   LIG d   1       3.754 -12.079  -6.275  0.00  0.00    -0.047 A 
ATOM     22  H   LIG d   1       2.360 -13.450  -5.423  0.00  0.00     0.066 H 
ATOM     23  H   LIG d   1       4.194 -11.820  -5.324  0.00  0.00     0.063 H 
BRANCH  17  24
ATOM     24  O   LIG d   1       2.064 -13.072  -9.923  0.00  0.00    -0.491 OA
BRANCH  24  25
ATOM     25  C   LIG d   1       1.173 -12.120 -10.508  0.00  0.00     0.079 C 
ATOM     26  H   LIG d   1       1.142 -12.269 -11.587  0.00  0.00     0.066 H 
ATOM     27  H   LIG d   1       0.174 -12.255 -10.094  0.00  0.00     0.066 H 
ATOM     28  H   LIG d   1       1.524 -11.112 -10.290  0.00  0.00     0.066 H 
ENDBRANCH  24  25
ENDBRANCH  17  24
BRANCH  19  29
ATOM     29  O   LIG d   1       1.141 -14.231  -7.602  0.00  0.00    -0.491 OA
BRANCH  29  30
ATOM     30  C   LIG d   1       0.976 -15.084  -6.469  0.00  0.00     0.079 C 
ATOM     31  H   LIG d   1       1.951 -15.444  -6.140  0.00  0.00     0.066 H 
ATOM     32  H   LIG d   1       0.501 -14.527  -5.661  0.00  0.00     0.066 H 
ATOM     33  H   LIG d   1       0.348 -15.933  -6.743  0.00  0.00     0.066 H 
ENDBRANCH  29  30
ENDBRANCH  19  29
ENDBRANCH  13  15
ENDBRANCH   9  13
BRANCH   1  34
ATOM     34  C   LIG d   1       5.472  -9.098  -4.621  0.00  0.00    -0.035 C 
ATOM     35  H   LIG d   1       4.693  -8.890  -3.888  0.00  0.00     0.028 H 
ATOM     36  H   LIG d   1       5.571 -10.177  -4.747  0.00  0.00     0.028 H 
ATOM     37  H   LIG d   1       6.418  -8.684  -4.274  0.00  0.00     0.028 H 
ENDBRANCH   1  34
BRANCH   4  38
ATOM     38  N   LIG d   1       4.122  -3.605  -5.105  0.00  0.00    -0.281 N 
ATOM     39  C   LIG d   1       5.222  -2.920  -4.733  0.00  0.00     0.248 C 
ATOM     40  O   LIG d   1       6.312  -3.237  -5.170  0.00  0.00    -0.270 OA
ATOM     41  H   LIG d   1       3.246  -3.311  -4.811  0.00  0.00     0.155 HD
BRANCH  39  42
ATOM     42  C   LIG d   1       5.104  -1.784  -3.794  0.00  0.00     0.037 A 
ATOM     43  C   LIG d   1       4.316  -1.903  -2.648  0.00  0.00    -0.050 A 
ATOM     44  C   LIG d   1       4.210  -0.839  -1.776  0.00  0.00    -0.061 A 
ATOM     45  H   LIG d   1       3.792  -2.824  -2.444  0.00  0.00     0.062 H 
ATOM     46  C   LIG d   1       4.881   0.343  -2.035  0.00  0.00    -0.062 A 
ATOM     47  H   LIG d   1       3.600  -0.929  -0.889  0.00  0.00     0.062 H 
ATOM     48  C   LIG d   1       5.664   0.466  -3.169  0.00  0.00    -0.061 A 
ATOM     49  H   LIG d   1       4.795   1.172  -1.348  0.00  0.00     0.062 H 
ATOM     50  C   LIG d   1       5.783  -0.591  -4.046  0.00  0.00    -0.050 A 
ATOM     51  H   LIG d   1       6.186   1.391  -3.366  0.00  0.00     0.062 H 
ATOM     52  H   LIG d   1       6.399  -0.495  -4.929  0.00  0.00     0.062 H 
ENDBRANCH  39  42
ENDBRANCH   4  38
TORSDOF 9
ENDMDL
MODEL 6
REMARK VINA RESULT:      -6.2      3.819      5.762
REMARK  9 active torsions:
REMARK  status: ('A' for Active; 'I' for Inactive)
REMARK    1  A    between atoms: C_1  and  C_2 
REMARK    2  A    between atoms: C_5  and  N_23 
REMARK    3  A    between atoms: C_10  and  C_11 
REMARK    4  A    between atoms: C_11  and  C_13 
REMARK    5  A    between atoms: C_16  and  O_21 
REMARK    6  A    between atoms: C_17  and  O_19 
REMARK    7  A    between atoms: O_19  and  C_20 
REMARK    8  A    between atoms: O_21  and  C_22 
REMARK       I    between atoms: N_23  and  C_24 
REMARK    9  A    between atoms: C_24  and  C_26 
ROOT
ATOM      1  C   LIG d   1       3.515  -1.715 -11.209  0.00  0.00     0.006 A 
ATOM      2  C   LIG d   1       3.369  -0.881 -10.017  0.00  0.00     0.025 A 
ATOM      3  C   LIG d   1       3.355  -1.141  -8.644  0.00  0.00    -0.029 A 
ATOM      4  C   LIG d   1       3.192  -0.096  -7.755  0.00  0.00     0.035 A 
ATOM      5  C   LIG d   1       3.044   1.209  -8.226  0.00  0.00    -0.037 A 
ATOM      6  C   LIG d   1       3.057   1.474  -9.577  0.00  0.00    -0.017 A 
ATOM      7  C   LIG d   1       3.219   0.437 -10.489  0.00  0.00     0.136 A 
ATOM      8  O   LIG d   1       3.271   0.396 -11.836  0.00  0.00    -0.451 OA
ATOM      9  C   LIG d   1       3.445  -0.869 -12.271  0.00  0.00     0.179 A 
ATOM     10  H   LIG d   1       3.469  -2.151  -8.281  0.00  0.00     0.064 H 
ATOM     11  H   LIG d   1       2.918   2.020  -7.523  0.00  0.00     0.064 H 
ATOM     12  H   LIG d   1       2.941   2.488  -9.928  0.00  0.00     0.066 H 
ENDROOT
BRANCH   9  13
ATOM     13  C   LIG d   1       3.550  -1.270 -13.680  0.00  0.00     0.228 C 
ATOM     14  O   LIG d   1       2.687  -1.970 -14.179  0.00  0.00    -0.283 OA
BRANCH  13  15
ATOM     15  C   LIG d   1       4.700  -0.825 -14.492  0.00  0.00     0.029 A 
ATOM     16  C   LIG d   1       4.487  -0.178 -15.711  0.00  0.00    -0.005 A 
ATOM     17  C   LIG d   1       5.567   0.239 -16.466  0.00  0.00     0.162 A 
ATOM     18  H   LIG d   1       3.482  -0.001 -16.063  0.00  0.00     0.066 H 
ATOM     19  C   LIG d   1       6.865   0.005 -16.014  0.00  0.00     0.162 A 
ATOM     20  C   LIG d   1       7.076  -0.643 -14.803  0.00  0.00    -0.016 A 
ATOM     21  C   LIG d   1       6.004  -1.058 -14.045  0.00  0.00    -0.047 A 
ATOM     22  H   LIG d   1       8.083  -0.824 -14.457  0.00  0.00     0.066 H 
ATOM     23  H   LIG d   1       6.171  -1.562 -13.105  0.00  0.00     0.063 H 
BRANCH  17  24
ATOM     24  O   LIG d   1       5.364   0.874 -17.651  0.00  0.00    -0.491 OA
BRANCH  24  25
ATOM     25  C   LIG d   1       4.083   0.711 -18.264  0.00  0.00     0.079 C 
ATOM     26  H   LIG d   1       3.636  -0.224 -17.927  0.00  0.00     0.066 H 
ATOM     27  H   LIG d   1       3.438   1.544 -17.982  0.00  0.00     0.066 H 
ATOM     28  H   LIG d   1       4.198   0.690 -19.347  0.00  0.00     0.066 H 
ENDBRANCH  24  25
ENDBRANCH  17  24
BRANCH  19  29
ATOM     29  O   LIG d   1       7.926   0.412 -16.758  0.00  0.00    -0.491 OA
BRANCH  29  30
ATOM     30  C   LIG d   1       8.724  -0.608 -17.362  0.00  0.00     0.079 C 
ATOM     31  H   LIG d   1       9.599  -0.155 -17.829  0.00  0.00     0.066 H 
ATOM     32  H   LIG d   1       9.044  -1.318 -16.600  0.00  0.00     0.066 H 
ATOM     33  H   LIG d   1       8.136  -1.128 -18.119  0.00  0.00     0.066 H 
ENDBRANCH  29  30
ENDBRANCH  19  29
ENDBRANCH  13  15
ENDBRANCH   9  13
BRANCH   1  34
ATOM     34  C   LIG d   1       3.704  -3.209 -11.252  0.00  0.00    -0.035 C 
ATOM     35  H   LIG d   1       4.592  -3.480 -10.680  0.00  0.00     0.028 H 
ATOM     36  H   LIG d   1       2.831  -3.699 -10.818  0.00  0.00     0.028 H 
ATOM     37  H   LIG d   1       3.825  -3.531 -12.285  0.00  0.00     0.028 H 
ENDBRANCH   1  34
BRANCH   4  38
ATOM     38  N   LIG d   1       3.176  -0.347  -6.377  0.00  0.00    -0.281 N 
ATOM     39  C   LIG d   1       4.310  -0.226  -5.657  0.00  0.00     0.248 C 
ATOM     40  O   LIG d   1       5.325   0.182  -6.187  0.00  0.00    -0.270 OA
ATOM     41  H   LIG d   1       2.350  -0.607  -5.941  0.00  0.00     0.155 HD
BRANCH  39  42
ATOM     42  C   LIG d   1       4.317  -0.589  -4.224  0.00  0.00     0.037 A 
ATOM     43  C   LIG d   1       4.633   0.370  -3.260  0.00  0.00    -0.050 A 
ATOM     44  C   LIG d   1       4.638   0.024  -1.925  0.00  0.00    -0.061 A 
ATOM     45  H   LIG d   1       4.871   1.379  -3.558  0.00  0.00     0.062 H 
ATOM     46  C   LIG d   1       4.332  -1.270  -1.540  0.00  0.00    -0.062 A 
ATOM     47  H   LIG d   1       4.882   0.764  -1.178  0.00  0.00     0.062 H 
ATOM     48  C   LIG d   1       4.017  -2.224  -2.491  0.00  0.00    -0.061 A 
ATOM     49  H   LIG d   1       4.337  -1.535  -0.493  0.00  0.00     0.062 H 
ATOM     50  C   LIG d   1       4.003  -1.891  -3.829  0.00  0.00    -0.050 A 
ATOM     51  H   LIG d   1       3.779  -3.233  -2.185  0.00  0.00     0.062 H 
ATOM     52  H   LIG d   1       3.754  -2.636  -4.571  0.00  0.00     0.062 H 
ENDBRANCH  39  42
ENDBRANCH   4  38
TORSDOF 9
ENDMDL
MODEL 7
REMARK VINA RESULT:      -6.1      2.233      2.893
REMARK  9 active torsions:
REMARK  status: ('A' for Active; 'I' for Inactive)
REMARK    1  A    between atoms: C_1  and  C_2 
REMARK    2  A    between atoms: C_5  and  N_23 
REMARK    3  A    between atoms: C_10  and  C_11 
REMARK    4  A    between atoms: C_11  and  C_13 
REMARK    5  A    between atoms: C_16  and  O_21 
REMARK    6  A    between atoms: C_17  and  O_19 
REMARK    7  A    between atoms: O_19  and  C_20 
REMARK    8  A    between atoms: O_21  and  C_22 
REMARK       I    between atoms: N_23  and  C_24 
REMARK    9  A    between atoms: C_24  and  C_26 
ROOT
ATOM      1  C   LIG d   1       3.216  -2.206 -11.109  0.00  0.00     0.006 A 
ATOM      2  C   LIG d   1       3.142  -1.268  -9.990  0.00  0.00     0.025 A 
ATOM      3  C   LIG d   1       3.161  -1.410  -8.600  0.00  0.00    -0.029 A 
ATOM      4  C   LIG d   1       3.069  -0.287  -7.800  0.00  0.00     0.035 A 
ATOM      5  C   LIG d   1       2.959   0.978  -8.376  0.00  0.00    -0.037 A 
ATOM      6  C   LIG d   1       2.938   1.127  -9.745  0.00  0.00    -0.017 A 
ATOM      7  C   LIG d   1       3.030   0.011 -10.569  0.00  0.00     0.136 A 
ATOM      8  O   LIG d   1       3.036  -0.147 -11.909  0.00  0.00    -0.451 OA
ATOM      9  C   LIG d   1       3.146  -1.450 -12.238  0.00  0.00     0.179 A 
ATOM     10  H   LIG d   1       3.246  -2.389  -8.155  0.00  0.00     0.064 H 
ATOM     11  H   LIG d   1       2.888   1.850  -7.743  0.00  0.00     0.064 H 
ATOM     12  H   LIG d   1       2.853   2.112 -10.179  0.00  0.00     0.066 H 
ENDROOT
BRANCH   9  13
ATOM     13  C   LIG d   1       3.189  -1.974 -13.610  0.00  0.00     0.228 C 
ATOM     14  O   LIG d   1       4.257  -2.267 -14.116  0.00  0.00    -0.283 OA
BRANCH  13  15
ATOM     15  C   LIG d   1       1.938  -2.146 -14.375  0.00  0.00     0.029 A 
ATOM     16  C   LIG d   1       1.939  -1.986 -15.762  0.00  0.00    -0.005 A 
ATOM     17  C   LIG d   1       0.767  -2.151 -16.474  0.00  0.00     0.162 A 
ATOM     18  H   LIG d   1       2.854  -1.737 -16.279  0.00  0.00     0.066 H 
ATOM     19  C   LIG d   1      -0.416  -2.467 -15.805  0.00  0.00     0.162 A 
ATOM     20  C   LIG d   1      -0.417  -2.620 -14.425  0.00  0.00    -0.016 A 
ATOM     21  C   LIG d   1       0.750  -2.461 -13.710  0.00  0.00    -0.047 A 
ATOM     22  H   LIG d   1      -1.335  -2.864 -13.910  0.00  0.00     0.066 H 
ATOM     23  H   LIG d   1       0.746  -2.581 -12.637  0.00  0.00     0.063 H 
BRANCH  17  24
ATOM     24  O   LIG d   1       0.764  -2.001 -17.825  0.00  0.00    -0.491 OA
BRANCH  24  25
ATOM     25  C   LIG d   1       0.808  -0.665 -18.330  0.00  0.00     0.079 C 
ATOM     26  H   LIG d   1      -0.155  -0.412 -18.772  0.00  0.00     0.066 H 
ATOM     27  H   LIG d   1       1.026   0.025 -17.514  0.00  0.00     0.066 H 
ATOM     28  H   LIG d   1       1.587  -0.588 -19.088  0.00  0.00     0.066 H 
ENDBRANCH  24  25
ENDBRANCH  17  24
BRANCH  19  29
ATOM     29  O   LIG d   1      -1.569  -2.624 -16.505  0.00  0.00    -0.491 OA
BRANCH  29  30
ATOM     30  C   LIG d   1      -2.540  -1.581 -16.400  0.00  0.00     0.079 C 
ATOM     31  H   LIG d   1      -3.482  -1.996 -16.044  0.00  0.00     0.066 H 
ATOM     32  H   LIG d   1      -2.186  -0.825 -15.699  0.00  0.00     0.066 H 
ATOM     33  H   LIG d   1      -2.691  -1.126 -17.380  0.00  0.00     0.066 H 
ENDBRANCH  29  30
ENDBRANCH  19  29
ENDBRANCH  13  15
ENDBRANCH   9  13
BRANCH   1  34
ATOM     34  C   LIG d   1       3.343  -3.705 -11.029  0.00  0.00    -0.035 C 
ATOM     35  H   LIG d   1       4.361  -3.998 -11.288  0.00  0.00     0.028 H 
ATOM     36  H   LIG d   1       3.119  -4.035 -10.014  0.00  0.00     0.028 H 
ATOM     37  H   LIG d   1       2.644  -4.167 -11.724  0.00  0.00     0.028 H 
ENDBRANCH   1  34
BRANCH   4  38
ATOM     38  N   LIG d   1       3.088  -0.419  -6.406  0.00  0.00    -0.281 N 
ATOM     39  C   LIG d   1       4.252  -0.315  -5.734  0.00  0.00     0.248 C 
ATOM     40  O   LIG d   1       5.272  -0.022  -6.328  0.00  0.00    -0.270 OA
ATOM     41  H   LIG d   1       2.263  -0.585  -5.923  0.00  0.00     0.155 HD
BRANCH  39  42
ATOM     42  C   LIG d   1       4.288  -0.556  -4.276  0.00  0.00     0.037 A 
ATOM     43  C   LIG d   1       4.019  -1.828  -3.770  0.00  0.00    -0.050 A 
ATOM     44  C   LIG d   1       4.055  -2.046  -2.408  0.00  0.00    -0.061 A 
ATOM     45  H   LIG d   1       3.785  -2.640  -4.441  0.00  0.00     0.062 H 
ATOM     46  C   LIG d   1       4.356  -1.007  -1.545  0.00  0.00    -0.062 A 
ATOM     47  H   LIG d   1       3.846  -3.030  -2.014  0.00  0.00     0.062 H 
ATOM     48  C   LIG d   1       4.624   0.256  -2.040  0.00  0.00    -0.061 A 
ATOM     49  H   LIG d   1       4.383  -1.184  -0.480  0.00  0.00     0.062 H 
ATOM     50  C   LIG d   1       4.597   0.487  -3.400  0.00  0.00    -0.050 A 
ATOM     51  H   LIG d   1       4.859   1.063  -1.362  0.00  0.00     0.062 H 
ATOM     52  H   LIG d   1       4.811   1.473  -3.787  0.00  0.00     0.062 H 
ENDBRANCH  39  42
ENDBRANCH   4  38
TORSDOF 9
ENDMDL
MODEL 8
REMARK VINA RESULT:      -6.0      6.642     12.799
REMARK  9 active torsions:
REMARK  status: ('A' for Active; 'I' for Inactive)
REMARK    1  A    between atoms: C_1  and  C_2 
REMARK    2  A    between atoms: C_5  and  N_23 
REMARK    3  A    between atoms: C_10  and  C_11 
REMARK    4  A    between atoms: C_11  and  C_13 
REMARK    5  A    between atoms: C_16  and  O_21 
REMARK    6  A    between atoms: C_17  and  O_19 
REMARK    7  A    between atoms: O_19  and  C_20 
REMARK    8  A    between atoms: O_21  and  C_22 
REMARK       I    between atoms: N_23  and  C_24 
REMARK    9  A    between atoms: C_24  and  C_26 
ROOT
ATOM      1  C   LIG d   1       8.844   2.375  -5.083  0.00  0.00     0.006 A 
ATOM      2  C   LIG d   1       8.473   2.131  -6.476  0.00  0.00     0.025 A 
ATOM      3  C   LIG d   1       7.429   1.440  -7.097  0.00  0.00    -0.029 A 
ATOM      4  C   LIG d   1       7.364   1.399  -8.476  0.00  0.00     0.035 A 
ATOM      5  C   LIG d   1       8.335   2.044  -9.243  0.00  0.00    -0.037 A 
ATOM      6  C   LIG d   1       9.368   2.727  -8.639  0.00  0.00    -0.017 A 
ATOM      7  C   LIG d   1       9.451   2.781  -7.253  0.00  0.00     0.136 A 
ATOM      8  O   LIG d   1      10.326   3.359  -6.405  0.00  0.00    -0.451 OA
ATOM      9  C   LIG d   1       9.978   3.127  -5.123  0.00  0.00     0.179 A 
ATOM     10  H   LIG d   1       6.679   0.941  -6.503  0.00  0.00     0.064 H 
ATOM     11  H   LIG d   1       8.277   2.008 -10.321  0.00  0.00     0.064 H 
ATOM     12  H   LIG d   1      10.113   3.222  -9.244  0.00  0.00     0.066 H 
ENDROOT
BRANCH   9  13
ATOM     13  C   LIG d   1      10.709   3.616  -3.946  0.00  0.00     0.228 C 
ATOM     14  O   LIG d   1      11.523   2.899  -3.395  0.00  0.00    -0.283 OA
BRANCH  13  15
ATOM     15  C   LIG d   1      10.457   4.978  -3.434  0.00  0.00     0.029 A 
ATOM     16  C   LIG d   1      10.405   6.059  -4.317  0.00  0.00    -0.005 A 
ATOM     17  C   LIG d   1      10.166   7.330  -3.834  0.00  0.00     0.162 A 
ATOM     18  H   LIG d   1      10.547   5.902  -5.376  0.00  0.00     0.066 H 
ATOM     19  C   LIG d   1       9.988   7.534  -2.465  0.00  0.00     0.162 A 
ATOM     20  C   LIG d   1      10.045   6.459  -1.587  0.00  0.00    -0.016 A 
ATOM     21  C   LIG d   1      10.279   5.188  -2.064  0.00  0.00    -0.047 A 
ATOM     22  H   LIG d   1       9.907   6.621  -0.529  0.00  0.00     0.066 H 
ATOM     23  H   LIG d   1      10.322   4.355  -1.379  0.00  0.00     0.063 H 
BRANCH  17  24
ATOM     24  O   LIG d   1      10.110   8.385  -4.691  0.00  0.00    -0.491 OA
BRANCH  24  25
ATOM     25  C   LIG d   1       9.262   8.249  -5.833  0.00  0.00     0.079 C 
ATOM     26  H   LIG d   1       9.784   7.689  -6.608  0.00  0.00     0.066 H 
ATOM     27  H   LIG d   1       8.354   7.716  -5.549  0.00  0.00     0.066 H 
ATOM     28  H   LIG d   1       9.000   9.237  -6.211  0.00  0.00     0.066 H 
ENDBRANCH  24  25
ENDBRANCH  17  24
BRANCH  19  29
ATOM     29  O   LIG d   1       9.757   8.785  -1.990  0.00  0.00    -0.491 OA
BRANCH  29  30
ATOM     30  C   LIG d   1       8.883   8.902  -0.867  0.00  0.00     0.079 C 
ATOM     31  H   LIG d   1       8.666   9.955  -0.683  0.00  0.00     0.066 H 
ATOM     32  H   LIG d   1       7.954   8.369  -1.072  0.00  0.00     0.066 H 
ATOM     33  H   LIG d   1       9.363   8.471   0.013  0.00  0.00     0.066 H 
ENDBRANCH  29  30
ENDBRANCH  19  29
ENDBRANCH  13  15
ENDBRANCH   9  13
BRANCH   1  34
ATOM     34  C   LIG d   1       8.120   1.892  -3.854  0.00  0.00    -0.035 C 
ATOM     35  H   LIG d   1       7.517   1.020  -4.106  0.00  0.00     0.028 H 
ATOM     36  H   LIG d   1       8.847   1.620  -3.087  0.00  0.00     0.028 H 
ATOM     37  H   LIG d   1       7.475   2.684  -3.477  0.00  0.00     0.028 H 
ENDBRANCH   1  34
BRANCH   4  38
ATOM     38  N   LIG d   1       6.322   0.709  -9.107  0.00  0.00    -0.281 N 
ATOM     39  C   LIG d   1       5.215   1.371  -9.498  0.00  0.00     0.248 C 
ATOM     40  O   LIG d   1       5.156   2.580  -9.379  0.00  0.00    -0.270 OA
ATOM     41  H   LIG d   1       6.397  -0.245  -9.264  0.00  0.00     0.155 HD
BRANCH  39  42
ATOM     42  C   LIG d   1       4.072   0.628 -10.070  0.00  0.00     0.037 A 
ATOM     43  C   LIG d   1       4.131   0.155 -11.382  0.00  0.00    -0.050 A 
ATOM     44  C   LIG d   1       3.061  -0.538 -11.909  0.00  0.00    -0.061 A 
ATOM     45  H   LIG d   1       5.011   0.329 -11.981  0.00  0.00     0.062 H 
ATOM     46  C   LIG d   1       1.932  -0.764 -11.142  0.00  0.00    -0.062 A 
ATOM     47  H   LIG d   1       3.105  -0.905 -12.924  0.00  0.00     0.062 H 
ATOM     48  C   LIG d   1       1.868  -0.298  -9.841  0.00  0.00    -0.061 A 
ATOM     49  H   LIG d   1       1.098  -1.308 -11.560  0.00  0.00     0.062 H 
ATOM     50  C   LIG d   1       2.932   0.392  -9.299  0.00  0.00    -0.050 A 
ATOM     51  H   LIG d   1       0.984  -0.477  -9.247  0.00  0.00     0.062 H 
ATOM     52  H   LIG d   1       2.883   0.751  -8.282  0.00  0.00     0.062 H 
ENDBRANCH  39  42
ENDBRANCH   4  38
TORSDOF 9
ENDMDL
MODEL 9
REMARK VINA RESULT:      -6.0      1.452      2.435
REMARK  9 active torsions:
REMARK  status: ('A' for Active; 'I' for Inactive)
REMARK    1  A    between atoms: C_1  and  C_2 
REMARK    2  A    between atoms: C_5  and  N_23 
REMARK    3  A    between atoms: C_10  and  C_11 
REMARK    4  A    between atoms: C_11  and  C_13 
REMARK    5  A    between atoms: C_16  and  O_21 
REMARK    6  A    between atoms: C_17  and  O_19 
REMARK    7  A    between atoms: O_19  and  C_20 
REMARK    8  A    between atoms: O_21  and  C_22 
REMARK       I    between atoms: N_23  and  C_24 
REMARK    9  A    between atoms: C_24  and  C_26 
ROOT
ATOM      1  C   LIG d   1       2.223  -1.988 -10.534  0.00  0.00     0.006 A 
ATOM      2  C   LIG d   1       2.604  -0.944  -9.584  0.00  0.00     0.025 A 
ATOM      3  C   LIG d   1       2.711  -0.888  -8.192  0.00  0.00    -0.029 A 
ATOM      4  C   LIG d   1       3.110   0.288  -7.586  0.00  0.00     0.035 A 
ATOM      5  C   LIG d   1       3.404   1.411  -8.360  0.00  0.00    -0.037 A 
ATOM      6  C   LIG d   1       3.301   1.365  -9.733  0.00  0.00    -0.017 A 
ATOM      7  C   LIG d   1       2.901   0.192 -10.362  0.00  0.00     0.136 A 
ATOM      8  O   LIG d   1       2.715  -0.141 -11.657  0.00  0.00    -0.451 OA
ATOM      9  C   LIG d   1       2.316  -1.425 -11.769  0.00  0.00     0.179 A 
ATOM     10  H   LIG d   1       2.483  -1.757  -7.595  0.00  0.00     0.064 H 
ATOM     11  H   LIG d   1       3.716   2.326  -7.878  0.00  0.00     0.064 H 
ATOM     12  H   LIG d   1       3.532   2.241 -10.320  0.00  0.00     0.066 H 
ENDROOT
BRANCH   9  13
ATOM     13  C   LIG d   1       2.029  -2.112 -13.035  0.00  0.00     0.228 C 
ATOM     14  O   LIG d   1       2.929  -2.333 -13.824  0.00  0.00    -0.283 OA
BRANCH  13  15
ATOM     15  C   LIG d   1       0.650  -2.535 -13.350  0.00  0.00     0.029 A 
ATOM     16  C   LIG d   1       0.412  -3.803 -13.886  0.00  0.00    -0.005 A 
ATOM     17  C   LIG d   1      -0.880  -4.195 -14.176  0.00  0.00     0.162 A 
ATOM     18  H   LIG d   1       1.236  -4.477 -14.070  0.00  0.00     0.066 H 
ATOM     19  C   LIG d   1      -1.943  -3.322 -13.944  0.00  0.00     0.162 A 
ATOM     20  C   LIG d   1      -1.705  -2.060 -13.416  0.00  0.00    -0.016 A 
ATOM     21  C   LIG d   1      -0.419  -1.664 -13.121  0.00  0.00    -0.047 A 
ATOM     22  H   LIG d   1      -2.530  -1.386 -13.238  0.00  0.00     0.066 H 
ATOM     23  H   LIG d   1      -0.237  -0.682 -12.711  0.00  0.00     0.063 H 
BRANCH  17  24
ATOM     24  O   LIG d   1      -1.116  -5.431 -14.693  0.00  0.00    -0.491 OA
BRANCH  24  25
ATOM     25  C   LIG d   1      -0.965  -6.544 -13.810  0.00  0.00     0.079 C 
ATOM     26  H   LIG d   1      -1.857  -7.168 -13.858  0.00  0.00     0.066 H 
ATOM     27  H   LIG d   1      -0.095  -7.130 -14.111  0.00  0.00     0.066 H 
ATOM     28  H   LIG d   1      -0.826  -6.184 -12.791  0.00  0.00     0.066 H 
ENDBRANCH  24  25
ENDBRANCH  17  24
BRANCH  19  29
ATOM     29  O   LIG d   1      -3.212  -3.707 -14.234  0.00  0.00    -0.491 OA
BRANCH  29  30
ATOM     30  C   LIG d   1      -3.915  -2.941 -15.213  0.00  0.00     0.079 C 
ATOM     31  H   LIG d   1      -3.520  -1.925 -15.231  0.00  0.00     0.066 H 
ATOM     32  H   LIG d   1      -3.787  -3.399 -16.194  0.00  0.00     0.066 H 
ATOM     33  H   LIG d   1      -4.976  -2.914 -14.960  0.00  0.00     0.066 H 
ENDBRANCH  29  30
ENDBRANCH  19  29
ENDBRANCH  13  15
ENDBRANCH   9  13
BRANCH   1  34
ATOM     34  C   LIG d   1       1.810  -3.400 -10.211  0.00  0.00    -0.035 C 
ATOM     35  H   LIG d   1       2.296  -3.719  -9.290  0.00  0.00     0.028 H 
ATOM     36  H   LIG d   1       0.728  -3.442 -10.083  0.00  0.00     0.028 H 
ATOM     37  H   LIG d   1       2.105  -4.060 -11.025  0.00  0.00     0.028 H 
ENDBRANCH   1  34
BRANCH   4  38
ATOM     38  N   LIG d   1       3.220   0.353  -6.192  0.00  0.00    -0.281 N 
ATOM     39  C   LIG d   1       4.273  -0.216  -5.572  0.00  0.00     0.248 C 
ATOM     40  O   LIG d   1       5.169  -0.712  -6.227  0.00  0.00    -0.270 OA
ATOM     41  H   LIG d   1       2.540   0.809  -5.672  0.00  0.00     0.155 HD
BRANCH  39  42
ATOM     42  C   LIG d   1       4.338  -0.237  -4.095  0.00  0.00     0.037 A 
ATOM     43  C   LIG d   1       4.469  -1.450  -3.417  0.00  0.00    -0.050 A 
ATOM     44  C   LIG d   1       4.529  -1.462  -2.039  0.00  0.00    -0.061 A 
ATOM     45  H   LIG d   1       4.525  -2.376  -3.969  0.00  0.00     0.062 H 
ATOM     46  C   LIG d   1       4.459  -0.277  -1.329  0.00  0.00    -0.062 A 
ATOM     47  H   LIG d   1       4.630  -2.400  -1.513  0.00  0.00     0.062 H 
ATOM     48  C   LIG d   1       4.330   0.929  -1.995  0.00  0.00    -0.061 A 
ATOM     49  H   LIG d   1       4.507  -0.292  -0.250  0.00  0.00     0.062 H 
ATOM     50  C   LIG d   1       4.274   0.956  -3.373  0.00  0.00    -0.050 A 
ATOM     51  H   LIG d   1       4.275   1.851  -1.435  0.00  0.00     0.062 H 
ATOM     52  H   LIG d   1       4.177   1.898  -3.893  0.00  0.00     0.062 H 
ENDBRANCH  39  42
ENDBRANCH   4  38
TORSDOF 9
ENDMDL
