MODEL 1
REMARK VINA RESULT:      -6.8      0.000      0.000
REMARK  8 active torsions:
REMARK  status: ('A' for Active; 'I' for Inactive)
REMARK    1  A    between atoms: C_1  and  C_2 
REMARK    2  A    between atoms: C_7  and  C_8 
REMARK    3  A    between atoms: C_15  and  O_29 
REMARK    4  A    between atoms: C_16  and  C_19 
REMARK    5  A    between atoms: C_19  and  N_20 
REMARK    6  A    between atoms: N_23  and  C_26 
REMARK    7  A    between atoms: C_26  and  C_27 
REMARK    8  A    between atoms: C_27  and  O_28 
ROOT
ATOM      1  C   LIG d   1       6.937   0.827  -3.055  0.00  0.00    -0.008 C 
ATOM      2  C   LIG d   1       7.491   1.138  -4.253  0.00  0.00     0.176 A 
ATOM      3  C   LIG d   1       8.865   1.615  -4.479  0.00  0.00     0.232 A 
ATOM      4  O   LIG d   1       9.733   1.811  -3.646  0.00  0.00    -0.283 OA
ATOM      5  C   LIG d   1       8.956   1.801  -5.938  0.00  0.00     0.068 A 
ATOM      6  C   LIG d   1       9.980   2.231  -6.784  0.00  0.00    -0.044 A 
ATOM      7  C   LIG d   1       9.765   2.305  -8.130  0.00  0.00    -0.019 A 
ATOM      8  C   LIG d   1       8.526   1.955  -8.662  0.00  0.00     0.125 A 
ATOM      9  C   LIG d   1       7.501   1.527  -7.834  0.00  0.00     0.051 A 
ATOM     10  C   LIG d   1       7.703   1.446  -6.462  0.00  0.00     0.147 A 
ATOM     11  O   LIG d   1       6.882   1.062  -5.460  0.00  0.00    -0.451 OA
ATOM     12  H   LIG d   1       7.476   1.031  -2.142  0.00  0.00     0.066 H 
ATOM     13  H   LIG d   1      10.942   2.504  -6.373  0.00  0.00     0.063 H 
ATOM     14  H   LIG d   1      10.558   2.637  -8.785  0.00  0.00     0.065 H 
ENDROOT
BRANCH   9  15
ATOM     15  C   LIG d   1       6.164   1.153  -8.423  0.00  0.00     0.031 C 
ATOM     16  H   LIG d   1       5.385   1.766  -7.973  0.00  0.00     0.048 H 
ATOM     17  H   LIG d   1       6.183   1.319  -9.500  0.00  0.00     0.048 H 
BRANCH  15  18
ATOM     18  N   LIG d   1       5.891  -0.264  -8.150  0.00  0.00    -0.295 N 
ATOM     19  C   LIG d   1       4.559  -0.438  -7.552  0.00  0.00     0.012 C 
ATOM     20  C   LIG d   1       4.344  -1.915  -7.211  0.00  0.00     0.012 C 
ATOM     21  H   LIG d   1       4.489   0.159  -6.643  0.00  0.00     0.044 H 
ATOM     22  H   LIG d   1       3.797  -0.114  -8.261  0.00  0.00     0.044 H 
ATOM     23  N   LIG d   1       4.480  -2.722  -8.431  0.00  0.00    -0.298 N 
ATOM     24  H   LIG d   1       3.347  -2.050  -6.794  0.00  0.00     0.044 H 
ATOM     25  H   LIG d   1       5.089  -2.231  -6.482  0.00  0.00     0.044 H 
ATOM     26  C   LIG d   1       5.811  -2.548  -9.029  0.00  0.00     0.012 C 
ATOM     27  C   LIG d   1       6.026  -1.072  -9.370  0.00  0.00     0.012 C 
ATOM     28  H   LIG d   1       5.882  -3.145  -9.939  0.00  0.00     0.044 H 
ATOM     29  H   LIG d   1       6.573  -2.872  -8.321  0.00  0.00     0.044 H 
ATOM     30  H   LIG d   1       5.281  -0.755 -10.101  0.00  0.00     0.044 H 
ATOM     31  H   LIG d   1       7.024  -0.936  -9.788  0.00  0.00     0.044 H 
BRANCH  23  32
ATOM     32  C   LIG d   1       4.205  -4.139  -8.159  0.00  0.00     0.022 C 
ATOM     33  H   LIG d   1       3.208  -4.391  -8.518  0.00  0.00     0.045 H 
ATOM     34  H   LIG d   1       4.943  -4.756  -8.671  0.00  0.00     0.045 H 
BRANCH  32  35
ATOM     35  C   LIG d   1       4.285  -4.393  -6.653  0.00  0.00     0.057 C 
ATOM     36  H   LIG d   1       5.188  -4.961  -6.427  0.00  0.00     0.057 H 
ATOM     37  H   LIG d   1       4.313  -3.441  -6.124  0.00  0.00     0.057 H 
BRANCH  35  38
ATOM     38  O   LIG d   1       3.138  -5.135  -6.233  0.00  0.00    -0.394 OA
ATOM     39  H   LIG d   1       2.861  -4.951  -5.325  0.00  0.00     0.209 HD
ENDBRANCH  35  38
ENDBRANCH  32  35
ENDBRANCH  23  32
ENDBRANCH  15  18
ENDBRANCH   9  15
BRANCH   8  40
ATOM     40  O   LIG d   1       8.323   2.032 -10.001  0.00  0.00    -0.506 OA
ATOM     41  H   LIG d   1       9.112   1.851 -10.530  0.00  0.00     0.292 HD
ENDBRANCH   8  40
BRANCH   1  42
ATOM     42  C   LIG d   1       5.603   0.212  -3.000  0.00  0.00    -0.018 A 
ATOM     43  C   LIG d   1       5.463  -1.174  -3.127  0.00  0.00    -0.043 A 
ATOM     44  C   LIG d   1       4.208  -1.744  -3.069  0.00  0.00    -0.058 A 
ATOM     45  C   LIG d   1       3.090  -0.948  -2.890  0.00  0.00    -0.061 A 
ATOM     46  H   LIG d   1       4.098  -2.815  -3.162  0.00  0.00     0.062 H 
ATOM     47  C   LIG d   1       3.220   0.424  -2.768  0.00  0.00    -0.061 A 
ATOM     48  H   LIG d   1       2.111  -1.401  -2.845  0.00  0.00     0.062 H 
ATOM     49  C   LIG d   1       4.467   1.010  -2.825  0.00  0.00    -0.054 A 
ATOM     50  H   LIG d   1       2.343   1.039  -2.629  0.00  0.00     0.062 H 
ATOM     51  H   LIG d   1       4.567   2.081  -2.730  0.00  0.00     0.062 H 
BRANCH  43  52
ATOM     52  C   LIG d   1       6.678  -2.043  -3.323  0.00  0.00    -0.039 C 
ATOM     53  H   LIG d   1       6.407  -3.087  -3.166  0.00  0.00     0.028 H 
ATOM     54  H   LIG d   1       7.059  -1.914  -4.336  0.00  0.00     0.028 H 
ATOM     55  H   LIG d   1       7.448  -1.757  -2.606  0.00  0.00     0.028 H 
ENDBRANCH  43  52
ENDBRANCH   1  42
TORSDOF 8
ENDMDL
MODEL 2
REMARK VINA RESULT:      -6.6      2.790      7.041
REMARK  8 active torsions:
REMARK  status: ('A' for Active; 'I' for Inactive)
REMARK    1  A    between atoms: C_1  and  C_2 
REMARK    2  A    between atoms: C_7  and  C_8 
REMARK    3  A    between atoms: C_15  and  O_29 
REMARK    4  A    between atoms: C_16  and  C_19 
REMARK    5  A    between atoms: C_19  and  N_20 
REMARK    6  A    between atoms: N_23  and  C_26 
REMARK    7  A    between atoms: C_26  and  C_27 
REMARK    8  A    between atoms: C_27  and  O_28 
ROOT
ATOM      1  C   LIG d   1       2.375   0.687  -7.005  0.00  0.00    -0.008 C 
ATOM      2  C   LIG d   1       3.168   0.162  -6.038  0.00  0.00     0.176 A 
ATOM      3  C   LIG d   1       2.735  -0.280  -4.702  0.00  0.00     0.232 A 
ATOM      4  O   LIG d   1       1.609  -0.254  -4.237  0.00  0.00    -0.283 OA
ATOM      5  C   LIG d   1       3.968  -0.762  -4.055  0.00  0.00     0.068 A 
ATOM      6  C   LIG d   1       4.237  -1.303  -2.796  0.00  0.00    -0.044 A 
ATOM      7  C   LIG d   1       5.512  -1.666  -2.470  0.00  0.00    -0.019 A 
ATOM      8  C   LIG d   1       6.545  -1.498  -3.389  0.00  0.00     0.125 A 
ATOM      9  C   LIG d   1       6.292  -0.962  -4.641  0.00  0.00     0.051 A 
ATOM     10  C   LIG d   1       5.001  -0.587  -4.990  0.00  0.00     0.147 A 
ATOM     11  O   LIG d   1       4.501  -0.056  -6.127  0.00  0.00    -0.451 OA
ATOM     12  H   LIG d   1       1.344   0.922  -6.789  0.00  0.00     0.066 H 
ATOM     13  H   LIG d   1       3.437  -1.433  -2.082  0.00  0.00     0.063 H 
ATOM     14  H   LIG d   1       5.721  -2.085  -1.496  0.00  0.00     0.065 H 
ENDROOT
BRANCH   9  15
ATOM     15  C   LIG d   1       7.420  -0.784  -5.626  0.00  0.00     0.031 C 
ATOM     16  H   LIG d   1       8.305  -1.306  -5.264  0.00  0.00     0.048 H 
ATOM     17  H   LIG d   1       7.126  -1.194  -6.592  0.00  0.00     0.048 H 
BRANCH  15  18
ATOM     18  N   LIG d   1       7.720   0.646  -5.771  0.00  0.00    -0.295 N 
ATOM     19  C   LIG d   1       8.361   1.175  -4.559  0.00  0.00     0.012 C 
ATOM     20  C   LIG d   1       8.585   2.681  -4.719  0.00  0.00     0.012 C 
ATOM     21  H   LIG d   1       7.716   0.993  -3.699  0.00  0.00     0.044 H 
ATOM     22  H   LIG d   1       9.319   0.679  -4.407  0.00  0.00     0.044 H 
ATOM     23  N   LIG d   1       9.421   2.926  -5.902  0.00  0.00    -0.298 N 
ATOM     24  H   LIG d   1       9.086   3.070  -3.833  0.00  0.00     0.044 H 
ATOM     25  H   LIG d   1       7.624   3.180  -4.843  0.00  0.00     0.044 H 
ATOM     26  C   LIG d   1       8.781   2.397  -7.114  0.00  0.00     0.012 C 
ATOM     27  C   LIG d   1       8.557   0.892  -6.954  0.00  0.00     0.012 C 
ATOM     28  H   LIG d   1       9.425   2.579  -7.975  0.00  0.00     0.044 H 
ATOM     29  H   LIG d   1       7.823   2.893  -7.266  0.00  0.00     0.044 H 
ATOM     30  H   LIG d   1       9.518   0.392  -6.831  0.00  0.00     0.044 H 
ATOM     31  H   LIG d   1       8.056   0.502  -7.841  0.00  0.00     0.044 H 
BRANCH  23  32
ATOM     32  C   LIG d   1       9.722   4.357  -6.047  0.00  0.00     0.022 C 
ATOM     33  H   LIG d   1      10.716   4.476  -6.479  0.00  0.00     0.045 H 
ATOM     34  H   LIG d   1       8.983   4.819  -6.701  0.00  0.00     0.045 H 
BRANCH  32  35
ATOM     35  C   LIG d   1       9.678   5.028  -4.674  0.00  0.00     0.057 C 
ATOM     36  H   LIG d   1       9.195   4.362  -3.959  0.00  0.00     0.057 H 
ATOM     37  H   LIG d   1      10.693   5.244  -4.341  0.00  0.00     0.057 H 
BRANCH  35  38
ATOM     38  O   LIG d   1       8.938   6.248  -4.763  0.00  0.00    -0.394 OA
ATOM     39  H   LIG d   1       8.852   6.718  -3.922  0.00  0.00     0.209 HD
ENDBRANCH  35  38
ENDBRANCH  32  35
ENDBRANCH  23  32
ENDBRANCH  15  18
ENDBRANCH   9  15
BRANCH   8  40
ATOM     40  O   LIG d   1       7.808  -1.862  -3.055  0.00  0.00    -0.506 OA
ATOM     41  H   LIG d   1       7.857  -2.665  -2.517  0.00  0.00     0.292 HD
ENDBRANCH   8  40
BRANCH   1  42
ATOM     42  C   LIG d   1       2.920   0.936  -8.347  0.00  0.00    -0.018 A 
ATOM     43  C   LIG d   1       2.981  -0.101  -9.284  0.00  0.00    -0.043 A 
ATOM     44  C   LIG d   1       3.489   0.142 -10.543  0.00  0.00    -0.058 A 
ATOM     45  C   LIG d   1       3.943   1.405 -10.878  0.00  0.00    -0.061 A 
ATOM     46  H   LIG d   1       3.532  -0.656 -11.270  0.00  0.00     0.062 H 
ATOM     47  C   LIG d   1       3.891   2.436  -9.956  0.00  0.00    -0.061 A 
ATOM     48  H   LIG d   1       4.339   1.589 -11.866  0.00  0.00     0.062 H 
ATOM     49  C   LIG d   1       3.387   2.210  -8.692  0.00  0.00    -0.054 A 
ATOM     50  H   LIG d   1       4.247   3.419 -10.225  0.00  0.00     0.062 H 
ATOM     51  H   LIG d   1       3.347   3.014  -7.973  0.00  0.00     0.062 H 
BRANCH  43  52
ATOM     52  C   LIG d   1       2.488  -1.479  -8.922  0.00  0.00    -0.039 C 
ATOM     53  H   LIG d   1       2.996  -2.220  -9.539  0.00  0.00     0.028 H 
ATOM     54  H   LIG d   1       2.698  -1.675  -7.871  0.00  0.00     0.028 H 
ATOM     55  H   LIG d   1       1.414  -1.537  -9.095  0.00  0.00     0.028 H 
ENDBRANCH  43  52
ENDBRANCH   1  42
TORSDOF 8
ENDMDL
MODEL 3
REMARK VINA RESULT:      -6.6      2.465      5.700
REMARK  8 active torsions:
REMARK  status: ('A' for Active; 'I' for Inactive)
REMARK    1  A    between atoms: C_1  and  C_2 
REMARK    2  A    between atoms: C_7  and  C_8 
REMARK    3  A    between atoms: C_15  and  O_29 
REMARK    4  A    between atoms: C_16  and  C_19 
REMARK    5  A    between atoms: C_19  and  N_20 
REMARK    6  A    between atoms: N_23  and  C_26 
REMARK    7  A    between atoms: C_26  and  C_27 
REMARK    8  A    between atoms: C_27  and  O_28 
ROOT
ATOM      1  C   LIG d   1       3.039  -0.070  -5.318  0.00  0.00    -0.008 C 
ATOM      2  C   LIG d   1       3.890  -0.029  -6.372  0.00  0.00     0.176 A 
ATOM      3  C   LIG d   1       3.514   0.073  -7.792  0.00  0.00     0.232 A 
ATOM      4  O   LIG d   1       2.392   0.139  -8.263  0.00  0.00    -0.283 OA
ATOM      5  C   LIG d   1       4.798   0.080  -8.514  0.00  0.00     0.068 A 
ATOM      6  C   LIG d   1       5.132   0.155  -9.868  0.00  0.00    -0.044 A 
ATOM      7  C   LIG d   1       6.444   0.138 -10.248  0.00  0.00    -0.019 A 
ATOM      8  C   LIG d   1       7.449   0.045  -9.288  0.00  0.00     0.125 A 
ATOM      9  C   LIG d   1       7.133  -0.030  -7.942  0.00  0.00     0.051 A 
ATOM     10  C   LIG d   1       5.803  -0.014  -7.538  0.00  0.00     0.147 A 
ATOM     11  O   LIG d   1       5.242  -0.070  -6.310  0.00  0.00    -0.451 OA
ATOM     12  H   LIG d   1       1.975  -0.144  -5.487  0.00  0.00     0.066 H 
ATOM     13  H   LIG d   1       4.353   0.226 -10.614  0.00  0.00     0.063 H 
ATOM     14  H   LIG d   1       6.702   0.196 -11.296  0.00  0.00     0.065 H 
ENDROOT
BRANCH   9  15
ATOM     15  C   LIG d   1       8.231  -0.132  -6.915  0.00  0.00     0.031 C 
ATOM     16  H   LIG d   1       8.022  -0.961  -6.240  0.00  0.00     0.048 H 
ATOM     17  H   LIG d   1       9.183  -0.303  -7.417  0.00  0.00     0.048 H 
BRANCH  15  18
ATOM     18  N   LIG d   1       8.299   1.118  -6.147  0.00  0.00    -0.295 N 
ATOM     19  C   LIG d   1       8.285   0.851  -4.702  0.00  0.00     0.012 C 
ATOM     20  C   LIG d   1       8.277   2.178  -3.940  0.00  0.00     0.012 C 
ATOM     21  H   LIG d   1       7.392   0.280  -4.448  0.00  0.00     0.044 H 
ATOM     22  H   LIG d   1       9.172   0.280  -4.428  0.00  0.00     0.044 H 
ATOM     23  N   LIG d   1       9.461   2.963  -4.315  0.00  0.00    -0.298 N 
ATOM     24  H   LIG d   1       8.295   1.982  -2.868  0.00  0.00     0.044 H 
ATOM     25  H   LIG d   1       7.376   2.737  -4.192  0.00  0.00     0.044 H 
ATOM     26  C   LIG d   1       9.476   3.230  -5.759  0.00  0.00     0.012 C 
ATOM     27  C   LIG d   1       9.484   1.903  -6.522  0.00  0.00     0.012 C 
ATOM     28  H   LIG d   1      10.369   3.801  -6.015  0.00  0.00     0.044 H 
ATOM     29  H   LIG d   1       8.589   3.801  -6.033  0.00  0.00     0.044 H 
ATOM     30  H   LIG d   1      10.385   1.344  -6.270  0.00  0.00     0.044 H 
ATOM     31  H   LIG d   1       9.466   2.099  -7.595  0.00  0.00     0.044 H 
BRANCH  23  32
ATOM     32  C   LIG d   1       9.530   4.213  -3.547  0.00  0.00     0.022 C 
ATOM     33  H   LIG d   1       9.444   5.061  -4.226  0.00  0.00     0.045 H 
ATOM     34  H   LIG d   1       8.714   4.241  -2.826  0.00  0.00     0.045 H 
BRANCH  32  35
ATOM     35  C   LIG d   1      10.867   4.284  -2.808  0.00  0.00     0.057 C 
ATOM     36  H   LIG d   1      11.683   4.229  -3.528  0.00  0.00     0.057 H 
ATOM     37  H   LIG d   1      10.930   5.223  -2.259  0.00  0.00     0.057 H 
BRANCH  35  38
ATOM     38  O   LIG d   1      10.965   3.191  -1.893  0.00  0.00    -0.394 OA
ATOM     39  H   LIG d   1      11.706   3.260  -1.275  0.00  0.00     0.209 HD
ENDBRANCH  35  38
ENDBRANCH  32  35
ENDBRANCH  23  32
ENDBRANCH  15  18
ENDBRANCH   9  15
BRANCH   8  40
ATOM     40  O   LIG d   1       8.749   0.029  -9.677  0.00  0.00    -0.506 OA
ATOM     41  H   LIG d   1       9.256  -0.715  -9.324  0.00  0.00     0.292 HD
ENDBRANCH   8  40
BRANCH   1  42
ATOM     42  C   LIG d   1       3.564  -0.013  -3.947  0.00  0.00    -0.018 A 
ATOM     43  C   LIG d   1       4.063  -1.170  -3.337  0.00  0.00    -0.043 A 
ATOM     44  C   LIG d   1       4.559  -1.107  -2.051  0.00  0.00    -0.058 A 
ATOM     45  C   LIG d   1       4.560   0.093  -1.364  0.00  0.00    -0.061 A 
ATOM     46  H   LIG d   1       4.949  -1.998  -1.581  0.00  0.00     0.062 H 
ATOM     47  C   LIG d   1       4.064   1.241  -1.958  0.00  0.00    -0.061 A 
ATOM     48  H   LIG d   1       4.951   0.135  -0.358  0.00  0.00     0.062 H 
ATOM     49  C   LIG d   1       3.564   1.196  -3.241  0.00  0.00    -0.054 A 
ATOM     50  H   LIG d   1       4.068   2.174  -1.414  0.00  0.00     0.062 H 
ATOM     51  H   LIG d   1       3.176   2.091  -3.703  0.00  0.00     0.062 H 
BRANCH  43  52
ATOM     52  C   LIG d   1       4.062  -2.479  -4.083  0.00  0.00    -0.039 C 
ATOM     53  H   LIG d   1       4.410  -3.274  -3.423  0.00  0.00     0.028 H 
ATOM     54  H   LIG d   1       3.052  -2.704  -4.423  0.00  0.00     0.028 H 
ATOM     55  H   LIG d   1       4.728  -2.407  -4.944  0.00  0.00     0.028 H 
ENDBRANCH  43  52
ENDBRANCH   1  42
TORSDOF 8
ENDMDL
MODEL 4
REMARK VINA RESULT:      -6.3      2.546      6.821
REMARK  8 active torsions:
REMARK  status: ('A' for Active; 'I' for Inactive)
REMARK    1  A    between atoms: C_1  and  C_2 
REMARK    2  A    between atoms: C_7  and  C_8 
REMARK    3  A    between atoms: C_15  and  O_29 
REMARK    4  A    between atoms: C_16  and  C_19 
REMARK    5  A    between atoms: C_19  and  N_20 
REMARK    6  A    between atoms: N_23  and  C_26 
REMARK    7  A    between atoms: C_26  and  C_27 
REMARK    8  A    between atoms: C_27  and  O_28 
ROOT
ATOM      1  C   LIG d   1       2.487   0.366  -7.642  0.00  0.00    -0.008 C 
ATOM      2  C   LIG d   1       3.261  -0.008  -6.594  0.00  0.00     0.176 A 
ATOM      3  C   LIG d   1       2.849  -0.059  -5.182  0.00  0.00     0.232 A 
ATOM      4  O   LIG d   1       1.760   0.221  -4.712  0.00  0.00    -0.283 OA
ATOM      5  C   LIG d   1       4.049  -0.523  -4.463  0.00  0.00     0.068 A 
ATOM      6  C   LIG d   1       4.318  -0.776  -3.117  0.00  0.00    -0.044 A 
ATOM      7  C   LIG d   1       5.556  -1.209  -2.740  0.00  0.00    -0.019 A 
ATOM      8  C   LIG d   1       6.553  -1.399  -3.695  0.00  0.00     0.125 A 
ATOM      9  C   LIG d   1       6.300  -1.152  -5.034  0.00  0.00     0.051 A 
ATOM     10  C   LIG d   1       5.045  -0.711  -5.435  0.00  0.00     0.147 A 
ATOM     11  O   LIG d   1       4.553  -0.409  -6.656  0.00  0.00    -0.451 OA
ATOM     12  H   LIG d   1       1.503   0.774  -7.468  0.00  0.00     0.066 H 
ATOM     13  H   LIG d   1       3.546  -0.629  -2.375  0.00  0.00     0.063 H 
ATOM     14  H   LIG d   1       5.765  -1.406  -1.697  0.00  0.00     0.065 H 
ENDROOT
BRANCH   9  15
ATOM     15  C   LIG d   1       7.388  -1.360  -6.056  0.00  0.00     0.031 C 
ATOM     16  H   LIG d   1       8.267  -1.781  -5.571  0.00  0.00     0.048 H 
ATOM     17  H   LIG d   1       7.035  -2.044  -6.828  0.00  0.00     0.048 H 
BRANCH  15  18
ATOM     18  N   LIG d   1       7.737  -0.071  -6.667  0.00  0.00    -0.295 N 
ATOM     19  C   LIG d   1       8.464   0.783  -5.716  0.00  0.00     0.012 C 
ATOM     20  C   LIG d   1       8.739   2.143  -6.362  0.00  0.00     0.012 C 
ATOM     21  H   LIG d   1       7.860   0.922  -4.819  0.00  0.00     0.044 H 
ATOM     22  H   LIG d   1       9.408   0.310  -5.450  0.00  0.00     0.044 H 
ATOM     23  N   LIG d   1       9.518   1.949  -7.593  0.00  0.00    -0.298 N 
ATOM     24  H   LIG d   1       9.302   2.767  -5.670  0.00  0.00     0.044 H 
ATOM     25  H   LIG d   1       7.794   2.629  -6.604  0.00  0.00     0.044 H 
ATOM     26  C   LIG d   1       8.792   1.096  -8.544  0.00  0.00     0.012 C 
ATOM     27  C   LIG d   1       8.517  -0.264  -7.898  0.00  0.00     0.012 C 
ATOM     28  H   LIG d   1       9.395   0.956  -9.442  0.00  0.00     0.044 H 
ATOM     29  H   LIG d   1       7.848   1.569  -8.810  0.00  0.00     0.044 H 
ATOM     30  H   LIG d   1       9.462  -0.750  -7.657  0.00  0.00     0.044 H 
ATOM     31  H   LIG d   1       7.953  -0.889  -8.591  0.00  0.00     0.044 H 
BRANCH  23  32
ATOM     32  C   LIG d   1       9.868   3.239  -8.203  0.00  0.00     0.022 C 
ATOM     33  H   LIG d   1       9.533   4.049  -7.556  0.00  0.00     0.045 H 
ATOM     34  H   LIG d   1      10.948   3.299  -8.331  0.00  0.00     0.045 H 
BRANCH  32  35
ATOM     35  C   LIG d   1       9.185   3.359  -9.566  0.00  0.00     0.057 C 
ATOM     36  H   LIG d   1       9.935   3.560 -10.332  0.00  0.00     0.057 H 
ATOM     37  H   LIG d   1       8.669   2.428  -9.799  0.00  0.00     0.057 H 
BRANCH  35  38
ATOM     38  O   LIG d   1       8.240   4.431  -9.534  0.00  0.00    -0.394 OA
ATOM     39  H   LIG d   1       7.932   4.710 -10.407  0.00  0.00     0.209 HD
ENDBRANCH  35  38
ENDBRANCH  32  35
ENDBRANCH  23  32
ENDBRANCH  15  18
ENDBRANCH   9  15
BRANCH   8  40
ATOM     40  O   LIG d   1       7.780  -1.830  -3.309  0.00  0.00    -0.506 OA
ATOM     41  H   LIG d   1       7.775  -2.693  -2.872  0.00  0.00     0.292 HD
ENDBRANCH   8  40
BRANCH   1  42
ATOM     42  C   LIG d   1       2.987   0.214  -9.016  0.00  0.00    -0.018 A 
ATOM     43  C   LIG d   1       3.537   1.311  -9.689  0.00  0.00    -0.043 A 
ATOM     44  C   LIG d   1       4.009   1.160 -10.976  0.00  0.00    -0.058 A 
ATOM     45  C   LIG d   1       3.936  -0.071 -11.603  0.00  0.00    -0.061 A 
ATOM     46  H   LIG d   1       4.438   2.005 -11.495  0.00  0.00     0.062 H 
ATOM     47  C   LIG d   1       3.390  -1.160 -10.947  0.00  0.00    -0.061 A 
ATOM     48  H   LIG d   1       4.308  -0.183 -12.610  0.00  0.00     0.062 H 
ATOM     49  C   LIG d   1       2.912  -1.026  -9.660  0.00  0.00    -0.054 A 
ATOM     50  H   LIG d   1       3.336  -2.118 -11.443  0.00  0.00     0.062 H 
ATOM     51  H   LIG d   1       2.485  -1.876  -9.150  0.00  0.00     0.062 H 
BRANCH  43  52
ATOM     52  C   LIG d   1       3.617   2.654  -9.008  0.00  0.00    -0.039 C 
ATOM     53  H   LIG d   1       4.542   3.153  -9.297  0.00  0.00     0.028 H 
ATOM     54  H   LIG d   1       2.765   3.264  -9.306  0.00  0.00     0.028 H 
ATOM     55  H   LIG d   1       3.603   2.514  -7.927  0.00  0.00     0.028 H 
ENDBRANCH  43  52
ENDBRANCH   1  42
TORSDOF 8
ENDMDL
MODEL 5
REMARK VINA RESULT:      -6.2      2.877      5.249
REMARK  8 active torsions:
REMARK  status: ('A' for Active; 'I' for Inactive)
REMARK    1  A    between atoms: C_1  and  C_2 
REMARK    2  A    between atoms: C_7  and  C_8 
REMARK    3  A    between atoms: C_15  and  O_29 
REMARK    4  A    between atoms: C_16  and  C_19 
REMARK    5  A    between atoms: C_19  and  N_20 
REMARK    6  A    between atoms: N_23  and  C_26 
REMARK    7  A    between atoms: C_26  and  C_27 
REMARK    8  A    between atoms: C_27  and  O_28 
ROOT
ATOM      1  C   LIG d   1       6.759  -1.941  -3.275  0.00  0.00    -0.008 C 
ATOM      2  C   LIG d   1       6.763  -2.894  -4.239  0.00  0.00     0.176 A 
ATOM      3  C   LIG d   1       7.844  -3.856  -4.508  0.00  0.00     0.232 A 
ATOM      4  O   LIG d   1       8.907  -3.965  -3.923  0.00  0.00    -0.283 OA
ATOM      5  C   LIG d   1       7.352  -4.657  -5.643  0.00  0.00     0.068 A 
ATOM      6  C   LIG d   1       7.894  -5.720  -6.368  0.00  0.00    -0.044 A 
ATOM      7  C   LIG d   1       7.186  -6.274  -7.395  0.00  0.00    -0.019 A 
ATOM      8  C   LIG d   1       5.924  -5.783  -7.721  0.00  0.00     0.125 A 
ATOM      9  C   LIG d   1       5.374  -4.729  -7.011  0.00  0.00     0.051 A 
ATOM     10  C   LIG d   1       6.081  -4.152  -5.963  0.00  0.00     0.147 A 
ATOM     11  O   LIG d   1       5.770  -3.137  -5.127  0.00  0.00    -0.451 OA
ATOM     12  H   LIG d   1       7.650  -1.759  -2.692  0.00  0.00     0.066 H 
ATOM     13  H   LIG d   1       8.873  -6.102  -6.116  0.00  0.00     0.063 H 
ATOM     14  H   LIG d   1       7.605  -7.098  -7.956  0.00  0.00     0.065 H 
ENDROOT
BRANCH   9  15
ATOM     15  C   LIG d   1       4.008  -4.205  -7.376  0.00  0.00     0.031 C 
ATOM     16  H   LIG d   1       3.396  -5.022  -7.755  0.00  0.00     0.048 H 
ATOM     17  H   LIG d   1       3.536  -3.776  -6.492  0.00  0.00     0.048 H 
BRANCH  15  18
ATOM     18  N   LIG d   1       4.142  -3.172  -8.412  0.00  0.00    -0.295 N 
ATOM     19  C   LIG d   1       3.182  -3.394  -9.503  0.00  0.00     0.012 C 
ATOM     20  C   LIG d   1       3.406  -2.346 -10.596  0.00  0.00     0.012 C 
ATOM     21  H   LIG d   1       3.329  -4.390  -9.919  0.00  0.00     0.044 H 
ATOM     22  H   LIG d   1       2.167  -3.306  -9.118  0.00  0.00     0.044 H 
ATOM     23  N   LIG d   1       3.247  -1.002 -10.023  0.00  0.00    -0.298 N 
ATOM     24  H   LIG d   1       2.678  -2.490 -11.393  0.00  0.00     0.044 H 
ATOM     25  H   LIG d   1       4.413  -2.452 -11.000  0.00  0.00     0.044 H 
ATOM     26  C   LIG d   1       4.206  -0.781  -8.932  0.00  0.00     0.012 C 
ATOM     27  C   LIG d   1       3.982  -1.829  -7.839  0.00  0.00     0.012 C 
ATOM     28  H   LIG d   1       4.060   0.216  -8.515  0.00  0.00     0.044 H 
ATOM     29  H   LIG d   1       5.222  -0.869  -9.317  0.00  0.00     0.044 H 
ATOM     30  H   LIG d   1       2.976  -1.722  -7.434  0.00  0.00     0.044 H 
ATOM     31  H   LIG d   1       4.712  -1.684  -7.041  0.00  0.00     0.044 H 
BRANCH  23  32
ATOM     32  C   LIG d   1       3.380   0.031 -11.059  0.00  0.00     0.022 C 
ATOM     33  H   LIG d   1       3.769  -0.419 -11.972  0.00  0.00     0.045 H 
ATOM     34  H   LIG d   1       2.404   0.473 -11.258  0.00  0.00     0.045 H 
BRANCH  32  35
ATOM     35  C   LIG d   1       4.342   1.117 -10.575  0.00  0.00     0.057 C 
ATOM     36  H   LIG d   1       4.808   0.800  -9.642  0.00  0.00     0.057 H 
ATOM     37  H   LIG d   1       5.113   1.282 -11.328  0.00  0.00     0.057 H 
BRANCH  35  38
ATOM     38  O   LIG d   1       3.621   2.331 -10.359  0.00  0.00    -0.394 OA
ATOM     39  H   LIG d   1       3.382   2.797 -11.172  0.00  0.00     0.209 HD
ENDBRANCH  35  38
ENDBRANCH  32  35
ENDBRANCH  23  32
ENDBRANCH  15  18
ENDBRANCH   9  15
BRANCH   8  40
ATOM     40  O   LIG d   1       5.229  -6.342  -8.744  0.00  0.00    -0.506 OA
ATOM     41  H   LIG d   1       4.374  -6.712  -8.483  0.00  0.00     0.292 HD
ENDBRANCH   8  40
BRANCH   1  42
ATOM     42  C   LIG d   1       5.542  -1.155  -3.023  0.00  0.00    -0.018 A 
ATOM     43  C   LIG d   1       5.566   0.238  -3.150  0.00  0.00    -0.043 A 
ATOM     44  C   LIG d   1       4.419   0.967  -2.917  0.00  0.00    -0.058 A 
ATOM     45  C   LIG d   1       3.248   0.325  -2.554  0.00  0.00    -0.061 A 
ATOM     46  H   LIG d   1       4.434   2.043  -3.019  0.00  0.00     0.062 H 
ATOM     47  C   LIG d   1       3.217  -1.052  -2.422  0.00  0.00    -0.061 A 
ATOM     48  H   LIG d   1       2.354   0.902  -2.374  0.00  0.00     0.062 H 
ATOM     49  C   LIG d   1       4.355  -1.796  -2.650  0.00  0.00    -0.054 A 
ATOM     50  H   LIG d   1       2.299  -1.546  -2.138  0.00  0.00     0.062 H 
ATOM     51  H   LIG d   1       4.330  -2.871  -2.546  0.00  0.00     0.062 H 
BRANCH  43  52
ATOM     52  C   LIG d   1       6.841   0.940  -3.544  0.00  0.00    -0.039 C 
ATOM     53  H   LIG d   1       6.639   2.001  -3.691  0.00  0.00     0.028 H 
ATOM     54  H   LIG d   1       7.583   0.816  -2.756  0.00  0.00     0.028 H 
ATOM     55  H   LIG d   1       7.220   0.510  -4.472  0.00  0.00     0.028 H 
ENDBRANCH  43  52
ENDBRANCH   1  42
TORSDOF 8
ENDMDL
MODEL 6
REMARK VINA RESULT:      -6.2      2.045      5.817
REMARK  8 active torsions:
REMARK  status: ('A' for Active; 'I' for Inactive)
REMARK    1  A    between atoms: C_1  and  C_2 
REMARK    2  A    between atoms: C_7  and  C_8 
REMARK    3  A    between atoms: C_15  and  O_29 
REMARK    4  A    between atoms: C_16  and  C_19 
REMARK    5  A    between atoms: C_19  and  N_20 
REMARK    6  A    between atoms: N_23  and  C_26 
REMARK    7  A    between atoms: C_26  and  C_27 
REMARK    8  A    between atoms: C_27  and  O_28 
ROOT
ATOM      1  C   LIG d   1       4.554  -2.988  -3.738  0.00  0.00    -0.008 C 
ATOM      2  C   LIG d   1       4.456  -3.253  -5.064  0.00  0.00     0.176 A 
ATOM      3  C   LIG d   1       4.342  -4.585  -5.681  0.00  0.00     0.232 A 
ATOM      4  O   LIG d   1       4.315  -5.666  -5.119  0.00  0.00    -0.283 OA
ATOM      5  C   LIG d   1       4.266  -4.317  -7.128  0.00  0.00     0.068 A 
ATOM      6  C   LIG d   1       4.150  -5.144  -8.247  0.00  0.00    -0.044 A 
ATOM      7  C   LIG d   1       4.104  -4.594  -9.496  0.00  0.00    -0.019 A 
ATOM      8  C   LIG d   1       4.172  -3.213  -9.657  0.00  0.00     0.125 A 
ATOM      9  C   LIG d   1       4.288  -2.381  -8.556  0.00  0.00     0.051 A 
ATOM     10  C   LIG d   1       4.337  -2.922  -7.277  0.00  0.00     0.147 A 
ATOM     11  O   LIG d   1       4.440  -2.339  -6.063  0.00  0.00    -0.451 OA
ATOM     12  H   LIG d   1       4.670  -3.798  -3.034  0.00  0.00     0.066 H 
ATOM     13  H   LIG d   1       4.097  -6.216  -8.124  0.00  0.00     0.063 H 
ATOM     14  H   LIG d   1       4.014  -5.234 -10.363  0.00  0.00     0.065 H 
ENDROOT
BRANCH   9  15
ATOM     15  C   LIG d   1       4.363  -0.887  -8.745  0.00  0.00     0.031 C 
ATOM     16  H   LIG d   1       3.878  -0.614  -9.681  0.00  0.00     0.048 H 
ATOM     17  H   LIG d   1       3.859  -0.391  -7.915  0.00  0.00     0.048 H 
BRANCH  15  18
ATOM     18  N   LIG d   1       5.771  -0.470  -8.783  0.00  0.00    -0.295 N 
ATOM     19  C   LIG d   1       6.117   0.096 -10.095  0.00  0.00     0.012 C 
ATOM     20  C   LIG d   1       7.607   0.444 -10.121  0.00  0.00     0.012 C 
ATOM     21  H   LIG d   1       5.901  -0.636 -10.874  0.00  0.00     0.044 H 
ATOM     22  H   LIG d   1       5.530   0.997 -10.269  0.00  0.00     0.044 H 
ATOM     23  N   LIG d   1       7.903   1.399  -9.044  0.00  0.00    -0.298 N 
ATOM     24  H   LIG d   1       7.860   0.890 -11.082  0.00  0.00     0.044 H 
ATOM     25  H   LIG d   1       8.195  -0.461  -9.974  0.00  0.00     0.044 H 
ATOM     26  C   LIG d   1       7.557   0.835  -7.733  0.00  0.00     0.012 C 
ATOM     27  C   LIG d   1       6.067   0.486  -7.707  0.00  0.00     0.012 C 
ATOM     28  H   LIG d   1       7.773   1.566  -6.953  0.00  0.00     0.044 H 
ATOM     29  H   LIG d   1       8.144  -0.067  -7.559  0.00  0.00     0.044 H 
ATOM     30  H   LIG d   1       5.479   1.392  -7.853  0.00  0.00     0.044 H 
ATOM     31  H   LIG d   1       5.814   0.040  -6.745  0.00  0.00     0.044 H 
BRANCH  23  32
ATOM     32  C   LIG d   1       9.311   1.818  -9.083  0.00  0.00     0.022 C 
ATOM     33  H   LIG d   1       9.729   1.776  -8.078  0.00  0.00     0.045 H 
ATOM     34  H   LIG d   1       9.870   1.150  -9.738  0.00  0.00     0.045 H 
BRANCH  32  35
ATOM     35  C   LIG d   1       9.403   3.248  -9.615  0.00  0.00     0.057 C 
ATOM     36  H   LIG d   1      10.171   3.792  -9.065  0.00  0.00     0.057 H 
ATOM     37  H   LIG d   1       9.660   3.227 -10.674  0.00  0.00     0.057 H 
BRANCH  35  38
ATOM     38  O   LIG d   1       8.143   3.902  -9.445  0.00  0.00    -0.394 OA
ATOM     39  H   LIG d   1       8.212   4.855  -9.297  0.00  0.00     0.209 HD
ENDBRANCH  35  38
ENDBRANCH  32  35
ENDBRANCH  23  32
ENDBRANCH  15  18
ENDBRANCH   9  15
BRANCH   8  40
ATOM     40  O   LIG d   1       4.125  -2.678 -10.903  0.00  0.00    -0.506 OA
ATOM     41  H   LIG d   1       4.205  -3.329 -11.615  0.00  0.00     0.292 HD
ENDBRANCH   8  40
BRANCH   1  42
ATOM     42  C   LIG d   1       4.502  -1.600  -3.260  0.00  0.00    -0.018 A 
ATOM     43  C   LIG d   1       5.685  -0.875  -3.078  0.00  0.00    -0.043 A 
ATOM     44  C   LIG d   1       5.628   0.430  -2.634  0.00  0.00    -0.058 A 
ATOM     45  C   LIG d   1       4.406   1.020  -2.365  0.00  0.00    -0.061 A 
ATOM     46  H   LIG d   1       6.540   0.993  -2.498  0.00  0.00     0.062 H 
ATOM     47  C   LIG d   1       3.231   0.309  -2.538  0.00  0.00    -0.061 A 
ATOM     48  H   LIG d   1       4.368   2.042  -2.019  0.00  0.00     0.062 H 
ATOM     49  C   LIG d   1       3.271  -0.997  -2.980  0.00  0.00    -0.054 A 
ATOM     50  H   LIG d   1       2.281   0.776  -2.325  0.00  0.00     0.062 H 
ATOM     51  H   LIG d   1       2.354  -1.551  -3.113  0.00  0.00     0.062 H 
BRANCH  43  52
ATOM     52  C   LIG d   1       7.018  -1.515  -3.370  0.00  0.00    -0.039 C 
ATOM     53  H   LIG d   1       7.815  -0.794  -3.186  0.00  0.00     0.028 H 
ATOM     54  H   LIG d   1       7.155  -2.382  -2.725  0.00  0.00     0.028 H 
ATOM     55  H   LIG d   1       7.048  -1.831  -4.414  0.00  0.00     0.028 H 
ENDBRANCH  43  52
ENDBRANCH   1  42
TORSDOF 8
ENDMDL
MODEL 7
REMARK VINA RESULT:      -6.2      3.093      5.111
REMARK  8 active torsions:
REMARK  status: ('A' for Active; 'I' for Inactive)
REMARK    1  A    between atoms: C_1  and  C_2 
REMARK    2  A    between atoms: C_7  and  C_8 
REMARK    3  A    between atoms: C_15  and  O_29 
REMARK    4  A    between atoms: C_16  and  C_19 
REMARK    5  A    between atoms: C_19  and  N_20 
REMARK    6  A    between atoms: N_23  and  C_26 
REMARK    7  A    between atoms: C_26  and  C_27 
REMARK    8  A    between atoms: C_27  and  O_28 
ROOT
ATOM      1  C   LIG d   1       3.281   0.696  -5.484  0.00  0.00    -0.008 C 
ATOM      2  C   LIG d   1       3.216   0.205  -6.747  0.00  0.00     0.176 A 
ATOM      3  C   LIG d   1       3.013   0.990  -7.976  0.00  0.00     0.232 A 
ATOM      4  O   LIG d   1       2.870   2.196  -8.076  0.00  0.00    -0.283 OA
ATOM      5  C   LIG d   1       3.021  -0.011  -9.058  0.00  0.00     0.068 A 
ATOM      6  C   LIG d   1       2.879   0.081 -10.444  0.00  0.00    -0.044 A 
ATOM      7  C   LIG d   1       2.930  -1.049 -11.209  0.00  0.00    -0.019 A 
ATOM      8  C   LIG d   1       3.124  -2.292 -10.611  0.00  0.00     0.125 A 
ATOM      9  C   LIG d   1       3.267  -2.397  -9.237  0.00  0.00     0.051 A 
ATOM     10  C   LIG d   1       3.217  -1.258  -8.443  0.00  0.00     0.147 A 
ATOM     11  O   LIG d   1       3.331  -1.095  -7.107  0.00  0.00    -0.451 OA
ATOM     12  H   LIG d   1       3.065   1.737  -5.298  0.00  0.00     0.066 H 
ATOM     13  H   LIG d   1       2.727   1.044 -10.909  0.00  0.00     0.063 H 
ATOM     14  H   LIG d   1       2.820  -0.979 -12.282  0.00  0.00     0.065 H 
ENDROOT
BRANCH   9  15
ATOM     15  C   LIG d   1       3.474  -3.749  -8.603  0.00  0.00     0.031 C 
ATOM     16  H   LIG d   1       2.555  -4.065  -8.112  0.00  0.00     0.048 H 
ATOM     17  H   LIG d   1       3.744  -4.473  -9.372  0.00  0.00     0.048 H 
BRANCH  15  18
ATOM     18  N   LIG d   1       4.554  -3.662  -7.611  0.00  0.00    -0.295 N 
ATOM     19  C   LIG d   1       4.266  -4.507  -6.443  0.00  0.00     0.012 C 
ATOM     20  C   LIG d   1       5.373  -4.329  -5.402  0.00  0.00     0.012 C 
ATOM     21  H   LIG d   1       3.309  -4.215  -6.011  0.00  0.00     0.044 H 
ATOM     22  H   LIG d   1       4.222  -5.552  -6.752  0.00  0.00     0.044 H 
ATOM     23  N   LIG d   1       6.667  -4.685  -5.999  0.00  0.00    -0.298 N 
ATOM     24  H   LIG d   1       5.176  -4.976  -4.547  0.00  0.00     0.044 H 
ATOM     25  H   LIG d   1       5.399  -3.290  -5.073  0.00  0.00     0.044 H 
ATOM     26  C   LIG d   1       6.956  -3.841  -7.167  0.00  0.00     0.012 C 
ATOM     27  C   LIG d   1       5.848  -4.020  -8.208  0.00  0.00     0.012 C 
ATOM     28  H   LIG d   1       7.913  -4.133  -7.600  0.00  0.00     0.044 H 
ATOM     29  H   LIG d   1       6.999  -2.797  -6.858  0.00  0.00     0.044 H 
ATOM     30  H   LIG d   1       5.823  -5.059  -8.538  0.00  0.00     0.044 H 
ATOM     31  H   LIG d   1       6.045  -3.372  -9.064  0.00  0.00     0.044 H 
BRANCH  23  32
ATOM     32  C   LIG d   1       7.747  -4.599  -5.007  0.00  0.00     0.022 C 
ATOM     33  H   LIG d   1       7.440  -5.106  -4.092  0.00  0.00     0.045 H 
ATOM     34  H   LIG d   1       8.643  -5.076  -5.404  0.00  0.00     0.045 H 
BRANCH  32  35
ATOM     35  C   LIG d   1       8.044  -3.130  -4.703  0.00  0.00     0.057 C 
ATOM     36  H   LIG d   1       8.701  -2.725  -5.473  0.00  0.00     0.057 H 
ATOM     37  H   LIG d   1       7.111  -2.566  -4.687  0.00  0.00     0.057 H 
BRANCH  35  38
ATOM     38  O   LIG d   1       8.683  -3.027  -3.429  0.00  0.00    -0.394 OA
ATOM     39  H   LIG d   1       8.131  -2.626  -2.743  0.00  0.00     0.209 HD
ENDBRANCH  35  38
ENDBRANCH  32  35
ENDBRANCH  23  32
ENDBRANCH  15  18
ENDBRANCH   9  15
BRANCH   8  40
ATOM     40  O   LIG d   1       3.174  -3.408 -11.381  0.00  0.00    -0.506 OA
ATOM     41  H   LIG d   1       2.566  -4.107 -11.101  0.00  0.00     0.292 HD
ENDBRANCH   8  40
BRANCH   1  42
ATOM     42  C   LIG d   1       3.646  -0.191  -4.370  0.00  0.00    -0.018 A 
ATOM     43  C   LIG d   1       4.986  -0.530  -4.153  0.00  0.00    -0.043 A 
ATOM     44  C   LIG d   1       5.322  -1.358  -3.102  0.00  0.00    -0.058 A 
ATOM     45  C   LIG d   1       4.337  -1.856  -2.267  0.00  0.00    -0.061 A 
ATOM     46  H   LIG d   1       6.356  -1.617  -2.929  0.00  0.00     0.062 H 
ATOM     47  C   LIG d   1       3.009  -1.529  -2.478  0.00  0.00    -0.061 A 
ATOM     48  H   LIG d   1       4.606  -2.503  -1.445  0.00  0.00     0.062 H 
ATOM     49  C   LIG d   1       2.656  -0.704  -3.524  0.00  0.00    -0.054 A 
ATOM     50  H   LIG d   1       2.246  -1.922  -1.822  0.00  0.00     0.062 H 
ATOM     51  H   LIG d   1       1.620  -0.450  -3.688  0.00  0.00     0.062 H 
BRANCH  43  52
ATOM     52  C   LIG d   1       6.061   0.010  -5.061  0.00  0.00    -0.039 C 
ATOM     53  H   LIG d   1       5.651   0.818  -5.667  0.00  0.00     0.028 H 
ATOM     54  H   LIG d   1       6.888   0.389  -4.461  0.00  0.00     0.028 H 
ATOM     55  H   LIG d   1       6.420  -0.786  -5.713  0.00  0.00     0.028 H 
ENDBRANCH  43  52
ENDBRANCH   1  42
TORSDOF 8
ENDMDL
MODEL 8
REMARK VINA RESULT:      -6.1      1.993      2.765
REMARK  8 active torsions:
REMARK  status: ('A' for Active; 'I' for Inactive)
REMARK    1  A    between atoms: C_1  and  C_2 
REMARK    2  A    between atoms: C_7  and  C_8 
REMARK    3  A    between atoms: C_15  and  O_29 
REMARK    4  A    between atoms: C_16  and  C_19 
REMARK    5  A    between atoms: C_19  and  N_20 
REMARK    6  A    between atoms: N_23  and  C_26 
REMARK    7  A    between atoms: C_26  and  C_27 
REMARK    8  A    between atoms: C_27  and  O_28 
ROOT
ATOM      1  C   LIG d   1       6.393   1.109  -2.998  0.00  0.00    -0.008 C 
ATOM      2  C   LIG d   1       7.268   1.165  -4.033  0.00  0.00     0.176 A 
ATOM      3  C   LIG d   1       8.416   2.078  -4.153  0.00  0.00     0.232 A 
ATOM      4  O   LIG d   1       8.778   2.929  -3.359  0.00  0.00    -0.283 OA
ATOM      5  C   LIG d   1       9.030   1.732  -5.447  0.00  0.00     0.068 A 
ATOM      6  C   LIG d   1      10.138   2.223  -6.140  0.00  0.00    -0.044 A 
ATOM      7  C   LIG d   1      10.472   1.691  -7.353  0.00  0.00    -0.019 A 
ATOM      8  C   LIG d   1       9.710   0.661  -7.900  0.00  0.00     0.125 A 
ATOM      9  C   LIG d   1       8.609   0.165  -7.223  0.00  0.00     0.051 A 
ATOM     10  C   LIG d   1       8.254   0.694  -5.988  0.00  0.00     0.147 A 
ATOM     11  O   LIG d   1       7.247   0.388  -5.141  0.00  0.00    -0.451 OA
ATOM     12  H   LIG d   1       6.435   1.851  -2.215  0.00  0.00     0.066 H 
ATOM     13  H   LIG d   1      10.729   3.022  -5.718  0.00  0.00     0.063 H 
ATOM     14  H   LIG d   1      11.330   2.071  -7.890  0.00  0.00     0.065 H 
ENDROOT
BRANCH   9  15
ATOM     15  C   LIG d   1       7.792  -0.949  -7.828  0.00  0.00     0.031 C 
ATOM     16  H   LIG d   1       8.317  -1.357  -8.691  0.00  0.00     0.048 H 
ATOM     17  H   LIG d   1       7.645  -1.734  -7.086  0.00  0.00     0.048 H 
BRANCH  15  18
ATOM     18  N   LIG d   1       6.487  -0.424  -8.252  0.00  0.00    -0.295 N 
ATOM     19  C   LIG d   1       6.542   0.067  -9.636  0.00  0.00     0.012 C 
ATOM     20  C   LIG d   1       5.189   0.676 -10.012  0.00  0.00     0.012 C 
ATOM     21  H   LIG d   1       7.319   0.826  -9.721  0.00  0.00     0.044 H 
ATOM     22  H   LIG d   1       6.767  -0.761 -10.307  0.00  0.00     0.044 H 
ATOM     23  N   LIG d   1       4.138  -0.338  -9.857  0.00  0.00    -0.298 N 
ATOM     24  H   LIG d   1       5.218   1.015 -11.047  0.00  0.00     0.044 H 
ATOM     25  H   LIG d   1       4.977   1.522  -9.358  0.00  0.00     0.044 H 
ATOM     26  C   LIG d   1       4.083  -0.829  -8.474  0.00  0.00     0.012 C 
ATOM     27  C   LIG d   1       5.436  -1.438  -8.097  0.00  0.00     0.012 C 
ATOM     28  H   LIG d   1       3.306  -1.589  -8.387  0.00  0.00     0.044 H 
ATOM     29  H   LIG d   1       3.858  -0.001  -7.802  0.00  0.00     0.044 H 
ATOM     30  H   LIG d   1       5.648  -2.285  -8.751  0.00  0.00     0.044 H 
ATOM     31  H   LIG d   1       5.407  -1.778  -7.061  0.00  0.00     0.044 H 
BRANCH  23  32
ATOM     32  C   LIG d   1       2.833   0.187 -10.282  0.00  0.00     0.022 C 
ATOM     33  H   LIG d   1       2.345   0.673  -9.437  0.00  0.00     0.045 H 
ATOM     34  H   LIG d   1       2.976   0.910 -11.084  0.00  0.00     0.045 H 
BRANCH  32  35
ATOM     35  C   LIG d   1       1.959  -0.964 -10.783  0.00  0.00     0.057 C 
ATOM     36  H   LIG d   1       2.013  -1.014 -11.871  0.00  0.00     0.057 H 
ATOM     37  H   LIG d   1       2.315  -1.902 -10.358  0.00  0.00     0.057 H 
BRANCH  35  38
ATOM     38  O   LIG d   1       0.605  -0.744 -10.383  0.00  0.00    -0.394 OA
ATOM     39  H   LIG d   1      -0.025  -1.369 -10.767  0.00  0.00     0.209 HD
ENDBRANCH  35  38
ENDBRANCH  32  35
ENDBRANCH  23  32
ENDBRANCH  15  18
ENDBRANCH   9  15
BRANCH   8  40
ATOM     40  O   LIG d   1      10.051   0.140  -9.105  0.00  0.00    -0.506 OA
ATOM     41  H   LIG d   1       9.310   0.054  -9.721  0.00  0.00     0.292 HD
ENDBRANCH   8  40
BRANCH   1  42
ATOM     42  C   LIG d   1       5.388   0.038  -2.944  0.00  0.00    -0.018 A 
ATOM     43  C   LIG d   1       4.029   0.353  -2.833  0.00  0.00    -0.043 A 
ATOM     44  C   LIG d   1       3.092  -0.658  -2.788  0.00  0.00    -0.058 A 
ATOM     45  C   LIG d   1       3.493  -1.980  -2.847  0.00  0.00    -0.061 A 
ATOM     46  H   LIG d   1       2.042  -0.415  -2.707  0.00  0.00     0.062 H 
ATOM     47  C   LIG d   1       4.835  -2.302  -2.952  0.00  0.00    -0.061 A 
ATOM     48  H   LIG d   1       2.754  -2.767  -2.812  0.00  0.00     0.062 H 
ATOM     49  C   LIG d   1       5.785  -1.304  -2.998  0.00  0.00    -0.054 A 
ATOM     50  H   LIG d   1       5.139  -3.337  -2.998  0.00  0.00     0.062 H 
ATOM     51  H   LIG d   1       6.831  -1.556  -3.078  0.00  0.00     0.062 H 
BRANCH  43  52
ATOM     52  C   LIG d   1       3.590   1.794  -2.768  0.00  0.00    -0.039 C 
ATOM     53  H   LIG d   1       3.335   2.049  -1.739  0.00  0.00     0.028 H 
ATOM     54  H   LIG d   1       4.399   2.437  -3.113  0.00  0.00     0.028 H 
ATOM     55  H   LIG d   1       2.716   1.936  -3.404  0.00  0.00     0.028 H 
ENDBRANCH  43  52
ENDBRANCH   1  42
TORSDOF 8
ENDMDL
MODEL 9
REMARK VINA RESULT:      -5.8      3.565      5.779
REMARK  8 active torsions:
REMARK  status: ('A' for Active; 'I' for Inactive)
REMARK    1  A    between atoms: C_1  and  C_2 
REMARK    2  A    between atoms: C_7  and  C_8 
REMARK    3  A    between atoms: C_15  and  O_29 
REMARK    4  A    between atoms: C_16  and  C_19 
REMARK    5  A    between atoms: C_19  and  N_20 
REMARK    6  A    between atoms: N_23  and  C_26 
REMARK    7  A    between atoms: C_26  and  C_27 
REMARK    8  A    between atoms: C_27  and  O_28 
ROOT
ATOM      1  C   LIG d   1       6.967  -1.909  -3.920  0.00  0.00    -0.008 C 
ATOM      2  C   LIG d   1       7.278  -3.151  -4.364  0.00  0.00     0.176 A 
ATOM      3  C   LIG d   1       8.627  -3.736  -4.441  0.00  0.00     0.232 A 
ATOM      4  O   LIG d   1       9.683  -3.218  -4.126  0.00  0.00    -0.283 OA
ATOM      5  C   LIG d   1       8.412  -5.089  -4.985  0.00  0.00     0.068 A 
ATOM      6  C   LIG d   1       9.276  -6.141  -5.297  0.00  0.00    -0.044 A 
ATOM      7  C   LIG d   1       8.774  -7.307  -5.801  0.00  0.00    -0.019 A 
ATOM      8  C   LIG d   1       7.404  -7.449  -6.006  0.00  0.00     0.125 A 
ATOM      9  C   LIG d   1       6.536  -6.413  -5.702  0.00  0.00     0.051 A 
ATOM     10  C   LIG d   1       7.029  -5.220  -5.188  0.00  0.00     0.147 A 
ATOM     11  O   LIG d   1       6.404  -4.083  -4.813  0.00  0.00    -0.451 OA
ATOM     12  H   LIG d   1       7.754  -1.206  -3.690  0.00  0.00     0.066 H 
ATOM     13  H   LIG d   1      10.339  -6.032  -5.139  0.00  0.00     0.063 H 
ATOM     14  H   LIG d   1       9.442  -8.121  -6.042  0.00  0.00     0.065 H 
ENDROOT
BRANCH   9  15
ATOM     15  C   LIG d   1       5.055  -6.580  -5.930  0.00  0.00     0.031 C 
ATOM     16  H   LIG d   1       4.806  -7.640  -5.945  0.00  0.00     0.048 H 
ATOM     17  H   LIG d   1       4.506  -6.088  -5.127  0.00  0.00     0.048 H 
BRANCH  15  18
ATOM     18  N   LIG d   1       4.688  -5.973  -7.217  0.00  0.00    -0.295 N 
ATOM     19  C   LIG d   1       3.991  -6.942  -8.075  0.00  0.00     0.012 C 
ATOM     20  C   LIG d   1       3.697  -6.297  -9.432  0.00  0.00     0.012 C 
ATOM     21  H   LIG d   1       4.622  -7.819  -8.219  0.00  0.00     0.044 H 
ATOM     22  H   LIG d   1       3.055  -7.239  -7.604  0.00  0.00     0.044 H 
ATOM     23  N   LIG d   1       2.880  -5.092  -9.233  0.00  0.00    -0.298 N 
ATOM     24  H   LIG d   1       3.156  -7.003 -10.061  0.00  0.00     0.044 H 
ATOM     25  H   LIG d   1       4.634  -6.024  -9.916  0.00  0.00     0.044 H 
ATOM     26  C   LIG d   1       3.576  -4.124  -8.374  0.00  0.00     0.012 C 
ATOM     27  C   LIG d   1       3.870  -4.768  -7.017  0.00  0.00     0.012 C 
ATOM     28  H   LIG d   1       2.946  -3.246  -8.230  0.00  0.00     0.044 H 
ATOM     29  H   LIG d   1       4.512  -3.826  -8.845  0.00  0.00     0.044 H 
ATOM     30  H   LIG d   1       2.932  -5.041  -6.533  0.00  0.00     0.044 H 
ATOM     31  H   LIG d   1       4.412  -4.061  -6.388  0.00  0.00     0.044 H 
BRANCH  23  32
ATOM     32  C   LIG d   1       2.512  -4.486 -10.519  0.00  0.00     0.022 C 
ATOM     33  H   LIG d   1       3.416  -4.192 -11.053  0.00  0.00     0.045 H 
ATOM     34  H   LIG d   1       1.957  -5.209 -11.115  0.00  0.00     0.045 H 
BRANCH  32  35
ATOM     35  C   LIG d   1       1.642  -3.253 -10.271  0.00  0.00     0.057 C 
ATOM     36  H   LIG d   1       1.945  -2.777  -9.338  0.00  0.00     0.057 H 
ATOM     37  H   LIG d   1       1.765  -2.550 -11.094  0.00  0.00     0.057 H 
BRANCH  35  38
ATOM     38  O   LIG d   1       0.271  -3.647 -10.182  0.00  0.00    -0.394 OA
ATOM     39  H   LIG d   1      -0.134  -3.857 -11.035  0.00  0.00     0.209 HD
ENDBRANCH  35  38
ENDBRANCH  32  35
ENDBRANCH  23  32
ENDBRANCH  15  18
ENDBRANCH   9  15
BRANCH   8  40
ATOM     40  O   LIG d   1       6.916  -8.611  -6.507  0.00  0.00    -0.506 OA
ATOM     41  H   LIG d   1       6.283  -9.056  -5.926  0.00  0.00     0.292 HD
ENDBRANCH   8  40
BRANCH   1  42
ATOM     42  C   LIG d   1       5.560  -1.520  -3.752  0.00  0.00    -0.018 A 
ATOM     43  C   LIG d   1       4.903  -0.805  -4.759  0.00  0.00    -0.043 A 
ATOM     44  C   LIG d   1       3.581  -0.448  -4.596  0.00  0.00    -0.058 A 
ATOM     45  C   LIG d   1       2.906  -0.791  -3.438  0.00  0.00    -0.061 A 
ATOM     46  H   LIG d   1       3.071   0.100  -5.376  0.00  0.00     0.062 H 
ATOM     47  C   LIG d   1       3.549  -1.494  -2.435  0.00  0.00    -0.061 A 
ATOM     48  H   LIG d   1       1.871  -0.509  -3.317  0.00  0.00     0.062 H 
ATOM     49  C   LIG d   1       4.871  -1.857  -2.581  0.00  0.00    -0.054 A 
ATOM     50  H   LIG d   1       3.015  -1.757  -1.534  0.00  0.00     0.062 H 
ATOM     51  H   LIG d   1       5.372  -2.405  -1.797  0.00  0.00     0.062 H 
BRANCH  43  52
ATOM     52  C   LIG d   1       5.637  -0.429  -6.022  0.00  0.00    -0.039 C 
ATOM     53  H   LIG d   1       6.553  -1.016  -6.097  0.00  0.00     0.028 H 
ATOM     54  H   LIG d   1       5.003  -0.631  -6.884  0.00  0.00     0.028 H 
ATOM     55  H   LIG d   1       5.886   0.632  -5.995  0.00  0.00     0.028 H 
ENDBRANCH  43  52
ENDBRANCH   1  42
TORSDOF 8
ENDMDL
MODEL 10
REMARK VINA RESULT:      -5.8      8.690     12.124
REMARK  8 active torsions:
REMARK  status: ('A' for Active; 'I' for Inactive)
REMARK    1  A    between atoms: C_1  and  C_2 
REMARK    2  A    between atoms: C_7  and  C_8 
REMARK    3  A    between atoms: C_15  and  O_29 
REMARK    4  A    between atoms: C_16  and  C_19 
REMARK    5  A    between atoms: C_19  and  N_20 
REMARK    6  A    between atoms: N_23  and  C_26 
REMARK    7  A    between atoms: C_26  and  C_27 
REMARK    8  A    between atoms: C_27  and  O_28 
ROOT
ATOM      1  C   LIG d   1      11.661   5.710  -2.457  0.00  0.00    -0.008 C 
ATOM      2  C   LIG d   1      11.501   6.804  -1.672  0.00  0.00     0.176 A 
ATOM      3  C   LIG d   1      12.183   7.065  -0.394  0.00  0.00     0.232 A 
ATOM      4  O   LIG d   1      12.996   6.358   0.175  0.00  0.00    -0.283 OA
ATOM      5  C   LIG d   1      11.661   8.372   0.043  0.00  0.00     0.068 A 
ATOM      6  C   LIG d   1      11.903   9.171   1.162  0.00  0.00    -0.044 A 
ATOM      7  C   LIG d   1      11.253  10.364   1.299  0.00  0.00    -0.019 A 
ATOM      8  C   LIG d   1      10.350  10.786   0.326  0.00  0.00     0.125 A 
ATOM      9  C   LIG d   1      10.101  10.004  -0.789  0.00  0.00     0.051 A 
ATOM     10  C   LIG d   1      10.753   8.786  -0.944  0.00  0.00     0.147 A 
ATOM     11  O   LIG d   1      10.689   7.858  -1.924  0.00  0.00    -0.451 OA
ATOM     12  H   LIG d   1      12.250   4.876  -2.107  0.00  0.00     0.066 H 
ATOM     13  H   LIG d   1      12.603   8.845   1.918  0.00  0.00     0.063 H 
ATOM     14  H   LIG d   1      11.441  10.983   2.165  0.00  0.00     0.065 H 
ENDROOT
BRANCH   9  15
ATOM     15  C   LIG d   1       9.119  10.471  -1.833  0.00  0.00     0.031 C 
ATOM     16  H   LIG d   1       8.543   9.622  -2.196  0.00  0.00     0.048 H 
ATOM     17  H   LIG d   1       8.446  11.207  -1.394  0.00  0.00     0.048 H 
BRANCH  15  18
ATOM     18  N   LIG d   1       9.850  11.081  -2.951  0.00  0.00    -0.295 N 
ATOM     19  C   LIG d   1       9.619  10.339  -4.199  0.00  0.00     0.012 C 
ATOM     20  C   LIG d   1      10.457  10.957  -5.320  0.00  0.00     0.012 C 
ATOM     21  H   LIG d   1       9.908   9.297  -4.060  0.00  0.00     0.044 H 
ATOM     22  H   LIG d   1       8.563  10.392  -4.464  0.00  0.00     0.044 H 
ATOM     23  N   LIG d   1      10.095  12.372  -5.478  0.00  0.00    -0.298 N 
ATOM     24  H   LIG d   1      10.266  10.426  -6.252  0.00  0.00     0.044 H 
ATOM     25  H   LIG d   1      11.515  10.879  -5.068  0.00  0.00     0.044 H 
ATOM     26  C   LIG d   1      10.326  13.114  -4.231  0.00  0.00     0.012 C 
ATOM     27  C   LIG d   1       9.487  12.496  -3.110  0.00  0.00     0.012 C 
ATOM     28  H   LIG d   1      10.037  14.157  -4.369  0.00  0.00     0.044 H 
ATOM     29  H   LIG d   1      11.381  13.061  -3.966  0.00  0.00     0.044 H 
ATOM     30  H   LIG d   1       8.429  12.575  -3.361  0.00  0.00     0.044 H 
ATOM     31  H   LIG d   1       9.679  13.027  -2.177  0.00  0.00     0.044 H 
BRANCH  23  32
ATOM     32  C   LIG d   1      10.825  12.982  -6.597  0.00  0.00     0.022 C 
ATOM     33  H   LIG d   1      11.529  13.720  -6.212  0.00  0.00     0.045 H 
ATOM     34  H   LIG d   1      11.369  12.209  -7.139  0.00  0.00     0.045 H 
BRANCH  32  35
ATOM     35  C   LIG d   1       9.834  13.665  -7.540  0.00  0.00     0.057 C 
ATOM     36  H   LIG d   1       9.367  14.507  -7.028  0.00  0.00     0.057 H 
ATOM     37  H   LIG d   1      10.361  14.025  -8.423  0.00  0.00     0.057 H 
BRANCH  35  38
ATOM     38  O   LIG d   1       8.828  12.730  -7.934  0.00  0.00    -0.394 OA
ATOM     39  H   LIG d   1       7.953  13.123  -8.059  0.00  0.00     0.209 HD
ENDBRANCH  35  38
ENDBRANCH  32  35
ENDBRANCH  23  32
ENDBRANCH  15  18
ENDBRANCH   9  15
BRANCH   8  40
ATOM     40  O   LIG d   1       9.711  11.974   0.473  0.00  0.00    -0.506 OA
ATOM     41  H   LIG d   1       8.832  12.000   0.069  0.00  0.00     0.292 HD
ENDBRANCH   8  40
BRANCH   1  42
ATOM     42  C   LIG d   1      11.032   5.661  -3.785  0.00  0.00    -0.018 A 
ATOM     43  C   LIG d   1      10.080   4.677  -4.076  0.00  0.00    -0.043 A 
ATOM     44  C   LIG d   1       9.491   4.641  -5.322  0.00  0.00    -0.058 A 
ATOM     45  C   LIG d   1       9.841   5.571  -6.284  0.00  0.00    -0.061 A 
ATOM     46  H   LIG d   1       8.752   3.884  -5.547  0.00  0.00     0.062 H 
ATOM     47  C   LIG d   1      10.784   6.545  -6.007  0.00  0.00    -0.061 A 
ATOM     48  H   LIG d   1       9.375   5.537  -7.258  0.00  0.00     0.062 H 
ATOM     49  C   LIG d   1      11.384   6.595  -4.766  0.00  0.00    -0.054 A 
ATOM     50  H   LIG d   1      11.052   7.267  -6.763  0.00  0.00     0.062 H 
ATOM     51  H   LIG d   1      12.121   7.354  -4.551  0.00  0.00     0.062 H 
BRANCH  43  52
ATOM     52  C   LIG d   1       9.697   3.662  -3.029  0.00  0.00    -0.039 C 
ATOM     53  H   LIG d   1       9.215   4.168  -2.193  0.00  0.00     0.028 H 
ATOM     54  H   LIG d   1       9.010   2.936  -3.462  0.00  0.00     0.028 H 
ATOM     55  H   LIG d   1      10.592   3.149  -2.676  0.00  0.00     0.028 H 
ENDBRANCH  43  52
ENDBRANCH   1  42
TORSDOF 8
ENDMDL
