MODEL 1
REMARK VINA RESULT:      -5.7      0.000      0.000
REMARK  8 active torsions:
REMARK  status: ('A' for Active; 'I' for Inactive)
REMARK    1  A    between atoms: C_1  and  N_2 
REMARK    2  A    between atoms: N_5  and  C_8 
REMARK    3  A    between atoms: C_10  and  C_20 
REMARK    4  A    between atoms: C_13  and  C_18 
REMARK    5  A    between atoms: C_15  and  O_17 
REMARK    6  A    between atoms: C_18  and  O_19 
REMARK    7  A    between atoms: C_20  and  N_21 
REMARK    8  A    between atoms: N_21  and  C_22 
ROOT
ATOM      1  C   LIG d   1       2.491  -0.576  -8.304  0.00  0.00     0.070 C 
ATOM      2  H   LIG d   1       1.548  -1.121  -8.149  0.00  0.00     0.052 H 
ATOM      3  C   LIG d   1       2.940   0.261  -7.086  0.00  0.00     0.117 C 
ATOM      4  H   LIG d   1       2.112   0.628  -6.463  0.00  0.00     0.067 H 
ATOM      5  O   LIG d   1       3.643   1.389  -7.651  0.00  0.00    -0.362 OA
ATOM      6  C   LIG d   1       2.870   1.778  -8.808  0.00  0.00     0.110 C 
ATOM      7  H   LIG d   1       2.029   2.408  -8.483  0.00  0.00     0.065 H 
ATOM      8  C   LIG d   1       2.443   0.445  -9.463  0.00  0.00     0.102 C 
ATOM      9  H   LIG d   1       1.485   0.486 -10.003  0.00  0.00     0.064 H 
ENDROOT
BRANCH   3  10
ATOM     10  C   LIG d   1       3.877  -0.557  -6.195  0.00  0.00    -0.005 C 
ATOM     11  H   LIG d   1       4.144  -1.494  -6.706  0.00  0.00     0.084 H 
ATOM     12  H   LIG d   1       4.789   0.022  -5.991  0.00  0.00     0.084 H 
BRANCH  10  13
ATOM     13  N   LIG d   1       3.201  -0.867  -4.927  0.00  0.00     0.231 N 
ATOM     14  H   LIG d   1       2.273  -0.281  -4.855  0.00  0.00     0.202 HD
ATOM     15  H   LIG d   1       2.961  -1.940  -4.893  0.00  0.00     0.202 HD
BRANCH  13  16
ATOM     16  C   LIG d   1       4.058  -0.538  -3.780  0.00  0.00    -0.018 C 
ATOM     17  C   LIG d   1       3.434   0.618  -2.990  0.00  0.00     0.014 C 
ATOM     18  C   LIG d   1       4.371   1.007  -1.845  0.00  0.00     0.053 C 
ATOM     19  H   LIG d   1       3.287   1.480  -3.657  0.00  0.00     0.034 H 
ATOM     20  H   LIG d   1       2.463   0.301  -2.583  0.00  0.00     0.034 H 
ATOM     21  O   LIG d   1       5.649   1.362  -2.376  0.00  0.00    -0.379 OA
ATOM     22  H   LIG d   1       4.484   0.155  -1.158  0.00  0.00     0.056 H 
ATOM     23  H   LIG d   1       3.949   1.864  -1.300  0.00  0.00     0.056 H 
ATOM     24  C   LIG d   1       6.301   0.306  -3.084  0.00  0.00     0.053 C 
ATOM     25  C   LIG d   1       5.441  -0.111  -4.280  0.00  0.00     0.014 C 
ATOM     26  H   LIG d   1       6.439  -0.555  -2.414  0.00  0.00     0.056 H 
ATOM     27  H   LIG d   1       7.281   0.654  -3.441  0.00  0.00     0.056 H 
ATOM     28  H   LIG d   1       5.919  -0.954  -4.802  0.00  0.00     0.034 H 
ATOM     29  H   LIG d   1       5.336   0.736  -4.972  0.00  0.00     0.034 H 
ATOM     30  H   LIG d   1       4.128  -1.443  -3.160  0.00  0.00     0.085 H 
ENDBRANCH  13  16
ENDBRANCH  10  13
ENDBRANCH   3  10
BRANCH   1  31
ATOM     31  N   LIG d   1       3.468  -1.634  -8.590  0.00  0.00    -0.292 N 
ATOM     32  C   LIG d   1       2.862  -2.707  -9.391  0.00  0.00     0.012 C 
ATOM     33  C   LIG d   1       3.886  -3.825  -9.600  0.00  0.00     0.011 C 
ATOM     34  H   LIG d   1       2.552  -2.308 -10.368  0.00  0.00     0.044 H 
ATOM     35  H   LIG d   1       1.984  -3.108  -8.864  0.00  0.00     0.044 H 
ATOM     36  N   LIG d   1       5.074  -3.279 -10.269  0.00  0.00    -0.303 N 
ATOM     37  H   LIG d   1       3.445  -4.617 -10.223  0.00  0.00     0.044 H 
ATOM     38  H   LIG d   1       4.175  -4.245  -8.625  0.00  0.00     0.044 H 
ATOM     39  C   LIG d   1       5.680  -2.206  -9.469  0.00  0.00     0.011 C 
ATOM     40  C   LIG d   1       4.656  -1.088  -9.260  0.00  0.00     0.012 C 
ATOM     41  H   LIG d   1       5.990  -2.608  -8.492  0.00  0.00     0.044 H 
ATOM     42  H   LIG d   1       6.558  -1.806  -9.996  0.00  0.00     0.044 H 
ATOM     43  H   LIG d   1       4.367  -0.668 -10.235  0.00  0.00     0.044 H 
ATOM     44  H   LIG d   1       5.097  -0.297  -8.636  0.00  0.00     0.044 H 
BRANCH  36  45
ATOM     45  C   LIG d   1       6.051  -4.338 -10.556  0.00  0.00    -0.013 C 
ATOM     46  H   LIG d   1       6.308  -4.320 -11.626  0.00  0.00     0.039 H 
ATOM     47  H   LIG d   1       5.618  -5.316 -10.299  0.00  0.00     0.039 H 
ATOM     48  H   LIG d   1       6.960  -4.171  -9.958  0.00  0.00     0.039 H 
ENDBRANCH  36  45
ENDBRANCH   1  31
BRANCH   8  49
ATOM     49  O   LIG d   1       3.361   0.075 -10.495  0.00  0.00    -0.388 OA
ATOM     50  H   LIG d   1       4.057   0.820 -10.905  0.00  0.00     0.210 HD
ENDBRANCH   8  49
BRANCH   6  51
ATOM     51  C   LIG d   1       3.729   2.595  -9.775  0.00  0.00     0.073 C 
ATOM     52  H   LIG d   1       3.548   2.253 -10.805  0.00  0.00     0.058 H 
ATOM     53  H   LIG d   1       3.464   3.660  -9.690  0.00  0.00     0.058 H 
BRANCH  51  54
ATOM     54  O   LIG d   1       5.109   2.421  -9.450  0.00  0.00    -0.392 OA
ATOM     55  H   LIG d   1       5.848   2.272 -10.252  0.00  0.00     0.209 HD
ENDBRANCH  51  54
ENDBRANCH   6  51
TORSDOF 8
ENDMDL
MODEL 2
REMARK VINA RESULT:      -5.6      1.873      2.596
REMARK  8 active torsions:
REMARK  status: ('A' for Active; 'I' for Inactive)
REMARK    1  A    between atoms: C_1  and  N_2 
REMARK    2  A    between atoms: N_5  and  C_8 
REMARK    3  A    between atoms: C_10  and  C_20 
REMARK    4  A    between atoms: C_13  and  C_18 
REMARK    5  A    between atoms: C_15  and  O_17 
REMARK    6  A    between atoms: C_18  and  O_19 
REMARK    7  A    between atoms: C_20  and  N_21 
REMARK    8  A    between atoms: N_21  and  C_22 
ROOT
ATOM      1  C   LIG d   1       3.368  -0.958  -8.211  0.00  0.00     0.070 C 
ATOM      2  H   LIG d   1       2.780  -1.887  -8.253  0.00  0.00     0.052 H 
ATOM      3  C   LIG d   1       2.759   0.129  -7.297  0.00  0.00     0.117 C 
ATOM      4  H   LIG d   1       1.663   0.089  -7.221  0.00  0.00     0.067 H 
ATOM      5  O   LIG d   1       3.146   1.381  -7.905  0.00  0.00    -0.362 OA
ATOM      6  C   LIG d   1       2.996   1.176  -9.327  0.00  0.00     0.110 C 
ATOM      7  H   LIG d   1       1.940   1.318  -9.601  0.00  0.00     0.065 H 
ATOM      8  C   LIG d   1       3.527  -0.253  -9.578  0.00  0.00     0.102 C 
ATOM      9  H   LIG d   1       3.056  -0.775 -10.423  0.00  0.00     0.064 H 
ENDROOT
BRANCH   3  10
ATOM     10  C   LIG d   1       3.338   0.022  -5.885  0.00  0.00    -0.005 C 
ATOM     11  H   LIG d   1       4.044  -0.822  -5.841  0.00  0.00     0.084 H 
ATOM     12  H   LIG d   1       3.865   0.954  -5.633  0.00  0.00     0.084 H 
BRANCH  10  13
ATOM     13  N   LIG d   1       2.249  -0.201  -4.925  0.00  0.00     0.231 N 
ATOM     14  H   LIG d   1       1.522   0.621  -5.000  0.00  0.00     0.202 HD
ATOM     15  H   LIG d   1       1.750  -1.154  -5.151  0.00  0.00     0.202 HD
BRANCH  13  16
ATOM     16  C   LIG d   1       2.762  -0.252  -3.549  0.00  0.00    -0.018 C 
ATOM     17  C   LIG d   1       3.572   1.016  -3.257  0.00  0.00     0.014 C 
ATOM     18  C   LIG d   1       4.168   0.919  -1.852  0.00  0.00     0.053 C 
ATOM     19  H   LIG d   1       4.380   1.113  -3.996  0.00  0.00     0.034 H 
ATOM     20  H   LIG d   1       2.912   1.894  -3.319  0.00  0.00     0.034 H 
ATOM     21  O   LIG d   1       4.978  -0.255  -1.760  0.00  0.00    -0.379 OA
ATOM     22  H   LIG d   1       3.357   0.862  -1.111  0.00  0.00     0.056 H 
ATOM     23  H   LIG d   1       4.786   1.807  -1.652  0.00  0.00     0.056 H 
ATOM     24  C   LIG d   1       4.265  -1.475  -1.976  0.00  0.00     0.053 C 
ATOM     25  C   LIG d   1       3.673  -1.473  -3.388  0.00  0.00     0.014 C 
ATOM     26  H   LIG d   1       3.455  -1.562  -1.238  0.00  0.00     0.056 H 
ATOM     27  H   LIG d   1       4.953  -2.326  -1.869  0.00  0.00     0.056 H 
ATOM     28  H   LIG d   1       3.086  -2.391  -3.543  0.00  0.00     0.034 H 
ATOM     29  H   LIG d   1       4.483  -1.427  -4.129  0.00  0.00     0.034 H 
ATOM     30  H   LIG d   1       1.891  -0.322  -2.883  0.00  0.00     0.085 H 
ENDBRANCH  13  16
ENDBRANCH  10  13
ENDBRANCH   3  10
BRANCH   1  31
ATOM     31  N   LIG d   1       4.675  -1.388  -7.699  0.00  0.00    -0.292 N 
ATOM     32  C   LIG d   1       5.323  -0.311  -6.939  0.00  0.00     0.012 C 
ATOM     33  C   LIG d   1       6.713  -0.770  -6.491  0.00  0.00     0.011 C 
ATOM     34  H   LIG d   1       4.716  -0.066  -6.055  0.00  0.00     0.044 H 
ATOM     35  H   LIG d   1       5.420   0.581  -7.575  0.00  0.00     0.044 H 
ATOM     36  N   LIG d   1       6.585  -1.984  -5.673  0.00  0.00    -0.303 N 
ATOM     37  H   LIG d   1       7.189   0.024  -5.897  0.00  0.00     0.044 H 
ATOM     38  H   LIG d   1       7.331  -0.987  -7.375  0.00  0.00     0.044 H 
ATOM     39  C   LIG d   1       5.936  -3.061  -6.433  0.00  0.00     0.011 C 
ATOM     40  C   LIG d   1       4.547  -2.602  -6.881  0.00  0.00     0.012 C 
ATOM     41  H   LIG d   1       6.545  -3.305  -7.316  0.00  0.00     0.044 H 
ATOM     42  H   LIG d   1       5.841  -3.953  -5.796  0.00  0.00     0.044 H 
ATOM     43  H   LIG d   1       3.929  -2.385  -5.997  0.00  0.00     0.044 H 
ATOM     44  H   LIG d   1       4.071  -3.396  -7.475  0.00  0.00     0.044 H 
BRANCH  36  45
ATOM     45  C   LIG d   1       7.892  -2.415  -5.161  0.00  0.00    -0.013 C 
ATOM     46  H   LIG d   1       8.071  -1.954  -4.177  0.00  0.00     0.039 H 
ATOM     47  H   LIG d   1       8.682  -2.101  -5.860  0.00  0.00     0.039 H 
ATOM     48  H   LIG d   1       7.905  -3.510  -5.060  0.00  0.00     0.039 H 
ENDBRANCH  36  45
ENDBRANCH   1  31
BRANCH   8  49
ATOM     49  O   LIG d   1       4.902  -0.218  -9.966  0.00  0.00    -0.388 OA
ATOM     50  H   LIG d   1       5.262   0.567 -10.646  0.00  0.00     0.210 HD
ENDBRANCH   8  49
BRANCH   6  51
ATOM     51  C   LIG d   1       3.828   2.197 -10.105  0.00  0.00     0.073 C 
ATOM     52  H   LIG d   1       4.137   1.762 -11.067  0.00  0.00     0.058 H 
ATOM     53  H   LIG d   1       3.226   3.100 -10.286  0.00  0.00     0.058 H 
BRANCH  51  54
ATOM     54  O   LIG d   1       4.988   2.544  -9.346  0.00  0.00    -0.392 OA
ATOM     55  H   LIG d   1       4.937   3.351  -8.600  0.00  0.00     0.209 HD
ENDBRANCH  51  54
ENDBRANCH   6  51
TORSDOF 8
ENDMDL
MODEL 3
REMARK VINA RESULT:      -5.5      2.094      2.972
REMARK  8 active torsions:
REMARK  status: ('A' for Active; 'I' for Inactive)
REMARK    1  A    between atoms: C_1  and  N_2 
REMARK    2  A    between atoms: N_5  and  C_8 
REMARK    3  A    between atoms: C_10  and  C_20 
REMARK    4  A    between atoms: C_13  and  C_18 
REMARK    5  A    between atoms: C_15  and  O_17 
REMARK    6  A    between atoms: C_18  and  O_19 
REMARK    7  A    between atoms: C_20  and  N_21 
REMARK    8  A    between atoms: N_21  and  C_22 
ROOT
ATOM      1  C   LIG d   1       3.898  -0.983  -7.586  0.00  0.00     0.070 C 
ATOM      2  H   LIG d   1       3.611  -2.028  -7.394  0.00  0.00     0.052 H 
ATOM      3  C   LIG d   1       2.802   0.045  -7.226  0.00  0.00     0.117 C 
ATOM      4  H   LIG d   1       1.777  -0.340  -7.322  0.00  0.00     0.067 H 
ATOM      5  O   LIG d   1       2.991   1.128  -8.163  0.00  0.00    -0.362 OA
ATOM      6  C   LIG d   1       3.286   0.492  -9.426  0.00  0.00     0.110 C 
ATOM      7  H   LIG d   1       2.343   0.185  -9.903  0.00  0.00     0.065 H 
ATOM      8  C   LIG d   1       4.223  -0.683  -9.067  0.00  0.00     0.102 C 
ATOM      9  H   LIG d   1       4.150  -1.549  -9.740  0.00  0.00     0.064 H 
ENDROOT
BRANCH   3  10
ATOM     10  C   LIG d   1       2.990   0.544  -5.792  0.00  0.00    -0.005 C 
ATOM     11  H   LIG d   1       4.036   0.391  -5.485  0.00  0.00     0.084 H 
ATOM     12  H   LIG d   1       2.745   1.614  -5.740  0.00  0.00     0.084 H 
BRANCH  10  13
ATOM     13  N   LIG d   1       2.102  -0.206  -4.893  0.00  0.00     0.231 N 
ATOM     14  H   LIG d   1       1.128   0.300  -4.836  0.00  0.00     0.202 HD
ATOM     15  H   LIG d   1       1.965  -1.226  -5.280  0.00  0.00     0.202 HD
BRANCH  13  16
ATOM     16  C   LIG d   1       2.671  -0.288  -3.540  0.00  0.00    -0.018 C 
ATOM     17  C   LIG d   1       3.510   0.964  -3.261  0.00  0.00     0.014 C 
ATOM     18  C   LIG d   1       4.161   0.834  -1.882  0.00  0.00     0.053 C 
ATOM     19  H   LIG d   1       4.289   1.062  -4.030  0.00  0.00     0.034 H 
ATOM     20  H   LIG d   1       2.861   1.852  -3.281  0.00  0.00     0.034 H 
ATOM     21  O   LIG d   1       4.957  -0.352  -1.843  0.00  0.00    -0.379 OA
ATOM     22  H   LIG d   1       3.380   0.776  -1.110  0.00  0.00     0.056 H 
ATOM     23  H   LIG d   1       4.800   1.710  -1.694  0.00  0.00     0.056 H 
ATOM     24  C   LIG d   1       4.218  -1.558  -2.051  0.00  0.00     0.053 C 
ATOM     25  C   LIG d   1       3.569  -1.524  -3.437  0.00  0.00     0.014 C 
ATOM     26  H   LIG d   1       3.437  -1.647  -1.281  0.00  0.00     0.056 H 
ATOM     27  H   LIG d   1       4.898  -2.420  -1.985  0.00  0.00     0.056 H 
ATOM     28  H   LIG d   1       2.963  -2.431  -3.583  0.00  0.00     0.034 H 
ATOM     29  H   LIG d   1       4.349  -1.477  -4.209  0.00  0.00     0.034 H 
ATOM     30  H   LIG d   1       1.826  -0.358  -2.840  0.00  0.00     0.085 H 
ENDBRANCH  13  16
ENDBRANCH  10  13
ENDBRANCH   3  10
BRANCH   1  31
ATOM     31  N   LIG d   1       5.087  -0.783  -6.747  0.00  0.00    -0.292 N 
ATOM     32  C   LIG d   1       5.708  -2.069  -6.400  0.00  0.00     0.012 C 
ATOM     33  C   LIG d   1       6.893  -1.824  -5.462  0.00  0.00     0.011 C 
ATOM     34  H   LIG d   1       6.062  -2.566  -7.315  0.00  0.00     0.044 H 
ATOM     35  H   LIG d   1       4.970  -2.710  -5.897  0.00  0.00     0.044 H 
ATOM     36  N   LIG d   1       7.860  -0.936  -6.122  0.00  0.00    -0.303 N 
ATOM     37  H   LIG d   1       7.378  -2.782  -5.225  0.00  0.00     0.044 H 
ATOM     38  H   LIG d   1       6.536  -1.353  -4.534  0.00  0.00     0.044 H 
ATOM     39  C   LIG d   1       7.238   0.350  -6.468  0.00  0.00     0.011 C 
ATOM     40  C   LIG d   1       6.054   0.105  -7.406  0.00  0.00     0.012 C 
ATOM     41  H   LIG d   1       6.885   0.846  -5.552  0.00  0.00     0.044 H 
ATOM     42  H   LIG d   1       7.978   0.991  -6.971  0.00  0.00     0.044 H 
ATOM     43  H   LIG d   1       6.411  -0.366  -8.334  0.00  0.00     0.044 H 
ATOM     44  H   LIG d   1       5.569   1.063  -7.644  0.00  0.00     0.044 H 
BRANCH  36  45
ATOM     45  C   LIG d   1       9.049  -0.736  -5.283  0.00  0.00    -0.013 C 
ATOM     46  H   LIG d   1       9.699   0.024  -5.743  0.00  0.00     0.039 H 
ATOM     47  H   LIG d   1       9.599  -1.684  -5.195  0.00  0.00     0.039 H 
ATOM     48  H   LIG d   1       8.741  -0.397  -4.283  0.00  0.00     0.039 H 
ENDBRANCH  36  45
ENDBRANCH   1  31
BRANCH   8  49
ATOM     49  O   LIG d   1       5.592  -0.296  -9.210  0.00  0.00    -0.388 OA
ATOM     50  H   LIG d   1       5.915   0.709  -8.903  0.00  0.00     0.210 HD
ENDBRANCH   8  49
BRANCH   6  51
ATOM     51  C   LIG d   1       3.994   1.470 -10.365  0.00  0.00     0.073 C 
ATOM     52  H   LIG d   1       4.708   0.921 -10.997  0.00  0.00     0.058 H 
ATOM     53  H   LIG d   1       3.250   1.972 -11.002  0.00  0.00     0.058 H 
BRANCH  51  54
ATOM     54  O   LIG d   1       4.696   2.448  -9.594  0.00  0.00    -0.392 OA
ATOM     55  H   LIG d   1       5.695   2.218  -9.192  0.00  0.00     0.209 HD
ENDBRANCH  51  54
ENDBRANCH   6  51
TORSDOF 8
ENDMDL
MODEL 4
REMARK VINA RESULT:      -5.4      1.623      2.077
REMARK  8 active torsions:
REMARK  status: ('A' for Active; 'I' for Inactive)
REMARK    1  A    between atoms: C_1  and  N_2 
REMARK    2  A    between atoms: N_5  and  C_8 
REMARK    3  A    between atoms: C_10  and  C_20 
REMARK    4  A    between atoms: C_13  and  C_18 
REMARK    5  A    between atoms: C_15  and  O_17 
REMARK    6  A    between atoms: C_18  and  O_19 
REMARK    7  A    between atoms: C_20  and  N_21 
REMARK    8  A    between atoms: N_21  and  C_22 
ROOT
ATOM      1  C   LIG d   1       2.709   0.650  -8.894  0.00  0.00     0.070 C 
ATOM      2  H   LIG d   1       1.737   1.097  -9.150  0.00  0.00     0.052 H 
ATOM      3  C   LIG d   1       3.245   1.063  -7.506  0.00  0.00     0.117 C 
ATOM      4  H   LIG d   1       2.923   2.062  -7.179  0.00  0.00     0.067 H 
ATOM      5  O   LIG d   1       4.683   1.054  -7.648  0.00  0.00    -0.362 OA
ATOM      6  C   LIG d   1       4.941   1.626  -8.948  0.00  0.00     0.110 C 
ATOM      7  H   LIG d   1       4.911   2.723  -8.871  0.00  0.00     0.065 H 
ATOM      8  C   LIG d   1       3.850   1.029  -9.866  0.00  0.00     0.102 C 
ATOM      9  H   LIG d   1       3.548   1.678 -10.701  0.00  0.00     0.064 H 
ENDROOT
BRANCH   3  10
ATOM     10  C   LIG d   1       2.809   0.051  -6.444  0.00  0.00    -0.005 C 
ATOM     11  H   LIG d   1       1.854  -0.405  -6.744  0.00  0.00     0.084 H 
ATOM     12  H   LIG d   1       3.575  -0.731  -6.346  0.00  0.00     0.084 H 
BRANCH  10  13
ATOM     13  N   LIG d   1       2.641   0.736  -5.155  0.00  0.00     0.231 N 
ATOM     14  H   LIG d   1       2.766   1.820  -5.298  0.00  0.00     0.202 HD
ATOM     15  H   LIG d   1       1.636   0.532  -4.760  0.00  0.00     0.202 HD
BRANCH  13  16
ATOM     16  C   LIG d   1       3.636   0.271  -4.179  0.00  0.00    -0.018 C 
ATOM     17  C   LIG d   1       3.213  -1.094  -3.627  0.00  0.00     0.014 C 
ATOM     18  C   LIG d   1       4.212  -1.534  -2.555  0.00  0.00     0.053 C 
ATOM     19  H   LIG d   1       2.208  -1.016  -3.187  0.00  0.00     0.034 H 
ATOM     20  H   LIG d   1       3.199  -1.831  -4.444  0.00  0.00     0.034 H 
ATOM     21  O   LIG d   1       4.269  -0.545  -1.525  0.00  0.00    -0.379 OA
ATOM     22  H   LIG d   1       5.208  -1.650  -3.006  0.00  0.00     0.056 H 
ATOM     23  H   LIG d   1       3.890  -2.494  -2.124  0.00  0.00     0.056 H 
ATOM     24  C   LIG d   1       4.704   0.740  -1.973  0.00  0.00     0.053 C 
ATOM     25  C   LIG d   1       3.724   1.272  -3.022  0.00  0.00     0.014 C 
ATOM     26  H   LIG d   1       5.707   0.654  -2.417  0.00  0.00     0.056 H 
ATOM     27  H   LIG d   1       4.739   1.433  -1.120  0.00  0.00     0.056 H 
ATOM     28  H   LIG d   1       4.080   2.241  -3.402  0.00  0.00     0.034 H 
ATOM     29  H   LIG d   1       2.731   1.397  -2.569  0.00  0.00     0.034 H 
ATOM     30  H   LIG d   1       4.597   0.199  -4.708  0.00  0.00     0.085 H 
ENDBRANCH  13  16
ENDBRANCH  10  13
ENDBRANCH   3  10
BRANCH   1  31
ATOM     31  N   LIG d   1       2.455  -0.797  -8.939  0.00  0.00    -0.292 N 
ATOM     32  C   LIG d   1       1.689  -1.160 -10.139  0.00  0.00     0.012 C 
ATOM     33  C   LIG d   1       1.377  -2.658 -10.108  0.00  0.00     0.011 C 
ATOM     34  H   LIG d   1       2.280  -0.927 -11.038  0.00  0.00     0.044 H 
ATOM     35  H   LIG d   1       0.749  -0.590 -10.161  0.00  0.00     0.044 H 
ATOM     36  N   LIG d   1       2.634  -3.416 -10.039  0.00  0.00    -0.303 N 
ATOM     37  H   LIG d   1       0.829  -2.938 -11.019  0.00  0.00     0.044 H 
ATOM     38  H   LIG d   1       0.762  -2.887  -9.225  0.00  0.00     0.044 H 
ATOM     39  C   LIG d   1       3.399  -3.053  -8.839  0.00  0.00     0.011 C 
ATOM     40  C   LIG d   1       3.712  -1.554  -8.870  0.00  0.00     0.012 C 
ATOM     41  H   LIG d   1       2.807  -3.286  -7.942  0.00  0.00     0.044 H 
ATOM     42  H   LIG d   1       4.339  -3.624  -8.817  0.00  0.00     0.044 H 
ATOM     43  H   LIG d   1       4.327  -1.326  -9.753  0.00  0.00     0.044 H 
ATOM     44  H   LIG d   1       4.260  -1.274  -7.958  0.00  0.00     0.044 H 
BRANCH  36  45
ATOM     45  C   LIG d   1       2.380  -4.862 -10.083  0.00  0.00    -0.013 C 
ATOM     46  H   LIG d   1       3.244  -5.399  -9.664  0.00  0.00     0.039 H 
ATOM     47  H   LIG d   1       2.224  -5.175 -11.126  0.00  0.00     0.039 H 
ATOM     48  H   LIG d   1       1.482  -5.096  -9.493  0.00  0.00     0.039 H 
ENDBRANCH  36  45
ENDBRANCH   1  31
BRANCH   8  49
ATOM     49  O   LIG d   1       4.340  -0.132 -10.540  0.00  0.00    -0.388 OA
ATOM     50  H   LIG d   1       3.638  -0.820 -11.032  0.00  0.00     0.210 HD
ENDBRANCH   8  49
BRANCH   6  51
ATOM     51  C   LIG d   1       6.331   1.224  -9.444  0.00  0.00     0.073 C 
ATOM     52  H   LIG d   1       6.730   0.422  -8.805  0.00  0.00     0.058 H 
ATOM     53  H   LIG d   1       6.262   0.867 -10.482  0.00  0.00     0.058 H 
BRANCH  51  54
ATOM     54  O   LIG d   1       7.203   2.355  -9.386  0.00  0.00    -0.392 OA
ATOM     55  H   LIG d   1       7.868   2.494  -8.521  0.00  0.00     0.209 HD
ENDBRANCH  51  54
ENDBRANCH   6  51
TORSDOF 8
ENDMDL
MODEL 5
REMARK VINA RESULT:      -5.4      3.886      5.582
REMARK  8 active torsions:
REMARK  status: ('A' for Active; 'I' for Inactive)
REMARK    1  A    between atoms: C_1  and  N_2 
REMARK    2  A    between atoms: N_5  and  C_8 
REMARK    3  A    between atoms: C_10  and  C_20 
REMARK    4  A    between atoms: C_13  and  C_18 
REMARK    5  A    between atoms: C_15  and  O_17 
REMARK    6  A    between atoms: C_18  and  O_19 
REMARK    7  A    between atoms: C_20  and  N_21 
REMARK    8  A    between atoms: N_21  and  C_22 
ROOT
ATOM      1  C   LIG d   1       5.170  -1.220  -2.945  0.00  0.00     0.070 C 
ATOM      2  H   LIG d   1       5.368  -1.734  -1.993  0.00  0.00     0.052 H 
ATOM      3  C   LIG d   1       5.590   0.267  -2.955  0.00  0.00     0.117 C 
ATOM      4  H   LIG d   1       5.540   0.754  -1.971  0.00  0.00     0.067 H 
ATOM      5  O   LIG d   1       4.653   0.909  -3.848  0.00  0.00    -0.362 OA
ATOM      6  C   LIG d   1       3.373   0.310  -3.552  0.00  0.00     0.110 C 
ATOM      7  H   LIG d   1       2.940   0.804  -2.670  0.00  0.00     0.065 H 
ATOM      8  C   LIG d   1       3.678  -1.191  -3.346  0.00  0.00     0.102 C 
ATOM      9  H   LIG d   1       3.002  -1.705  -2.647  0.00  0.00     0.064 H 
ENDROOT
BRANCH   3  10
ATOM     10  C   LIG d   1       7.017   0.414  -3.486  0.00  0.00    -0.005 C 
ATOM     11  H   LIG d   1       7.715   0.506  -2.641  0.00  0.00     0.084 H 
ATOM     12  H   LIG d   1       7.279  -0.472  -4.084  0.00  0.00     0.084 H 
BRANCH  10  13
ATOM     13  N   LIG d   1       7.106   1.616  -4.327  0.00  0.00     0.231 N 
ATOM     14  H   LIG d   1       6.535   1.457  -5.254  0.00  0.00     0.202 HD
ATOM     15  H   LIG d   1       6.689   2.475  -3.782  0.00  0.00     0.202 HD
BRANCH  13  16
ATOM     16  C   LIG d   1       8.501   1.911  -4.677  0.00  0.00    -0.018 C 
ATOM     17  C   LIG d   1       9.234   0.605  -5.006  0.00  0.00     0.014 C 
ATOM     18  C   LIG d   1      10.705   0.914  -5.293  0.00  0.00     0.053 C 
ATOM     19  H   LIG d   1       9.159  -0.082  -4.151  0.00  0.00     0.034 H 
ATOM     20  H   LIG d   1       8.774   0.141  -5.891  0.00  0.00     0.034 H 
ATOM     21  O   LIG d   1      11.282   1.570  -4.162  0.00  0.00    -0.379 OA
ATOM     22  H   LIG d   1      10.778   1.569  -6.173  0.00  0.00     0.056 H 
ATOM     23  H   LIG d   1      11.246  -0.024  -5.488  0.00  0.00     0.056 H 
ATOM     24  C   LIG d   1      10.669   2.819  -3.836  0.00  0.00     0.053 C 
ATOM     25  C   LIG d   1       9.195   2.587  -3.491  0.00  0.00     0.014 C 
ATOM     26  H   LIG d   1      10.741   3.499  -4.697  0.00  0.00     0.056 H 
ATOM     27  H   LIG d   1      11.182   3.265  -2.972  0.00  0.00     0.056 H 
ATOM     28  H   LIG d   1       8.709   3.551  -3.282  0.00  0.00     0.034 H 
ATOM     29  H   LIG d   1       9.121   1.940  -2.605  0.00  0.00     0.034 H 
ATOM     30  H   LIG d   1       8.480   2.579  -5.550  0.00  0.00     0.085 H 
ENDBRANCH  13  16
ENDBRANCH  10  13
ENDBRANCH   3  10
BRANCH   1  31
ATOM     31  N   LIG d   1       5.953  -1.982  -3.928  0.00  0.00    -0.292 N 
ATOM     32  C   LIG d   1       7.294  -2.285  -3.411  0.00  0.00     0.012 C 
ATOM     33  C   LIG d   1       8.103  -3.008  -4.490  0.00  0.00     0.011 C 
ATOM     34  H   LIG d   1       7.211  -2.929  -2.523  0.00  0.00     0.044 H 
ATOM     35  H   LIG d   1       7.803  -1.348  -3.137  0.00  0.00     0.044 H 
ATOM     36  N   LIG d   1       7.403  -4.238  -4.881  0.00  0.00    -0.303 N 
ATOM     37  H   LIG d   1       9.098  -3.261  -4.096  0.00  0.00     0.044 H 
ATOM     38  H   LIG d   1       8.213  -2.353  -5.368  0.00  0.00     0.044 H 
ATOM     39  C   LIG d   1       6.061  -3.936  -5.398  0.00  0.00     0.011 C 
ATOM     40  C   LIG d   1       5.252  -3.213  -4.318  0.00  0.00     0.012 C 
ATOM     41  H   LIG d   1       6.147  -3.292  -6.286  0.00  0.00     0.044 H 
ATOM     42  H   LIG d   1       5.554  -4.873  -5.671  0.00  0.00     0.044 H 
ATOM     43  H   LIG d   1       5.143  -3.868  -3.441  0.00  0.00     0.044 H 
ATOM     44  H   LIG d   1       4.257  -2.959  -4.712  0.00  0.00     0.044 H 
BRANCH  36  45
ATOM     45  C   LIG d   1       8.185  -5.001  -5.863  0.00  0.00    -0.013 C 
ATOM     46  H   LIG d   1       9.201  -4.581  -5.929  0.00  0.00     0.039 H 
ATOM     47  H   LIG d   1       7.699  -4.938  -6.848  0.00  0.00     0.039 H 
ATOM     48  H   LIG d   1       8.244  -6.053  -5.549  0.00  0.00     0.039 H 
ENDBRANCH  36  45
ENDBRANCH   1  31
BRANCH   8  49
ATOM     49  O   LIG d   1       3.471  -1.917  -4.560  0.00  0.00    -0.388 OA
ATOM     50  H   LIG d   1       2.465  -2.270  -4.826  0.00  0.00     0.210 HD
ENDBRANCH   8  49
BRANCH   6  51
ATOM     51  C   LIG d   1       2.408   0.502  -4.723  0.00  0.00     0.073 C 
ATOM     52  H   LIG d   1       1.741  -0.370  -4.796  0.00  0.00     0.058 H 
ATOM     53  H   LIG d   1       1.809   1.410  -4.560  0.00  0.00     0.058 H 
BRANCH  51  54
ATOM     54  O   LIG d   1       3.152   0.633  -5.936  0.00  0.00    -0.392 OA
ATOM     55  H   LIG d   1       3.505   1.624  -6.261  0.00  0.00     0.209 HD
ENDBRANCH  51  54
ENDBRANCH   6  51
TORSDOF 8
ENDMDL
MODEL 6
REMARK VINA RESULT:      -5.3      3.393      5.703
REMARK  8 active torsions:
REMARK  status: ('A' for Active; 'I' for Inactive)
REMARK    1  A    between atoms: C_1  and  N_2 
REMARK    2  A    between atoms: N_5  and  C_8 
REMARK    3  A    between atoms: C_10  and  C_20 
REMARK    4  A    between atoms: C_13  and  C_18 
REMARK    5  A    between atoms: C_15  and  O_17 
REMARK    6  A    between atoms: C_18  and  O_19 
REMARK    7  A    between atoms: C_20  and  N_21 
REMARK    8  A    between atoms: N_21  and  C_22 
ROOT
ATOM      1  C   LIG d   1       6.212  -0.934  -3.392  0.00  0.00     0.070 C 
ATOM      2  H   LIG d   1       6.782  -1.796  -3.014  0.00  0.00     0.052 H 
ATOM      3  C   LIG d   1       6.950   0.416  -3.253  0.00  0.00     0.117 C 
ATOM      4  H   LIG d   1       7.645   0.462  -2.402  0.00  0.00     0.067 H 
ATOM      5  O   LIG d   1       5.902   1.391  -3.061  0.00  0.00    -0.362 OA
ATOM      6  C   LIG d   1       4.951   0.760  -2.176  0.00  0.00     0.110 C 
ATOM      7  H   LIG d   1       5.301   0.865  -1.138  0.00  0.00     0.065 H 
ATOM      8  C   LIG d   1       4.867  -0.703  -2.666  0.00  0.00     0.102 C 
ATOM      9  H   LIG d   1       4.634  -1.437  -1.881  0.00  0.00     0.064 H 
ENDROOT
BRANCH   3  10
ATOM     10  C   LIG d   1       7.738   0.725  -4.527  0.00  0.00    -0.005 C 
ATOM     11  H   LIG d   1       7.761  -0.168  -5.170  0.00  0.00     0.084 H 
ATOM     12  H   LIG d   1       7.254   1.553  -5.066  0.00  0.00     0.084 H 
BRANCH  10  13
ATOM     13  N   LIG d   1       9.111   1.108  -4.173  0.00  0.00     0.231 N 
ATOM     14  H   LIG d   1       9.461   0.484  -3.337  0.00  0.00     0.202 HD
ATOM     15  H   LIG d   1       9.769   0.959  -5.042  0.00  0.00     0.202 HD
BRANCH  13  16
ATOM     16  C   LIG d   1       9.176   2.519  -3.768  0.00  0.00    -0.018 C 
ATOM     17  C   LIG d   1       9.223   3.408  -5.015  0.00  0.00     0.014 C 
ATOM     18  C   LIG d   1       9.370   4.869  -4.584  0.00  0.00     0.053 C 
ATOM     19  H   LIG d   1      10.080   3.118  -5.640  0.00  0.00     0.034 H 
ATOM     20  H   LIG d   1       8.292   3.284  -5.588  0.00  0.00     0.034 H 
ATOM     21  O   LIG d   1      10.550   5.014  -3.791  0.00  0.00    -0.379 OA
ATOM     22  H   LIG d   1       8.492   5.168  -3.993  0.00  0.00     0.056 H 
ATOM     23  H   LIG d   1       9.447   5.509  -5.476  0.00  0.00     0.056 H 
ATOM     24  C   LIG d   1      10.543   4.242  -2.588  0.00  0.00     0.053 C 
ATOM     25  C   LIG d   1      10.443   2.755  -2.939  0.00  0.00     0.014 C 
ATOM     26  H   LIG d   1       9.680   4.533  -1.971  0.00  0.00     0.056 H 
ATOM     27  H   LIG d   1      11.472   4.425  -2.030  0.00  0.00     0.056 H 
ATOM     28  H   LIG d   1      10.392   2.161  -2.014  0.00  0.00     0.034 H 
ATOM     29  H   LIG d   1      11.324   2.453  -3.521  0.00  0.00     0.034 H 
ATOM     30  H   LIG d   1       8.275   2.724  -3.173  0.00  0.00     0.085 H 
ENDBRANCH  13  16
ENDBRANCH  10  13
ENDBRANCH   3  10
BRANCH   1  31
ATOM     31  N   LIG d   1       5.985  -1.253  -4.808  0.00  0.00    -0.292 N 
ATOM     32  C   LIG d   1       5.844  -2.703  -5.004  0.00  0.00     0.012 C 
ATOM     33  C   LIG d   1       5.689  -3.000  -6.498  0.00  0.00     0.011 C 
ATOM     34  H   LIG d   1       4.955  -3.063  -4.465  0.00  0.00     0.044 H 
ATOM     35  H   LIG d   1       6.737  -3.215  -4.619  0.00  0.00     0.044 H 
ATOM     36  N   LIG d   1       4.516  -2.284  -7.018  0.00  0.00    -0.303 N 
ATOM     37  H   LIG d   1       5.554  -4.082  -6.645  0.00  0.00     0.044 H 
ATOM     38  H   LIG d   1       6.590  -2.667  -7.034  0.00  0.00     0.044 H 
ATOM     39  C   LIG d   1       4.658  -0.835  -6.821  0.00  0.00     0.011 C 
ATOM     40  C   LIG d   1       4.812  -0.538  -5.328  0.00  0.00     0.012 C 
ATOM     41  H   LIG d   1       5.547  -0.477  -7.361  0.00  0.00     0.044 H 
ATOM     42  H   LIG d   1       3.764  -0.324  -7.207  0.00  0.00     0.044 H 
ATOM     43  H   LIG d   1       3.911  -0.871  -4.792  0.00  0.00     0.044 H 
ATOM     44  H   LIG d   1       4.948   0.544  -5.181  0.00  0.00     0.044 H 
BRANCH  36  45
ATOM     45  C   LIG d   1       4.290  -2.604  -8.433  0.00  0.00    -0.013 C 
ATOM     46  H   LIG d   1       3.220  -2.805  -8.597  0.00  0.00     0.039 H 
ATOM     47  H   LIG d   1       4.876  -3.493  -8.707  0.00  0.00     0.039 H 
ATOM     48  H   LIG d   1       4.602  -1.753  -9.057  0.00  0.00     0.039 H 
ENDBRANCH  36  45
ENDBRANCH   1  31
BRANCH   8  49
ATOM     49  O   LIG d   1       3.774  -0.867  -3.573  0.00  0.00    -0.388 OA
ATOM     50  H   LIG d   1       2.741  -0.857  -3.197  0.00  0.00     0.210 HD
ENDBRANCH   8  49
BRANCH   6  51
ATOM     51  C   LIG d   1       3.585   1.438  -2.286  0.00  0.00     0.073 C 
ATOM     52  H   LIG d   1       2.793   0.674  -2.264  0.00  0.00     0.058 H 
ATOM     53  H   LIG d   1       3.450   2.132  -1.443  0.00  0.00     0.058 H 
BRANCH  51  54
ATOM     54  O   LIG d   1       3.511   2.164  -3.515  0.00  0.00    -0.392 OA
ATOM     55  H   LIG d   1       3.648   1.639  -4.473  0.00  0.00     0.209 HD
ENDBRANCH  51  54
ENDBRANCH   6  51
TORSDOF 8
ENDMDL
MODEL 7
REMARK VINA RESULT:      -5.2      2.320      5.418
REMARK  8 active torsions:
REMARK  status: ('A' for Active; 'I' for Inactive)
REMARK    1  A    between atoms: C_1  and  N_2 
REMARK    2  A    between atoms: N_5  and  C_8 
REMARK    3  A    between atoms: C_10  and  C_20 
REMARK    4  A    between atoms: C_13  and  C_18 
REMARK    5  A    between atoms: C_15  and  O_17 
REMARK    6  A    between atoms: C_18  and  O_19 
REMARK    7  A    between atoms: C_20  and  N_21 
REMARK    8  A    between atoms: N_21  and  C_22 
ROOT
ATOM      1  C   LIG d   1       5.498  -1.807  -5.745  0.00  0.00     0.070 C 
ATOM      2  H   LIG d   1       6.533  -2.168  -5.836  0.00  0.00     0.052 H 
ATOM      3  C   LIG d   1       5.325  -0.305  -6.060  0.00  0.00     0.117 C 
ATOM      4  H   LIG d   1       6.212   0.305  -5.834  0.00  0.00     0.067 H 
ATOM      5  O   LIG d   1       4.230   0.124  -5.221  0.00  0.00    -0.362 OA
ATOM      6  C   LIG d   1       4.436  -0.539  -3.955  0.00  0.00     0.110 C 
ATOM      7  H   LIG d   1       5.170   0.031  -3.366  0.00  0.00     0.065 H 
ATOM      8  C   LIG d   1       4.900  -1.965  -4.328  0.00  0.00     0.102 C 
ATOM      9  H   LIG d   1       5.571  -2.436  -3.594  0.00  0.00     0.064 H 
ENDROOT
BRANCH   3  10
ATOM     10  C   LIG d   1       4.975  -0.107  -7.536  0.00  0.00    -0.005 C 
ATOM     11  H   LIG d   1       5.850   0.294  -8.069  0.00  0.00     0.084 H 
ATOM     12  H   LIG d   1       4.687  -1.072  -7.977  0.00  0.00     0.084 H 
BRANCH  10  13
ATOM     13  N   LIG d   1       3.856   0.838  -7.651  0.00  0.00     0.231 N 
ATOM     14  H   LIG d   1       3.152   0.674  -6.822  0.00  0.00     0.202 HD
ATOM     15  H   LIG d   1       4.240   1.867  -7.608  0.00  0.00     0.202 HD
BRANCH  13  16
ATOM     16  C   LIG d   1       3.141   0.654  -8.921  0.00  0.00    -0.018 C 
ATOM     17  C   LIG d   1       2.151  -0.509  -8.788  0.00  0.00     0.014 C 
ATOM     18  C   LIG d   1       1.469  -0.744 -10.137  0.00  0.00     0.053 C 
ATOM     19  H   LIG d   1       2.691  -1.417  -8.483  0.00  0.00     0.034 H 
ATOM     20  H   LIG d   1       1.394  -0.260  -8.029  0.00  0.00     0.034 H 
ATOM     21  O   LIG d   1       2.460  -1.009 -11.131  0.00  0.00    -0.379 OA
ATOM     22  H   LIG d   1       0.896   0.151 -10.420  0.00  0.00     0.056 H 
ATOM     23  H   LIG d   1       0.788  -1.605 -10.059  0.00  0.00     0.056 H 
ATOM     24  C   LIG d   1       3.385   0.062 -11.333  0.00  0.00     0.053 C 
ATOM     25  C   LIG d   1       4.145   0.330 -10.031  0.00  0.00     0.014 C 
ATOM     26  H   LIG d   1       2.838   0.968 -11.632  0.00  0.00     0.056 H 
ATOM     27  H   LIG d   1       4.098  -0.214 -12.124  0.00  0.00     0.056 H 
ATOM     28  H   LIG d   1       4.826   1.182 -10.170  0.00  0.00     0.034 H 
ATOM     29  H   LIG d   1       4.725  -0.561  -9.753  0.00  0.00     0.034 H 
ATOM     30  H   LIG d   1       2.613   1.595  -9.133  0.00  0.00     0.085 H 
ENDBRANCH  13  16
ENDBRANCH  10  13
ENDBRANCH   3  10
BRANCH   1  31
ATOM     31  N   LIG d   1       4.753  -2.625  -6.712  0.00  0.00    -0.292 N 
ATOM     32  C   LIG d   1       5.372  -2.559  -8.043  0.00  0.00     0.012 C 
ATOM     33  C   LIG d   1       4.524  -3.357  -9.037  0.00  0.00     0.011 C 
ATOM     34  H   LIG d   1       6.385  -2.986  -8.001  0.00  0.00     0.044 H 
ATOM     35  H   LIG d   1       5.430  -1.511  -8.370  0.00  0.00     0.044 H 
ATOM     36  N   LIG d   1       4.416  -4.748  -8.578  0.00  0.00    -0.303 N 
ATOM     37  H   LIG d   1       5.000  -3.333 -10.028  0.00  0.00     0.044 H 
ATOM     38  H   LIG d   1       3.519  -2.912  -9.102  0.00  0.00     0.044 H 
ATOM     39  C   LIG d   1       3.797  -4.814  -7.247  0.00  0.00     0.011 C 
ATOM     40  C   LIG d   1       4.645  -4.016  -6.253  0.00  0.00     0.012 C 
ATOM     41  H   LIG d   1       2.784  -4.387  -7.291  0.00  0.00     0.044 H 
ATOM     42  H   LIG d   1       3.739  -5.863  -6.921  0.00  0.00     0.044 H 
ATOM     43  H   LIG d   1       5.650  -4.460  -6.188  0.00  0.00     0.044 H 
ATOM     44  H   LIG d   1       4.169  -4.040  -5.262  0.00  0.00     0.044 H 
BRANCH  36  45
ATOM     45  C   LIG d   1       3.671  -5.565  -9.545  0.00  0.00    -0.013 C 
ATOM     46  H   LIG d   1       3.264  -4.917 -10.336  0.00  0.00     0.039 H 
ATOM     47  H   LIG d   1       2.845  -6.079  -9.031  0.00  0.00     0.039 H 
ATOM     48  H   LIG d   1       4.345  -6.311  -9.992  0.00  0.00     0.039 H 
ENDBRANCH  36  45
ENDBRANCH   1  31
BRANCH   8  49
ATOM     49  O   LIG d   1       3.790  -2.865  -4.351  0.00  0.00    -0.388 OA
ATOM     50  H   LIG d   1       3.780  -3.743  -3.688  0.00  0.00     0.210 HD
ENDBRANCH   8  49
BRANCH   6  51
ATOM     51  C   LIG d   1       3.130  -0.595  -3.161  0.00  0.00     0.073 C 
ATOM     52  H   LIG d   1       3.098  -1.524  -2.573  0.00  0.00     0.058 H 
ATOM     53  H   LIG d   1       3.076   0.271  -2.483  0.00  0.00     0.058 H 
BRANCH  51  54
ATOM     54  O   LIG d   1       2.022  -0.562  -4.063  0.00  0.00    -0.392 OA
ATOM     55  H   LIG d   1       1.379  -1.448  -4.176  0.00  0.00     0.209 HD
ENDBRANCH  51  54
ENDBRANCH   6  51
TORSDOF 8
ENDMDL
MODEL 8
REMARK VINA RESULT:      -5.2      2.947      5.025
REMARK  8 active torsions:
REMARK  status: ('A' for Active; 'I' for Inactive)
REMARK    1  A    between atoms: C_1  and  N_2 
REMARK    2  A    between atoms: N_5  and  C_8 
REMARK    3  A    between atoms: C_10  and  C_20 
REMARK    4  A    between atoms: C_13  and  C_18 
REMARK    5  A    between atoms: C_15  and  O_17 
REMARK    6  A    between atoms: C_18  and  O_19 
REMARK    7  A    between atoms: C_20  and  N_21 
REMARK    8  A    between atoms: N_21  and  C_22 
ROOT
ATOM      1  C   LIG d   1       5.011  -1.331  -4.996  0.00  0.00     0.070 C 
ATOM      2  H   LIG d   1       5.257  -2.398  -5.103  0.00  0.00     0.052 H 
ATOM      3  C   LIG d   1       6.207  -0.450  -4.572  0.00  0.00     0.117 C 
ATOM      4  H   LIG d   1       6.955  -0.974  -3.960  0.00  0.00     0.067 H 
ATOM      5  O   LIG d   1       5.621   0.616  -3.793  0.00  0.00    -0.362 OA
ATOM      6  C   LIG d   1       4.604  -0.016  -2.985  0.00  0.00     0.110 C 
ATOM      7  H   LIG d   1       5.076  -0.465  -2.099  0.00  0.00     0.065 H 
ATOM      8  C   LIG d   1       3.932  -1.040  -3.928  0.00  0.00     0.102 C 
ATOM      9  H   LIG d   1       3.529  -1.931  -3.424  0.00  0.00     0.064 H 
ENDROOT
BRANCH   3  10
ATOM     10  C   LIG d   1       6.913   0.118  -5.805  0.00  0.00    -0.005 C 
ATOM     11  H   LIG d   1       7.817  -0.474  -6.014  0.00  0.00     0.084 H 
ATOM     12  H   LIG d   1       6.236   0.071  -6.670  0.00  0.00     0.084 H 
BRANCH  10  13
ATOM     13  N   LIG d   1       7.290   1.515  -5.552  0.00  0.00     0.231 N 
ATOM     14  H   LIG d   1       7.177   2.097  -6.479  0.00  0.00     0.202 HD
ATOM     15  H   LIG d   1       6.638   1.936  -4.773  0.00  0.00     0.202 HD
BRANCH  13  16
ATOM     16  C   LIG d   1       8.685   1.610  -5.102  0.00  0.00    -0.018 C 
ATOM     17  C   LIG d   1       8.736   2.300  -3.735  0.00  0.00     0.014 C 
ATOM     18  C   LIG d   1      10.197   2.466  -3.310  0.00  0.00     0.053 C 
ATOM     19  H   LIG d   1       8.257   3.287  -3.804  0.00  0.00     0.034 H 
ATOM     20  H   LIG d   1       8.204   1.685  -2.995  0.00  0.00     0.034 H 
ATOM     21  O   LIG d   1      10.898   3.216  -4.304  0.00  0.00    -0.379 OA
ATOM     22  H   LIG d   1      10.663   1.475  -3.203  0.00  0.00     0.056 H 
ATOM     23  H   LIG d   1      10.242   2.999  -2.349  0.00  0.00     0.056 H 
ATOM     24  C   LIG d   1      10.925   2.597  -5.592  0.00  0.00     0.053 C 
ATOM     25  C   LIG d   1       9.492   2.437  -6.109  0.00  0.00     0.014 C 
ATOM     26  H   LIG d   1      11.400   1.608  -5.515  0.00  0.00     0.056 H 
ATOM     27  H   LIG d   1      11.497   3.226  -6.289  0.00  0.00     0.056 H 
ATOM     28  H   LIG d   1       9.506   1.921  -7.080  0.00  0.00     0.034 H 
ATOM     29  H   LIG d   1       9.029   3.427  -6.226  0.00  0.00     0.034 H 
ATOM     30  H   LIG d   1       9.073   0.584  -5.038  0.00  0.00     0.085 H 
ENDBRANCH  13  16
ENDBRANCH  10  13
ENDBRANCH   3  10
BRANCH   1  31
ATOM     31  N   LIG d   1       4.533  -0.943  -6.330  0.00  0.00    -0.292 N 
ATOM     32  C   LIG d   1       4.193  -2.126  -7.132  0.00  0.00     0.012 C 
ATOM     33  C   LIG d   1       3.776  -1.685  -8.537  0.00  0.00     0.011 C 
ATOM     34  H   LIG d   1       3.361  -2.668  -6.656  0.00  0.00     0.044 H 
ATOM     35  H   LIG d   1       5.069  -2.788  -7.200  0.00  0.00     0.044 H 
ATOM     36  N   LIG d   1       2.630  -0.771  -8.440  0.00  0.00    -0.303 N 
ATOM     37  H   LIG d   1       3.494  -2.567  -9.130  0.00  0.00     0.044 H 
ATOM     38  H   LIG d   1       4.617  -1.169  -9.024  0.00  0.00     0.044 H 
ATOM     39  C   LIG d   1       2.970   0.412  -7.638  0.00  0.00     0.011 C 
ATOM     40  C   LIG d   1       3.386  -0.029  -6.233  0.00  0.00     0.012 C 
ATOM     41  H   LIG d   1       3.801   0.952  -8.115  0.00  0.00     0.044 H 
ATOM     42  H   LIG d   1       2.093   1.073  -7.571  0.00  0.00     0.044 H 
ATOM     43  H   LIG d   1       2.546  -0.545  -5.746  0.00  0.00     0.044 H 
ATOM     44  H   LIG d   1       3.669   0.852  -5.639  0.00  0.00     0.044 H 
BRANCH  36  45
ATOM     45  C   LIG d   1       2.152  -0.383  -9.774  0.00  0.00    -0.013 C 
ATOM     46  H   LIG d   1       2.742  -0.906 -10.542  0.00  0.00     0.039 H 
ATOM     47  H   LIG d   1       2.265   0.704  -9.902  0.00  0.00     0.039 H 
ATOM     48  H   LIG d   1       1.092  -0.655  -9.878  0.00  0.00     0.039 H 
ENDBRANCH  36  45
ENDBRANCH   1  31
BRANCH   8  49
ATOM     49  O   LIG d   1       2.767  -0.476  -4.534  0.00  0.00    -0.388 OA
ATOM     50  H   LIG d   1       2.748  -0.283  -5.616  0.00  0.00     0.210 HD
ENDBRANCH   8  49
BRANCH   6  51
ATOM     51  C   LIG d   1       3.583   1.016  -2.506  0.00  0.00     0.073 C 
ATOM     52  H   LIG d   1       2.580   0.565  -2.499  0.00  0.00     0.058 H 
ATOM     53  H   LIG d   1       3.844   1.346  -1.489  0.00  0.00     0.058 H 
BRANCH  51  54
ATOM     54  O   LIG d   1       3.593   2.141  -3.387  0.00  0.00    -0.392 OA
ATOM     55  H   LIG d   1       4.499   2.381  -3.963  0.00  0.00     0.209 HD
ENDBRANCH  51  54
ENDBRANCH   6  51
TORSDOF 8
ENDMDL
MODEL 9
REMARK VINA RESULT:      -5.1      2.901      5.215
REMARK  8 active torsions:
REMARK  status: ('A' for Active; 'I' for Inactive)
REMARK    1  A    between atoms: C_1  and  N_2 
REMARK    2  A    between atoms: N_5  and  C_8 
REMARK    3  A    between atoms: C_10  and  C_20 
REMARK    4  A    between atoms: C_13  and  C_18 
REMARK    5  A    between atoms: C_15  and  O_17 
REMARK    6  A    between atoms: C_18  and  O_19 
REMARK    7  A    between atoms: C_20  and  N_21 
REMARK    8  A    between atoms: N_21  and  C_22 
ROOT
ATOM      1  C   LIG d   1       5.387  -1.660  -4.052  0.00  0.00     0.070 C 
ATOM      2  H   LIG d   1       5.646  -2.718  -3.897  0.00  0.00     0.052 H 
ATOM      3  C   LIG d   1       6.491  -0.672  -3.615  0.00  0.00     0.117 C 
ATOM      4  H   LIG d   1       7.120  -1.038  -2.791  0.00  0.00     0.067 H 
ATOM      5  O   LIG d   1       5.781   0.508  -3.180  0.00  0.00    -0.362 OA
ATOM      6  C   LIG d   1       4.637   0.015  -2.449  0.00  0.00     0.110 C 
ATOM      7  H   LIG d   1       4.946  -0.232  -1.422  0.00  0.00     0.065 H 
ATOM      8  C   LIG d   1       4.138  -1.198  -3.266  0.00  0.00     0.102 C 
ATOM      9  H   LIG d   1       3.652  -1.984  -2.670  0.00  0.00     0.064 H 
ENDROOT
BRANCH   3  10
ATOM     10  C   LIG d   1       7.403  -0.338  -4.797  0.00  0.00    -0.005 C 
ATOM     11  H   LIG d   1       8.434  -0.648  -4.564  0.00  0.00     0.084 H 
ATOM     12  H   LIG d   1       7.054  -0.871  -5.693  0.00  0.00     0.084 H 
BRANCH  10  13
ATOM     13  N   LIG d   1       7.372   1.110  -5.045  0.00  0.00     0.231 N 
ATOM     14  H   LIG d   1       6.993   1.299  -6.060  0.00  0.00     0.202 HD
ATOM     15  H   LIG d   1       6.712   1.594  -4.311  0.00  0.00     0.202 HD
BRANCH  13  16
ATOM     16  C   LIG d   1       8.716   1.692  -4.928  0.00  0.00    -0.018 C 
ATOM     17  C   LIG d   1       9.767   0.584  -5.047  0.00  0.00     0.014 C 
ATOM     18  C   LIG d   1      11.159   1.188  -4.845  0.00  0.00     0.053 C 
ATOM     19  H   LIG d   1       9.581  -0.181  -4.280  0.00  0.00     0.034 H 
ATOM     20  H   LIG d   1       9.704   0.126  -6.045  0.00  0.00     0.034 H 
ATOM     21  O   LIG d   1      11.216   1.832  -3.571  0.00  0.00    -0.379 OA
ATOM     22  H   LIG d   1      11.358   1.924  -5.637  0.00  0.00     0.056 H 
ATOM     23  H   LIG d   1      11.915   0.390  -4.887  0.00  0.00     0.056 H 
ATOM     24  C   LIG d   1      10.288   2.909  -3.419  0.00  0.00     0.053 C 
ATOM     25  C   LIG d   1       8.861   2.374  -3.563  0.00  0.00     0.014 C 
ATOM     26  H   LIG d   1      10.476   3.667  -4.192  0.00  0.00     0.056 H 
ATOM     27  H   LIG d   1      10.411   3.360  -2.424  0.00  0.00     0.056 H 
ATOM     28  H   LIG d   1       8.146   3.206  -3.491  0.00  0.00     0.034 H 
ATOM     29  H   LIG d   1       8.657   1.645  -2.766  0.00  0.00     0.034 H 
ATOM     30  H   LIG d   1       8.822   2.423  -5.743  0.00  0.00     0.085 H 
ENDBRANCH  13  16
ENDBRANCH  10  13
ENDBRANCH   3  10
BRANCH   1  31
ATOM     31  N   LIG d   1       5.150  -1.562  -5.498  0.00  0.00    -0.292 N 
ATOM     32  C   LIG d   1       4.706  -2.850  -6.047  0.00  0.00     0.012 C 
ATOM     33  C   LIG d   1       4.548  -2.728  -7.565  0.00  0.00     0.011 C 
ATOM     34  H   LIG d   1       3.740  -3.128  -5.600  0.00  0.00     0.044 H 
ATOM     35  H   LIG d   1       5.452  -3.625  -5.818  0.00  0.00     0.044 H 
ATOM     36  N   LIG d   1       3.578  -1.666  -7.869  0.00  0.00    -0.303 N 
ATOM     37  H   LIG d   1       4.187  -3.683  -7.975  0.00  0.00     0.044 H 
ATOM     38  H   LIG d   1       5.519  -2.478  -8.017  0.00  0.00     0.044 H 
ATOM     39  C   LIG d   1       4.023  -0.378  -7.320  0.00  0.00     0.011 C 
ATOM     40  C   LIG d   1       4.181  -0.500  -5.802  0.00  0.00     0.012 C 
ATOM     41  H   LIG d   1       4.988  -0.101  -7.769  0.00  0.00     0.044 H 
ATOM     42  H   LIG d   1       3.276   0.396  -7.550  0.00  0.00     0.044 H 
ATOM     43  H   LIG d   1       3.209  -0.750  -5.351  0.00  0.00     0.044 H 
ATOM     44  H   LIG d   1       4.541   0.454  -5.392  0.00  0.00     0.044 H 
BRANCH  36  45
ATOM     45  C   LIG d   1       3.342  -1.568  -9.316  0.00  0.00    -0.013 C 
ATOM     46  H   LIG d   1       2.297  -1.272  -9.497  0.00  0.00     0.039 H 
ATOM     47  H   LIG d   1       3.533  -2.544  -9.786  0.00  0.00     0.039 H 
ATOM     48  H   LIG d   1       4.017  -0.815  -9.748  0.00  0.00     0.039 H 
ENDBRANCH  36  45
ENDBRANCH   1  31
BRANCH   8  49
ATOM     49  O   LIG d   1       3.098  -0.806  -4.164  0.00  0.00    -0.388 OA
ATOM     50  H   LIG d   1       3.199  -1.002  -5.241  0.00  0.00     0.210 HD
ENDBRANCH   8  49
BRANCH   6  51
ATOM     51  C   LIG d   1       3.549   1.087  -2.370  0.00  0.00     0.073 C 
ATOM     52  H   LIG d   1       2.560   0.612  -2.445  0.00  0.00     0.058 H 
ATOM     53  H   LIG d   1       3.629   1.621  -1.411  0.00  0.00     0.058 H 
BRANCH  51  54
ATOM     54  O   LIG d   1       3.715   2.013  -3.446  0.00  0.00    -0.392 OA
ATOM     55  H   LIG d   1       3.240   1.817  -4.419  0.00  0.00     0.209 HD
ENDBRANCH  51  54
ENDBRANCH   6  51
TORSDOF 8
ENDMDL
