MODEL 1
REMARK VINA RESULT:      -5.8      0.000      0.000
REMARK  6 active torsions:
REMARK  status: ('A' for Active; 'I' for Inactive)
REMARK    1  A    between atoms: C_1  and  C_2 
REMARK    2  A    between atoms: C_2  and  N_3 
REMARK    3  A    between atoms: N_3  and  C_4 
REMARK    4  A    between atoms: N_3  and  C_6 
REMARK    5  A    between atoms: C_4  and  C_5 
REMARK    6  A    between atoms: C_11  and  C_17 
ROOT
ATOM      1  C   LIG d   1       3.773  -0.321  -5.010  0.00  0.00     0.033 A 
ATOM      2  C   LIG d   1       2.741   0.455  -5.540  0.00  0.00    -0.040 A 
ATOM      3  C   LIG d   1       2.417   0.363  -6.861  0.00  0.00    -0.049 A 
ATOM      4  C   LIG d   1       3.124  -0.518  -7.696  0.00  0.00     0.018 A 
ATOM      5  C   LIG d   1       2.791  -0.616  -9.071  0.00  0.00    -0.036 A 
ATOM      6  C   LIG d   1       3.496  -1.482  -9.862  0.00  0.00     0.067 A 
ATOM      7  C   LIG d   1       4.571  -2.278  -9.263  0.00  0.00     0.345 A 
ATOM      8  O   LIG d   1       5.208  -3.054  -9.953  0.00  0.00    -0.244 OA
ATOM      9  O   LIG d   1       4.855  -2.154  -7.956  0.00  0.00    -0.422 OA
ATOM     10  C   LIG d   1       4.165  -1.302  -7.167  0.00  0.00     0.141 A 
ATOM     11  C   LIG d   1       4.482  -1.196  -5.820  0.00  0.00     0.002 A 
ATOM     12  H   LIG d   1       2.196   1.133  -4.900  0.00  0.00     0.064 H 
ATOM     13  H   LIG d   1       1.618   0.966  -7.265  0.00  0.00     0.062 H 
ATOM     14  H   LIG d   1       1.994  -0.018  -9.487  0.00  0.00     0.063 H 
ATOM     15  H   LIG d   1       5.279  -1.793  -5.404  0.00  0.00     0.067 H 
ENDROOT
BRANCH   1  16
ATOM     16  N   LIG d   1       4.089  -0.221  -3.658  0.00  0.00    -0.330 N 
BRANCH  16  17
ATOM     17  C   LIG d   1       4.842  -1.291  -3.001  0.00  0.00     0.009 C 
ATOM     18  H   LIG d   1       5.473  -1.794  -3.734  0.00  0.00     0.046 H 
ATOM     19  H   LIG d   1       5.465  -0.867  -2.214  0.00  0.00     0.046 H 
BRANCH  17  20
ATOM     20  C   LIG d   1       3.866  -2.300  -2.390  0.00  0.00    -0.049 C 
ATOM     21  H   LIG d   1       4.259  -2.654  -1.437  0.00  0.00     0.025 H 
ATOM     22  H   LIG d   1       2.901  -1.821  -2.231  0.00  0.00     0.025 H 
ATOM     23  H   LIG d   1       3.746  -3.144  -3.069  0.00  0.00     0.025 H 
ENDBRANCH  17  20
ENDBRANCH  16  17
BRANCH  16  24
ATOM     24  C   LIG d   1       3.668   0.955  -2.894  0.00  0.00     0.009 C 
ATOM     25  H   LIG d   1       3.761   1.846  -3.517  0.00  0.00     0.046 H 
ATOM     26  H   LIG d   1       2.629   0.836  -2.584  0.00  0.00     0.046 H 
BRANCH  24  27
ATOM     27  C   LIG d   1       4.555   1.105  -1.656  0.00  0.00    -0.049 C 
ATOM     28  H   LIG d   1       5.332   0.341  -1.673  0.00  0.00     0.025 H 
ATOM     29  H   LIG d   1       5.017   2.092  -1.657  0.00  0.00     0.025 H 
ATOM     30  H   LIG d   1       3.949   0.987  -0.758  0.00  0.00     0.025 H 
ENDBRANCH  24  27
ENDBRANCH  16  24
ENDBRANCH   1  16
BRANCH   6  31
ATOM     31  C   LIG d   1       3.177  -1.613 -11.303  0.00  0.00    -0.010 A 
ATOM     32  C   LIG d   1       3.973  -0.979 -12.256  0.00  0.00    -0.035 A 
ATOM     33  C   LIG d   1       3.670  -1.105 -13.598  0.00  0.00     0.042 A 
ATOM     34  H   LIG d   1       4.823  -0.389 -11.946  0.00  0.00     0.064 H 
ATOM     35  C   LIG d   1       2.581  -1.859 -13.997  0.00  0.00    -0.043 A 
ATOM     36 CL   LIG d   1       4.659  -0.315 -14.786  0.00  0.00    -0.084 Cl
ATOM     37  C   LIG d   1       1.789  -2.491 -13.054  0.00  0.00    -0.060 A 
ATOM     38  H   LIG d   1       2.348  -1.955 -15.047  0.00  0.00     0.063 H 
ATOM     39  C   LIG d   1       2.084  -2.377 -11.711  0.00  0.00    -0.054 A 
ATOM     40  H   LIG d   1       0.939  -3.078 -13.371  0.00  0.00     0.062 H 
ATOM     41  H   LIG d   1       1.468  -2.875 -10.978  0.00  0.00     0.062 H 
ENDBRANCH   6  31
TORSDOF 6
ENDMDL
MODEL 2
REMARK VINA RESULT:      -5.8      1.125      1.897
REMARK  6 active torsions:
REMARK  status: ('A' for Active; 'I' for Inactive)
REMARK    1  A    between atoms: C_1  and  C_2 
REMARK    2  A    between atoms: C_2  and  N_3 
REMARK    3  A    between atoms: N_3  and  C_4 
REMARK    4  A    between atoms: N_3  and  C_6 
REMARK    5  A    between atoms: C_4  and  C_5 
REMARK    6  A    between atoms: C_11  and  C_17 
ROOT
ATOM      1  C   LIG d   1       3.749  -0.273  -5.033  0.00  0.00     0.033 A 
ATOM      2  C   LIG d   1       2.699   0.455  -5.594  0.00  0.00    -0.040 A 
ATOM      3  C   LIG d   1       2.492   0.440  -6.941  0.00  0.00    -0.049 A 
ATOM      4  C   LIG d   1       3.338  -0.313  -7.772  0.00  0.00     0.018 A 
ATOM      5  C   LIG d   1       3.126  -0.331  -9.174  0.00  0.00    -0.036 A 
ATOM      6  C   LIG d   1       3.967  -1.072  -9.961  0.00  0.00     0.067 A 
ATOM      7  C   LIG d   1       5.054  -1.823  -9.328  0.00  0.00     0.345 A 
ATOM      8  O   LIG d   1       5.810  -2.488 -10.013  0.00  0.00    -0.244 OA
ATOM      9  O   LIG d   1       5.221  -1.778  -7.996  0.00  0.00    -0.422 OA
ATOM     10  C   LIG d   1       4.398  -1.048  -7.212  0.00  0.00     0.141 A 
ATOM     11  C   LIG d   1       4.594  -1.022  -5.838  0.00  0.00     0.002 A 
ATOM     12  H   LIG d   1       2.046   1.035  -4.958  0.00  0.00     0.064 H 
ATOM     13  H   LIG d   1       1.678   1.005  -7.370  0.00  0.00     0.062 H 
ATOM     14  H   LIG d   1       2.317   0.232  -9.615  0.00  0.00     0.063 H 
ATOM     15  H   LIG d   1       5.404  -1.583  -5.397  0.00  0.00     0.067 H 
ENDROOT
BRANCH   1  16
ATOM     16  N   LIG d   1       3.945  -0.253  -3.655  0.00  0.00    -0.330 N 
BRANCH  16  17
ATOM     17  C   LIG d   1       4.988   0.595  -3.076  0.00  0.00     0.009 C 
ATOM     18  H   LIG d   1       5.917   0.029  -3.002  0.00  0.00     0.046 H 
ATOM     19  H   LIG d   1       5.144   1.466  -3.713  0.00  0.00     0.046 H 
BRANCH  17  20
ATOM     20  C   LIG d   1       4.558   1.054  -1.681  0.00  0.00    -0.049 C 
ATOM     21  H   LIG d   1       4.765   2.119  -1.568  0.00  0.00     0.025 H 
ATOM     22  H   LIG d   1       3.491   0.876  -1.554  0.00  0.00     0.025 H 
ATOM     23  H   LIG d   1       5.112   0.494  -0.928  0.00  0.00     0.025 H 
ENDBRANCH  17  20
ENDBRANCH  16  17
BRANCH  16  24
ATOM     24  C   LIG d   1       3.107  -1.081  -2.785  0.00  0.00     0.009 C 
ATOM     25  H   LIG d   1       2.901  -0.543  -1.859  0.00  0.00     0.046 H 
ATOM     26  H   LIG d   1       2.167  -1.305  -3.290  0.00  0.00     0.046 H 
BRANCH  24  27
ATOM     27  C   LIG d   1       3.838  -2.386  -2.464  0.00  0.00    -0.049 C 
ATOM     28  H   LIG d   1       3.257  -2.959  -1.740  0.00  0.00     0.025 H 
ATOM     29  H   LIG d   1       3.958  -2.970  -3.376  0.00  0.00     0.025 H 
ATOM     30  H   LIG d   1       4.818  -2.160  -2.044  0.00  0.00     0.025 H 
ENDBRANCH  24  27
ENDBRANCH  16  24
ENDBRANCH   1  16
BRANCH   6  31
ATOM     31  C   LIG d   1       3.777  -1.117 -11.429  0.00  0.00    -0.010 A 
ATOM     32  C   LIG d   1       2.741  -1.870 -11.979  0.00  0.00    -0.035 A 
ATOM     33  C   LIG d   1       2.569  -1.907 -13.348  0.00  0.00     0.042 A 
ATOM     34  H   LIG d   1       2.073  -2.424 -11.334  0.00  0.00     0.064 H 
ATOM     35  C   LIG d   1       3.423  -1.199 -14.175  0.00  0.00    -0.043 A 
ATOM     36 CL   LIG d   1       1.279  -2.845 -14.034  0.00  0.00    -0.084 Cl
ATOM     37  C   LIG d   1       4.453  -0.449 -13.634  0.00  0.00    -0.060 A 
ATOM     38  H   LIG d   1       3.286  -1.231 -15.246  0.00  0.00     0.063 H 
ATOM     39  C   LIG d   1       4.631  -0.400 -12.267  0.00  0.00    -0.054 A 
ATOM     40  H   LIG d   1       5.118   0.101 -14.285  0.00  0.00     0.062 H 
ATOM     41  H   LIG d   1       5.433   0.189 -11.847  0.00  0.00     0.062 H 
ENDBRANCH   6  31
TORSDOF 6
ENDMDL
MODEL 3
REMARK VINA RESULT:      -5.6      3.755      7.789
REMARK  6 active torsions:
REMARK  status: ('A' for Active; 'I' for Inactive)
REMARK    1  A    between atoms: C_1  and  C_2 
REMARK    2  A    between atoms: C_2  and  N_3 
REMARK    3  A    between atoms: N_3  and  C_4 
REMARK    4  A    between atoms: N_3  and  C_6 
REMARK    5  A    between atoms: C_4  and  C_5 
REMARK    6  A    between atoms: C_11  and  C_17 
ROOT
ATOM      1  C   LIG d   1       1.681  -2.220 -10.438  0.00  0.00     0.033 A 
ATOM      2  C   LIG d   1       1.458  -0.865 -10.187  0.00  0.00    -0.040 A 
ATOM      3  C   LIG d   1       2.111  -0.236  -9.169  0.00  0.00    -0.049 A 
ATOM      4  C   LIG d   1       3.013  -0.952  -8.366  0.00  0.00     0.018 A 
ATOM      5  C   LIG d   1       3.693  -0.301  -7.305  0.00  0.00    -0.036 A 
ATOM      6  C   LIG d   1       4.567  -1.023  -6.538  0.00  0.00     0.067 A 
ATOM      7  C   LIG d   1       4.771  -2.443  -6.838  0.00  0.00     0.345 A 
ATOM      8  O   LIG d   1       5.546  -3.100  -6.166  0.00  0.00    -0.244 OA
ATOM      9  O   LIG d   1       4.106  -3.021  -7.852  0.00  0.00    -0.422 OA
ATOM     10  C   LIG d   1       3.241  -2.318  -8.614  0.00  0.00     0.141 A 
ATOM     11  C   LIG d   1       2.569  -2.942  -9.655  0.00  0.00     0.002 A 
ATOM     12  H   LIG d   1       0.765  -0.311 -10.803  0.00  0.00     0.064 H 
ATOM     13  H   LIG d   1       1.934   0.813  -8.980  0.00  0.00     0.062 H 
ATOM     14  H   LIG d   1       3.524   0.747  -7.106  0.00  0.00     0.063 H 
ATOM     15  H   LIG d   1       2.737  -3.990  -9.854  0.00  0.00     0.067 H 
ENDROOT
BRANCH   1  16
ATOM     16  N   LIG d   1       1.013  -2.848 -11.485  0.00  0.00    -0.330 N 
BRANCH  16  17
ATOM     17  C   LIG d   1       0.804  -4.297 -11.455  0.00  0.00     0.009 C 
ATOM     18  H   LIG d   1       0.788  -4.682 -12.475  0.00  0.00     0.046 H 
ATOM     19  H   LIG d   1       1.614  -4.770 -10.900  0.00  0.00     0.046 H 
BRANCH  17  20
ATOM     20  C   LIG d   1      -0.531  -4.606 -10.772  0.00  0.00    -0.049 C 
ATOM     21  H   LIG d   1      -0.850  -3.742 -10.190  0.00  0.00     0.025 H 
ATOM     22  H   LIG d   1      -1.281  -4.833 -11.528  0.00  0.00     0.025 H 
ATOM     23  H   LIG d   1      -0.409  -5.464 -10.111  0.00  0.00     0.025 H 
ENDBRANCH  17  20
ENDBRANCH  16  17
BRANCH  16  24
ATOM     24  C   LIG d   1       0.519  -2.059 -12.615  0.00  0.00     0.009 C 
ATOM     25  H   LIG d   1      -0.528  -2.303 -12.800  0.00  0.00     0.046 H 
ATOM     26  H   LIG d   1       0.609  -0.997 -12.385  0.00  0.00     0.046 H 
BRANCH  24  27
ATOM     27  C   LIG d   1       1.345  -2.382 -13.862  0.00  0.00    -0.049 C 
ATOM     28  H   LIG d   1       1.979  -1.530 -14.109  0.00  0.00     0.025 H 
ATOM     29  H   LIG d   1       1.968  -3.255 -13.670  0.00  0.00     0.025 H 
ATOM     30  H   LIG d   1       0.675  -2.589 -14.697  0.00  0.00     0.025 H 
ENDBRANCH  24  27
ENDBRANCH  16  24
ENDBRANCH   1  16
BRANCH   6  31
ATOM     31  C   LIG d   1       5.297  -0.379  -5.421  0.00  0.00    -0.010 A 
ATOM     32  C   LIG d   1       4.661  -0.170  -4.198  0.00  0.00    -0.035 A 
ATOM     33  C   LIG d   1       5.346   0.431  -3.161  0.00  0.00     0.042 A 
ATOM     34  H   LIG d   1       3.634  -0.478  -4.062  0.00  0.00     0.064 H 
ATOM     35  C   LIG d   1       6.661   0.827  -3.334  0.00  0.00    -0.043 A 
ATOM     36 CL   LIG d   1       4.556   0.692  -1.637  0.00  0.00    -0.084 Cl
ATOM     37  C   LIG d   1       7.297   0.621  -4.546  0.00  0.00    -0.060 A 
ATOM     38  H   LIG d   1       7.193   1.297  -2.520  0.00  0.00     0.063 H 
ATOM     39  C   LIG d   1       6.624   0.017  -5.587  0.00  0.00    -0.054 A 
ATOM     40  H   LIG d   1       8.322   0.933  -4.675  0.00  0.00     0.062 H 
ATOM     41  H   LIG d   1       7.123  -0.147  -6.531  0.00  0.00     0.062 H 
ENDBRANCH   6  31
TORSDOF 6
ENDMDL
MODEL 4
REMARK VINA RESULT:      -5.5      1.482      2.377
REMARK  6 active torsions:
REMARK  status: ('A' for Active; 'I' for Inactive)
REMARK    1  A    between atoms: C_1  and  C_2 
REMARK    2  A    between atoms: C_2  and  N_3 
REMARK    3  A    between atoms: N_3  and  C_4 
REMARK    4  A    between atoms: N_3  and  C_6 
REMARK    5  A    between atoms: C_4  and  C_5 
REMARK    6  A    between atoms: C_11  and  C_17 
ROOT
ATOM      1  C   LIG d   1       4.797  -1.009  -4.760  0.00  0.00     0.033 A 
ATOM      2  C   LIG d   1       5.201  -2.224  -5.317  0.00  0.00    -0.040 A 
ATOM      3  C   LIG d   1       4.879  -2.533  -6.605  0.00  0.00    -0.049 A 
ATOM      4  C   LIG d   1       4.137  -1.626  -7.380  0.00  0.00     0.018 A 
ATOM      5  C   LIG d   1       3.799  -1.944  -8.719  0.00  0.00    -0.036 A 
ATOM      6  C   LIG d   1       3.075  -1.042  -9.451  0.00  0.00     0.067 A 
ATOM      7  C   LIG d   1       2.674   0.221  -8.826  0.00  0.00     0.345 A 
ATOM      8  O   LIG d   1       2.029   1.035  -9.464  0.00  0.00    -0.244 OA
ATOM      9  O   LIG d   1       3.013   0.483  -7.553  0.00  0.00    -0.422 OA
ATOM     10  C   LIG d   1       3.727  -0.401  -6.823  0.00  0.00     0.141 A 
ATOM     11  C   LIG d   1       4.064  -0.102  -5.511  0.00  0.00     0.002 A 
ATOM     12  H   LIG d   1       5.772  -2.923  -4.725  0.00  0.00     0.064 H 
ATOM     13  H   LIG d   1       5.194  -3.474  -7.030  0.00  0.00     0.062 H 
ATOM     14  H   LIG d   1       4.108  -2.883  -9.155  0.00  0.00     0.063 H 
ATOM     15  H   LIG d   1       3.755   0.836  -5.074  0.00  0.00     0.067 H 
ENDROOT
BRANCH   1  16
ATOM     16  N   LIG d   1       5.138  -0.704  -3.446  0.00  0.00    -0.330 N 
BRANCH  16  17
ATOM     17  C   LIG d   1       5.520   0.663  -3.087  0.00  0.00     0.009 C 
ATOM     18  H   LIG d   1       6.562   0.677  -2.767  0.00  0.00     0.046 H 
ATOM     19  H   LIG d   1       5.396   1.314  -3.953  0.00  0.00     0.046 H 
BRANCH  17  20
ATOM     20  C   LIG d   1       4.628   1.159  -1.946  0.00  0.00    -0.049 C 
ATOM     21  H   LIG d   1       4.598   0.408  -1.156  0.00  0.00     0.025 H 
ATOM     22  H   LIG d   1       5.032   2.089  -1.549  0.00  0.00     0.025 H 
ATOM     23  H   LIG d   1       3.620   1.331  -2.322  0.00  0.00     0.025 H 
ENDBRANCH  17  20
ENDBRANCH  16  17
BRANCH  16  24
ATOM     24  C   LIG d   1       5.116  -1.752  -2.423  0.00  0.00     0.009 C 
ATOM     25  H   LIG d   1       5.771  -2.570  -2.726  0.00  0.00     0.046 H 
ATOM     26  H   LIG d   1       5.462  -1.342  -1.474  0.00  0.00     0.046 H 
BRANCH  24  27
ATOM     27  C   LIG d   1       3.688  -2.277  -2.261  0.00  0.00    -0.049 C 
ATOM     28  H   LIG d   1       3.448  -2.937  -3.095  0.00  0.00     0.025 H 
ATOM     29  H   LIG d   1       3.608  -2.831  -1.326  0.00  0.00     0.025 H 
ATOM     30  H   LIG d   1       2.991  -1.439  -2.250  0.00  0.00     0.025 H 
ENDBRANCH  24  27
ENDBRANCH  16  24
ENDBRANCH   1  16
BRANCH   6  31
ATOM     31  C   LIG d   1       2.703  -1.338 -10.854  0.00  0.00    -0.010 A 
ATOM     32  C   LIG d   1       3.564  -0.989 -11.894  0.00  0.00    -0.035 A 
ATOM     33  C   LIG d   1       3.212  -1.268 -13.200  0.00  0.00     0.042 A 
ATOM     34  H   LIG d   1       4.503  -0.501 -11.679  0.00  0.00     0.064 H 
ATOM     35  C   LIG d   1       2.009  -1.892 -13.478  0.00  0.00    -0.043 A 
ATOM     36 CL   LIG d   1       4.282  -0.834 -14.497  0.00  0.00    -0.084 Cl
ATOM     37  C   LIG d   1       1.152  -2.242 -12.449  0.00  0.00    -0.060 A 
ATOM     38  H   LIG d   1       1.737  -2.108 -14.501  0.00  0.00     0.063 H 
ATOM     39  C   LIG d   1       1.495  -1.973 -11.140  0.00  0.00    -0.054 A 
ATOM     40  H   LIG d   1       0.213  -2.728 -12.671  0.00  0.00     0.062 H 
ATOM     41  H   LIG d   1       0.827  -2.250 -10.338  0.00  0.00     0.062 H 
ENDBRANCH   6  31
TORSDOF 6
ENDMDL
MODEL 5
REMARK VINA RESULT:      -5.5      1.657      2.308
REMARK  6 active torsions:
REMARK  status: ('A' for Active; 'I' for Inactive)
REMARK    1  A    between atoms: C_1  and  C_2 
REMARK    2  A    between atoms: C_2  and  N_3 
REMARK    3  A    between atoms: N_3  and  C_4 
REMARK    4  A    between atoms: N_3  and  C_6 
REMARK    5  A    between atoms: C_4  and  C_5 
REMARK    6  A    between atoms: C_11  and  C_17 
ROOT
ATOM      1  C   LIG d   1       4.344  -0.462  -5.167  0.00  0.00     0.033 A 
ATOM      2  C   LIG d   1       5.552  -0.817  -5.769  0.00  0.00    -0.040 A 
ATOM      3  C   LIG d   1       5.625  -0.991  -7.119  0.00  0.00    -0.049 A 
ATOM      4  C   LIG d   1       4.479  -0.812  -7.912  0.00  0.00     0.018 A 
ATOM      5  C   LIG d   1       4.550  -0.993  -9.316  0.00  0.00    -0.036 A 
ATOM      6  C   LIG d   1       3.419  -0.813 -10.065  0.00  0.00     0.067 A 
ATOM      7  C   LIG d   1       2.173  -0.439  -9.391  0.00  0.00     0.345 A 
ATOM      8  O   LIG d   1       1.157  -0.274 -10.042  0.00  0.00    -0.244 OA
ATOM      9  O   LIG d   1       2.148  -0.278  -8.057  0.00  0.00    -0.422 OA
ATOM     10  C   LIG d   1       3.259  -0.455  -7.310  0.00  0.00     0.141 A 
ATOM     11  C   LIG d   1       3.203  -0.281  -5.934  0.00  0.00     0.002 A 
ATOM     12  H   LIG d   1       6.434  -0.955  -5.162  0.00  0.00     0.064 H 
ATOM     13  H   LIG d   1       6.562  -1.266  -7.579  0.00  0.00     0.062 H 
ATOM     14  H   LIG d   1       5.482  -1.269  -9.787  0.00  0.00     0.063 H 
ATOM     15  H   LIG d   1       2.272  -0.006  -5.462  0.00  0.00     0.067 H 
ENDROOT
BRANCH   1  16
ATOM     16  N   LIG d   1       4.285  -0.281  -3.788  0.00  0.00    -0.330 N 
BRANCH  16  17
ATOM     17  C   LIG d   1       4.926  -1.249  -2.895  0.00  0.00     0.009 C 
ATOM     18  H   LIG d   1       5.726  -1.762  -3.430  0.00  0.00     0.046 H 
ATOM     19  H   LIG d   1       5.341  -0.728  -2.032  0.00  0.00     0.046 H 
BRANCH  17  20
ATOM     20  C   LIG d   1       3.889  -2.271  -2.423  0.00  0.00    -0.049 C 
ATOM     21  H   LIG d   1       2.944  -2.094  -2.936  0.00  0.00     0.025 H 
ATOM     22  H   LIG d   1       4.242  -3.276  -2.649  0.00  0.00     0.025 H 
ATOM     23  H   LIG d   1       3.744  -2.170  -1.348  0.00  0.00     0.025 H 
ENDBRANCH  17  20
ENDBRANCH  16  17
BRANCH  16  24
ATOM     24  C   LIG d   1       3.583   0.877  -3.231  0.00  0.00     0.009 C 
ATOM     25  H   LIG d   1       3.622   1.703  -3.943  0.00  0.00     0.046 H 
ATOM     26  H   LIG d   1       2.543   0.614  -3.038  0.00  0.00     0.046 H 
BRANCH  24  27
ATOM     27  C   LIG d   1       4.253   1.301  -1.923  0.00  0.00    -0.049 C 
ATOM     28  H   LIG d   1       4.532   0.414  -1.354  0.00  0.00     0.025 H 
ATOM     29  H   LIG d   1       5.146   1.886  -2.145  0.00  0.00     0.025 H 
ATOM     30  H   LIG d   1       3.559   1.903  -1.337  0.00  0.00     0.025 H 
ENDBRANCH  24  27
ENDBRANCH  16  24
ENDBRANCH   1  16
BRANCH   6  31
ATOM     31  C   LIG d   1       3.454  -0.993 -11.535  0.00  0.00    -0.010 A 
ATOM     32  C   LIG d   1       2.587  -1.896 -12.150  0.00  0.00    -0.035 A 
ATOM     33  C   LIG d   1       2.625  -2.059 -13.521  0.00  0.00     0.042 A 
ATOM     34  H   LIG d   1       1.889  -2.467 -11.556  0.00  0.00     0.064 H 
ATOM     35  C   LIG d   1       3.519  -1.329 -14.284  0.00  0.00    -0.043 A 
ATOM     36 CL   LIG d   1       1.547  -3.183 -14.289  0.00  0.00    -0.084 Cl
ATOM     37  C   LIG d   1       4.380  -0.431 -13.678  0.00  0.00    -0.060 A 
ATOM     38  H   LIG d   1       3.545  -1.459 -15.355  0.00  0.00     0.063 H 
ATOM     39  C   LIG d   1       4.349  -0.256 -12.309  0.00  0.00    -0.054 A 
ATOM     40  H   LIG d   1       5.077   0.136 -14.278  0.00  0.00     0.062 H 
ATOM     41  H   LIG d   1       5.018   0.449 -11.839  0.00  0.00     0.062 H 
ENDBRANCH   6  31
TORSDOF 6
ENDMDL
MODEL 6
REMARK VINA RESULT:      -5.5      5.742      8.394
REMARK  6 active torsions:
REMARK  status: ('A' for Active; 'I' for Inactive)
REMARK    1  A    between atoms: C_1  and  C_2 
REMARK    2  A    between atoms: C_2  and  N_3 
REMARK    3  A    between atoms: N_3  and  C_4 
REMARK    4  A    between atoms: N_3  and  C_6 
REMARK    5  A    between atoms: C_4  and  C_5 
REMARK    6  A    between atoms: C_11  and  C_17 
ROOT
ATOM      1  C   LIG d   1       6.591  -6.978  -6.251  0.00  0.00     0.033 A 
ATOM      2  C   LIG d   1       5.200  -6.957  -6.139  0.00  0.00    -0.040 A 
ATOM      3  C   LIG d   1       4.567  -5.874  -5.604  0.00  0.00    -0.049 A 
ATOM      4  C   LIG d   1       5.317  -4.771  -5.164  0.00  0.00     0.018 A 
ATOM      5  C   LIG d   1       4.663  -3.643  -4.607  0.00  0.00    -0.036 A 
ATOM      6  C   LIG d   1       5.417  -2.582  -4.185  0.00  0.00     0.067 A 
ATOM      7  C   LIG d   1       6.874  -2.647  -4.323  0.00  0.00     0.345 A 
ATOM      8  O   LIG d   1       7.561  -1.711  -3.954  0.00  0.00    -0.244 OA
ATOM      9  O   LIG d   1       7.455  -3.735  -4.856  0.00  0.00    -0.422 OA
ATOM     10  C   LIG d   1       6.719  -4.787  -5.274  0.00  0.00     0.141 A 
ATOM     11  C   LIG d   1       7.347  -5.897  -5.821  0.00  0.00     0.002 A 
ATOM     12  H   LIG d   1       4.621  -7.804  -6.477  0.00  0.00     0.064 H 
ATOM     13  H   LIG d   1       3.491  -5.864  -5.520  0.00  0.00     0.062 H 
ATOM     14  H   LIG d   1       3.587  -3.621  -4.516  0.00  0.00     0.063 H 
ATOM     15  H   LIG d   1       8.422  -5.920  -5.911  0.00  0.00     0.067 H 
ENDROOT
BRANCH   1  16
ATOM     16  N   LIG d   1       7.223  -8.087  -6.804  0.00  0.00    -0.330 N 
BRANCH  16  17
ATOM     17  C   LIG d   1       6.965  -9.423  -6.262  0.00  0.00     0.009 C 
ATOM     18  H   LIG d   1       5.889  -9.579  -6.178  0.00  0.00     0.046 H 
ATOM     19  H   LIG d   1       7.390 -10.174  -6.928  0.00  0.00     0.046 H 
BRANCH  17  20
ATOM     20  C   LIG d   1       7.608  -9.545  -4.879  0.00  0.00    -0.049 C 
ATOM     21  H   LIG d   1       8.205 -10.457  -4.835  0.00  0.00     0.025 H 
ATOM     22  H   LIG d   1       8.248  -8.683  -4.699  0.00  0.00     0.025 H 
ATOM     23  H   LIG d   1       6.828  -9.585  -4.119  0.00  0.00     0.025 H 
ENDBRANCH  17  20
ENDBRANCH  16  17
BRANCH  16  24
ATOM     24  C   LIG d   1       8.147  -7.918  -7.928  0.00  0.00     0.009 C 
ATOM     25  H   LIG d   1       8.729  -7.007  -7.786  0.00  0.00     0.046 H 
ATOM     26  H   LIG d   1       8.819  -8.775  -7.979  0.00  0.00     0.046 H 
BRANCH  24  27
ATOM     27  C   LIG d   1       7.351  -7.814  -9.231  0.00  0.00    -0.049 C 
ATOM     28  H   LIG d   1       6.358  -8.239  -9.085  0.00  0.00     0.025 H 
ATOM     29  H   LIG d   1       7.259  -6.767  -9.519  0.00  0.00     0.025 H 
ATOM     30  H   LIG d   1       7.869  -8.364 -10.017  0.00  0.00     0.025 H 
ENDBRANCH  24  27
ENDBRANCH  16  24
ENDBRANCH   1  16
BRANCH   6  31
ATOM     31  C   LIG d   1       4.770  -1.385  -3.598  0.00  0.00    -0.010 A 
ATOM     32  C   LIG d   1       3.955  -0.574  -4.385  0.00  0.00    -0.035 A 
ATOM     33  C   LIG d   1       3.354   0.540  -3.833  0.00  0.00     0.042 A 
ATOM     34  H   LIG d   1       3.794  -0.815  -5.426  0.00  0.00     0.064 H 
ATOM     35  C   LIG d   1       3.560   0.851  -2.500  0.00  0.00    -0.043 A 
ATOM     36 CL   LIG d   1       2.339   1.552  -4.812  0.00  0.00    -0.084 Cl
ATOM     37  C   LIG d   1       4.368   0.048  -1.714  0.00  0.00    -0.060 A 
ATOM     38  H   LIG d   1       3.089   1.724  -2.072  0.00  0.00     0.063 H 
ATOM     39  C   LIG d   1       4.969  -1.070  -2.254  0.00  0.00    -0.054 A 
ATOM     40  H   LIG d   1       4.526   0.297  -0.675  0.00  0.00     0.062 H 
ATOM     41  H   LIG d   1       5.596  -1.698  -1.638  0.00  0.00     0.062 H 
ENDBRANCH   6  31
TORSDOF 6
ENDMDL
MODEL 7
REMARK VINA RESULT:      -5.5      5.840      7.241
REMARK  6 active torsions:
REMARK  status: ('A' for Active; 'I' for Inactive)
REMARK    1  A    between atoms: C_1  and  C_2 
REMARK    2  A    between atoms: C_2  and  N_3 
REMARK    3  A    between atoms: N_3  and  C_4 
REMARK    4  A    between atoms: N_3  and  C_6 
REMARK    5  A    between atoms: C_4  and  C_5 
REMARK    6  A    between atoms: C_11  and  C_17 
ROOT
ATOM      1  C   LIG d   1       5.013  -1.441  -3.971  0.00  0.00     0.033 A 
ATOM      2  C   LIG d   1       6.408  -1.411  -3.990  0.00  0.00    -0.040 A 
ATOM      3  C   LIG d   1       7.117  -2.504  -4.390  0.00  0.00    -0.049 A 
ATOM      4  C   LIG d   1       6.442  -3.670  -4.788  0.00  0.00     0.018 A 
ATOM      5  C   LIG d   1       7.175  -4.809  -5.205  0.00  0.00    -0.036 A 
ATOM      6  C   LIG d   1       6.492  -5.932  -5.588  0.00  0.00     0.067 A 
ATOM      7  C   LIG d   1       5.027  -5.919  -5.554  0.00  0.00     0.345 A 
ATOM      8  O   LIG d   1       4.404  -6.909  -5.892  0.00  0.00    -0.244 OA
ATOM      9  O   LIG d   1       4.371  -4.818  -5.151  0.00  0.00    -0.422 OA
ATOM     10  C   LIG d   1       5.036  -3.706  -4.772  0.00  0.00     0.141 A 
ATOM     11  C   LIG d   1       4.330  -2.584  -4.361  0.00  0.00     0.002 A 
ATOM     12  H   LIG d   1       6.930  -0.516  -3.684  0.00  0.00     0.064 H 
ATOM     13  H   LIG d   1       8.196  -2.474  -4.402  0.00  0.00     0.062 H 
ATOM     14  H   LIG d   1       8.255  -4.792  -5.221  0.00  0.00     0.063 H 
ATOM     15  H   LIG d   1       3.251  -2.600  -4.344  0.00  0.00     0.067 H 
ENDROOT
BRANCH   1  16
ATOM     16  N   LIG d   1       4.302  -0.315  -3.565  0.00  0.00    -0.330 N 
BRANCH  16  17
ATOM     17  C   LIG d   1       5.012   0.835  -3.003  0.00  0.00     0.009 C 
ATOM     18  H   LIG d   1       6.087   0.664  -3.065  0.00  0.00     0.046 H 
ATOM     19  H   LIG d   1       4.754   1.732  -3.566  0.00  0.00     0.046 H 
BRANCH  17  20
ATOM     20  C   LIG d   1       4.609   1.018  -1.538  0.00  0.00    -0.049 C 
ATOM     21  H   LIG d   1       3.572   0.707  -1.405  0.00  0.00     0.025 H 
ATOM     22  H   LIG d   1       5.254   0.410  -0.905  0.00  0.00     0.025 H 
ATOM     23  H   LIG d   1       4.712   2.067  -1.262  0.00  0.00     0.025 H 
ENDBRANCH  17  20
ENDBRANCH  16  17
BRANCH  16  24
ATOM     24  C   LIG d   1       2.844  -0.283  -3.701  0.00  0.00     0.009 C 
ATOM     25  H   LIG d   1       2.472  -1.296  -3.860  0.00  0.00     0.046 H 
ATOM     26  H   LIG d   1       2.403   0.128  -2.793  0.00  0.00     0.046 H 
BRANCH  24  27
ATOM     27  C   LIG d   1       2.462   0.593  -4.896  0.00  0.00    -0.049 C 
ATOM     28  H   LIG d   1       3.237   0.524  -5.659  0.00  0.00     0.025 H 
ATOM     29  H   LIG d   1       1.513   0.251  -5.309  0.00  0.00     0.025 H 
ATOM     30  H   LIG d   1       2.366   1.629  -4.570  0.00  0.00     0.025 H 
ENDBRANCH  24  27
ENDBRANCH  16  24
ENDBRANCH   1  16
BRANCH   6  31
ATOM     31  C   LIG d   1       7.223  -7.143  -6.030  0.00  0.00    -0.010 A 
ATOM     32  C   LIG d   1       7.548  -8.139  -5.110  0.00  0.00    -0.035 A 
ATOM     33  C   LIG d   1       8.229  -9.265  -5.529  0.00  0.00     0.042 A 
ATOM     34  H   LIG d   1       7.268  -8.030  -4.073  0.00  0.00     0.064 H 
ATOM     35  C   LIG d   1       8.589  -9.405  -6.857  0.00  0.00    -0.043 A 
ATOM     36 CL   LIG d   1       8.635 -10.506  -4.385  0.00  0.00    -0.084 Cl
ATOM     37  C   LIG d   1       8.268  -8.420  -7.774  0.00  0.00    -0.060 A 
ATOM     38  H   LIG d   1       9.122 -10.287  -7.180  0.00  0.00     0.063 H 
ATOM     39  C   LIG d   1       7.583  -7.293  -7.369  0.00  0.00    -0.054 A 
ATOM     40  H   LIG d   1       8.553  -8.534  -8.810  0.00  0.00     0.062 H 
ATOM     41  H   LIG d   1       7.330  -6.527  -8.086  0.00  0.00     0.062 H 
ENDBRANCH   6  31
TORSDOF 6
ENDMDL
MODEL 8
REMARK VINA RESULT:      -5.3      3.872      8.032
REMARK  6 active torsions:
REMARK  status: ('A' for Active; 'I' for Inactive)
REMARK    1  A    between atoms: C_1  and  C_2 
REMARK    2  A    between atoms: C_2  and  N_3 
REMARK    3  A    between atoms: N_3  and  C_4 
REMARK    4  A    between atoms: N_3  and  C_6 
REMARK    5  A    between atoms: C_4  and  C_5 
REMARK    6  A    between atoms: C_11  and  C_17 
ROOT
ATOM      1  C   LIG d   1       1.836  -2.886 -10.688  0.00  0.00     0.033 A 
ATOM      2  C   LIG d   1       2.770  -3.823 -10.243  0.00  0.00    -0.040 A 
ATOM      3  C   LIG d   1       3.566  -3.549  -9.171  0.00  0.00    -0.049 A 
ATOM      4  C   LIG d   1       3.447  -2.317  -8.506  0.00  0.00     0.018 A 
ATOM      5  C   LIG d   1       4.273  -2.028  -7.391  0.00  0.00    -0.036 A 
ATOM      6  C   LIG d   1       4.137  -0.819  -6.762  0.00  0.00     0.067 A 
ATOM      7  C   LIG d   1       3.142   0.133  -7.262  0.00  0.00     0.345 A 
ATOM      8  O   LIG d   1       3.007   1.213  -6.714  0.00  0.00    -0.244 OA
ATOM      9  O   LIG d   1       2.380  -0.180  -8.323  0.00  0.00    -0.422 OA
ATOM     10  C   LIG d   1       2.508  -1.369  -8.950  0.00  0.00     0.141 A 
ATOM     11  C   LIG d   1       1.705  -1.664 -10.043  0.00  0.00     0.002 A 
ATOM     12  H   LIG d   1       2.864  -4.771 -10.752  0.00  0.00     0.064 H 
ATOM     13  H   LIG d   1       4.287  -4.278  -8.832  0.00  0.00     0.062 H 
ATOM     14  H   LIG d   1       4.998  -2.748  -7.043  0.00  0.00     0.063 H 
ATOM     15  H   LIG d   1       0.981  -0.944 -10.392  0.00  0.00     0.067 H 
ENDROOT
BRANCH   1  16
ATOM     16  N   LIG d   1       1.026  -3.181 -11.780  0.00  0.00    -0.330 N 
BRANCH  16  17
ATOM     17  C   LIG d   1       0.850  -2.196 -12.849  0.00  0.00     0.009 C 
ATOM     18  H   LIG d   1       0.025  -2.502 -13.492  0.00  0.00     0.046 H 
ATOM     19  H   LIG d   1       0.629  -1.222 -12.413  0.00  0.00     0.046 H 
BRANCH  17  20
ATOM     20  C   LIG d   1       2.135  -2.105 -13.676  0.00  0.00    -0.049 C 
ATOM     21  H   LIG d   1       2.342  -3.073 -14.133  0.00  0.00     0.025 H 
ATOM     22  H   LIG d   1       2.013  -1.354 -14.454  0.00  0.00     0.025 H 
ATOM     23  H   LIG d   1       2.965  -1.826 -13.026  0.00  0.00     0.025 H 
ENDBRANCH  17  20
ENDBRANCH  16  17
BRANCH  16  24
ATOM     24  C   LIG d   1       0.350  -4.478 -11.859  0.00  0.00     0.009 C 
ATOM     25  H   LIG d   1      -0.224  -4.533 -12.785  0.00  0.00     0.046 H 
ATOM     26  H   LIG d   1       1.091  -5.277 -11.844  0.00  0.00     0.046 H 
BRANCH  24  27
ATOM     27  C   LIG d   1      -0.595  -4.635 -10.666  0.00  0.00    -0.049 C 
ATOM     28  H   LIG d   1      -0.044  -4.458  -9.742  0.00  0.00     0.025 H 
ATOM     29  H   LIG d   1      -1.407  -3.913 -10.748  0.00  0.00     0.025 H 
ATOM     30  H   LIG d   1      -1.004  -5.645 -10.657  0.00  0.00     0.025 H 
ENDBRANCH  24  27
ENDBRANCH  16  24
ENDBRANCH   1  16
BRANCH   6  31
ATOM     31  C   LIG d   1       4.981  -0.481  -5.593  0.00  0.00    -0.010 A 
ATOM     32  C   LIG d   1       4.429  -0.461  -4.313  0.00  0.00    -0.035 A 
ATOM     33  C   LIG d   1       5.221  -0.145  -3.227  0.00  0.00     0.042 A 
ATOM     34  H   LIG d   1       3.383  -0.692  -4.171  0.00  0.00     0.064 H 
ATOM     35  C   LIG d   1       6.561   0.152  -3.408  0.00  0.00    -0.043 A 
ATOM     36 CL   LIG d   1       4.535  -0.119  -1.633  0.00  0.00    -0.084 Cl
ATOM     37  C   LIG d   1       7.114   0.132  -4.676  0.00  0.00    -0.060 A 
ATOM     38  H   LIG d   1       7.177   0.399  -2.556  0.00  0.00     0.063 H 
ATOM     39  C   LIG d   1       6.333  -0.187  -5.768  0.00  0.00    -0.054 A 
ATOM     40  H   LIG d   1       8.160   0.366  -4.811  0.00  0.00     0.062 H 
ATOM     41  H   LIG d   1       6.768  -0.206  -6.756  0.00  0.00     0.062 H 
ENDBRANCH   6  31
TORSDOF 6
ENDMDL
MODEL 9
REMARK VINA RESULT:      -5.2      6.117      8.706
REMARK  6 active torsions:
REMARK  status: ('A' for Active; 'I' for Inactive)
REMARK    1  A    between atoms: C_1  and  C_2 
REMARK    2  A    between atoms: C_2  and  N_3 
REMARK    3  A    between atoms: N_3  and  C_4 
REMARK    4  A    between atoms: N_3  and  C_6 
REMARK    5  A    between atoms: C_4  and  C_5 
REMARK    6  A    between atoms: C_11  and  C_17 
ROOT
ATOM      1  C   LIG d   1      10.287   4.028  -5.262  0.00  0.00     0.033 A 
ATOM      2  C   LIG d   1      10.297   3.820  -3.882  0.00  0.00    -0.040 A 
ATOM      3  C   LIG d   1       9.448   2.917  -3.314  0.00  0.00    -0.049 A 
ATOM      4  C   LIG d   1       8.558   2.189  -4.120  0.00  0.00     0.018 A 
ATOM      5  C   LIG d   1       7.673   1.249  -3.534  0.00  0.00    -0.036 A 
ATOM      6  C   LIG d   1       6.815   0.554  -4.343  0.00  0.00     0.067 A 
ATOM      7  C   LIG d   1       6.841   0.802  -5.786  0.00  0.00     0.345 A 
ATOM      8  O   LIG d   1       6.085   0.191  -6.521  0.00  0.00    -0.244 OA
ATOM      9  O   LIG d   1       7.695   1.702  -6.302  0.00  0.00    -0.422 OA
ATOM     10  C   LIG d   1       8.544   2.394  -5.512  0.00  0.00     0.141 A 
ATOM     11  C   LIG d   1       9.415   3.317  -6.073  0.00  0.00     0.002 A 
ATOM     12  H   LIG d   1      10.980   4.379  -3.259  0.00  0.00     0.064 H 
ATOM     13  H   LIG d   1       9.460   2.761  -2.246  0.00  0.00     0.062 H 
ATOM     14  H   LIG d   1       7.674   1.085  -2.466  0.00  0.00     0.063 H 
ATOM     15  H   LIG d   1       9.413   3.482  -7.140  0.00  0.00     0.067 H 
ENDROOT
BRANCH   1  16
ATOM     16  N   LIG d   1      11.164   4.948  -5.829  0.00  0.00    -0.330 N 
BRANCH  16  17
ATOM     17  C   LIG d   1      11.080   6.363  -5.458  0.00  0.00     0.009 C 
ATOM     18  H   LIG d   1      11.287   6.472  -4.393  0.00  0.00     0.046 H 
ATOM     19  H   LIG d   1      11.812   6.932  -6.031  0.00  0.00     0.046 H 
BRANCH  17  20
ATOM     20  C   LIG d   1       9.675   6.887  -5.762  0.00  0.00    -0.049 C 
ATOM     21  H   LIG d   1       9.730   7.639  -6.550  0.00  0.00     0.025 H 
ATOM     22  H   LIG d   1       9.043   6.063  -6.091  0.00  0.00     0.025 H 
ATOM     23  H   LIG d   1       9.252   7.334  -4.863  0.00  0.00     0.025 H 
ENDBRANCH  17  20
ENDBRANCH  16  17
BRANCH  16  24
ATOM     24  C   LIG d   1      12.169   4.502  -6.796  0.00  0.00     0.009 C 
ATOM     25  H   LIG d   1      13.164   4.763  -6.432  0.00  0.00     0.046 H 
ATOM     26  H   LIG d   1      12.100   3.421  -6.919  0.00  0.00     0.046 H 
BRANCH  24  27
ATOM     27  C   LIG d   1      11.923   5.187  -8.141  0.00  0.00    -0.049 C 
ATOM     28  H   LIG d   1      11.681   4.435  -8.892  0.00  0.00     0.025 H 
ATOM     29  H   LIG d   1      11.093   5.887  -8.047  0.00  0.00     0.025 H 
ATOM     30  H   LIG d   1      12.821   5.726  -8.444  0.00  0.00     0.025 H 
ENDBRANCH  24  27
ENDBRANCH  16  24
ENDBRANCH   1  16
BRANCH   6  31
ATOM     31  C   LIG d   1       5.876  -0.437  -3.767  0.00  0.00    -0.010 A 
ATOM     32  C   LIG d   1       5.729  -1.690  -4.361  0.00  0.00    -0.035 A 
ATOM     33  C   LIG d   1       4.852  -2.609  -3.820  0.00  0.00     0.042 A 
ATOM     34  H   LIG d   1       6.300  -1.940  -5.244  0.00  0.00     0.064 H 
ATOM     35  C   LIG d   1       4.120  -2.289  -2.691  0.00  0.00    -0.043 A 
ATOM     36 CL   LIG d   1       4.668  -4.169  -4.559  0.00  0.00    -0.084 Cl
ATOM     37  C   LIG d   1       4.263  -1.047  -2.096  0.00  0.00    -0.060 A 
ATOM     38  H   LIG d   1       3.435  -3.011  -2.271  0.00  0.00     0.063 H 
ATOM     39  C   LIG d   1       5.139  -0.122  -2.625  0.00  0.00    -0.054 A 
ATOM     40  H   LIG d   1       3.688  -0.802  -1.216  0.00  0.00     0.062 H 
ATOM     41  H   LIG d   1       5.253   0.844  -2.158  0.00  0.00     0.062 H 
ENDBRANCH   6  31
TORSDOF 6
ENDMDL
MODEL 10
REMARK VINA RESULT:      -5.1      5.754      8.601
REMARK  6 active torsions:
REMARK  status: ('A' for Active; 'I' for Inactive)
REMARK    1  A    between atoms: C_1  and  C_2 
REMARK    2  A    between atoms: C_2  and  N_3 
REMARK    3  A    between atoms: N_3  and  C_4 
REMARK    4  A    between atoms: N_3  and  C_6 
REMARK    5  A    between atoms: C_4  and  C_5 
REMARK    6  A    between atoms: C_11  and  C_17 
ROOT
ATOM      1  C   LIG d   1       9.932  -5.530  -5.269  0.00  0.00     0.033 A 
ATOM      2  C   LIG d   1      10.445  -4.425  -4.587  0.00  0.00    -0.040 A 
ATOM      3  C   LIG d   1       9.611  -3.448  -4.131  0.00  0.00    -0.049 A 
ATOM      4  C   LIG d   1       8.227  -3.550  -4.348  0.00  0.00     0.018 A 
ATOM      5  C   LIG d   1       7.357  -2.535  -3.876  0.00  0.00    -0.036 A 
ATOM      6  C   LIG d   1       6.012  -2.659  -4.101  0.00  0.00     0.067 A 
ATOM      7  C   LIG d   1       5.518  -3.835  -4.821  0.00  0.00     0.345 A 
ATOM      8  O   LIG d   1       4.324  -3.962  -5.029  0.00  0.00    -0.244 OA
ATOM      9  O   LIG d   1       6.377  -4.774  -5.252  0.00  0.00    -0.422 OA
ATOM     10  C   LIG d   1       7.705  -4.660  -5.035  0.00  0.00     0.141 A 
ATOM     11  C   LIG d   1       8.568  -5.646  -5.492  0.00  0.00     0.002 A 
ATOM     12  H   LIG d   1      11.509  -4.345  -4.418  0.00  0.00     0.064 H 
ATOM     13  H   LIG d   1      10.014  -2.596  -3.603  0.00  0.00     0.062 H 
ATOM     14  H   LIG d   1       7.748  -1.678  -3.348  0.00  0.00     0.063 H 
ATOM     15  H   LIG d   1       8.178  -6.503  -6.021  0.00  0.00     0.067 H 
ENDROOT
BRANCH   1  16
ATOM     16  N   LIG d   1      10.794  -6.523  -5.724  0.00  0.00    -0.330 N 
BRANCH  16  17
ATOM     17  C   LIG d   1      10.554  -7.922  -5.363  0.00  0.00     0.009 C 
ATOM     18  H   LIG d   1       9.514  -8.176  -5.569  0.00  0.00     0.046 H 
ATOM     19  H   LIG d   1      11.209  -8.566  -5.950  0.00  0.00     0.046 H 
BRANCH  17  20
ATOM     20  C   LIG d   1      10.843  -8.122  -3.874  0.00  0.00    -0.049 C 
ATOM     21  H   LIG d   1       9.902  -8.195  -3.328  0.00  0.00     0.025 H 
ATOM     22  H   LIG d   1      11.416  -9.038  -3.735  0.00  0.00     0.025 H 
ATOM     23  H   LIG d   1      11.416  -7.274  -3.499  0.00  0.00     0.025 H 
ENDBRANCH  17  20
ENDBRANCH  16  17
BRANCH  16  24
ATOM     24  C   LIG d   1      11.942  -6.168  -6.562  0.00  0.00     0.009 C 
ATOM     25  H   LIG d   1      12.323  -5.191  -6.261  0.00  0.00     0.046 H 
ATOM     26  H   LIG d   1      12.726  -6.916  -6.441  0.00  0.00     0.046 H 
BRANCH  24  27
ATOM     27  C   LIG d   1      11.507  -6.116  -8.028  0.00  0.00    -0.049 C 
ATOM     28  H   LIG d   1      11.994  -6.920  -8.580  0.00  0.00     0.025 H 
ATOM     29  H   LIG d   1      10.426  -6.236  -8.091  0.00  0.00     0.025 H 
ATOM     30  H   LIG d   1      11.793  -5.156  -8.457  0.00  0.00     0.025 H 
ENDBRANCH  24  27
ENDBRANCH  16  24
ENDBRANCH   1  16
BRANCH   6  31
ATOM     31  C   LIG d   1       5.071  -1.619  -3.623  0.00  0.00    -0.010 A 
ATOM     32  C   LIG d   1       4.267  -0.932  -4.532  0.00  0.00    -0.035 A 
ATOM     33  C   LIG d   1       3.392   0.036  -4.080  0.00  0.00     0.042 A 
ATOM     34  H   LIG d   1       4.330  -1.156  -5.587  0.00  0.00     0.064 H 
ATOM     35  C   LIG d   1       3.311   0.324  -2.730  0.00  0.00    -0.043 A 
ATOM     36 CL   LIG d   1       2.391   0.893  -5.210  0.00  0.00    -0.084 Cl
ATOM     37  C   LIG d   1       4.106  -0.356  -1.823  0.00  0.00    -0.060 A 
ATOM     38  H   LIG d   1       2.626   1.082  -2.381  0.00  0.00     0.063 H 
ATOM     39  C   LIG d   1       4.981  -1.329  -2.262  0.00  0.00    -0.054 A 
ATOM     40  H   LIG d   1       4.040  -0.126  -0.770  0.00  0.00     0.062 H 
ATOM     41  H   LIG d   1       5.597  -1.861  -1.553  0.00  0.00     0.062 H 
ENDBRANCH   6  31
TORSDOF 6
ENDMDL
