MODEL 1
REMARK VINA RESULT:      -7.4      0.000      0.000
REMARK  5 active torsions:
REMARK  status: ('A' for Active; 'I' for Inactive)
REMARK    1  A    between atoms: C_1  and  C_2 
REMARK    2  A    between atoms: C_6  and  C_8 
REMARK    3  A    between atoms: C_10  and  C_13 
REMARK    4  A    between atoms: C_23  and  C_24 
REMARK    5  A    between atoms: C_23  and  N_49 
ROOT
ATOM      1  C   LIG d   1       9.463   2.633  -6.448  0.00  0.00     0.066 C 
ATOM      2  H   LIG d   1      10.483   2.292  -6.621  0.00  0.00     0.096 H 
ATOM      3  C   LIG d   1       9.491   3.993  -5.737  0.00  0.00     0.043 C 
ATOM      4  C   LIG d   1       9.972   5.023  -6.726  0.00  0.00     0.073 A 
ATOM      5  C   LIG d   1      10.011   4.813  -8.062  0.00  0.00     0.084 A 
ATOM      6  N   LIG d   1      10.487   5.917  -8.638  0.00  0.00    -0.344 N 
ATOM      7  C   LIG d   1      10.744   6.806  -7.713  0.00  0.00     0.094 A 
ATOM      8  N   LIG d   1      10.433   6.281  -6.505  0.00  0.00    -0.240 NA
ATOM      9  H   LIG d   1      10.625   6.045  -9.619  0.00  0.00     0.167 HD
ATOM     10  C   LIG d   1       9.573   3.522  -8.709  0.00  0.00     0.012 C 
ATOM     11  H   LIG d   1       8.489   4.251  -5.392  0.00  0.00     0.039 H 
ATOM     12  H   LIG d   1      10.174   3.951  -4.887  0.00  0.00     0.039 H 
ATOM     13  H   LIG d   1      11.139   7.797  -7.886  0.00  0.00     0.103 H 
ATOM     14  H   LIG d   1      10.449   2.938  -8.993  0.00  0.00     0.088 H 
ATOM     15  H   LIG d   1       8.974   3.739  -9.593  0.00  0.00     0.088 H 
ATOM     16  N   LIG d   1       8.739   2.781  -7.731  0.00  0.00     0.252 N 
ATOM     17  H   LIG d   1       7.874   3.309  -7.565  0.00  0.00     0.205 HD
ENDROOT
BRANCH   1  18
ATOM     18  C   LIG d   1       8.737   1.631  -5.587  0.00  0.00     0.276 A 
ATOM     19  N   LIG d   1       7.601   1.819  -4.964  0.00  0.00    -0.186 NA
ATOM     20  C   LIG d   1       7.342   0.658  -4.321  0.00  0.00     0.202 A 
ATOM     21  N   LIG d   1       8.322  -0.163  -4.598  0.00  0.00    -0.056 NA
ATOM     22  O   LIG d   1       9.129   0.381  -5.321  0.00  0.00    -0.332 OA
BRANCH  20  23
ATOM     23  C   LIG d   1       6.163   0.366  -3.469  0.00  0.00     0.023 A 
ATOM     24  C   LIG d   1       5.582   1.379  -2.710  0.00  0.00    -0.051 A 
ATOM     25  C   LIG d   1       4.485   1.102  -1.918  0.00  0.00    -0.061 A 
ATOM     26  H   LIG d   1       5.988   2.379  -2.740  0.00  0.00     0.062 H 
ATOM     27  C   LIG d   1       3.965  -0.178  -1.877  0.00  0.00    -0.059 A 
ATOM     28  H   LIG d   1       4.034   1.887  -1.329  0.00  0.00     0.062 H 
ATOM     29  C   LIG d   1       4.534  -1.186  -2.634  0.00  0.00    -0.050 A 
ATOM     30  H   LIG d   1       3.107  -0.390  -1.257  0.00  0.00     0.062 H 
ATOM     31  C   LIG d   1       5.633  -0.922  -3.424  0.00  0.00    -0.048 A 
ATOM     32  H   LIG d   1       6.081  -1.711  -4.011  0.00  0.00     0.063 H 
BRANCH  29  33
ATOM     33  C   LIG d   1       3.957  -2.578  -2.589  0.00  0.00    -0.040 C 
ATOM     34  H   LIG d   1       4.624  -3.230  -2.027  0.00  0.00     0.028 H 
ATOM     35  H   LIG d   1       2.981  -2.551  -2.105  0.00  0.00     0.028 H 
ATOM     36  H   LIG d   1       3.848  -2.959  -3.605  0.00  0.00     0.028 H 
ENDBRANCH  29  33
ENDBRANCH  20  23
ENDBRANCH   1  18
BRANCH  16  37
ATOM     37  C   LIG d   1       8.393   1.450  -8.271  0.00  0.00    -0.005 C 
ATOM     38  H   LIG d   1       8.877   1.289  -9.235  0.00  0.00     0.087 H 
ATOM     39  H   LIG d   1       8.730   0.690  -7.565  0.00  0.00     0.087 H 
BRANCH  37  40
ATOM     40  C   LIG d   1       6.899   1.357  -8.436  0.00  0.00    -0.003 A 
ATOM     41  C   LIG d   1       6.212   2.367  -9.084  0.00  0.00    -0.052 A 
ATOM     42  C   LIG d   1       4.840   2.283  -9.236  0.00  0.00    -0.043 A 
ATOM     43  H   LIG d   1       6.746   3.222  -9.471  0.00  0.00     0.062 H 
ATOM     44  C   LIG d   1       4.156   1.188  -8.740  0.00  0.00     0.041 A 
ATOM     45  H   LIG d   1       4.303   3.072  -9.742  0.00  0.00     0.063 H 
ATOM     46  C   LIG d   1       4.844   0.178  -8.092  0.00  0.00    -0.043 A 
ATOM     47 CL   LIG d   1       2.433   1.082  -8.930  0.00  0.00    -0.084 Cl
ATOM     48  C   LIG d   1       6.215   0.261  -7.946  0.00  0.00    -0.052 A 
ATOM     49  H   LIG d   1       4.310  -0.678  -7.704  0.00  0.00     0.063 H 
ATOM     50  H   LIG d   1       6.754  -0.530  -7.443  0.00  0.00     0.062 H 
ENDBRANCH  37  40
ENDBRANCH  16  37
TORSDOF 5
ENDMDL
MODEL 2
REMARK VINA RESULT:      -7.1      4.238      6.064
REMARK  5 active torsions:
REMARK  status: ('A' for Active; 'I' for Inactive)
REMARK    1  A    between atoms: C_1  and  C_2 
REMARK    2  A    between atoms: C_6  and  C_8 
REMARK    3  A    between atoms: C_10  and  C_13 
REMARK    4  A    between atoms: C_23  and  C_24 
REMARK    5  A    between atoms: C_23  and  N_49 
ROOT
ATOM      1  C   LIG d   1      10.763   2.177  -4.770  0.00  0.00     0.066 C 
ATOM      2  H   LIG d   1      11.090   2.375  -5.790  0.00  0.00     0.096 H 
ATOM      3  C   LIG d   1      11.595   1.029  -4.180  0.00  0.00     0.043 C 
ATOM      4  C   LIG d   1      12.990   1.545  -3.938  0.00  0.00     0.073 A 
ATOM      5  C   LIG d   1      13.306   2.860  -3.917  0.00  0.00     0.084 A 
ATOM      6  N   LIG d   1      14.614   2.965  -3.683  0.00  0.00    -0.344 N 
ATOM      7  C   LIG d   1      15.124   1.767  -3.555  0.00  0.00     0.094 A 
ATOM      8  N   LIG d   1      14.136   0.854  -3.709  0.00  0.00    -0.240 NA
ATOM      9  H   LIG d   1      15.124   3.822  -3.615  0.00  0.00     0.167 HD
ATOM     10  C   LIG d   1      12.293   3.957  -4.132  0.00  0.00     0.012 C 
ATOM     11  H   LIG d   1      11.154   0.699  -3.238  0.00  0.00     0.039 H 
ATOM     12  H   LIG d   1      11.627   0.197  -4.883  0.00  0.00     0.039 H 
ATOM     13  H   LIG d   1      16.163   1.543  -3.360  0.00  0.00     0.103 H 
ATOM     14  H   LIG d   1      12.392   4.357  -5.142  0.00  0.00     0.088 H 
ATOM     15  H   LIG d   1      12.453   4.753  -3.404  0.00  0.00     0.088 H 
ATOM     16  N   LIG d   1      10.942   3.378  -3.924  0.00  0.00     0.252 N 
ATOM     17  H   LIG d   1      10.846   3.108  -2.938  0.00  0.00     0.205 HD
ENDROOT
BRANCH   1  18
ATOM     18  C   LIG d   1       9.307   1.791  -4.774  0.00  0.00     0.276 A 
ATOM     19  N   LIG d   1       8.623   1.323  -3.760  0.00  0.00    -0.186 NA
ATOM     20  C   LIG d   1       7.371   1.119  -4.228  0.00  0.00     0.202 A 
ATOM     21  N   LIG d   1       7.366   1.482  -5.485  0.00  0.00    -0.056 NA
ATOM     22  O   LIG d   1       8.468   1.869  -5.812  0.00  0.00    -0.332 OA
BRANCH  20  23
ATOM     23  C   LIG d   1       6.217   0.591  -3.459  0.00  0.00     0.023 A 
ATOM     24  C   LIG d   1       5.533   1.418  -2.570  0.00  0.00    -0.051 A 
ATOM     25  C   LIG d   1       4.461   0.921  -1.856  0.00  0.00    -0.061 A 
ATOM     26  H   LIG d   1       5.842   2.444  -2.439  0.00  0.00     0.062 H 
ATOM     27  C   LIG d   1       4.067  -0.394  -2.021  0.00  0.00    -0.059 A 
ATOM     28  H   LIG d   1       3.930   1.561  -1.166  0.00  0.00     0.062 H 
ATOM     29  C   LIG d   1       4.738  -1.217  -2.907  0.00  0.00    -0.050 A 
ATOM     30  H   LIG d   1       3.227  -0.778  -1.461  0.00  0.00     0.062 H 
ATOM     31  C   LIG d   1       5.815  -0.733  -3.622  0.00  0.00    -0.048 A 
ATOM     32  H   LIG d   1       6.342  -1.378  -4.310  0.00  0.00     0.063 H 
BRANCH  29  33
ATOM     33  C   LIG d   1       4.298  -2.647  -3.087  0.00  0.00    -0.040 C 
ATOM     34  H   LIG d   1       4.963  -3.305  -2.529  0.00  0.00     0.028 H 
ATOM     35  H   LIG d   1       3.279  -2.763  -2.719  0.00  0.00     0.028 H 
ATOM     36  H   LIG d   1       4.334  -2.908  -4.145  0.00  0.00     0.028 H 
ENDBRANCH  29  33
ENDBRANCH  20  23
ENDBRANCH   1  18
BRANCH  16  37
ATOM     37  C   LIG d   1       9.909   4.383  -4.250  0.00  0.00    -0.005 C 
ATOM     38  H   LIG d   1      10.057   4.773  -5.257  0.00  0.00     0.087 H 
ATOM     39  H   LIG d   1       8.930   3.909  -4.185  0.00  0.00     0.087 H 
BRANCH  37  40
ATOM     40  C   LIG d   1       9.988   5.513  -3.257  0.00  0.00    -0.003 A 
ATOM     41  C   LIG d   1       9.872   6.821  -3.689  0.00  0.00    -0.052 A 
ATOM     42  C   LIG d   1       9.944   7.859  -2.778  0.00  0.00    -0.043 A 
ATOM     43  H   LIG d   1       9.725   7.033  -4.737  0.00  0.00     0.062 H 
ATOM     44  C   LIG d   1      10.131   7.587  -1.434  0.00  0.00     0.041 A 
ATOM     45  H   LIG d   1       9.853   8.881  -3.115  0.00  0.00     0.063 H 
ATOM     46  C   LIG d   1      10.248   6.277  -1.003  0.00  0.00    -0.043 A 
ATOM     47 CL   LIG d   1      10.223   8.890  -0.289  0.00  0.00    -0.084 Cl
ATOM     48  C   LIG d   1      10.170   5.242  -1.914  0.00  0.00    -0.052 A 
ATOM     49  H   LIG d   1      10.395   6.065   0.046  0.00  0.00     0.063 H 
ATOM     50  H   LIG d   1      10.256   4.218  -1.577  0.00  0.00     0.062 H 
ENDBRANCH  37  40
ENDBRANCH  16  37
TORSDOF 5
ENDMDL
MODEL 3
REMARK VINA RESULT:      -7.0      3.535      5.301
REMARK  5 active torsions:
REMARK  status: ('A' for Active; 'I' for Inactive)
REMARK    1  A    between atoms: C_1  and  C_2 
REMARK    2  A    between atoms: C_6  and  C_8 
REMARK    3  A    between atoms: C_10  and  C_13 
REMARK    4  A    between atoms: C_23  and  C_24 
REMARK    5  A    between atoms: C_23  and  N_49 
ROOT
ATOM      1  C   LIG d   1      10.450   0.832  -6.072  0.00  0.00     0.066 C 
ATOM      2  H   LIG d   1      10.595   0.720  -7.146  0.00  0.00     0.096 H 
ATOM      3  C   LIG d   1      11.222  -0.270  -5.333  0.00  0.00     0.043 C 
ATOM      4  C   LIG d   1      12.693   0.033  -5.455  0.00  0.00     0.073 A 
ATOM      5  C   LIG d   1      13.177   1.239  -5.834  0.00  0.00     0.084 A 
ATOM      6  N   LIG d   1      14.508   1.163  -5.841  0.00  0.00    -0.344 N 
ATOM      7  C   LIG d   1      14.871  -0.040  -5.479  0.00  0.00     0.094 A 
ATOM      8  N   LIG d   1      13.761  -0.774  -5.230  0.00  0.00    -0.240 NA
ATOM      9  H   LIG d   1      15.129   1.908  -6.083  0.00  0.00     0.167 HD
ATOM     10  C   LIG d   1      12.294   2.414  -6.174  0.00  0.00     0.012 C 
ATOM     11  H   LIG d   1      10.933  -0.283  -4.281  0.00  0.00     0.039 H 
ATOM     12  H   LIG d   1      11.007  -1.238  -5.786  0.00  0.00     0.039 H 
ATOM     13  H   LIG d   1      15.889  -0.391  -5.394  0.00  0.00     0.103 H 
ATOM     14  H   LIG d   1      12.248   2.538  -7.256  0.00  0.00     0.088 H 
ATOM     15  H   LIG d   1      12.696   3.319  -5.718  0.00  0.00     0.088 H 
ATOM     16  N   LIG d   1      10.946   2.149  -5.614  0.00  0.00     0.252 N 
ATOM     17  H   LIG d   1      11.008   2.144  -4.589  0.00  0.00     0.205 HD
ENDROOT
BRANCH   1  18
ATOM     18  C   LIG d   1       8.982   0.720  -5.748  0.00  0.00     0.276 A 
ATOM     19  N   LIG d   1       8.460   0.510  -4.566  0.00  0.00    -0.186 NA
ATOM     20  C   LIG d   1       7.122   0.482  -4.759  0.00  0.00     0.202 A 
ATOM     21  N   LIG d   1       6.912   0.686  -6.034  0.00  0.00    -0.056 NA
ATOM     22  O   LIG d   1       7.969   0.823  -6.614  0.00  0.00    -0.332 OA
BRANCH  20  23
ATOM     23  C   LIG d   1       6.085   0.270  -3.719  0.00  0.00     0.023 A 
ATOM     24  C   LIG d   1       5.709   1.318  -2.883  0.00  0.00    -0.051 A 
ATOM     25  C   LIG d   1       4.745   1.115  -1.916  0.00  0.00    -0.061 A 
ATOM     26  H   LIG d   1       6.172   2.288  -2.990  0.00  0.00     0.062 H 
ATOM     27  C   LIG d   1       4.154  -0.127  -1.776  0.00  0.00    -0.059 A 
ATOM     28  H   LIG d   1       4.453   1.927  -1.267  0.00  0.00     0.062 H 
ATOM     29  C   LIG d   1       4.519  -1.170  -2.608  0.00  0.00    -0.050 A 
ATOM     30  H   LIG d   1       3.400  -0.282  -1.019  0.00  0.00     0.062 H 
ATOM     31  C   LIG d   1       5.485  -0.980  -3.574  0.00  0.00    -0.048 A 
ATOM     32  H   LIG d   1       5.774  -1.796  -4.220  0.00  0.00     0.063 H 
BRANCH  29  33
ATOM     33  C   LIG d   1       3.865  -2.519  -2.455  0.00  0.00    -0.040 C 
ATOM     34  H   LIG d   1       4.609  -3.303  -2.600  0.00  0.00     0.028 H 
ATOM     35  H   LIG d   1       3.437  -2.605  -1.456  0.00  0.00     0.028 H 
ATOM     36  H   LIG d   1       3.076  -2.627  -3.198  0.00  0.00     0.028 H 
ENDBRANCH  29  33
ENDBRANCH  20  23
ENDBRANCH   1  18
BRANCH  16  37
ATOM     37  C   LIG d   1      10.010   3.214  -6.032  0.00  0.00    -0.005 C 
ATOM     38  H   LIG d   1      10.379   3.721  -6.924  0.00  0.00     0.087 H 
ATOM     39  H   LIG d   1       9.042   2.761  -6.247  0.00  0.00     0.087 H 
BRANCH  37  40
ATOM     40  C   LIG d   1       9.862   4.209  -4.911  0.00  0.00    -0.003 A 
ATOM     41  C   LIG d   1      10.092   3.817  -3.605  0.00  0.00    -0.052 A 
ATOM     42  C   LIG d   1       9.957   4.730  -2.576  0.00  0.00    -0.043 A 
ATOM     43  H   LIG d   1      10.378   2.799  -3.389  0.00  0.00     0.062 H 
ATOM     44  C   LIG d   1       9.592   6.035  -2.853  0.00  0.00     0.041 A 
ATOM     45  H   LIG d   1      10.137   4.424  -1.556  0.00  0.00     0.063 H 
ATOM     46  C   LIG d   1       9.361   6.427  -4.160  0.00  0.00    -0.043 A 
ATOM     47 CL   LIG d   1       9.421   7.182  -1.560  0.00  0.00    -0.084 Cl
ATOM     48  C   LIG d   1       9.502   5.514  -5.188  0.00  0.00    -0.052 A 
ATOM     49  H   LIG d   1       9.076   7.446  -4.376  0.00  0.00     0.063 H 
ATOM     50  H   LIG d   1       9.327   5.821  -6.210  0.00  0.00     0.062 H 
ENDBRANCH  37  40
ENDBRANCH  16  37
TORSDOF 5
ENDMDL
MODEL 4
REMARK VINA RESULT:      -6.9      4.440      6.947
REMARK  5 active torsions:
REMARK  status: ('A' for Active; 'I' for Inactive)
REMARK    1  A    between atoms: C_1  and  C_2 
REMARK    2  A    between atoms: C_6  and  C_8 
REMARK    3  A    between atoms: C_10  and  C_13 
REMARK    4  A    between atoms: C_23  and  C_24 
REMARK    5  A    between atoms: C_23  and  N_49 
ROOT
ATOM      1  C   LIG d   1       2.669   0.136  -9.820  0.00  0.00     0.066 C 
ATOM      2  H   LIG d   1       2.226   1.012 -10.293  0.00  0.00     0.096 H 
ATOM      3  C   LIG d   1       1.745  -1.074 -10.014  0.00  0.00     0.043 C 
ATOM      4  C   LIG d   1       1.804  -1.474 -11.466  0.00  0.00     0.073 A 
ATOM      5  C   LIG d   1       2.769  -1.054 -12.316  0.00  0.00     0.084 A 
ATOM      6  N   LIG d   1       2.522  -1.588 -13.513  0.00  0.00    -0.344 N 
ATOM      7  C   LIG d   1       1.443  -2.325 -13.439  0.00  0.00     0.094 A 
ATOM      8  N   LIG d   1       0.968  -2.277 -12.173  0.00  0.00    -0.240 NA
ATOM      9  H   LIG d   1       3.073  -1.448 -14.335  0.00  0.00     0.167 HD
ATOM     10  C   LIG d   1       3.895  -0.140 -11.903  0.00  0.00     0.012 C 
ATOM     11  H   LIG d   1       2.083  -1.901  -9.388  0.00  0.00     0.039 H 
ATOM     12  H   LIG d   1       0.723  -0.805  -9.748  0.00  0.00     0.039 H 
ATOM     13  H   LIG d   1       1.004  -2.880 -14.256  0.00  0.00     0.103 H 
ATOM     14  H   LIG d   1       3.697   0.872 -12.259  0.00  0.00     0.088 H 
ATOM     15  H   LIG d   1       4.834  -0.500 -12.323  0.00  0.00     0.088 H 
ATOM     16  N   LIG d   1       3.987  -0.169 -10.422  0.00  0.00     0.252 N 
ATOM     17  H   LIG d   1       4.277  -1.108 -10.127  0.00  0.00     0.205 HD
ENDROOT
BRANCH   1  18
ATOM     18  C   LIG d   1       2.851   0.399  -8.347  0.00  0.00     0.276 A 
ATOM     19  N   LIG d   1       3.184  -0.480  -7.436  0.00  0.00    -0.186 NA
ATOM     20  C   LIG d   1       3.224   0.203  -6.269  0.00  0.00     0.202 A 
ATOM     21  N   LIG d   1       2.925   1.447  -6.541  0.00  0.00    -0.056 NA
ATOM     22  O   LIG d   1       2.708   1.574  -7.727  0.00  0.00    -0.332 OA
BRANCH  20  23
ATOM     23  C   LIG d   1       3.553  -0.352  -4.934  0.00  0.00     0.023 A 
ATOM     24  C   LIG d   1       2.582  -0.393  -3.935  0.00  0.00    -0.051 A 
ATOM     25  C   LIG d   1       2.895  -0.910  -2.693  0.00  0.00    -0.061 A 
ATOM     26  H   LIG d   1       1.589  -0.021  -4.132  0.00  0.00     0.062 H 
ATOM     27  C   LIG d   1       4.168  -1.386  -2.440  0.00  0.00    -0.059 A 
ATOM     28  H   LIG d   1       2.143  -0.942  -1.919  0.00  0.00     0.062 H 
ATOM     29  C   LIG d   1       5.134  -1.353  -3.430  0.00  0.00    -0.050 A 
ATOM     30  H   LIG d   1       4.408  -1.790  -1.468  0.00  0.00     0.062 H 
ATOM     31  C   LIG d   1       4.835  -0.833  -4.672  0.00  0.00    -0.048 A 
ATOM     32  H   LIG d   1       5.591  -0.804  -5.443  0.00  0.00     0.063 H 
BRANCH  29  33
ATOM     33  C   LIG d   1       6.518  -1.880  -3.148  0.00  0.00    -0.040 C 
ATOM     34  H   LIG d   1       7.131  -1.083  -2.729  0.00  0.00     0.028 H 
ATOM     35  H   LIG d   1       6.455  -2.703  -2.437  0.00  0.00     0.028 H 
ATOM     36  H   LIG d   1       6.967  -2.233  -4.076  0.00  0.00     0.028 H 
ENDBRANCH  29  33
ENDBRANCH  20  23
ENDBRANCH   1  18
BRANCH  16  37
ATOM     37  C   LIG d   1       4.991   0.812  -9.961  0.00  0.00    -0.005 C 
ATOM     38  H   LIG d   1       5.553   1.212 -10.805  0.00  0.00     0.087 H 
ATOM     39  H   LIG d   1       4.475   1.625  -9.451  0.00  0.00     0.087 H 
BRANCH  37  40
ATOM     40  C   LIG d   1       5.936   0.136  -9.002  0.00  0.00    -0.003 A 
ATOM     41  C   LIG d   1       6.192  -1.218  -9.123  0.00  0.00    -0.052 A 
ATOM     42  C   LIG d   1       7.060  -1.839  -8.244  0.00  0.00    -0.043 A 
ATOM     43  H   LIG d   1       5.715  -1.790  -9.905  0.00  0.00     0.062 H 
ATOM     44  C   LIG d   1       7.672  -1.105  -7.243  0.00  0.00     0.041 A 
ATOM     45  H   LIG d   1       7.260  -2.896  -8.338  0.00  0.00     0.063 H 
ATOM     46  C   LIG d   1       7.415   0.249  -7.122  0.00  0.00    -0.043 A 
ATOM     47 CL   LIG d   1       8.761  -1.885  -6.138  0.00  0.00    -0.084 Cl
ATOM     48  C   LIG d   1       6.552   0.869  -8.005  0.00  0.00    -0.052 A 
ATOM     49  H   LIG d   1       7.893   0.822  -6.341  0.00  0.00     0.063 H 
ATOM     50  H   LIG d   1       6.355   1.928  -7.914  0.00  0.00     0.062 H 
ENDBRANCH  37  40
ENDBRANCH  16  37
TORSDOF 5
ENDMDL
MODEL 5
REMARK VINA RESULT:      -6.8      5.611      9.558
REMARK  5 active torsions:
REMARK  status: ('A' for Active; 'I' for Inactive)
REMARK    1  A    between atoms: C_1  and  C_2 
REMARK    2  A    between atoms: C_6  and  C_8 
REMARK    3  A    between atoms: C_10  and  C_13 
REMARK    4  A    between atoms: C_23  and  C_24 
REMARK    5  A    between atoms: C_23  and  N_49 
ROOT
ATOM      1  C   LIG d   1       5.820  -5.883  -7.264  0.00  0.00     0.066 C 
ATOM      2  H   LIG d   1       6.718  -6.329  -7.688  0.00  0.00     0.096 H 
ATOM      3  C   LIG d   1       4.656  -6.878  -7.367  0.00  0.00     0.043 C 
ATOM      4  C   LIG d   1       4.911  -7.993  -6.386  0.00  0.00     0.073 A 
ATOM      5  C   LIG d   1       5.810  -7.908  -5.378  0.00  0.00     0.084 A 
ATOM      6  N   LIG d   1       5.786  -9.060  -4.708  0.00  0.00    -0.344 N 
ATOM      7  C   LIG d   1       4.907  -9.858  -5.258  0.00  0.00     0.094 A 
ATOM      8  N   LIG d   1       4.340  -9.222  -6.310  0.00  0.00    -0.240 NA
ATOM      9  H   LIG d   1       6.349  -9.280  -3.912  0.00  0.00     0.167 HD
ATOM     10  C   LIG d   1       6.655  -6.684  -5.125  0.00  0.00     0.012 C 
ATOM     11  H   LIG d   1       3.718  -6.378  -7.122  0.00  0.00     0.039 H 
ATOM     12  H   LIG d   1       4.604  -7.283  -8.378  0.00  0.00     0.039 H 
ATOM     13  H   LIG d   1       4.671 -10.859  -4.927  0.00  0.00     0.103 H 
ATOM     14  H   LIG d   1       7.670  -6.858  -5.483  0.00  0.00     0.088 H 
ATOM     15  H   LIG d   1       6.675  -6.466  -4.057  0.00  0.00     0.088 H 
ATOM     16  N   LIG d   1       6.031  -5.543  -5.838  0.00  0.00     0.252 N 
ATOM     17  H   LIG d   1       5.122  -5.339  -5.407  0.00  0.00     0.205 HD
ENDROOT
BRANCH   1  18
ATOM     18  C   LIG d   1       5.476  -4.627  -8.023  0.00  0.00     0.276 A 
ATOM     19  N   LIG d   1       4.341  -3.976  -7.976  0.00  0.00    -0.186 NA
ATOM     20  C   LIG d   1       4.488  -2.926  -8.815  0.00  0.00     0.202 A 
ATOM     21  N   LIG d   1       5.697  -2.996  -9.310  0.00  0.00    -0.056 NA
ATOM     22  O   LIG d   1       6.274  -3.965  -8.866  0.00  0.00    -0.332 OA
BRANCH  20  23
ATOM     23  C   LIG d   1       3.473  -1.886  -9.112  0.00  0.00     0.023 A 
ATOM     24  C   LIG d   1       2.321  -2.216  -9.821  0.00  0.00    -0.051 A 
ATOM     25  C   LIG d   1       1.380  -1.244 -10.095  0.00  0.00    -0.061 A 
ATOM     26  H   LIG d   1       2.164  -3.231 -10.155  0.00  0.00     0.062 H 
ATOM     27  C   LIG d   1       1.581   0.056  -9.669  0.00  0.00    -0.059 A 
ATOM     28  H   LIG d   1       0.485  -1.499 -10.645  0.00  0.00     0.062 H 
ATOM     29  C   LIG d   1       2.721   0.388  -8.959  0.00  0.00    -0.050 A 
ATOM     30  H   LIG d   1       0.842   0.813  -9.885  0.00  0.00     0.062 H 
ATOM     31  C   LIG d   1       3.670  -0.574  -8.685  0.00  0.00    -0.048 A 
ATOM     32  H   LIG d   1       4.562  -0.312  -8.135  0.00  0.00     0.063 H 
BRANCH  29  33
ATOM     33  C   LIG d   1       2.929   1.806  -8.492  0.00  0.00    -0.040 C 
ATOM     34  H   LIG d   1       3.970   2.090  -8.647  0.00  0.00     0.028 H 
ATOM     35  H   LIG d   1       2.281   2.475  -9.059  0.00  0.00     0.028 H 
ATOM     36  H   LIG d   1       2.688   1.878  -7.432  0.00  0.00     0.028 H 
ENDBRANCH  29  33
ENDBRANCH  20  23
ENDBRANCH   1  18
BRANCH  16  37
ATOM     37  C   LIG d   1       6.894  -4.348  -5.728  0.00  0.00    -0.005 C 
ATOM     38  H   LIG d   1       7.897  -4.628  -5.408  0.00  0.00     0.087 H 
ATOM     39  H   LIG d   1       6.944  -3.864  -6.703  0.00  0.00     0.087 H 
BRANCH  37  40
ATOM     40  C   LIG d   1       6.293  -3.397  -4.725  0.00  0.00    -0.003 A 
ATOM     41  C   LIG d   1       4.931  -3.416  -4.486  0.00  0.00    -0.052 A 
ATOM     42  C   LIG d   1       4.378  -2.544  -3.566  0.00  0.00    -0.043 A 
ATOM     43  H   LIG d   1       4.298  -4.111  -5.018  0.00  0.00     0.062 H 
ATOM     44  C   LIG d   1       5.189  -1.655  -2.884  0.00  0.00     0.041 A 
ATOM     45  H   LIG d   1       3.315  -2.559  -3.380  0.00  0.00     0.063 H 
ATOM     46  C   LIG d   1       6.551  -1.636  -3.124  0.00  0.00    -0.043 A 
ATOM     47 CL   LIG d   1       4.496  -0.559  -1.729  0.00  0.00    -0.084 Cl
ATOM     48  C   LIG d   1       7.103  -2.512  -4.040  0.00  0.00    -0.052 A 
ATOM     49  H   LIG d   1       7.184  -0.941  -2.592  0.00  0.00     0.063 H 
ATOM     50  H   LIG d   1       8.168  -2.501  -4.224  0.00  0.00     0.062 H 
ENDBRANCH  37  40
ENDBRANCH  16  37
TORSDOF 5
ENDMDL
MODEL 6
REMARK VINA RESULT:      -6.7      4.927      7.594
REMARK  5 active torsions:
REMARK  status: ('A' for Active; 'I' for Inactive)
REMARK    1  A    between atoms: C_1  and  C_2 
REMARK    2  A    between atoms: C_6  and  C_8 
REMARK    3  A    between atoms: C_10  and  C_13 
REMARK    4  A    between atoms: C_23  and  C_24 
REMARK    5  A    between atoms: C_23  and  N_49 
ROOT
ATOM      1  C   LIG d   1       5.194  -2.708  -4.645  0.00  0.00     0.066 C 
ATOM      2  H   LIG d   1       6.263  -2.709  -4.434  0.00  0.00     0.096 H 
ATOM      3  C   LIG d   1       4.417  -2.437  -3.349  0.00  0.00     0.043 C 
ATOM      4  C   LIG d   1       4.634  -0.994  -2.972  0.00  0.00     0.073 A 
ATOM      5  C   LIG d   1       5.124  -0.066  -3.825  0.00  0.00     0.084 A 
ATOM      6  N   LIG d   1       5.191   1.095  -3.174  0.00  0.00    -0.344 N 
ATOM      7  C   LIG d   1       4.761   0.926  -1.950  0.00  0.00     0.094 A 
ATOM      8  N   LIG d   1       4.404  -0.369  -1.788  0.00  0.00    -0.240 NA
ATOM      9  H   LIG d   1       5.518   1.958  -3.559  0.00  0.00     0.167 HD
ATOM     10  C   LIG d   1       5.504  -0.373  -5.252  0.00  0.00     0.012 C 
ATOM     11  H   LIG d   1       3.354  -2.621  -3.510  0.00  0.00     0.039 H 
ATOM     12  H   LIG d   1       4.787  -3.085  -2.554  0.00  0.00     0.039 H 
ATOM     13  H   LIG d   1       4.701   1.695  -1.192  0.00  0.00     0.103 H 
ATOM     14  H   LIG d   1       6.589  -0.444  -5.336  0.00  0.00     0.088 H 
ATOM     15  H   LIG d   1       5.136   0.415  -5.909  0.00  0.00     0.088 H 
ATOM     16  N   LIG d   1       4.859  -1.655  -5.630  0.00  0.00     0.252 N 
ATOM     17  H   LIG d   1       3.841  -1.524  -5.643  0.00  0.00     0.205 HD
ENDROOT
BRANCH   1  18
ATOM     18  C   LIG d   1       4.791  -4.049  -5.202  0.00  0.00     0.276 A 
ATOM     19  N   LIG d   1       5.498  -5.150  -5.167  0.00  0.00    -0.186 NA
ATOM     20  C   LIG d   1       4.744  -6.087  -5.784  0.00  0.00     0.202 A 
ATOM     21  N   LIG d   1       3.628  -5.507  -6.144  0.00  0.00    -0.056 NA
ATOM     22  O   LIG d   1       3.641  -4.339  -5.818  0.00  0.00    -0.332 OA
BRANCH  20  23
ATOM     23  C   LIG d   1       5.108  -7.508  -6.003  0.00  0.00     0.023 A 
ATOM     24  C   LIG d   1       4.633  -8.187  -7.123  0.00  0.00    -0.051 A 
ATOM     25  C   LIG d   1       4.975  -9.510  -7.322  0.00  0.00    -0.061 A 
ATOM     26  H   LIG d   1       3.998  -7.680  -7.834  0.00  0.00     0.062 H 
ATOM     27  C   LIG d   1       5.786 -10.161  -6.412  0.00  0.00    -0.059 A 
ATOM     28  H   LIG d   1       4.607 -10.037  -8.190  0.00  0.00     0.062 H 
ATOM     29  C   LIG d   1       6.266  -9.490  -5.301  0.00  0.00    -0.050 A 
ATOM     30  H   LIG d   1       6.052 -11.196  -6.571  0.00  0.00     0.062 H 
ATOM     31  C   LIG d   1       5.926  -8.170  -5.089  0.00  0.00    -0.048 A 
ATOM     32  H   LIG d   1       6.297  -7.648  -4.219  0.00  0.00     0.063 H 
BRANCH  29  33
ATOM     33  C   LIG d   1       7.156 -10.205  -4.317  0.00  0.00    -0.040 C 
ATOM     34  H   LIG d   1       6.577 -10.961  -3.786  0.00  0.00     0.028 H 
ATOM     35  H   LIG d   1       7.977 -10.683  -4.850  0.00  0.00     0.028 H 
ATOM     36  H   LIG d   1       7.556  -9.487  -3.601  0.00  0.00     0.028 H 
ENDBRANCH  29  33
ENDBRANCH  20  23
ENDBRANCH   1  18
BRANCH  16  37
ATOM     37  C   LIG d   1       5.307  -2.065  -6.978  0.00  0.00    -0.005 C 
ATOM     38  H   LIG d   1       6.206  -1.521  -7.266  0.00  0.00     0.087 H 
ATOM     39  H   LIG d   1       5.519  -3.134  -6.963  0.00  0.00     0.087 H 
BRANCH  37  40
ATOM     40  C   LIG d   1       4.209  -1.783  -7.969  0.00  0.00    -0.003 A 
ATOM     41  C   LIG d   1       3.523  -0.583  -7.918  0.00  0.00    -0.052 A 
ATOM     42  C   LIG d   1       2.516  -0.323  -8.828  0.00  0.00    -0.043 A 
ATOM     43  H   LIG d   1       3.775   0.151  -7.168  0.00  0.00     0.062 H 
ATOM     44  C   LIG d   1       2.194  -1.264  -9.790  0.00  0.00     0.041 A 
ATOM     45  H   LIG d   1       1.980   0.614  -8.788  0.00  0.00     0.063 H 
ATOM     46  C   LIG d   1       2.879  -2.465  -9.841  0.00  0.00    -0.043 A 
ATOM     47 CL   LIG d   1       0.927  -0.939 -10.933  0.00  0.00    -0.084 Cl
ATOM     48  C   LIG d   1       3.891  -2.720  -8.934  0.00  0.00    -0.052 A 
ATOM     49  H   LIG d   1       2.628  -3.200 -10.591  0.00  0.00     0.063 H 
ATOM     50  H   LIG d   1       4.430  -3.656  -8.976  0.00  0.00     0.062 H 
ENDBRANCH  37  40
ENDBRANCH  16  37
TORSDOF 5
ENDMDL
MODEL 7
REMARK VINA RESULT:      -6.6      3.612      5.293
REMARK  5 active torsions:
REMARK  status: ('A' for Active; 'I' for Inactive)
REMARK    1  A    between atoms: C_1  and  C_2 
REMARK    2  A    between atoms: C_6  and  C_8 
REMARK    3  A    between atoms: C_10  and  C_13 
REMARK    4  A    between atoms: C_23  and  C_24 
REMARK    5  A    between atoms: C_23  and  N_49 
ROOT
ATOM      1  C   LIG d   1       9.398   3.147  -6.302  0.00  0.00     0.066 C 
ATOM      2  H   LIG d   1       8.631   3.448  -7.014  0.00  0.00     0.096 H 
ATOM      3  C   LIG d   1      10.534   2.431  -7.046  0.00  0.00     0.043 C 
ATOM      4  C   LIG d   1      11.282   3.462  -7.852  0.00  0.00     0.073 A 
ATOM      5  C   LIG d   1      11.169   4.794  -7.647  0.00  0.00     0.084 A 
ATOM      6  N   LIG d   1      11.957   5.413  -8.527  0.00  0.00    -0.344 N 
ATOM      7  C   LIG d   1      12.557   4.518  -9.269  0.00  0.00     0.094 A 
ATOM      8  N   LIG d   1      12.158   3.286  -8.875  0.00  0.00    -0.240 NA
ATOM      9  H   LIG d   1      12.072   6.403  -8.606  0.00  0.00     0.167 HD
ATOM     10  C   LIG d   1      10.282   5.395  -6.585  0.00  0.00     0.012 C 
ATOM     11  H   LIG d   1      11.209   1.962  -6.328  0.00  0.00     0.039 H 
ATOM     12  H   LIG d   1      10.120   1.673  -7.712  0.00  0.00     0.039 H 
ATOM     13  H   LIG d   1      13.255   4.728 -10.067  0.00  0.00     0.103 H 
ATOM     14  H   LIG d   1       9.376   5.792  -7.044  0.00  0.00     0.088 H 
ATOM     15  H   LIG d   1      10.815   6.196  -6.072  0.00  0.00     0.088 H 
ATOM     16  N   LIG d   1       9.956   4.329  -5.606  0.00  0.00     0.252 N 
ATOM     17  H   LIG d   1      10.815   4.052  -5.118  0.00  0.00     0.205 HD
ENDROOT
BRANCH   1  18
ATOM     18  C   LIG d   1       8.799   2.213  -5.282  0.00  0.00     0.276 A 
ATOM     19  N   LIG d   1       7.525   2.061  -5.021  0.00  0.00    -0.186 NA
ATOM     20  C   LIG d   1       7.462   1.130  -4.043  0.00  0.00     0.202 A 
ATOM     21  N   LIG d   1       8.690   0.768  -3.777  0.00  0.00    -0.056 NA
ATOM     22  O   LIG d   1       9.467   1.380  -4.479  0.00  0.00    -0.332 OA
BRANCH  20  23
ATOM     23  C   LIG d   1       6.231   0.611  -3.398  0.00  0.00     0.023 A 
ATOM     24  C   LIG d   1       5.438   1.455  -2.624  0.00  0.00    -0.051 A 
ATOM     25  C   LIG d   1       4.294   0.966  -2.025  0.00  0.00    -0.061 A 
ATOM     26  H   LIG d   1       5.718   2.489  -2.492  0.00  0.00     0.062 H 
ATOM     27  C   LIG d   1       3.936  -0.359  -2.192  0.00  0.00    -0.059 A 
ATOM     28  H   LIG d   1       3.679   1.620  -1.425  0.00  0.00     0.062 H 
ATOM     29  C   LIG d   1       4.717  -1.200  -2.964  0.00  0.00    -0.050 A 
ATOM     30  H   LIG d   1       3.040  -0.737  -1.722  0.00  0.00     0.062 H 
ATOM     31  C   LIG d   1       5.865  -0.724  -3.562  0.00  0.00    -0.048 A 
ATOM     32  H   LIG d   1       6.476  -1.382  -4.161  0.00  0.00     0.063 H 
BRANCH  29  33
ATOM     33  C   LIG d   1       4.316  -2.641  -3.147  0.00  0.00    -0.040 C 
ATOM     34  H   LIG d   1       5.174  -3.216  -3.496  0.00  0.00     0.028 H 
ATOM     35  H   LIG d   1       3.969  -3.046  -2.196  0.00  0.00     0.028 H 
ATOM     36  H   LIG d   1       3.514  -2.705  -3.882  0.00  0.00     0.028 H 
ENDBRANCH  29  33
ENDBRANCH  20  23
ENDBRANCH   1  18
BRANCH  16  37
ATOM     37  C   LIG d   1       8.982   4.836  -4.617  0.00  0.00    -0.005 C 
ATOM     38  H   LIG d   1       8.459   5.709  -5.005  0.00  0.00     0.087 H 
ATOM     39  H   LIG d   1       8.262   4.047  -4.401  0.00  0.00     0.087 H 
BRANCH  37  40
ATOM     40  C   LIG d   1       9.713   5.209  -3.353  0.00  0.00    -0.003 A 
ATOM     41  C   LIG d   1       9.544   6.466  -2.803  0.00  0.00    -0.052 A 
ATOM     42  C   LIG d   1      10.214   6.809  -1.643  0.00  0.00    -0.043 A 
ATOM     43  H   LIG d   1       8.889   7.181  -3.279  0.00  0.00     0.062 H 
ATOM     44  C   LIG d   1      11.052   5.893  -1.033  0.00  0.00     0.041 A 
ATOM     45  H   LIG d   1      10.082   7.791  -1.213  0.00  0.00     0.063 H 
ATOM     46  C   LIG d   1      11.221   4.635  -1.583  0.00  0.00    -0.043 A 
ATOM     47 CL   LIG d   1      11.894   6.323   0.424  0.00  0.00    -0.084 Cl
ATOM     48  C   LIG d   1      10.546   4.292  -2.740  0.00  0.00    -0.052 A 
ATOM     49  H   LIG d   1      11.875   3.920  -1.107  0.00  0.00     0.063 H 
ATOM     50  H   LIG d   1      10.674   3.308  -3.168  0.00  0.00     0.062 H 
ENDBRANCH  37  40
ENDBRANCH  16  37
TORSDOF 5
ENDMDL
MODEL 8
REMARK VINA RESULT:      -6.6      4.010      5.975
REMARK  5 active torsions:
REMARK  status: ('A' for Active; 'I' for Inactive)
REMARK    1  A    between atoms: C_1  and  C_2 
REMARK    2  A    between atoms: C_6  and  C_8 
REMARK    3  A    between atoms: C_10  and  C_13 
REMARK    4  A    between atoms: C_23  and  C_24 
REMARK    5  A    between atoms: C_23  and  N_49 
ROOT
ATOM      1  C   LIG d   1       9.775   4.517  -5.865  0.00  0.00     0.066 C 
ATOM      2  H   LIG d   1       8.981   4.740  -6.577  0.00  0.00     0.096 H 
ATOM      3  C   LIG d   1      11.057   4.150  -6.627  0.00  0.00     0.043 C 
ATOM      4  C   LIG d   1      11.591   5.406  -7.266  0.00  0.00     0.073 A 
ATOM      5  C   LIG d   1      11.194   6.650  -6.912  0.00  0.00     0.084 A 
ATOM      6  N   LIG d   1      11.856   7.524  -7.669  0.00  0.00    -0.344 N 
ATOM      7  C   LIG d   1      12.651   6.873  -8.479  0.00  0.00     0.094 A 
ATOM      8  N   LIG d   1      12.512   5.546  -8.254  0.00  0.00    -0.240 NA
ATOM      9  H   LIG d   1      11.761   8.518  -7.626  0.00  0.00     0.167 HD
ATOM     10  C   LIG d   1      10.171   6.916  -5.835  0.00  0.00     0.012 C 
ATOM     11  H   LIG d   1      11.795   3.744  -5.934  0.00  0.00     0.039 H 
ATOM     12  H   LIG d   1      10.830   3.413  -7.398  0.00  0.00     0.039 H 
ATOM     13  H   LIG d   1      13.311   7.321  -9.208  0.00  0.00     0.103 H 
ATOM     14  H   LIG d   1       9.214   7.172  -6.292  0.00  0.00     0.088 H 
ATOM     15  H   LIG d   1      10.508   7.738  -5.203  0.00  0.00     0.088 H 
ATOM     16  N   LIG d   1      10.051   5.691  -5.007  0.00  0.00     0.252 N 
ATOM     17  H   LIG d   1      10.935   5.538  -4.509  0.00  0.00     0.205 HD
ENDROOT
BRANCH   1  18
ATOM     18  C   LIG d   1       9.359   3.359  -4.995  0.00  0.00     0.276 A 
ATOM     19  N   LIG d   1       8.169   2.816  -4.940  0.00  0.00    -0.186 NA
ATOM     20  C   LIG d   1       8.264   1.822  -4.029  0.00  0.00     0.202 A 
ATOM     21  N   LIG d   1       9.498   1.812  -3.596  0.00  0.00    -0.056 NA
ATOM     22  O   LIG d   1      10.137   2.688  -4.141  0.00  0.00    -0.332 OA
BRANCH  20  23
ATOM     23  C   LIG d   1       7.175   0.907  -3.605  0.00  0.00     0.023 A 
ATOM     24  C   LIG d   1       7.347  -0.473  -3.695  0.00  0.00    -0.051 A 
ATOM     25  C   LIG d   1       6.331  -1.319  -3.300  0.00  0.00    -0.061 A 
ATOM     26  H   LIG d   1       8.274  -0.879  -4.072  0.00  0.00     0.062 H 
ATOM     27  C   LIG d   1       5.143  -0.800  -2.817  0.00  0.00    -0.059 A 
ATOM     28  H   LIG d   1       6.463  -2.389  -3.369  0.00  0.00     0.062 H 
ATOM     29  C   LIG d   1       4.970   0.569  -2.721  0.00  0.00    -0.050 A 
ATOM     30  H   LIG d   1       4.351  -1.466  -2.509  0.00  0.00     0.062 H 
ATOM     31  C   LIG d   1       5.976   1.424  -3.118  0.00  0.00    -0.048 A 
ATOM     32  H   LIG d   1       5.838   2.493  -3.046  0.00  0.00     0.063 H 
BRANCH  29  33
ATOM     33  C   LIG d   1       3.675   1.127  -2.187  0.00  0.00    -0.040 C 
ATOM     34  H   LIG d   1       2.905   0.357  -2.225  0.00  0.00     0.028 H 
ATOM     35  H   LIG d   1       3.816   1.450  -1.156  0.00  0.00     0.028 H 
ATOM     36  H   LIG d   1       3.368   1.977  -2.796  0.00  0.00     0.028 H 
ENDBRANCH  29  33
ENDBRANCH  20  23
ENDBRANCH   1  18
BRANCH  16  37
ATOM     37  C   LIG d   1       8.966   5.857  -4.017  0.00  0.00    -0.005 C 
ATOM     38  H   LIG d   1       8.281   6.647  -4.327  0.00  0.00     0.087 H 
ATOM     39  H   LIG d   1       8.422   4.916  -3.936  0.00  0.00     0.087 H 
BRANCH  37  40
ATOM     40  C   LIG d   1       9.566   6.208  -2.681  0.00  0.00    -0.003 A 
ATOM     41  C   LIG d   1      10.327   5.275  -2.000  0.00  0.00    -0.052 A 
ATOM     42  C   LIG d   1      10.880   5.595  -0.774  0.00  0.00    -0.043 A 
ATOM     43  H   LIG d   1      10.490   4.296  -2.426  0.00  0.00     0.062 H 
ATOM     44  C   LIG d   1      10.672   6.850  -0.229  0.00  0.00     0.041 A 
ATOM     45  H   LIG d   1      11.473   4.867  -0.242  0.00  0.00     0.063 H 
ATOM     46  C   LIG d   1       9.910   7.783  -0.911  0.00  0.00    -0.043 A 
ATOM     47 CL   LIG d   1      11.364   7.253   1.311  0.00  0.00    -0.084 Cl
ATOM     48  C   LIG d   1       9.364   7.463  -2.139  0.00  0.00    -0.052 A 
ATOM     49  H   LIG d   1       9.747   8.762  -0.486  0.00  0.00     0.063 H 
ATOM     50  H   LIG d   1       8.773   8.193  -2.674  0.00  0.00     0.062 H 
ENDBRANCH  37  40
ENDBRANCH  16  37
TORSDOF 5
ENDMDL
MODEL 9
REMARK VINA RESULT:      -6.6      3.102      4.362
REMARK  5 active torsions:
REMARK  status: ('A' for Active; 'I' for Inactive)
REMARK    1  A    between atoms: C_1  and  C_2 
REMARK    2  A    between atoms: C_6  and  C_8 
REMARK    3  A    between atoms: C_10  and  C_13 
REMARK    4  A    between atoms: C_23  and  C_24 
REMARK    5  A    between atoms: C_23  and  N_49 
ROOT
ATOM      1  C   LIG d   1      10.490   0.687  -5.555  0.00  0.00     0.066 C 
ATOM      2  H   LIG d   1      10.353  -0.297  -6.004  0.00  0.00     0.096 H 
ATOM      3  C   LIG d   1      11.718   0.663  -4.635  0.00  0.00     0.043 C 
ATOM      4  C   LIG d   1      12.946   0.573  -5.504  0.00  0.00     0.073 A 
ATOM      5  C   LIG d   1      12.940   0.832  -6.832  0.00  0.00     0.084 A 
ATOM      6  N   LIG d   1      14.179   0.657  -7.290  0.00  0.00    -0.344 N 
ATOM      7  C   LIG d   1      14.957   0.301  -6.300  0.00  0.00     0.094 A 
ATOM      8  N   LIG d   1      14.218   0.239  -5.167  0.00  0.00    -0.240 NA
ATOM      9  H   LIG d   1      14.470   0.779  -8.239  0.00  0.00     0.167 HD
ATOM     10  C   LIG d   1      11.701   1.243  -7.589  0.00  0.00     0.012 C 
ATOM     11  H   LIG d   1      11.752   1.577  -4.040  0.00  0.00     0.039 H 
ATOM     12  H   LIG d   1      11.670  -0.204  -3.976  0.00  0.00     0.039 H 
ATOM     13  H   LIG d   1      16.014   0.091  -6.374  0.00  0.00     0.103 H 
ATOM     14  H   LIG d   1      11.319   0.394  -8.157  0.00  0.00     0.088 H 
ATOM     15  H   LIG d   1      11.940   2.061  -8.268  0.00  0.00     0.088 H 
ATOM     16  N   LIG d   1      10.698   1.712  -6.602  0.00  0.00     0.252 N 
ATOM     17  H   LIG d   1      11.044   2.572  -6.161  0.00  0.00     0.205 HD
ENDROOT
BRANCH   1  18
ATOM     18  C   LIG d   1       9.267   1.046  -4.751  0.00  0.00     0.276 A 
ATOM     19  N   LIG d   1       8.233   0.276  -4.521  0.00  0.00    -0.186 NA
ATOM     20  C   LIG d   1       7.390   1.015  -3.765  0.00  0.00     0.202 A 
ATOM     21  N   LIG d   1       7.961   2.176  -3.573  0.00  0.00    -0.056 NA
ATOM     22  O   LIG d   1       9.037   2.208  -4.133  0.00  0.00    -0.332 OA
BRANCH  20  23
ATOM     23  C   LIG d   1       6.069   0.587  -3.243  0.00  0.00     0.023 A 
ATOM     24  C   LIG d   1       5.186   1.528  -2.717  0.00  0.00    -0.051 A 
ATOM     25  C   LIG d   1       3.959   1.123  -2.232  0.00  0.00    -0.061 A 
ATOM     26  H   LIG d   1       5.462   2.571  -2.689  0.00  0.00     0.062 H 
ATOM     27  C   LIG d   1       3.605  -0.213  -2.267  0.00  0.00    -0.059 A 
ATOM     28  H   LIG d   1       3.274   1.853  -1.824  0.00  0.00     0.062 H 
ATOM     29  C   LIG d   1       4.474  -1.151  -2.794  0.00  0.00    -0.050 A 
ATOM     30  H   LIG d   1       2.643  -0.525  -1.887  0.00  0.00     0.062 H 
ATOM     31  C   LIG d   1       5.706  -0.759  -3.276  0.00  0.00    -0.048 A 
ATOM     32  H   LIG d   1       6.387  -1.492  -3.682  0.00  0.00     0.063 H 
BRANCH  29  33
ATOM     33  C   LIG d   1       4.079  -2.604  -2.834  0.00  0.00    -0.040 C 
ATOM     34  H   LIG d   1       3.383  -2.814  -2.022  0.00  0.00     0.028 H 
ATOM     35  H   LIG d   1       3.600  -2.825  -3.788  0.00  0.00     0.028 H 
ATOM     36  H   LIG d   1       4.967  -3.226  -2.720  0.00  0.00     0.028 H 
ENDBRANCH  29  33
ENDBRANCH  20  23
ENDBRANCH   1  18
BRANCH  16  37
ATOM     37  C   LIG d   1       9.419   2.003  -7.284  0.00  0.00    -0.005 C 
ATOM     38  H   LIG d   1       9.297   1.365  -8.159  0.00  0.00     0.087 H 
ATOM     39  H   LIG d   1       8.603   1.821  -6.585  0.00  0.00     0.087 H 
BRANCH  37  40
ATOM     40  C   LIG d   1       9.405   3.448  -7.709  0.00  0.00    -0.003 A 
ATOM     41  C   LIG d   1       8.872   3.802  -8.935  0.00  0.00    -0.052 A 
ATOM     42  C   LIG d   1       8.857   5.128  -9.326  0.00  0.00    -0.043 A 
ATOM     43  H   LIG d   1       8.466   3.043  -9.587  0.00  0.00     0.062 H 
ATOM     44  C   LIG d   1       9.376   6.101  -8.489  0.00  0.00     0.041 A 
ATOM     45  H   LIG d   1       8.441   5.405 -10.283  0.00  0.00     0.063 H 
ATOM     46  C   LIG d   1       9.910   5.746  -7.263  0.00  0.00    -0.043 A 
ATOM     47 CL   LIG d   1       9.359   7.767  -8.980  0.00  0.00    -0.084 Cl
ATOM     48  C   LIG d   1       9.918   4.421  -6.872  0.00  0.00    -0.052 A 
ATOM     49  H   LIG d   1      10.315   6.505  -6.610  0.00  0.00     0.063 H 
ATOM     50  H   LIG d   1      10.330   4.144  -5.912  0.00  0.00     0.062 H 
ENDBRANCH  37  40
ENDBRANCH  16  37
TORSDOF 5
ENDMDL
MODEL 10
REMARK VINA RESULT:      -6.4      4.001      7.787
REMARK  5 active torsions:
REMARK  status: ('A' for Active; 'I' for Inactive)
REMARK    1  A    between atoms: C_1  and  C_2 
REMARK    2  A    between atoms: C_6  and  C_8 
REMARK    3  A    between atoms: C_10  and  C_13 
REMARK    4  A    between atoms: C_23  and  C_24 
REMARK    5  A    between atoms: C_23  and  N_49 
ROOT
ATOM      1  C   LIG d   1       3.852  -0.383  -6.173  0.00  0.00     0.066 C 
ATOM      2  H   LIG d   1       3.780  -1.449  -5.963  0.00  0.00     0.096 H 
ATOM      3  C   LIG d   1       3.020   0.399  -5.147  0.00  0.00     0.043 C 
ATOM      4  C   LIG d   1       3.728   0.320  -3.819  0.00  0.00     0.073 A 
ATOM      5  C   LIG d   1       5.019  -0.062  -3.684  0.00  0.00     0.084 A 
ATOM      6  N   LIG d   1       5.325  -0.023  -2.387  0.00  0.00    -0.344 N 
ATOM      7  C   LIG d   1       4.277   0.370  -1.711  0.00  0.00     0.094 A 
ATOM      8  N   LIG d   1       3.259   0.594  -2.575  0.00  0.00    -0.240 NA
ATOM      9  H   LIG d   1       6.214  -0.256  -1.994  0.00  0.00     0.167 HD
ATOM     10  C   LIG d   1       5.893  -0.450  -4.851  0.00  0.00     0.012 C 
ATOM     11  H   LIG d   1       2.932   1.441  -5.458  0.00  0.00     0.039 H 
ATOM     12  H   LIG d   1       2.028  -0.045  -5.061  0.00  0.00     0.039 H 
ATOM     13  H   LIG d   1       4.231   0.495  -0.638  0.00  0.00     0.103 H 
ATOM     14  H   LIG d   1       5.992  -1.535  -4.891  0.00  0.00     0.088 H 
ATOM     15  H   LIG d   1       6.877   0.004  -4.740  0.00  0.00     0.088 H 
ATOM     16  N   LIG d   1       5.259   0.070  -6.088  0.00  0.00     0.252 N 
ATOM     17  H   LIG d   1       5.278   1.096  -6.065  0.00  0.00     0.205 HD
ENDROOT
BRANCH   1  18
ATOM     18  C   LIG d   1       3.330  -0.107  -7.559  0.00  0.00     0.276 A 
ATOM     19  N   LIG d   1       3.164  -0.984  -8.517  0.00  0.00    -0.186 NA
ATOM     20  C   LIG d   1       2.681  -0.287  -9.570  0.00  0.00     0.202 A 
ATOM     21  N   LIG d   1       2.573   0.960  -9.189  0.00  0.00    -0.056 NA
ATOM     22  O   LIG d   1       2.942   1.078  -8.040  0.00  0.00    -0.332 OA
BRANCH  20  23
ATOM     23  C   LIG d   1       2.331  -0.834 -10.904  0.00  0.00     0.023 A 
ATOM     24  C   LIG d   1       1.044  -1.307 -11.149  0.00  0.00    -0.051 A 
ATOM     25  C   LIG d   1       0.723  -1.816 -12.392  0.00  0.00    -0.061 A 
ATOM     26  H   LIG d   1       0.298  -1.276 -10.369  0.00  0.00     0.062 H 
ATOM     27  C   LIG d   1       1.678  -1.858 -13.391  0.00  0.00    -0.059 A 
ATOM     28  H   LIG d   1      -0.275  -2.183 -12.583  0.00  0.00     0.062 H 
ATOM     29  C   LIG d   1       2.956  -1.384 -13.155  0.00  0.00    -0.050 A 
ATOM     30  H   LIG d   1       1.423  -2.256 -14.362  0.00  0.00     0.062 H 
ATOM     31  C   LIG d   1       3.288  -0.879 -11.915  0.00  0.00    -0.048 A 
ATOM     32  H   LIG d   1       4.288  -0.513 -11.730  0.00  0.00     0.063 H 
BRANCH  29  33
ATOM     33  C   LIG d   1       3.988  -1.427 -14.252  0.00  0.00    -0.040 C 
ATOM     34  H   LIG d   1       4.815  -0.763 -13.999  0.00  0.00     0.028 H 
ATOM     35  H   LIG d   1       4.361  -2.445 -14.361  0.00  0.00     0.028 H 
ATOM     36  H   LIG d   1       3.536  -1.102 -15.189  0.00  0.00     0.028 H 
ENDBRANCH  29  33
ENDBRANCH  20  23
ENDBRANCH   1  18
BRANCH  16  37
ATOM     37  C   LIG d   1       6.011  -0.397  -7.272  0.00  0.00    -0.005 C 
ATOM     38  H   LIG d   1       6.601  -1.280  -7.029  0.00  0.00     0.087 H 
ATOM     39  H   LIG d   1       5.300  -0.643  -8.061  0.00  0.00     0.087 H 
BRANCH  37  40
ATOM     40  C   LIG d   1       6.924   0.705  -7.743  0.00  0.00    -0.003 A 
ATOM     41  C   LIG d   1       8.219   0.781  -7.263  0.00  0.00    -0.052 A 
ATOM     42  C   LIG d   1       9.058   1.791  -7.695  0.00  0.00    -0.043 A 
ATOM     43  H   LIG d   1       8.575   0.051  -6.552  0.00  0.00     0.062 H 
ATOM     44  C   LIG d   1       8.601   2.726  -8.607  0.00  0.00     0.041 A 
ATOM     45  H   LIG d   1      10.069   1.851  -7.321  0.00  0.00     0.063 H 
ATOM     46  C   LIG d   1       7.305   2.650  -9.086  0.00  0.00    -0.043 A 
ATOM     47 CL   LIG d   1       9.654   3.996  -9.149  0.00  0.00    -0.084 Cl
ATOM     48  C   LIG d   1       6.470   1.635  -8.658  0.00  0.00    -0.052 A 
ATOM     49  H   LIG d   1       6.948   3.380  -9.798  0.00  0.00     0.063 H 
ATOM     50  H   LIG d   1       5.459   1.573  -9.035  0.00  0.00     0.062 H 
ENDBRANCH  37  40
ENDBRANCH  16  37
TORSDOF 5
ENDMDL
