MODEL 1
REMARK VINA RESULT:      -5.4      0.000      0.000
REMARK  5 active torsions:
REMARK  status: ('A' for Active; 'I' for Inactive)
REMARK    1  A    between atoms: C_1  and  O_2 
REMARK    2  A    between atoms: O_2  and  C_3 
REMARK    3  A    between atoms: C_8  and  O_9 
REMARK    4  A    between atoms: C_12  and  C_15 
REMARK    5  A    between atoms: C_18  and  O_21 
ROOT
ATOM      1  C   LIG d   1       4.531  -1.725  -3.693  0.00  0.00     0.162 A 
ATOM      2  C   LIG d   1       5.114  -0.492  -3.490  0.00  0.00    -0.002 A 
ATOM      3  C   LIG d   1       6.406  -0.254  -3.961  0.00  0.00     0.068 A 
ATOM      4  C   LIG d   1       7.114  -1.261  -4.639  0.00  0.00     0.142 A 
ATOM      5  C   LIG d   1       6.514  -2.498  -4.835  0.00  0.00     0.026 A 
ATOM      6  C   LIG d   1       5.233  -2.729  -4.366  0.00  0.00     0.162 A 
ATOM      7  O   LIG d   1       8.362  -1.027  -5.093  0.00  0.00    -0.462 OA
ATOM      8  C   LIG d   1       8.991   0.140  -4.937  0.00  0.00     0.104 A 
ATOM      9  C   LIG d   1       8.424   1.198  -4.301  0.00  0.00     0.064 A 
ATOM     10  C   LIG d   1       7.061   1.052  -3.764  0.00  0.00     0.200 A 
ATOM     11  O   LIG d   1       6.502   1.967  -3.185  0.00  0.00    -0.286 OA
ATOM     12  H   LIG d   1       4.573   0.285  -2.969  0.00  0.00     0.066 H 
ATOM     13  H   LIG d   1       7.048  -3.280  -5.354  0.00  0.00     0.069 H 
ATOM     14  H   LIG d   1       9.990   0.248  -5.334  0.00  0.00     0.104 H 
ENDROOT
BRANCH   9  15
ATOM     15  C   LIG d   1       9.165   2.475  -4.150  0.00  0.00    -0.011 A 
ATOM     16  C   LIG d   1      10.014   2.666  -3.062  0.00  0.00    -0.050 A 
ATOM     17  C   LIG d   1      10.699   3.854  -2.925  0.00  0.00    -0.020 A 
ATOM     18  H   LIG d   1      10.134   1.884  -2.327  0.00  0.00     0.062 H 
ATOM     19  C   LIG d   1      10.545   4.859  -3.869  0.00  0.00     0.117 A 
ATOM     20  H   LIG d   1      11.358   4.004  -2.082  0.00  0.00     0.065 H 
ATOM     21  C   LIG d   1       9.701   4.673  -4.955  0.00  0.00    -0.020 A 
ATOM     22  C   LIG d   1       9.016   3.483  -5.101  0.00  0.00    -0.050 A 
ATOM     23  H   LIG d   1       9.583   5.456  -5.689  0.00  0.00     0.065 H 
ATOM     24  H   LIG d   1       8.363   3.336  -5.948  0.00  0.00     0.062 H 
BRANCH  19  25
ATOM     25  O   LIG d   1      11.223   6.030  -3.731  0.00  0.00    -0.507 OA
ATOM     26  H   LIG d   1      11.270   6.526  -2.751  0.00  0.00     0.292 HD
ENDBRANCH  19  25
ENDBRANCH   9  15
BRANCH   1  27
ATOM     27  O   LIG d   1       3.272  -1.966  -3.236  0.00  0.00    -0.491 OA
BRANCH  27  28
ATOM     28  C   LIG d   1       2.418  -0.835  -3.062  0.00  0.00     0.079 C 
ATOM     29  H   LIG d   1       1.997  -0.845  -2.046  0.00  0.00     0.066 H 
ATOM     30  H   LIG d   1       1.601  -0.877  -3.797  0.00  0.00     0.066 H 
ATOM     31  H   LIG d   1       2.997   0.089  -3.210  0.00  0.00     0.066 H 
ENDBRANCH  27  28
ENDBRANCH   1  27
BRANCH   6  32
ATOM     32  O   LIG d   1       4.653  -3.941  -4.562  0.00  0.00    -0.503 OA
ATOM     33  H   LIG d   1       5.276  -4.820  -4.784  0.00  0.00     0.292 HD
ENDBRANCH   6  32
TORSDOF 5
ENDMDL
MODEL 2
REMARK VINA RESULT:      -5.2      6.365      7.876
REMARK  5 active torsions:
REMARK  status: ('A' for Active; 'I' for Inactive)
REMARK    1  A    between atoms: C_1  and  O_2 
REMARK    2  A    between atoms: O_2  and  C_3 
REMARK    3  A    between atoms: C_8  and  O_9 
REMARK    4  A    between atoms: C_12  and  C_15 
REMARK    5  A    between atoms: C_18  and  O_21 
ROOT
ATOM      1  C   LIG d   1      10.228   6.253  -1.361  0.00  0.00     0.162 A 
ATOM      2  C   LIG d   1       9.768   6.596  -2.614  0.00  0.00    -0.002 A 
ATOM      3  C   LIG d   1      10.133   5.825  -3.719  0.00  0.00     0.068 A 
ATOM      4  C   LIG d   1      10.965   4.703  -3.559  0.00  0.00     0.142 A 
ATOM      5  C   LIG d   1      11.421   4.370  -2.290  0.00  0.00     0.026 A 
ATOM      6  C   LIG d   1      11.056   5.139  -1.199  0.00  0.00     0.162 A 
ATOM      7  O   LIG d   1      11.315   3.959  -4.628  0.00  0.00    -0.462 OA
ATOM      8  C   LIG d   1      10.910   4.226  -5.871  0.00  0.00     0.104 A 
ATOM      9  C   LIG d   1      10.105   5.279  -6.168  0.00  0.00     0.064 A 
ATOM     10  C   LIG d   1       9.661   6.160  -5.074  0.00  0.00     0.200 A 
ATOM     11  O   LIG d   1       8.938   7.119  -5.280  0.00  0.00    -0.286 OA
ATOM     12  H   LIG d   1       9.129   7.458  -2.742  0.00  0.00     0.066 H 
ATOM     13  H   LIG d   1      12.061   3.510  -2.155  0.00  0.00     0.069 H 
ATOM     14  H   LIG d   1      11.232   3.578  -6.673  0.00  0.00     0.104 H 
ENDROOT
BRANCH   9  15
ATOM     15  C   LIG d   1       9.682   5.537  -7.566  0.00  0.00    -0.011 A 
ATOM     16  C   LIG d   1       9.676   6.838  -8.066  0.00  0.00    -0.050 A 
ATOM     17  C   LIG d   1       9.281   7.074  -9.365  0.00  0.00    -0.020 A 
ATOM     18  H   LIG d   1       9.980   7.661  -7.435  0.00  0.00     0.062 H 
ATOM     19  C   LIG d   1       8.890   6.018 -10.177  0.00  0.00     0.117 A 
ATOM     20  H   LIG d   1       9.277   8.082  -9.754  0.00  0.00     0.065 H 
ATOM     21  C   LIG d   1       8.895   4.721  -9.683  0.00  0.00    -0.020 A 
ATOM     22  C   LIG d   1       9.295   4.477  -8.385  0.00  0.00    -0.050 A 
ATOM     23  H   LIG d   1       8.591   3.901 -10.316  0.00  0.00     0.065 H 
ATOM     24  H   LIG d   1       9.303   3.467  -8.002  0.00  0.00     0.062 H 
BRANCH  19  25
ATOM     25  O   LIG d   1       8.502   6.254 -11.458  0.00  0.00    -0.507 OA
ATOM     26  H   LIG d   1       8.280   7.280 -11.785  0.00  0.00     0.292 HD
ENDBRANCH  19  25
ENDBRANCH   9  15
BRANCH   1  27
ATOM     27  O   LIG d   1       9.877   7.001  -0.279  0.00  0.00    -0.491 OA
BRANCH  27  28
ATOM     28  C   LIG d   1      10.115   8.407  -0.358  0.00  0.00     0.079 C 
ATOM     29  H   LIG d   1       9.700   8.798  -1.299  0.00  0.00     0.066 H 
ATOM     30  H   LIG d   1      11.198   8.597  -0.327  0.00  0.00     0.066 H 
ATOM     31  H   LIG d   1       9.631   8.910   0.493  0.00  0.00     0.066 H 
ENDBRANCH  27  28
ENDBRANCH   1  27
BRANCH   6  32
ATOM     32  O   LIG d   1      11.504   4.807   0.038  0.00  0.00    -0.503 OA
ATOM     33  H   LIG d   1      10.954   4.072   0.645  0.00  0.00     0.292 HD
ENDBRANCH   6  32
TORSDOF 5
ENDMDL
MODEL 3
REMARK VINA RESULT:      -5.2      4.508      6.414
REMARK  5 active torsions:
REMARK  status: ('A' for Active; 'I' for Inactive)
REMARK    1  A    between atoms: C_1  and  O_2 
REMARK    2  A    between atoms: O_2  and  C_3 
REMARK    3  A    between atoms: C_8  and  O_9 
REMARK    4  A    between atoms: C_12  and  C_15 
REMARK    5  A    between atoms: C_18  and  O_21 
ROOT
ATOM      1  C   LIG d   1       3.197  -1.898 -10.554  0.00  0.00     0.162 A 
ATOM      2  C   LIG d   1       3.273  -1.089  -9.440  0.00  0.00    -0.002 A 
ATOM      3  C   LIG d   1       3.756  -1.611  -8.239  0.00  0.00     0.068 A 
ATOM      4  C   LIG d   1       4.166  -2.953  -8.160  0.00  0.00     0.142 A 
ATOM      5  C   LIG d   1       4.083  -3.756  -9.290  0.00  0.00     0.026 A 
ATOM      6  C   LIG d   1       3.603  -3.234 -10.478  0.00  0.00     0.162 A 
ATOM      7  O   LIG d   1       4.633  -3.454  -6.998  0.00  0.00    -0.462 OA
ATOM      8  C   LIG d   1       4.737  -2.733  -5.879  0.00  0.00     0.104 A 
ATOM      9  C   LIG d   1       4.377  -1.425  -5.815  0.00  0.00     0.064 A 
ATOM     10  C   LIG d   1       3.852  -0.776  -7.028  0.00  0.00     0.200 A 
ATOM     11  O   LIG d   1       3.515   0.395  -7.030  0.00  0.00    -0.286 OA
ATOM     12  H   LIG d   1       2.959  -0.056  -9.496  0.00  0.00     0.066 H 
ATOM     13  H   LIG d   1       4.394  -4.789  -9.242  0.00  0.00     0.069 H 
ATOM     14  H   LIG d   1       5.126  -3.209  -4.991  0.00  0.00     0.104 H 
ENDROOT
BRANCH   9  15
ATOM     15  C   LIG d   1       4.510  -0.666  -4.547  0.00  0.00    -0.011 A 
ATOM     16  C   LIG d   1       5.712  -0.035  -4.233  0.00  0.00    -0.050 A 
ATOM     17  C   LIG d   1       5.831   0.669  -3.053  0.00  0.00    -0.020 A 
ATOM     18  H   LIG d   1       6.549  -0.098  -4.913  0.00  0.00     0.062 H 
ATOM     19  C   LIG d   1       4.756   0.750  -2.180  0.00  0.00     0.117 A 
ATOM     20  H   LIG d   1       6.762   1.159  -2.809  0.00  0.00     0.065 H 
ATOM     21  C   LIG d   1       3.557   0.123  -2.489  0.00  0.00    -0.020 A 
ATOM     22  C   LIG d   1       3.429  -0.578  -3.671  0.00  0.00    -0.050 A 
ATOM     23  H   LIG d   1       2.722   0.189  -1.808  0.00  0.00     0.065 H 
ATOM     24  H   LIG d   1       2.495  -1.062  -3.914  0.00  0.00     0.062 H 
BRANCH  19  25
ATOM     25  O   LIG d   1       4.877   1.446  -1.018  0.00  0.00    -0.507 OA
ATOM     26  H   LIG d   1       4.200   1.234  -0.177  0.00  0.00     0.292 HD
ENDBRANCH  19  25
ENDBRANCH   9  15
BRANCH   1  27
ATOM     27  O   LIG d   1       2.726  -1.397 -11.728  0.00  0.00    -0.491 OA
BRANCH  27  28
ATOM     28  C   LIG d   1       1.313  -1.220 -11.837  0.00  0.00     0.079 C 
ATOM     29  H   LIG d   1       1.090  -0.558 -12.687  0.00  0.00     0.066 H 
ATOM     30  H   LIG d   1       0.928  -0.769 -10.911  0.00  0.00     0.066 H 
ATOM     31  H   LIG d   1       0.832  -2.196 -11.997  0.00  0.00     0.066 H 
ENDBRANCH  27  28
ENDBRANCH   1  27
BRANCH   6  32
ATOM     32  O   LIG d   1       3.526  -4.024 -11.579  0.00  0.00    -0.503 OA
ATOM     33  H   LIG d   1       4.400  -4.141 -12.236  0.00  0.00     0.292 HD
ENDBRANCH   6  32
TORSDOF 5
ENDMDL
MODEL 4
REMARK VINA RESULT:      -5.1      6.721      9.277
REMARK  5 active torsions:
REMARK  status: ('A' for Active; 'I' for Inactive)
REMARK    1  A    between atoms: C_1  and  O_2 
REMARK    2  A    between atoms: O_2  and  C_3 
REMARK    3  A    between atoms: C_8  and  O_9 
REMARK    4  A    between atoms: C_12  and  C_15 
REMARK    5  A    between atoms: C_18  and  O_21 
ROOT
ATOM      1  C   LIG d   1      11.849   7.803   0.179  0.00  0.00     0.162 A 
ATOM      2  C   LIG d   1      11.722   8.248  -1.120  0.00  0.00    -0.002 A 
ATOM      3  C   LIG d   1      10.996   7.490  -2.040  0.00  0.00     0.068 A 
ATOM      4  C   LIG d   1      10.396   6.280  -1.651  0.00  0.00     0.142 A 
ATOM      5  C   LIG d   1      10.534   5.845  -0.339  0.00  0.00     0.026 A 
ATOM      6  C   LIG d   1      11.254   6.600   0.569  0.00  0.00     0.162 A 
ATOM      7  O   LIG d   1       9.695   5.551  -2.543  0.00  0.00    -0.462 OA
ATOM      8  C   LIG d   1       9.526   5.916  -3.816  0.00  0.00     0.104 A 
ATOM      9  C   LIG d   1      10.051   7.060  -4.325  0.00  0.00     0.064 A 
ATOM     10  C   LIG d   1      10.837   7.934  -3.437  0.00  0.00     0.200 A 
ATOM     11  O   LIG d   1      11.331   8.973  -3.838  0.00  0.00    -0.286 OA
ATOM     12  H   LIG d   1      12.181   9.177  -1.424  0.00  0.00     0.066 H 
ATOM     13  H   LIG d   1      10.078   4.917  -0.028  0.00  0.00     0.069 H 
ATOM     14  H   LIG d   1       8.947   5.277  -4.466  0.00  0.00     0.104 H 
ENDROOT
BRANCH   9  15
ATOM     15  C   LIG d   1       9.838   7.422  -5.748  0.00  0.00    -0.011 A 
ATOM     16  C   LIG d   1      10.080   6.487  -6.751  0.00  0.00    -0.050 A 
ATOM     17  C   LIG d   1       9.882   6.827  -8.073  0.00  0.00    -0.020 A 
ATOM     18  H   LIG d   1      10.424   5.495  -6.494  0.00  0.00     0.062 H 
ATOM     19  C   LIG d   1       9.440   8.101  -8.404  0.00  0.00     0.117 A 
ATOM     20  H   LIG d   1      10.069   6.102  -8.851  0.00  0.00     0.065 H 
ATOM     21  C   LIG d   1       9.198   9.035  -7.407  0.00  0.00    -0.020 A 
ATOM     22  C   LIG d   1       9.389   8.699  -6.083  0.00  0.00    -0.050 A 
ATOM     23  H   LIG d   1       8.854  10.026  -7.668  0.00  0.00     0.065 H 
ATOM     24  H   LIG d   1       9.196   9.425  -5.307  0.00  0.00     0.062 H 
BRANCH  19  25
ATOM     25  O   LIG d   1       9.245   8.433  -9.707  0.00  0.00    -0.507 OA
ATOM     26  H   LIG d   1       9.254   9.490 -10.013  0.00  0.00     0.292 HD
ENDBRANCH  19  25
ENDBRANCH   9  15
BRANCH   1  27
ATOM     27  O   LIG d   1      12.555   8.536   1.082  0.00  0.00    -0.491 OA
BRANCH  27  28
ATOM     28  C   LIG d   1      11.910   9.685   1.633  0.00  0.00     0.079 C 
ATOM     29  H   LIG d   1      11.579   9.465   2.658  0.00  0.00     0.066 H 
ATOM     30  H   LIG d   1      11.038   9.946   1.015  0.00  0.00     0.066 H 
ATOM     31  H   LIG d   1      12.614  10.530   1.648  0.00  0.00     0.066 H 
ENDBRANCH  27  28
ENDBRANCH   1  27
BRANCH   6  32
ATOM     32  O   LIG d   1      11.384   6.168   1.850  0.00  0.00    -0.503 OA
ATOM     33  H   LIG d   1      12.205   5.489   2.122  0.00  0.00     0.292 HD
ENDBRANCH   6  32
TORSDOF 5
ENDMDL
MODEL 5
REMARK VINA RESULT:      -5.0      4.459      6.650
REMARK  5 active torsions:
REMARK  status: ('A' for Active; 'I' for Inactive)
REMARK    1  A    between atoms: C_1  and  O_2 
REMARK    2  A    between atoms: O_2  and  C_3 
REMARK    3  A    between atoms: C_8  and  O_9 
REMARK    4  A    between atoms: C_12  and  C_15 
REMARK    5  A    between atoms: C_18  and  O_21 
ROOT
ATOM      1  C   LIG d   1       9.452   2.702  -5.123  0.00  0.00     0.162 A 
ATOM      2  C   LIG d   1       9.279   4.052  -4.904  0.00  0.00    -0.002 A 
ATOM      3  C   LIG d   1       9.769   4.629  -3.731  0.00  0.00     0.068 A 
ATOM      4  C   LIG d   1      10.436   3.843  -2.776  0.00  0.00     0.142 A 
ATOM      5  C   LIG d   1      10.601   2.484  -3.010  0.00  0.00     0.026 A 
ATOM      6  C   LIG d   1      10.114   1.918  -4.174  0.00  0.00     0.162 A 
ATOM      7  O   LIG d   1      10.908   4.404  -1.644  0.00  0.00    -0.462 OA
ATOM      8  C   LIG d   1      10.781   5.702  -1.361  0.00  0.00     0.104 A 
ATOM      9  C   LIG d   1      10.159   6.575  -2.195  0.00  0.00     0.064 A 
ATOM     10  C   LIG d   1       9.604   6.069  -3.462  0.00  0.00     0.200 A 
ATOM     11  O   LIG d   1       9.036   6.806  -4.250  0.00  0.00    -0.286 OA
ATOM     12  H   LIG d   1       8.768   4.661  -5.636  0.00  0.00     0.066 H 
ATOM     13  H   LIG d   1      11.112   1.869  -2.283  0.00  0.00     0.069 H 
ATOM     14  H   LIG d   1      11.191   6.074  -0.434  0.00  0.00     0.104 H 
ENDROOT
BRANCH   9  15
ATOM     15  C   LIG d   1      10.040   8.010  -1.837  0.00  0.00    -0.011 A 
ATOM     16  C   LIG d   1       8.999   8.442  -1.019  0.00  0.00    -0.050 A 
ATOM     17  C   LIG d   1       8.891   9.776  -0.688  0.00  0.00    -0.020 A 
ATOM     18  H   LIG d   1       8.276   7.732  -0.644  0.00  0.00     0.062 H 
ATOM     19  C   LIG d   1       9.820  10.689  -1.169  0.00  0.00     0.117 A 
ATOM     20  H   LIG d   1       8.084  10.113  -0.054  0.00  0.00     0.065 H 
ATOM     21  C   LIG d   1      10.859  10.262  -1.984  0.00  0.00    -0.020 A 
ATOM     22  C   LIG d   1      10.976   8.927  -2.313  0.00  0.00    -0.050 A 
ATOM     23  H   LIG d   1      11.581  10.974  -2.356  0.00  0.00     0.065 H 
ATOM     24  H   LIG d   1      11.787   8.595  -2.944  0.00  0.00     0.062 H 
BRANCH  19  25
ATOM     25  O   LIG d   1       9.712  12.004  -0.841  0.00  0.00    -0.507 OA
ATOM     26  H   LIG d   1       9.440  12.742  -1.610  0.00  0.00     0.292 HD
ENDBRANCH  19  25
ENDBRANCH   9  15
BRANCH   1  27
ATOM     27  O   LIG d   1       8.977   2.132  -6.264  0.00  0.00    -0.491 OA
BRANCH  27  28
ATOM     28  C   LIG d   1       9.656   2.451  -7.480  0.00  0.00     0.079 C 
ATOM     29  H   LIG d   1      10.507   3.113  -7.263  0.00  0.00     0.066 H 
ATOM     30  H   LIG d   1       8.961   2.960  -8.164  0.00  0.00     0.066 H 
ATOM     31  H   LIG d   1      10.021   1.526  -7.950  0.00  0.00     0.066 H 
ENDBRANCH  27  28
ENDBRANCH   1  27
BRANCH   6  32
ATOM     32  O   LIG d   1      10.281   0.589  -4.397  0.00  0.00    -0.503 OA
ATOM     33  H   LIG d   1       9.816   0.115  -5.275  0.00  0.00     0.292 HD
ENDBRANCH   6  32
TORSDOF 5
ENDMDL
MODEL 6
REMARK VINA RESULT:      -5.0      7.127      9.710
REMARK  5 active torsions:
REMARK  status: ('A' for Active; 'I' for Inactive)
REMARK    1  A    between atoms: C_1  and  O_2 
REMARK    2  A    between atoms: O_2  and  C_3 
REMARK    3  A    between atoms: C_8  and  O_9 
REMARK    4  A    between atoms: C_12  and  C_15 
REMARK    5  A    between atoms: C_18  and  O_21 
ROOT
ATOM      1  C   LIG d   1       9.910   9.998  -7.207  0.00  0.00     0.162 A 
ATOM      2  C   LIG d   1      10.270   9.934  -5.878  0.00  0.00    -0.002 A 
ATOM      3  C   LIG d   1      10.026   8.767  -5.152  0.00  0.00     0.068 A 
ATOM      4  C   LIG d   1       9.418   7.660  -5.769  0.00  0.00     0.142 A 
ATOM      5  C   LIG d   1       9.060   7.740  -7.108  0.00  0.00     0.026 A 
ATOM      6  C   LIG d   1       9.304   8.899  -7.822  0.00  0.00     0.162 A 
ATOM      7  O   LIG d   1       9.184   6.533  -5.065  0.00  0.00    -0.462 OA
ATOM      8  C   LIG d   1       9.505   6.394  -3.777  0.00  0.00     0.104 A 
ATOM      9  C   LIG d   1      10.097   7.384  -3.059  0.00  0.00     0.064 A 
ATOM     10  C   LIG d   1      10.398   8.661  -3.730  0.00  0.00     0.200 A 
ATOM     11  O   LIG d   1      10.929   9.584  -3.137  0.00  0.00    -0.286 OA
ATOM     12  H   LIG d   1      10.737  10.783  -5.400  0.00  0.00     0.066 H 
ATOM     13  H   LIG d   1       8.592   6.896  -7.593  0.00  0.00     0.069 H 
ATOM     14  H   LIG d   1       9.288   5.457  -3.286  0.00  0.00     0.104 H 
ENDROOT
BRANCH   9  15
ATOM     15  C   LIG d   1      10.433   7.184  -1.629  0.00  0.00    -0.011 A 
ATOM     16  C   LIG d   1      10.389   8.258  -0.743  0.00  0.00    -0.050 A 
ATOM     17  C   LIG d   1      10.703   8.069   0.586  0.00  0.00    -0.020 A 
ATOM     18  H   LIG d   1      10.109   9.240  -1.098  0.00  0.00     0.062 H 
ATOM     19  C   LIG d   1      11.062   6.808   1.043  0.00  0.00     0.117 A 
ATOM     20  H   LIG d   1      10.668   8.901   1.274  0.00  0.00     0.065 H 
ATOM     21  C   LIG d   1      11.108   5.735   0.164  0.00  0.00    -0.020 A 
ATOM     22  C   LIG d   1      10.789   5.917  -1.166  0.00  0.00    -0.050 A 
ATOM     23  H   LIG d   1      11.388   4.755   0.522  0.00  0.00     0.065 H 
ATOM     24  H   LIG d   1      10.820   5.081  -1.849  0.00  0.00     0.062 H 
BRANCH  19  25
ATOM     25  O   LIG d   1      11.371   6.624   2.354  0.00  0.00    -0.507 OA
ATOM     26  H   LIG d   1      12.406   6.761   2.700  0.00  0.00     0.292 HD
ENDBRANCH  19  25
ENDBRANCH   9  15
BRANCH   1  27
ATOM     27  O   LIG d   1      10.143  11.133  -7.921  0.00  0.00    -0.491 OA
BRANCH  27  28
ATOM     28  C   LIG d   1       9.813  12.373  -7.294  0.00  0.00     0.079 C 
ATOM     29  H   LIG d   1       8.819  12.702  -7.630  0.00  0.00     0.066 H 
ATOM     30  H   LIG d   1      10.562  13.132  -7.566  0.00  0.00     0.066 H 
ATOM     31  H   LIG d   1       9.806  12.242  -6.201  0.00  0.00     0.066 H 
ENDBRANCH  27  28
ENDBRANCH   1  27
BRANCH   6  32
ATOM     32  O   LIG d   1       8.952   8.970  -9.132  0.00  0.00    -0.503 OA
ATOM     33  H   LIG d   1       8.938   8.059  -9.748  0.00  0.00     0.292 HD
ENDBRANCH   6  32
TORSDOF 5
ENDMDL
MODEL 7
REMARK VINA RESULT:      -5.0      3.903      8.252
REMARK  5 active torsions:
REMARK  status: ('A' for Active; 'I' for Inactive)
REMARK    1  A    between atoms: C_1  and  O_2 
REMARK    2  A    between atoms: O_2  and  C_3 
REMARK    3  A    between atoms: C_8  and  O_9 
REMARK    4  A    between atoms: C_12  and  C_15 
REMARK    5  A    between atoms: C_18  and  O_21 
ROOT
ATOM      1  C   LIG d   1      10.871   6.741   0.106  0.00  0.00     0.162 A 
ATOM      2  C   LIG d   1      10.786   5.593  -0.653  0.00  0.00    -0.002 A 
ATOM      3  C   LIG d   1      10.272   5.659  -1.949  0.00  0.00     0.068 A 
ATOM      4  C   LIG d   1       9.841   6.886  -2.482  0.00  0.00     0.142 A 
ATOM      5  C   LIG d   1       9.931   8.033  -1.705  0.00  0.00     0.026 A 
ATOM      6  C   LIG d   1      10.442   7.962  -0.421  0.00  0.00     0.162 A 
ATOM      7  O   LIG d   1       9.344   6.946  -3.735  0.00  0.00    -0.462 OA
ATOM      8  C   LIG d   1       9.232   5.880  -4.530  0.00  0.00     0.104 A 
ATOM      9  C   LIG d   1       9.610   4.635  -4.142  0.00  0.00     0.064 A 
ATOM     10  C   LIG d   1      10.166   4.453  -2.791  0.00  0.00     0.200 A 
ATOM     11  O   LIG d   1      10.523   3.360  -2.389  0.00  0.00    -0.286 OA
ATOM     12  H   LIG d   1      11.116   4.648  -0.248  0.00  0.00     0.066 H 
ATOM     13  H   LIG d   1       9.603   8.982  -2.103  0.00  0.00     0.069 H 
ATOM     14  H   LIG d   1       8.828   6.014  -5.523  0.00  0.00     0.104 H 
ENDROOT
BRANCH   9  15
ATOM     15  C   LIG d   1       9.464   3.480  -5.062  0.00  0.00    -0.011 A 
ATOM     16  C   LIG d   1      10.429   3.236  -6.037  0.00  0.00    -0.050 A 
ATOM     17  C   LIG d   1      10.290   2.162  -6.890  0.00  0.00    -0.020 A 
ATOM     18  H   LIG d   1      11.286   3.889  -6.124  0.00  0.00     0.062 H 
ATOM     19  C   LIG d   1       9.191   1.323  -6.778  0.00  0.00     0.117 A 
ATOM     20  H   LIG d   1      11.038   1.972  -7.646  0.00  0.00     0.065 H 
ATOM     21  C   LIG d   1       8.227   1.562  -5.808  0.00  0.00    -0.020 A 
ATOM     22  C   LIG d   1       8.364   2.632  -4.947  0.00  0.00    -0.050 A 
ATOM     23  H   LIG d   1       7.372   0.907  -5.723  0.00  0.00     0.065 H 
ATOM     24  H   LIG d   1       7.616   2.815  -4.190  0.00  0.00     0.062 H 
BRANCH  19  25
ATOM     25  O   LIG d   1       9.056   0.265  -7.621  0.00  0.00    -0.507 OA
ATOM     26  H   LIG d   1       8.448  -0.602  -7.323  0.00  0.00     0.292 HD
ENDBRANCH  19  25
ENDBRANCH   9  15
BRANCH   1  27
ATOM     27  O   LIG d   1      11.371   6.685   1.370  0.00  0.00    -0.491 OA
BRANCH  27  28
ATOM     28  C   LIG d   1      10.919   5.613   2.199  0.00  0.00     0.079 C 
ATOM     29  H   LIG d   1      11.708   5.347   2.918  0.00  0.00     0.066 H 
ATOM     30  H   LIG d   1      10.684   4.740   1.573  0.00  0.00     0.066 H 
ATOM     31  H   LIG d   1      10.016   5.926   2.745  0.00  0.00     0.066 H 
ENDBRANCH  27  28
ENDBRANCH   1  27
BRANCH   6  32
ATOM     32  O   LIG d   1      10.529   9.088   0.332  0.00  0.00    -0.503 OA
ATOM     33  H   LIG d   1      11.442   9.297   0.908  0.00  0.00     0.292 HD
ENDBRANCH   6  32
TORSDOF 5
ENDMDL
MODEL 8
REMARK VINA RESULT:      -5.0      5.204      7.434
REMARK  5 active torsions:
REMARK  status: ('A' for Active; 'I' for Inactive)
REMARK    1  A    between atoms: C_1  and  O_2 
REMARK    2  A    between atoms: O_2  and  C_3 
REMARK    3  A    between atoms: C_8  and  O_9 
REMARK    4  A    between atoms: C_12  and  C_15 
REMARK    5  A    between atoms: C_18  and  O_21 
ROOT
ATOM      1  C   LIG d   1       5.774  -8.823  -6.178  0.00  0.00     0.162 A 
ATOM      2  C   LIG d   1       5.010  -7.685  -6.031  0.00  0.00    -0.002 A 
ATOM      3  C   LIG d   1       5.625  -6.482  -5.679  0.00  0.00     0.068 A 
ATOM      4  C   LIG d   1       7.014  -6.425  -5.474  0.00  0.00     0.142 A 
ATOM      5  C   LIG d   1       7.770  -7.581  -5.626  0.00  0.00     0.026 A 
ATOM      6  C   LIG d   1       7.156  -8.770  -5.975  0.00  0.00     0.162 A 
ATOM      7  O   LIG d   1       7.605  -5.262  -5.135  0.00  0.00    -0.462 OA
ATOM      8  C   LIG d   1       6.934  -4.119  -4.975  0.00  0.00     0.104 A 
ATOM      9  C   LIG d   1       5.588  -4.031  -5.141  0.00  0.00     0.064 A 
ATOM     10  C   LIG d   1       4.841  -5.244  -5.513  0.00  0.00     0.200 A 
ATOM     11  O   LIG d   1       3.634  -5.226  -5.676  0.00  0.00    -0.286 OA
ATOM     12  H   LIG d   1       3.942  -7.723  -6.187  0.00  0.00     0.066 H 
ATOM     13  H   LIG d   1       8.839  -7.550  -5.471  0.00  0.00     0.069 H 
ATOM     14  H   LIG d   1       7.482  -3.228  -4.706  0.00  0.00     0.104 H 
ENDROOT
BRANCH   9  15
ATOM     15  C   LIG d   1       4.886  -2.739  -4.951  0.00  0.00    -0.011 A 
ATOM     16  C   LIG d   1       4.754  -1.851  -6.016  0.00  0.00    -0.050 A 
ATOM     17  C   LIG d   1       4.101  -0.650  -5.836  0.00  0.00    -0.020 A 
ATOM     18  H   LIG d   1       5.164  -2.103  -6.984  0.00  0.00     0.062 H 
ATOM     19  C   LIG d   1       3.574  -0.325  -4.593  0.00  0.00     0.117 A 
ATOM     20  H   LIG d   1       3.998   0.039  -6.661  0.00  0.00     0.065 H 
ATOM     21  C   LIG d   1       3.703  -1.206  -3.529  0.00  0.00    -0.020 A 
ATOM     22  C   LIG d   1       4.350  -2.412  -3.705  0.00  0.00    -0.050 A 
ATOM     23  H   LIG d   1       3.292  -0.951  -2.563  0.00  0.00     0.065 H 
ATOM     24  H   LIG d   1       4.447  -3.100  -2.878  0.00  0.00     0.062 H 
BRANCH  19  25
ATOM     25  O   LIG d   1       2.931   0.859  -4.418  0.00  0.00    -0.507 OA
ATOM     26  H   LIG d   1       3.060   1.423  -3.483  0.00  0.00     0.292 HD
ENDBRANCH  19  25
ENDBRANCH   9  15
BRANCH   1  27
ATOM     27  O   LIG d   1       5.183  -9.999  -6.521  0.00  0.00    -0.491 OA
BRANCH  27  28
ATOM     28  C   LIG d   1       4.472 -10.691  -5.493  0.00  0.00     0.079 C 
ATOM     29  H   LIG d   1       3.393 -10.516  -5.611  0.00  0.00     0.066 H 
ATOM     30  H   LIG d   1       4.799 -10.322  -4.510  0.00  0.00     0.066 H 
ATOM     31  H   LIG d   1       4.678 -11.770  -5.566  0.00  0.00     0.066 H 
ENDBRANCH  27  28
ENDBRANCH   1  27
BRANCH   6  32
ATOM     32  O   LIG d   1       7.902  -9.895  -6.122  0.00  0.00    -0.503 OA
ATOM     33  H   LIG d   1       8.797  -9.883  -6.761  0.00  0.00     0.292 HD
ENDBRANCH   6  32
TORSDOF 5
ENDMDL
MODEL 9
REMARK VINA RESULT:      -5.0      4.502      8.082
REMARK  5 active torsions:
REMARK  status: ('A' for Active; 'I' for Inactive)
REMARK    1  A    between atoms: C_1  and  O_2 
REMARK    2  A    between atoms: O_2  and  C_3 
REMARK    3  A    between atoms: C_8  and  O_9 
REMARK    4  A    between atoms: C_12  and  C_15 
REMARK    5  A    between atoms: C_18  and  O_21 
ROOT
ATOM      1  C   LIG d   1      10.188   7.758  -0.593  0.00  0.00     0.162 A 
ATOM      2  C   LIG d   1       9.744   7.338  -1.829  0.00  0.00    -0.002 A 
ATOM      3  C   LIG d   1      10.046   6.048  -2.269  0.00  0.00     0.068 A 
ATOM      4  C   LIG d   1      10.798   5.178  -1.461  0.00  0.00     0.142 A 
ATOM      5  C   LIG d   1      11.239   5.616  -0.219  0.00  0.00     0.026 A 
ATOM      6  C   LIG d   1      10.937   6.895   0.212  0.00  0.00     0.162 A 
ATOM      7  O   LIG d   1      11.088   3.933  -1.890  0.00  0.00    -0.462 OA
ATOM      8  C   LIG d   1      10.692   3.454  -3.071  0.00  0.00     0.104 A 
ATOM      9  C   LIG d   1       9.960   4.187  -3.950  0.00  0.00     0.064 A 
ATOM     10  C   LIG d   1       9.587   5.564  -3.584  0.00  0.00     0.200 A 
ATOM     11  O   LIG d   1       8.931   6.268  -4.331  0.00  0.00    -0.286 OA
ATOM     12  H   LIG d   1       9.165   8.003  -2.453  0.00  0.00     0.066 H 
ATOM     13  H   LIG d   1      11.818   4.957   0.411  0.00  0.00     0.069 H 
ATOM     14  H   LIG d   1      10.962   2.443  -3.338  0.00  0.00     0.104 H 
ENDROOT
BRANCH   9  15
ATOM     15  C   LIG d   1       9.545   3.612  -5.253  0.00  0.00    -0.011 A 
ATOM     16  C   LIG d   1       8.669   2.529  -5.292  0.00  0.00    -0.050 A 
ATOM     17  C   LIG d   1       8.286   1.997  -6.505  0.00  0.00    -0.020 A 
ATOM     18  H   LIG d   1       8.289   2.108  -4.372  0.00  0.00     0.062 H 
ATOM     19  C   LIG d   1       8.773   2.539  -7.687  0.00  0.00     0.117 A 
ATOM     20  H   LIG d   1       7.606   1.159  -6.536  0.00  0.00     0.065 H 
ATOM     21  C   LIG d   1       9.646   3.616  -7.652  0.00  0.00    -0.020 A 
ATOM     22  C   LIG d   1      10.028   4.158  -6.442  0.00  0.00    -0.050 A 
ATOM     23  H   LIG d   1      10.023   4.036  -8.573  0.00  0.00     0.065 H 
ATOM     24  H   LIG d   1      10.704   4.999  -6.415  0.00  0.00     0.062 H 
BRANCH  19  25
ATOM     25  O   LIG d   1       8.393   2.012  -8.881  0.00  0.00    -0.507 OA
ATOM     26  H   LIG d   1       8.662   2.521  -9.818  0.00  0.00     0.292 HD
ENDBRANCH  19  25
ENDBRANCH   9  15
BRANCH   1  27
ATOM     27  O   LIG d   1       9.898   9.014  -0.157  0.00  0.00    -0.491 OA
BRANCH  27  28
ATOM     28  C   LIG d   1       8.774   9.664  -0.751  0.00  0.00     0.079 C 
ATOM     29  H   LIG d   1       8.694   9.368  -1.808  0.00  0.00     0.066 H 
ATOM     30  H   LIG d   1       8.903  10.754  -0.685  0.00  0.00     0.066 H 
ATOM     31  H   LIG d   1       7.856   9.371  -0.219  0.00  0.00     0.066 H 
ENDBRANCH  27  28
ENDBRANCH   1  27
BRANCH   6  32
ATOM     32  O   LIG d   1      11.371   7.316   1.428  0.00  0.00    -0.503 OA
ATOM     33  H   LIG d   1      12.252   7.970   1.502  0.00  0.00     0.292 HD
ENDBRANCH   6  32
TORSDOF 5
ENDMDL
MODEL 10
REMARK VINA RESULT:      -5.0      4.651      9.618
REMARK  5 active torsions:
REMARK  status: ('A' for Active; 'I' for Inactive)
REMARK    1  A    between atoms: C_1  and  O_2 
REMARK    2  A    between atoms: O_2  and  C_3 
REMARK    3  A    between atoms: C_8  and  O_9 
REMARK    4  A    between atoms: C_12  and  C_15 
REMARK    5  A    between atoms: C_18  and  O_21 
ROOT
ATOM      1  C   LIG d   1       9.869  10.587  -2.546  0.00  0.00     0.162 A 
ATOM      2  C   LIG d   1      10.046   9.385  -3.198  0.00  0.00    -0.002 A 
ATOM      3  C   LIG d   1      10.146   8.207  -2.456  0.00  0.00     0.068 A 
ATOM      4  C   LIG d   1      10.066   8.239  -1.053  0.00  0.00     0.142 A 
ATOM      5  C   LIG d   1       9.888   9.458  -0.412  0.00  0.00     0.026 A 
ATOM      6  C   LIG d   1       9.790  10.623  -1.151  0.00  0.00     0.162 A 
ATOM      7  O   LIG d   1      10.161   7.099  -0.340  0.00  0.00    -0.462 OA
ATOM      8  C   LIG d   1      10.332   5.898  -0.897  0.00  0.00     0.104 A 
ATOM      9  C   LIG d   1      10.426   5.722  -2.241  0.00  0.00     0.064 A 
ATOM     10  C   LIG d   1      10.335   6.903  -3.117  0.00  0.00     0.200 A 
ATOM     11  O   LIG d   1      10.412   6.806  -4.329  0.00  0.00    -0.286 OA
ATOM     12  H   LIG d   1      10.108   9.355  -4.276  0.00  0.00     0.066 H 
ATOM     13  H   LIG d   1       9.825   9.497   0.666  0.00  0.00     0.069 H 
ATOM     14  H   LIG d   1      10.396   5.032  -0.255  0.00  0.00     0.104 H 
ENDROOT
BRANCH   9  15
ATOM     15  C   LIG d   1      10.618   4.368  -2.814  0.00  0.00    -0.011 A 
ATOM     16  C   LIG d   1       9.514   3.573  -3.115  0.00  0.00    -0.050 A 
ATOM     17  C   LIG d   1       9.696   2.314  -3.647  0.00  0.00    -0.020 A 
ATOM     18  H   LIG d   1       8.516   3.943  -2.931  0.00  0.00     0.062 H 
ATOM     19  C   LIG d   1      10.978   1.838  -3.884  0.00  0.00     0.117 A 
ATOM     20  H   LIG d   1       8.840   1.698  -3.881  0.00  0.00     0.065 H 
ATOM     21  C   LIG d   1      12.080   2.626  -3.586  0.00  0.00    -0.020 A 
ATOM     22  C   LIG d   1      11.905   3.890  -3.059  0.00  0.00    -0.050 A 
ATOM     23  H   LIG d   1      13.077   2.254  -3.772  0.00  0.00     0.065 H 
ATOM     24  H   LIG d   1      12.763   4.504  -2.831  0.00  0.00     0.062 H 
BRANCH  19  25
ATOM     25  O   LIG d   1      11.154   0.597  -4.409  0.00  0.00    -0.507 OA
ATOM     26  H   LIG d   1      11.127   0.451  -5.499  0.00  0.00     0.292 HD
ENDBRANCH  19  25
ENDBRANCH   9  15
BRANCH   1  27
ATOM     27  O   LIG d   1       9.772  11.740  -3.262  0.00  0.00    -0.491 OA
BRANCH  27  28
ATOM     28  C   LIG d   1       9.170  11.653  -4.554  0.00  0.00     0.079 C 
ATOM     29  H   LIG d   1       8.780  10.637  -4.710  0.00  0.00     0.066 H 
ATOM     30  H   LIG d   1       9.923  11.879  -5.325  0.00  0.00     0.066 H 
ATOM     31  H   LIG d   1       8.345  12.377  -4.626  0.00  0.00     0.066 H 
ENDBRANCH  27  28
ENDBRANCH   1  27
BRANCH   6  32
ATOM     32  O   LIG d   1       9.615  11.811  -0.517  0.00  0.00    -0.503 OA
ATOM     33  H   LIG d   1      10.445  12.262   0.047  0.00  0.00     0.292 HD
ENDBRANCH   6  32
TORSDOF 5
ENDMDL
