MODEL 1
REMARK VINA RESULT:      -8.9      0.000      0.000
REMARK  6 active torsions:
REMARK  status: ('A' for Active; 'I' for Inactive)
REMARK    1  A    between atoms: C_1  and  N_2 
REMARK    2  A    between atoms: C_4  and  C_11 
REMARK    3  A    between atoms: C_12  and  C_18 
REMARK    4  A    between atoms: N_20  and  C_27 
REMARK    5  A    between atoms: C_32  and  C_33 
REMARK    6  A    between atoms: C_32  and  N_68 
ROOT
ATOM      1  C   LIG d   1       5.397  -1.557  -5.213  0.00  0.00     0.013 A 
ATOM      2  C   LIG d   1       6.681  -1.106  -5.308  0.00  0.00     0.014 A 
ATOM      3  N   LIG d   1       6.881  -0.101  -4.412  0.00  0.00    -0.343 N 
ATOM      4  C   LIG d   1       5.726   0.140  -3.696  0.00  0.00     0.050 A 
ATOM      5  C   LIG d   1       4.745  -0.750  -4.166  0.00  0.00     0.008 A 
ATOM      6  C   LIG d   1       3.468  -0.736  -3.613  0.00  0.00    -0.052 A 
ATOM      7  C   LIG d   1       3.168   0.163  -2.612  0.00  0.00    -0.061 A 
ATOM      8  C   LIG d   1       4.133   1.047  -2.152  0.00  0.00    -0.060 A 
ATOM      9  C   LIG d   1       5.404   1.040  -2.687  0.00  0.00    -0.038 A 
ATOM     10  H   LIG d   1       7.426  -1.489  -5.990  0.00  0.00     0.082 H 
ATOM     11  H   LIG d   1       2.714  -1.421  -3.969  0.00  0.00     0.062 H 
ATOM     12  H   LIG d   1       2.176   0.180  -2.183  0.00  0.00     0.062 H 
ATOM     13  H   LIG d   1       3.887   1.747  -1.367  0.00  0.00     0.062 H 
ATOM     14  H   LIG d   1       6.147   1.732  -2.321  0.00  0.00     0.064 H 
ENDROOT
BRANCH   3  15
ATOM     15  C   LIG d   1       8.143   0.622  -4.233  0.00  0.00     0.044 C 
ATOM     16  C   LIG d   1       8.921   0.631  -5.551  0.00  0.00     0.009 C 
ATOM     17  C   LIG d   1      10.208   1.439  -5.374  0.00  0.00    -0.030 C 
ATOM     18  H   LIG d   1       9.170  -0.392  -5.834  0.00  0.00     0.034 H 
ATOM     19  H   LIG d   1       8.309   1.085  -6.331  0.00  0.00     0.034 H 
ATOM     20  H   LIG d   1      10.824   0.975  -4.603  0.00  0.00     0.082 H 
ATOM     21  H   LIG d   1      10.756   1.459  -6.315  0.00  0.00     0.082 H 
ATOM     22  N   LIG d   1       9.856   2.824  -4.993  0.00  0.00     0.240 N 
ATOM     23  C   LIG d   1       9.168   2.831  -3.685  0.00  0.00    -0.030 C 
ATOM     24  H   LIG d   1       9.225   3.215  -5.704  0.00  0.00     0.204 HD
ATOM     25  C   LIG d   1       7.849   2.065  -3.812  0.00  0.00     0.009 C 
ATOM     26  H   LIG d   1       9.789   2.362  -2.922  0.00  0.00     0.082 H 
ATOM     27  H   LIG d   1       8.962   3.863  -3.399  0.00  0.00     0.082 H 
ATOM     28  H   LIG d   1       7.222   2.543  -4.565  0.00  0.00     0.034 H 
ATOM     29  H   LIG d   1       7.333   2.067  -2.852  0.00  0.00     0.034 H 
ATOM     30  H   LIG d   1       8.737   0.131  -3.462  0.00  0.00     0.053 H 
BRANCH  22  31
ATOM     31  C   LIG d   1      11.077   3.655  -4.926  0.00  0.00     0.011 C 
ATOM     32  H   LIG d   1      11.675   3.386  -4.056  0.00  0.00     0.088 H 
ATOM     33  H   LIG d   1      11.662   3.499  -5.832  0.00  0.00     0.088 H 
BRANCH  31  34
ATOM     34  C   LIG d   1      10.673   5.103  -4.830  0.00  0.00     0.086 A 
ATOM     35  N   LIG d   1      11.047   5.816  -3.786  0.00  0.00    -0.255 NA
ATOM     36  C   LIG d   1      10.722   7.088  -3.661  0.00  0.00     0.028 A 
ATOM     37  C   LIG d   1       9.960   7.720  -4.625  0.00  0.00    -0.044 A 
ATOM     38  H   LIG d   1      11.050   7.640  -2.793  0.00  0.00     0.083 H 
ATOM     39  C   LIG d   1       9.543   7.001  -5.735  0.00  0.00    -0.058 A 
ATOM     40  H   LIG d   1       9.692   8.760  -4.514  0.00  0.00     0.063 H 
ATOM     41  C   LIG d   1       9.910   5.667  -5.834  0.00  0.00    -0.035 A 
ATOM     42  H   LIG d   1       8.947   7.469  -6.505  0.00  0.00     0.062 H 
ATOM     43  H   LIG d   1       9.602   5.078  -6.685  0.00  0.00     0.064 H 
ENDBRANCH  31  34
ENDBRANCH  22  31
ENDBRANCH   3  15
BRANCH   1  44
ATOM     44  C   LIG d   1       4.781  -2.634  -6.006  0.00  0.00     0.059 A 
ATOM     45  C   LIG d   1       4.550  -2.636  -7.377  0.00  0.00     0.059 A 
ATOM     46  C   LIG d   1       3.918  -3.937  -7.682  0.00  0.00     0.252 A 
ATOM     47  N   LIG d   1       3.797  -4.635  -6.541  0.00  0.00    -0.248 N 
ATOM     48  O   LIG d   1       3.570  -4.312  -8.784  0.00  0.00    -0.270 OA
ATOM     49  C   LIG d   1       4.285  -3.933  -5.505  0.00  0.00     0.252 A 
ATOM     50  H   LIG d   1       3.412  -5.522  -6.475  0.00  0.00     0.158 HD
ATOM     51  O   LIG d   1       4.313  -4.303  -4.348  0.00  0.00    -0.270 OA
BRANCH  45  52
ATOM     52  C   LIG d   1       4.871  -1.561  -8.331  0.00  0.00     0.013 A 
ATOM     53  C   LIG d   1       5.833  -1.589  -9.298  0.00  0.00     0.013 A 
ATOM     54  N   LIG d   1       5.830  -0.412  -9.979  0.00  0.00    -0.349 N 
ATOM     55  H   LIG d   1       6.496  -2.419  -9.492  0.00  0.00     0.082 H 
ATOM     56  C   LIG d   1       4.859   0.430  -9.478  0.00  0.00     0.049 A 
ATOM     57  C   LIG d   1       4.212  -0.248  -8.432  0.00  0.00     0.008 A 
ATOM     58  C   LIG d   1       4.453   1.718  -9.812  0.00  0.00    -0.038 A 
ATOM     59  C   LIG d   1       3.181   0.373  -7.731  0.00  0.00    -0.052 A 
ATOM     60  C   LIG d   1       2.793   1.649  -8.076  0.00  0.00    -0.061 A 
ATOM     61  H   LIG d   1       2.686  -0.146  -6.922  0.00  0.00     0.062 H 
ATOM     62  C   LIG d   1       3.427   2.318  -9.113  0.00  0.00    -0.060 A 
ATOM     63  H   LIG d   1       1.991   2.132  -7.537  0.00  0.00     0.062 H 
ATOM     64  H   LIG d   1       3.115   3.317  -9.375  0.00  0.00     0.062 H 
ATOM     65  H   LIG d   1       4.939   2.247 -10.618  0.00  0.00     0.064 H 
BRANCH  54  66
ATOM     66  C   LIG d   1       6.730  -0.085 -11.089  0.00  0.00     0.012 C 
ATOM     67  H   LIG d   1       7.054   0.951 -11.002  0.00  0.00     0.046 H 
ATOM     68  H   LIG d   1       7.600  -0.742 -11.057  0.00  0.00     0.046 H 
ATOM     69  H   LIG d   1       6.206  -0.223 -12.035  0.00  0.00     0.046 H 
ENDBRANCH  54  66
ENDBRANCH  45  52
ENDBRANCH   1  44
TORSDOF 6
ENDMDL
MODEL 2
REMARK VINA RESULT:      -8.5      2.721      5.274
REMARK  6 active torsions:
REMARK  status: ('A' for Active; 'I' for Inactive)
REMARK    1  A    between atoms: C_1  and  N_2 
REMARK    2  A    between atoms: C_4  and  C_11 
REMARK    3  A    between atoms: C_12  and  C_18 
REMARK    4  A    between atoms: N_20  and  C_27 
REMARK    5  A    between atoms: C_32  and  C_33 
REMARK    6  A    between atoms: C_32  and  N_68 
ROOT
ATOM      1  C   LIG d   1       6.735   0.712  -4.330  0.00  0.00     0.013 A 
ATOM      2  C   LIG d   1       7.618   1.588  -3.770  0.00  0.00     0.014 A 
ATOM      3  N   LIG d   1       8.523   1.988  -4.705  0.00  0.00    -0.343 N 
ATOM      4  C   LIG d   1       8.259   1.383  -5.917  0.00  0.00     0.050 A 
ATOM      5  C   LIG d   1       7.137   0.555  -5.740  0.00  0.00     0.008 A 
ATOM      6  C   LIG d   1       6.638  -0.182  -6.810  0.00  0.00    -0.052 A 
ATOM      7  C   LIG d   1       7.255  -0.103  -8.039  0.00  0.00    -0.061 A 
ATOM      8  C   LIG d   1       8.366   0.708  -8.214  0.00  0.00    -0.060 A 
ATOM      9  C   LIG d   1       8.868   1.448  -7.165  0.00  0.00    -0.038 A 
ATOM     10  H   LIG d   1       7.601   1.915  -2.741  0.00  0.00     0.082 H 
ATOM     11  H   LIG d   1       5.774  -0.816  -6.677  0.00  0.00     0.062 H 
ATOM     12  H   LIG d   1       6.873  -0.677  -8.871  0.00  0.00     0.062 H 
ATOM     13  H   LIG d   1       8.842   0.763  -9.183  0.00  0.00     0.062 H 
ATOM     14  H   LIG d   1       9.734   2.077  -7.312  0.00  0.00     0.064 H 
ENDROOT
BRANCH   3  15
ATOM     15  C   LIG d   1       9.620   2.927  -4.461  0.00  0.00     0.044 C 
ATOM     16  C   LIG d   1       9.192   4.336  -4.882  0.00  0.00     0.009 C 
ATOM     17  C   LIG d   1      10.319   5.322  -4.567  0.00  0.00    -0.030 C 
ATOM     18  H   LIG d   1       8.986   4.349  -5.952  0.00  0.00     0.034 H 
ATOM     19  H   LIG d   1       8.294   4.622  -4.335  0.00  0.00     0.034 H 
ATOM     20  H   LIG d   1      11.212   5.042  -5.125  0.00  0.00     0.082 H 
ATOM     21  H   LIG d   1      10.011   6.328  -4.852  0.00  0.00     0.082 H 
ATOM     22  N   LIG d   1      10.586   5.297  -3.113  0.00  0.00     0.240 N 
ATOM     23  C   LIG d   1      11.070   3.960  -2.709  0.00  0.00    -0.030 C 
ATOM     24  H   LIG d   1       9.714   5.502  -2.610  0.00  0.00     0.204 HD
ATOM     25  C   LIG d   1       9.965   2.932  -2.969  0.00  0.00     0.009 C 
ATOM     26  H   LIG d   1      11.960   3.687  -3.276  0.00  0.00     0.082 H 
ATOM     27  H   LIG d   1      11.308   3.976  -1.645  0.00  0.00     0.082 H 
ATOM     28  H   LIG d   1       9.079   3.197  -2.391  0.00  0.00     0.034 H 
ATOM     29  H   LIG d   1      10.312   1.943  -2.671  0.00  0.00     0.034 H 
ATOM     30  H   LIG d   1      10.494   2.625  -5.036  0.00  0.00     0.053 H 
BRANCH  22  31
ATOM     31  C   LIG d   1      11.592   6.323  -2.767  0.00  0.00     0.011 C 
ATOM     32  H   LIG d   1      12.324   5.921  -2.067  0.00  0.00     0.088 H 
ATOM     33  H   LIG d   1      12.097   6.647  -3.677  0.00  0.00     0.088 H 
BRANCH  31  34
ATOM     34  C   LIG d   1      10.889   7.497  -2.137  0.00  0.00     0.086 A 
ATOM     35  N   LIG d   1      11.443   8.693  -2.189  0.00  0.00    -0.255 NA
ATOM     36  C   LIG d   1      10.862   9.750  -1.656  0.00  0.00     0.028 A 
ATOM     37  C   LIG d   1       9.648   9.638  -1.007  0.00  0.00    -0.044 A 
ATOM     38  H   LIG d   1      11.345  10.714  -1.722  0.00  0.00     0.083 H 
ATOM     39  C   LIG d   1       9.037   8.395  -0.927  0.00  0.00    -0.058 A 
ATOM     40  H   LIG d   1       9.180  10.507  -0.568  0.00  0.00     0.063 H 
ATOM     41  C   LIG d   1       9.675   7.308  -1.505  0.00  0.00    -0.035 A 
ATOM     42  H   LIG d   1       8.087   8.278  -0.426  0.00  0.00     0.062 H 
ATOM     43  H   LIG d   1       9.228   6.326  -1.460  0.00  0.00     0.064 H 
ENDBRANCH  31  34
ENDBRANCH  22  31
ENDBRANCH   3  15
BRANCH   1  44
ATOM     44  C   LIG d   1       5.604   0.050  -3.658  0.00  0.00     0.059 A 
ATOM     45  C   LIG d   1       5.440  -1.314  -3.446  0.00  0.00     0.059 A 
ATOM     46  C   LIG d   1       4.155  -1.465  -2.734  0.00  0.00     0.252 A 
ATOM     47  N   LIG d   1       3.618  -0.247  -2.553  0.00  0.00    -0.248 N 
ATOM     48  O   LIG d   1       3.667  -2.516  -2.369  0.00  0.00    -0.270 OA
ATOM     49  C   LIG d   1       4.415   0.702  -3.071  0.00  0.00     0.252 A 
ATOM     50  H   LIG d   1       2.772  -0.076  -2.109  0.00  0.00     0.158 HD
ATOM     51  O   LIG d   1       4.195   1.897  -3.060  0.00  0.00    -0.270 OA
BRANCH  45  52
ATOM     52  C   LIG d   1       6.362  -2.390  -3.848  0.00  0.00     0.013 A 
ATOM     53  C   LIG d   1       7.660  -2.541  -3.455  0.00  0.00     0.013 A 
ATOM     54  N   LIG d   1       8.186  -3.654  -4.036  0.00  0.00    -0.349 N 
ATOM     55  H   LIG d   1       8.188  -1.879  -2.786  0.00  0.00     0.082 H 
ATOM     56  C   LIG d   1       7.243  -4.270  -4.832  0.00  0.00     0.049 A 
ATOM     57  C   LIG d   1       6.061  -3.516  -4.748  0.00  0.00     0.008 A 
ATOM     58  C   LIG d   1       7.270  -5.412  -5.626  0.00  0.00    -0.038 A 
ATOM     59  C   LIG d   1       4.933  -3.906  -5.465  0.00  0.00    -0.052 A 
ATOM     60  C   LIG d   1       4.978  -5.040  -6.246  0.00  0.00    -0.061 A 
ATOM     61  H   LIG d   1       4.025  -3.324  -5.405  0.00  0.00     0.062 H 
ATOM     62  C   LIG d   1       6.143  -5.790  -6.325  0.00  0.00    -0.060 A 
ATOM     63  H   LIG d   1       4.103  -5.348  -6.800  0.00  0.00     0.062 H 
ATOM     64  H   LIG d   1       6.168  -6.677  -6.940  0.00  0.00     0.062 H 
ATOM     65  H   LIG d   1       8.171  -6.003  -5.694  0.00  0.00     0.064 H 
BRANCH  54  66
ATOM     66  C   LIG d   1       9.559  -4.129  -3.842  0.00  0.00     0.012 C 
ATOM     67  H   LIG d   1      10.202  -3.710  -4.615  0.00  0.00     0.046 H 
ATOM     68  H   LIG d   1       9.917  -3.814  -2.862  0.00  0.00     0.046 H 
ATOM     69  H   LIG d   1       9.578  -5.217  -3.904  0.00  0.00     0.046 H 
ENDBRANCH  54  66
ENDBRANCH  45  52
ENDBRANCH   1  44
TORSDOF 6
ENDMDL
MODEL 3
REMARK VINA RESULT:      -8.3      5.109     10.894
REMARK  6 active torsions:
REMARK  status: ('A' for Active; 'I' for Inactive)
REMARK    1  A    between atoms: C_1  and  N_2 
REMARK    2  A    between atoms: C_4  and  C_11 
REMARK    3  A    between atoms: C_12  and  C_18 
REMARK    4  A    between atoms: N_20  and  C_27 
REMARK    5  A    between atoms: C_32  and  C_33 
REMARK    6  A    between atoms: C_32  and  N_68 
ROOT
ATOM      1  C   LIG d   1      10.504   7.691  -3.077  0.00  0.00     0.013 A 
ATOM      2  C   LIG d   1       9.839   6.557  -3.442  0.00  0.00     0.014 A 
ATOM      3  N   LIG d   1      10.733   5.571  -3.725  0.00  0.00    -0.343 N 
ATOM      4  C   LIG d   1      12.023   6.031  -3.552  0.00  0.00     0.050 A 
ATOM      5  C   LIG d   1      11.941   7.374  -3.146  0.00  0.00     0.008 A 
ATOM      6  C   LIG d   1      13.104   8.097  -2.890  0.00  0.00    -0.052 A 
ATOM      7  C   LIG d   1      14.332   7.492  -3.047  0.00  0.00    -0.061 A 
ATOM      8  C   LIG d   1      14.414   6.169  -3.454  0.00  0.00    -0.060 A 
ATOM      9  C   LIG d   1      13.272   5.439  -3.706  0.00  0.00    -0.038 A 
ATOM     10  H   LIG d   1       8.765   6.457  -3.498  0.00  0.00     0.082 H 
ATOM     11  H   LIG d   1      13.043   9.128  -2.575  0.00  0.00     0.062 H 
ATOM     12  H   LIG d   1      15.235   8.052  -2.853  0.00  0.00     0.062 H 
ATOM     13  H   LIG d   1      15.382   5.704  -3.574  0.00  0.00     0.062 H 
ATOM     14  H   LIG d   1      13.347   4.409  -4.022  0.00  0.00     0.064 H 
ENDROOT
BRANCH   3  15
ATOM     15  C   LIG d   1      10.378   4.216  -4.152  0.00  0.00     0.044 C 
ATOM     16  C   LIG d   1      10.193   3.323  -2.922  0.00  0.00     0.009 C 
ATOM     17  C   LIG d   1       9.763   1.925  -3.371  0.00  0.00    -0.030 C 
ATOM     18  H   LIG d   1      11.135   3.256  -2.376  0.00  0.00     0.034 H 
ATOM     19  H   LIG d   1       9.428   3.750  -2.274  0.00  0.00     0.034 H 
ATOM     20  H   LIG d   1      10.536   1.494  -4.007  0.00  0.00     0.082 H 
ATOM     21  H   LIG d   1       9.617   1.292  -2.497  0.00  0.00     0.082 H 
ATOM     22  N   LIG d   1       8.485   2.030  -4.107  0.00  0.00     0.240 N 
ATOM     23  C   LIG d   1       8.670   2.831  -5.335  0.00  0.00    -0.030 C 
ATOM     24  H   LIG d   1       7.792   2.496  -3.507  0.00  0.00     0.204 HD
ATOM     25  C   LIG d   1       9.069   4.256  -4.945  0.00  0.00     0.009 C 
ATOM     26  H   LIG d   1       9.448   2.396  -5.962  0.00  0.00     0.082 H 
ATOM     27  H   LIG d   1       7.731   2.855  -5.888  0.00  0.00     0.082 H 
ATOM     28  H   LIG d   1       8.284   4.697  -4.329  0.00  0.00     0.034 H 
ATOM     29  H   LIG d   1       9.205   4.855  -5.845  0.00  0.00     0.034 H 
ATOM     30  H   LIG d   1      11.172   3.811  -4.780  0.00  0.00     0.053 H 
BRANCH  22  31
ATOM     31  C   LIG d   1       7.989   0.682  -4.453  0.00  0.00     0.011 C 
ATOM     32  H   LIG d   1       7.721   0.632  -5.508  0.00  0.00     0.088 H 
ATOM     33  H   LIG d   1       8.770  -0.049  -4.240  0.00  0.00     0.088 H 
BRANCH  31  34
ATOM     34  C   LIG d   1       6.776   0.381  -3.613  0.00  0.00     0.086 A 
ATOM     35  N   LIG d   1       6.058   1.374  -3.125  0.00  0.00    -0.255 NA
ATOM     36  C   LIG d   1       4.986   1.159  -2.388  0.00  0.00     0.028 A 
ATOM     37  C   LIG d   1       4.580  -0.127  -2.090  0.00  0.00    -0.044 A 
ATOM     38  H   LIG d   1       4.422   1.998  -2.009  0.00  0.00     0.083 H 
ATOM     39  C   LIG d   1       5.312  -1.198  -2.581  0.00  0.00    -0.058 A 
ATOM     40  H   LIG d   1       3.703  -0.297  -1.482  0.00  0.00     0.063 H 
ATOM     41  C   LIG d   1       6.430  -0.933  -3.357  0.00  0.00    -0.035 A 
ATOM     42  H   LIG d   1       5.018  -2.215  -2.364  0.00  0.00     0.062 H 
ATOM     43  H   LIG d   1       7.024  -1.742  -3.754  0.00  0.00     0.064 H 
ENDBRANCH  31  34
ENDBRANCH  22  31
ENDBRANCH   3  15
BRANCH   1  44
ATOM     44  C   LIG d   1       9.903   8.979  -2.692  0.00  0.00     0.059 A 
ATOM     45  C   LIG d   1       9.922  10.161  -3.424  0.00  0.00     0.059 A 
ATOM     46  C   LIG d   1       9.187  11.154  -2.613  0.00  0.00     0.252 A 
ATOM     47  N   LIG d   1       8.775  10.564  -1.479  0.00  0.00    -0.248 N 
ATOM     48  O   LIG d   1       8.987  12.312  -2.923  0.00  0.00    -0.270 OA
ATOM     49  C   LIG d   1       9.158   9.277  -1.451  0.00  0.00     0.252 A 
ATOM     50  H   LIG d   1       8.269  11.005  -0.779  0.00  0.00     0.158 HD
ATOM     51  O   LIG d   1       8.932   8.489  -0.555  0.00  0.00    -0.270 OA
BRANCH  45  52
ATOM     52  C   LIG d   1      10.546  10.379  -4.740  0.00  0.00     0.013 A 
ATOM     53  C   LIG d   1      11.571  11.233  -5.025  0.00  0.00     0.013 A 
ATOM     54  N   LIG d   1      11.873  11.157  -6.349  0.00  0.00    -0.349 N 
ATOM     55  H   LIG d   1      12.066  11.871  -4.309  0.00  0.00     0.082 H 
ATOM     56  C   LIG d   1      11.051  10.245  -6.978  0.00  0.00     0.049 A 
ATOM     57  C   LIG d   1      10.190   9.713  -6.004  0.00  0.00     0.008 A 
ATOM     58  C   LIG d   1      10.950   9.805  -8.293  0.00  0.00    -0.038 A 
ATOM     59  C   LIG d   1       9.237   8.762  -6.361  0.00  0.00    -0.052 A 
ATOM     60  C   LIG d   1       9.151   8.339  -7.670  0.00  0.00    -0.061 A 
ATOM     61  H   LIG d   1       8.570   8.356  -5.614  0.00  0.00     0.062 H 
ATOM     62  C   LIG d   1      10.005   8.859  -8.631  0.00  0.00    -0.060 A 
ATOM     63  H   LIG d   1       8.415   7.599  -7.949  0.00  0.00     0.062 H 
ATOM     64  H   LIG d   1       9.930   8.520  -9.653  0.00  0.00     0.062 H 
ATOM     65  H   LIG d   1      11.610  10.203  -9.049  0.00  0.00     0.064 H 
BRANCH  54  66
ATOM     66  C   LIG d   1      12.924  11.934  -7.014  0.00  0.00     0.012 C 
ATOM     67  H   LIG d   1      13.101  11.529  -8.009  0.00  0.00     0.046 H 
ATOM     68  H   LIG d   1      12.610  12.975  -7.094  0.00  0.00     0.046 H 
ATOM     69  H   LIG d   1      13.843  11.876  -6.429  0.00  0.00     0.046 H 
ENDBRANCH  54  66
ENDBRANCH  45  52
ENDBRANCH   1  44
TORSDOF 6
ENDMDL
MODEL 4
REMARK VINA RESULT:      -8.3      1.905      4.615
REMARK  6 active torsions:
REMARK  status: ('A' for Active; 'I' for Inactive)
REMARK    1  A    between atoms: C_1  and  N_2 
REMARK    2  A    between atoms: C_4  and  C_11 
REMARK    3  A    between atoms: C_12  and  C_18 
REMARK    4  A    between atoms: N_20  and  C_27 
REMARK    5  A    between atoms: C_32  and  C_33 
REMARK    6  A    between atoms: C_32  and  N_68 
ROOT
ATOM      1  C   LIG d   1       4.966  -1.284  -8.126  0.00  0.00     0.013 A 
ATOM      2  C   LIG d   1       6.278  -0.922  -8.027  0.00  0.00     0.014 A 
ATOM      3  N   LIG d   1       6.417   0.394  -8.343  0.00  0.00    -0.343 N 
ATOM      4  C   LIG d   1       5.191   0.942  -8.662  0.00  0.00     0.050 A 
ATOM      5  C   LIG d   1       4.231  -0.078  -8.549  0.00  0.00     0.008 A 
ATOM      6  C   LIG d   1       2.890   0.194  -8.810  0.00  0.00    -0.052 A 
ATOM      7  C   LIG d   1       2.513   1.463  -9.189  0.00  0.00    -0.061 A 
ATOM      8  C   LIG d   1       3.460   2.469  -9.307  0.00  0.00    -0.060 A 
ATOM      9  C   LIG d   1       4.790   2.216  -9.047  0.00  0.00    -0.038 A 
ATOM     10  H   LIG d   1       7.084  -1.581  -7.739  0.00  0.00     0.082 H 
ATOM     11  H   LIG d   1       2.150  -0.588  -8.720  0.00  0.00     0.062 H 
ATOM     12  H   LIG d   1       1.474   1.677  -9.396  0.00  0.00     0.062 H 
ATOM     13  H   LIG d   1       3.153   3.462  -9.606  0.00  0.00     0.062 H 
ATOM     14  H   LIG d   1       5.520   3.007  -9.143  0.00  0.00     0.064 H 
ENDROOT
BRANCH   3  15
ATOM     15  C   LIG d   1       7.685   1.126  -8.344  0.00  0.00     0.044 C 
ATOM     16  C   LIG d   1       7.507   2.462  -9.069  0.00  0.00     0.009 C 
ATOM     17  C   LIG d   1       8.818   3.248  -9.013  0.00  0.00    -0.030 C 
ATOM     18  H   LIG d   1       7.238   2.277 -10.110  0.00  0.00     0.034 H 
ATOM     19  H   LIG d   1       6.716   3.035  -8.586  0.00  0.00     0.034 H 
ATOM     20  H   LIG d   1       9.604   2.678  -9.510  0.00  0.00     0.082 H 
ATOM     21  H   LIG d   1       8.689   4.206  -9.516  0.00  0.00     0.082 H 
ATOM     22  N   LIG d   1       9.170   3.493  -7.598  0.00  0.00     0.240 N 
ATOM     23  C   LIG d   1       9.416   2.210  -6.906  0.00  0.00    -0.030 C 
ATOM     24  H   LIG d   1       8.387   3.975  -7.139  0.00  0.00     0.204 HD
ATOM     25  C   LIG d   1       8.122   1.393  -6.900  0.00  0.00     0.009 C 
ATOM     26  H   LIG d   1      10.199   1.646  -7.412  0.00  0.00     0.082 H 
ATOM     27  H   LIG d   1       9.721   2.414  -5.880  0.00  0.00     0.082 H 
ATOM     28  H   LIG d   1       7.342   1.951  -6.381  0.00  0.00     0.034 H 
ATOM     29  H   LIG d   1       8.293   0.445  -6.389  0.00  0.00     0.034 H 
ATOM     30  H   LIG d   1       8.448   0.534  -8.851  0.00  0.00     0.053 H 
BRANCH  22  31
ATOM     31  C   LIG d   1      10.373   4.349  -7.518  0.00  0.00     0.011 C 
ATOM     32  H   LIG d   1      11.114   3.905  -6.854  0.00  0.00     0.088 H 
ATOM     33  H   LIG d   1      10.797   4.460  -8.515  0.00  0.00     0.088 H 
BRANCH  31  34
ATOM     34  C   LIG d   1       9.971   5.701  -6.988  0.00  0.00     0.086 A 
ATOM     35  N   LIG d   1       9.870   6.722  -7.817  0.00  0.00    -0.255 NA
ATOM     36  C   LIG d   1       9.518   7.922  -7.400  0.00  0.00     0.028 A 
ATOM     37  C   LIG d   1       9.250   8.156  -6.065  0.00  0.00    -0.044 A 
ATOM     38  H   LIG d   1       9.443   8.733  -8.110  0.00  0.00     0.083 H 
ATOM     39  C   LIG d   1       9.350   7.108  -5.162  0.00  0.00    -0.058 A 
ATOM     40  H   LIG d   1       8.966   9.142  -5.729  0.00  0.00     0.063 H 
ATOM     41  C   LIG d   1       9.718   5.859  -5.639  0.00  0.00    -0.035 A 
ATOM     42  H   LIG d   1       9.146   7.261  -4.113  0.00  0.00     0.062 H 
ATOM     43  H   LIG d   1       9.807   5.021  -4.964  0.00  0.00     0.064 H 
ENDBRANCH  31  34
ENDBRANCH  22  31
ENDBRANCH   3  15
BRANCH   1  44
ATOM     44  C   LIG d   1       4.397  -2.617  -7.868  0.00  0.00     0.059 A 
ATOM     45  C   LIG d   1       4.498  -3.356  -6.694  0.00  0.00     0.059 A 
ATOM     46  C   LIG d   1       3.763  -4.613  -6.940  0.00  0.00     0.252 A 
ATOM     47  N   LIG d   1       3.272  -4.588  -8.190  0.00  0.00    -0.248 N 
ATOM     48  O   LIG d   1       3.623  -5.518  -6.141  0.00  0.00    -0.270 OA
ATOM     49  C   LIG d   1       3.603  -3.440  -8.804  0.00  0.00     0.252 A 
ATOM     50  H   LIG d   1       2.749  -5.299  -8.592  0.00  0.00     0.158 HD
ATOM     51  O   LIG d   1       3.302  -3.131  -9.939  0.00  0.00    -0.270 OA
BRANCH  45  52
ATOM     52  C   LIG d   1       5.195  -2.963  -5.458  0.00  0.00     0.013 A 
ATOM     53  C   LIG d   1       6.479  -3.270  -5.113  0.00  0.00     0.013 A 
ATOM     54  N   LIG d   1       6.766  -2.732  -3.896  0.00  0.00    -0.349 N 
ATOM     55  H   LIG d   1       7.162  -3.852  -5.713  0.00  0.00     0.082 H 
ATOM     56  C   LIG d   1       5.673  -2.051  -3.404  0.00  0.00     0.049 A 
ATOM     57  C   LIG d   1       4.645  -2.156  -4.355  0.00  0.00     0.008 A 
ATOM     58  C   LIG d   1       5.447  -1.338  -2.230  0.00  0.00    -0.038 A 
ATOM     59  C   LIG d   1       3.409  -1.563  -4.116  0.00  0.00    -0.052 A 
ATOM     60  C   LIG d   1       3.203  -0.861  -2.947  0.00  0.00    -0.061 A 
ATOM     61  H   LIG d   1       2.616  -1.648  -4.844  0.00  0.00     0.062 H 
ATOM     62  C   LIG d   1       4.220  -0.750  -2.009  0.00  0.00    -0.060 A 
ATOM     63  H   LIG d   1       2.247  -0.396  -2.760  0.00  0.00     0.062 H 
ATOM     64  H   LIG d   1       4.048  -0.198  -1.097  0.00  0.00     0.062 H 
ATOM     65  H   LIG d   1       6.231  -1.245  -1.494  0.00  0.00     0.064 H 
BRANCH  54  66
ATOM     66  C   LIG d   1       8.054  -2.859  -3.209  0.00  0.00     0.012 C 
ATOM     67  H   LIG d   1       8.832  -2.382  -3.804  0.00  0.00     0.046 H 
ATOM     68  H   LIG d   1       7.994  -2.375  -2.234  0.00  0.00     0.046 H 
ATOM     69  H   LIG d   1       8.293  -3.914  -3.076  0.00  0.00     0.046 H 
ENDBRANCH  54  66
ENDBRANCH  45  52
ENDBRANCH   1  44
TORSDOF 6
ENDMDL
MODEL 5
REMARK VINA RESULT:      -8.2      4.281      9.344
REMARK  6 active torsions:
REMARK  status: ('A' for Active; 'I' for Inactive)
REMARK    1  A    between atoms: C_1  and  N_2 
REMARK    2  A    between atoms: C_4  and  C_11 
REMARK    3  A    between atoms: C_12  and  C_18 
REMARK    4  A    between atoms: N_20  and  C_27 
REMARK    5  A    between atoms: C_32  and  C_33 
REMARK    6  A    between atoms: C_32  and  N_68 
ROOT
ATOM      1  C   LIG d   1       5.052  -2.926  -5.089  0.00  0.00     0.013 A 
ATOM      2  C   LIG d   1       4.669  -3.883  -5.982  0.00  0.00     0.014 A 
ATOM      3  N   LIG d   1       5.664  -4.799  -6.129  0.00  0.00    -0.343 N 
ATOM      4  C   LIG d   1       6.740  -4.469  -5.330  0.00  0.00     0.050 A 
ATOM      5  C   LIG d   1       6.413  -3.284  -4.650  0.00  0.00     0.008 A 
ATOM      6  C   LIG d   1       7.322  -2.717  -3.760  0.00  0.00    -0.052 A 
ATOM      7  C   LIG d   1       8.545  -3.317  -3.559  0.00  0.00    -0.061 A 
ATOM      8  C   LIG d   1       8.872  -4.483  -4.235  0.00  0.00    -0.060 A 
ATOM      9  C   LIG d   1       7.981  -5.059  -5.114  0.00  0.00    -0.038 A 
ATOM     10  H   LIG d   1       3.718  -3.910  -6.494  0.00  0.00     0.082 H 
ATOM     11  H   LIG d   1       7.071  -1.808  -3.233  0.00  0.00     0.062 H 
ATOM     12  H   LIG d   1       9.254  -2.877  -2.873  0.00  0.00     0.062 H 
ATOM     13  H   LIG d   1       9.835  -4.946  -4.070  0.00  0.00     0.062 H 
ATOM     14  H   LIG d   1       8.245  -5.967  -5.635  0.00  0.00     0.064 H 
ENDROOT
BRANCH   3  15
ATOM     15  C   LIG d   1       5.603  -5.968  -7.008  0.00  0.00     0.044 C 
ATOM     16  C   LIG d   1       4.623  -6.993  -6.431  0.00  0.00     0.009 C 
ATOM     17  C   LIG d   1       4.516  -8.185  -7.384  0.00  0.00    -0.030 C 
ATOM     18  H   LIG d   1       4.984  -7.335  -5.460  0.00  0.00     0.034 H 
ATOM     19  H   LIG d   1       3.643  -6.532  -6.312  0.00  0.00     0.034 H 
ATOM     20  H   LIG d   1       5.495  -8.653  -7.490  0.00  0.00     0.082 H 
ATOM     21  H   LIG d   1       3.808  -8.909  -6.982  0.00  0.00     0.082 H 
ATOM     22  N   LIG d   1       4.024  -7.708  -8.694  0.00  0.00     0.240 N 
ATOM     23  C   LIG d   1       4.999  -6.773  -9.294  0.00  0.00    -0.030 C 
ATOM     24  H   LIG d   1       3.132  -7.217  -8.556  0.00  0.00     0.204 HD
ATOM     25  C   LIG d   1       5.120  -5.539  -8.396  0.00  0.00     0.009 C 
ATOM     26  H   LIG d   1       5.975  -7.248  -9.391  0.00  0.00     0.082 H 
ATOM     27  H   LIG d   1       4.642  -6.472 -10.279  0.00  0.00     0.082 H 
ATOM     28  H   LIG d   1       4.146  -5.055  -8.310  0.00  0.00     0.034 H 
ATOM     29  H   LIG d   1       5.836  -4.842  -8.832  0.00  0.00     0.034 H 
ATOM     30  H   LIG d   1       6.593  -6.417  -7.089  0.00  0.00     0.053 H 
BRANCH  22  31
ATOM     31  C   LIG d   1       3.804  -8.857  -9.599  0.00  0.00     0.011 C 
ATOM     32  H   LIG d   1       4.488  -8.813 -10.446  0.00  0.00     0.088 H 
ATOM     33  H   LIG d   1       3.968  -9.781  -9.045  0.00  0.00     0.088 H 
BRANCH  31  34
ATOM     34  C   LIG d   1       2.383  -8.815 -10.098  0.00  0.00     0.086 A 
ATOM     35  N   LIG d   1       1.639  -7.752  -9.858  0.00  0.00    -0.255 NA
ATOM     36  C   LIG d   1       0.392  -7.669 -10.279  0.00  0.00     0.028 A 
ATOM     37  C   LIG d   1      -0.186  -8.706 -10.985  0.00  0.00    -0.044 A 
ATOM     38  H   LIG d   1      -0.185  -6.781 -10.066  0.00  0.00     0.083 H 
ATOM     39  C   LIG d   1       0.564  -9.842 -11.253  0.00  0.00    -0.058 A 
ATOM     40  H   LIG d   1      -1.209  -8.634 -11.323  0.00  0.00     0.063 H 
ATOM     41  C   LIG d   1       1.873  -9.891 -10.798  0.00  0.00    -0.035 A 
ATOM     42  H   LIG d   1       0.138 -10.668 -11.803  0.00  0.00     0.062 H 
ATOM     43  H   LIG d   1       2.485 -10.760 -10.988  0.00  0.00     0.064 H 
ENDBRANCH  31  34
ENDBRANCH  22  31
ENDBRANCH   3  15
BRANCH   1  44
ATOM     44  C   LIG d   1       4.264  -1.761  -4.653  0.00  0.00     0.059 A 
ATOM     45  C   LIG d   1       4.033  -0.592  -5.369  0.00  0.00     0.059 A 
ATOM     46  C   LIG d   1       3.191   0.258  -4.503  0.00  0.00     0.252 A 
ATOM     47  N   LIG d   1       2.957  -0.397  -3.354  0.00  0.00    -0.248 N 
ATOM     48  O   LIG d   1       2.775   1.364  -4.786  0.00  0.00    -0.270 OA
ATOM     49  C   LIG d   1       3.557  -1.599  -3.365  0.00  0.00     0.252 A 
ATOM     50  H   LIG d   1       2.427  -0.050  -2.619  0.00  0.00     0.158 HD
ATOM     51  O   LIG d   1       3.526  -2.415  -2.466  0.00  0.00    -0.270 OA
BRANCH  45  52
ATOM     52  C   LIG d   1       4.528  -0.268  -6.718  0.00  0.00     0.013 A 
ATOM     53  C   LIG d   1       5.814   0.026  -7.066  0.00  0.00     0.013 A 
ATOM     54  N   LIG d   1       5.881   0.271  -8.403  0.00  0.00    -0.349 N 
ATOM     55  H   LIG d   1       6.651   0.060  -6.384  0.00  0.00     0.082 H 
ATOM     56  C   LIG d   1       4.633   0.144  -8.976  0.00  0.00     0.049 A 
ATOM     57  C   LIG d   1       3.732  -0.203  -7.956  0.00  0.00     0.008 A 
ATOM     58  C   LIG d   1       4.166   0.286 -10.279  0.00  0.00    -0.038 A 
ATOM     59  C   LIG d   1       2.384  -0.391  -8.249  0.00  0.00    -0.052 A 
ATOM     60  C   LIG d   1       1.941  -0.245  -9.545  0.00  0.00    -0.061 A 
ATOM     61  H   LIG d   1       1.690  -0.653  -7.464  0.00  0.00     0.062 H 
ATOM     62  C   LIG d   1       2.830   0.092 -10.556  0.00  0.00    -0.060 A 
ATOM     63  H   LIG d   1       0.896  -0.394  -9.777  0.00  0.00     0.062 H 
ATOM     64  H   LIG d   1       2.472   0.203 -11.568  0.00  0.00     0.062 H 
ATOM     65  H   LIG d   1       4.850   0.548 -11.073  0.00  0.00     0.064 H 
BRANCH  54  66
ATOM     66  C   LIG d   1       7.105   0.620  -9.130  0.00  0.00     0.012 C 
ATOM     67  H   LIG d   1       7.950   0.613  -8.442  0.00  0.00     0.046 H 
ATOM     68  H   LIG d   1       7.276  -0.109  -9.923  0.00  0.00     0.046 H 
ATOM     69  H   LIG d   1       6.999   1.613  -9.565  0.00  0.00     0.046 H 
ENDBRANCH  54  66
ENDBRANCH  45  52
ENDBRANCH   1  44
TORSDOF 6
ENDMDL
MODEL 6
REMARK VINA RESULT:      -8.2      2.797      7.839
REMARK  6 active torsions:
REMARK  status: ('A' for Active; 'I' for Inactive)
REMARK    1  A    between atoms: C_1  and  N_2 
REMARK    2  A    between atoms: C_4  and  C_11 
REMARK    3  A    between atoms: C_12  and  C_18 
REMARK    4  A    between atoms: N_20  and  C_27 
REMARK    5  A    between atoms: C_32  and  C_33 
REMARK    6  A    between atoms: C_32  and  N_68 
ROOT
ATOM      1  C   LIG d   1       6.734  -1.012  -5.144  0.00  0.00     0.013 A 
ATOM      2  C   LIG d   1       5.983  -1.229  -6.262  0.00  0.00     0.014 A 
ATOM      3  N   LIG d   1       4.720  -0.762  -6.065  0.00  0.00    -0.343 N 
ATOM      4  C   LIG d   1       4.603  -0.219  -4.801  0.00  0.00     0.050 A 
ATOM      5  C   LIG d   1       5.849  -0.355  -4.166  0.00  0.00     0.008 A 
ATOM      6  C   LIG d   1       6.025   0.117  -2.868  0.00  0.00    -0.052 A 
ATOM      7  C   LIG d   1       4.970   0.707  -2.207  0.00  0.00    -0.061 A 
ATOM      8  C   LIG d   1       3.738   0.836  -2.831  0.00  0.00    -0.060 A 
ATOM      9  C   LIG d   1       3.550   0.379  -4.118  0.00  0.00    -0.038 A 
ATOM     10  H   LIG d   1       6.337  -1.700  -7.167  0.00  0.00     0.082 H 
ATOM     11  H   LIG d   1       6.983   0.017  -2.379  0.00  0.00     0.062 H 
ATOM     12  H   LIG d   1       5.102   1.070  -1.198  0.00  0.00     0.062 H 
ATOM     13  H   LIG d   1       2.916   1.300  -2.303  0.00  0.00     0.062 H 
ATOM     14  H   LIG d   1       2.586   0.484  -4.594  0.00  0.00     0.064 H 
ENDROOT
BRANCH   3  15
ATOM     15  C   LIG d   1       3.640  -0.825  -7.052  0.00  0.00     0.044 C 
ATOM     16  C   LIG d   1       3.588   0.487  -7.840  0.00  0.00     0.009 C 
ATOM     17  C   LIG d   1       2.499   0.392  -8.910  0.00  0.00    -0.030 C 
ATOM     18  H   LIG d   1       3.361   1.310  -7.161  0.00  0.00     0.034 H 
ATOM     19  H   LIG d   1       4.553   0.664  -8.315  0.00  0.00     0.034 H 
ATOM     20  H   LIG d   1       1.533   0.229  -8.431  0.00  0.00     0.082 H 
ATOM     21  H   LIG d   1       2.470   1.319  -9.482  0.00  0.00     0.082 H 
ATOM     22  N   LIG d   1       2.821  -0.726  -9.824  0.00  0.00     0.240 N 
ATOM     23  C   LIG d   1       2.801  -2.006  -9.086  0.00  0.00    -0.030 C 
ATOM     24  H   LIG d   1       3.760  -0.579 -10.212  0.00  0.00     0.204 HD
ATOM     25  C   LIG d   1       3.900  -1.982  -8.020  0.00  0.00     0.009 C 
ATOM     26  H   LIG d   1       1.834  -2.158  -8.607  0.00  0.00     0.082 H 
ATOM     27  H   LIG d   1       2.992  -2.821  -9.785  0.00  0.00     0.082 H 
ATOM     28  H   LIG d   1       4.869  -1.845  -8.500  0.00  0.00     0.034 H 
ATOM     29  H   LIG d   1       3.895  -2.925  -7.472  0.00  0.00     0.034 H 
ATOM     30  H   LIG d   1       2.689  -0.982  -6.543  0.00  0.00     0.053 H 
BRANCH  22  31
ATOM     31  C   LIG d   1       1.845  -0.767 -10.933  0.00  0.00     0.011 C 
ATOM     32  H   LIG d   1       1.113  -1.558 -10.769  0.00  0.00     0.088 H 
ATOM     33  H   LIG d   1       1.335   0.194 -10.994  0.00  0.00     0.088 H 
BRANCH  31  34
ATOM     34  C   LIG d   1       2.584  -1.028 -12.219  0.00  0.00     0.086 A 
ATOM     35  N   LIG d   1       2.045  -1.811 -13.134  0.00  0.00    -0.255 NA
ATOM     36  C   LIG d   1       2.653  -2.063 -14.276  0.00  0.00     0.028 A 
ATOM     37  C   LIG d   1       3.893  -1.520 -14.553  0.00  0.00    -0.044 A 
ATOM     38  H   LIG d   1       2.178  -2.707 -15.002  0.00  0.00     0.083 H 
ATOM     39  C   LIG d   1       4.494  -0.696 -13.613  0.00  0.00    -0.058 A 
ATOM     40  H   LIG d   1       4.388  -1.735 -15.489  0.00  0.00     0.063 H 
ATOM     41  C   LIG d   1       3.821  -0.448 -12.426  0.00  0.00    -0.035 A 
ATOM     42  H   LIG d   1       5.462  -0.256 -13.802  0.00  0.00     0.062 H 
ATOM     43  H   LIG d   1       4.260   0.188 -11.672  0.00  0.00     0.064 H 
ENDBRANCH  31  34
ENDBRANCH  22  31
ENDBRANCH   3  15
BRANCH   1  44
ATOM     44  C   LIG d   1       8.149  -1.369  -4.951  0.00  0.00     0.059 A 
ATOM     45  C   LIG d   1       9.256  -0.568  -5.207  0.00  0.00     0.059 A 
ATOM     46  C   LIG d   1      10.438  -1.379  -4.850  0.00  0.00     0.252 A 
ATOM     47  N   LIG d   1      10.021  -2.579  -4.415  0.00  0.00    -0.248 N 
ATOM     48  O   LIG d   1      11.596  -1.018  -4.933  0.00  0.00    -0.270 OA
ATOM     49  C   LIG d   1       8.680  -2.652  -4.444  0.00  0.00     0.252 A 
ATOM     50  H   LIG d   1      10.607  -3.294  -4.120  0.00  0.00     0.158 HD
ATOM     51  O   LIG d   1       8.015  -3.612  -4.110  0.00  0.00    -0.270 OA
BRANCH  45  52
ATOM     52  C   LIG d   1       9.251   0.810  -5.727  0.00  0.00     0.013 A 
ATOM     53  C   LIG d   1       9.110   1.189  -7.030  0.00  0.00     0.013 A 
ATOM     54  N   LIG d   1       9.156   2.546  -7.118  0.00  0.00    -0.349 N 
ATOM     55  H   LIG d   1       8.982   0.515  -7.864  0.00  0.00     0.082 H 
ATOM     56  C   LIG d   1       9.329   3.102  -5.868  0.00  0.00     0.049 A 
ATOM     57  C   LIG d   1       9.390   2.048  -4.941  0.00  0.00     0.008 A 
ATOM     58  C   LIG d   1       9.437   4.414  -5.417  0.00  0.00    -0.038 A 
ATOM     59  C   LIG d   1       9.569   2.319  -3.587  0.00  0.00    -0.052 A 
ATOM     60  C   LIG d   1       9.675   3.625  -3.160  0.00  0.00    -0.061 A 
ATOM     61  H   LIG d   1       9.622   1.508  -2.875  0.00  0.00     0.062 H 
ATOM     62  C   LIG d   1       9.608   4.667  -4.073  0.00  0.00    -0.060 A 
ATOM     63  H   LIG d   1       9.810   3.838  -2.110  0.00  0.00     0.062 H 
ATOM     64  H   LIG d   1       9.692   5.687  -3.728  0.00  0.00     0.062 H 
ATOM     65  H   LIG d   1       9.386   5.233  -6.119  0.00  0.00     0.064 H 
BRANCH  54  66
ATOM     66  C   LIG d   1       9.038   3.308  -8.365  0.00  0.00     0.012 C 
ATOM     67  H   LIG d   1       9.720   4.157  -8.338  0.00  0.00     0.046 H 
ATOM     68  H   LIG d   1       9.290   2.665  -9.208  0.00  0.00     0.046 H 
ATOM     69  H   LIG d   1       8.015   3.668  -8.475  0.00  0.00     0.046 H 
ENDBRANCH  54  66
ENDBRANCH  45  52
ENDBRANCH   1  44
TORSDOF 6
ENDMDL
MODEL 7
REMARK VINA RESULT:      -8.1      4.284     10.760
REMARK  6 active torsions:
REMARK  status: ('A' for Active; 'I' for Inactive)
REMARK    1  A    between atoms: C_1  and  N_2 
REMARK    2  A    between atoms: C_4  and  C_11 
REMARK    3  A    between atoms: C_12  and  C_18 
REMARK    4  A    between atoms: N_20  and  C_27 
REMARK    5  A    between atoms: C_32  and  C_33 
REMARK    6  A    between atoms: C_32  and  N_68 
ROOT
ATOM      1  C   LIG d   1      10.213   6.037  -5.269  0.00  0.00     0.013 A 
ATOM      2  C   LIG d   1       9.459   4.950  -4.932  0.00  0.00     0.014 A 
ATOM      3  N   LIG d   1       9.983   3.833  -5.505  0.00  0.00    -0.343 N 
ATOM      4  C   LIG d   1      11.105   4.153  -6.241  0.00  0.00     0.050 A 
ATOM      5  C   LIG d   1      11.298   5.541  -6.135  0.00  0.00     0.008 A 
ATOM      6  C   LIG d   1      12.372   6.148  -6.780  0.00  0.00    -0.052 A 
ATOM      7  C   LIG d   1      13.238   5.382  -7.531  0.00  0.00    -0.061 A 
ATOM      8  C   LIG d   1      13.045   4.013  -7.642  0.00  0.00    -0.060 A 
ATOM      9  C   LIG d   1      11.989   3.398  -7.004  0.00  0.00    -0.038 A 
ATOM     10  H   LIG d   1       8.581   4.974  -4.304  0.00  0.00     0.082 H 
ATOM     11  H   LIG d   1      12.524   7.213  -6.697  0.00  0.00     0.062 H 
ATOM     12  H   LIG d   1      14.070   5.850  -8.037  0.00  0.00     0.062 H 
ATOM     13  H   LIG d   1      13.730   3.422  -8.234  0.00  0.00     0.062 H 
ATOM     14  H   LIG d   1      11.848   2.331  -7.098  0.00  0.00     0.064 H 
ENDROOT
BRANCH   3  15
ATOM     15  C   LIG d   1       9.435   2.482  -5.360  0.00  0.00     0.044 C 
ATOM     16  C   LIG d   1       8.513   2.431  -4.139  0.00  0.00     0.009 C 
ATOM     17  C   LIG d   1       7.896   1.035  -4.028  0.00  0.00    -0.030 C 
ATOM     18  H   LIG d   1       9.090   2.646  -3.238  0.00  0.00     0.034 H 
ATOM     19  H   LIG d   1       7.722   3.172  -4.249  0.00  0.00     0.034 H 
ATOM     20  H   LIG d   1       8.689   0.297  -3.904  0.00  0.00     0.082 H 
ATOM     21  H   LIG d   1       7.228   1.001  -3.168  0.00  0.00     0.082 H 
ATOM     22  N   LIG d   1       7.116   0.758  -5.253  0.00  0.00     0.240 N 
ATOM     23  C   LIG d   1       8.010   0.733  -6.430  0.00  0.00    -0.030 C 
ATOM     24  H   LIG d   1       6.418   1.502  -5.380  0.00  0.00     0.204 HD
ATOM     25  C   LIG d   1       8.631   2.121  -6.612  0.00  0.00     0.009 C 
ATOM     26  H   LIG d   1       8.801  -0.004  -6.295  0.00  0.00     0.082 H 
ATOM     27  H   LIG d   1       7.424   0.479  -7.314  0.00  0.00     0.082 H 
ATOM     28  H   LIG d   1       7.840   2.856  -6.762  0.00  0.00     0.034 H 
ATOM     29  H   LIG d   1       9.290   2.113  -7.480  0.00  0.00     0.034 H 
ATOM     30  H   LIG d   1      10.250   1.770  -5.232  0.00  0.00     0.053 H 
BRANCH  22  31
ATOM     31  C   LIG d   1       6.416  -0.538  -5.123  0.00  0.00     0.011 C 
ATOM     32  H   LIG d   1       6.053  -0.875  -6.094  0.00  0.00     0.088 H 
ATOM     33  H   LIG d   1       7.107  -1.275  -4.716  0.00  0.00     0.088 H 
BRANCH  31  34
ATOM     34  C   LIG d   1       5.251  -0.367  -4.183  0.00  0.00     0.086 A 
ATOM     35  N   LIG d   1       4.246   0.417  -4.526  0.00  0.00    -0.255 NA
ATOM     36  C   LIG d   1       3.204   0.592  -3.738  0.00  0.00     0.028 A 
ATOM     37  C   LIG d   1       3.133  -0.035  -2.509  0.00  0.00    -0.044 A 
ATOM     38  H   LIG d   1       2.399   1.239  -4.054  0.00  0.00     0.083 H 
ATOM     39  C   LIG d   1       4.173  -0.863  -2.112  0.00  0.00    -0.058 A 
ATOM     40  H   LIG d   1       2.278   0.116  -1.866  0.00  0.00     0.063 H 
ATOM     41  C   LIG d   1       5.249  -1.028  -2.970  0.00  0.00    -0.035 A 
ATOM     42  H   LIG d   1       4.144  -1.367  -1.157  0.00  0.00     0.062 H 
ATOM     43  H   LIG d   1       6.076  -1.665  -2.693  0.00  0.00     0.064 H 
ENDBRANCH  31  34
ENDBRANCH  22  31
ENDBRANCH   3  15
BRANCH   1  44
ATOM     44  C   LIG d   1       9.984   7.431  -4.854  0.00  0.00     0.059 A 
ATOM     45  C   LIG d   1      10.310   8.003  -3.630  0.00  0.00     0.059 A 
ATOM     46  C   LIG d   1       9.880   9.414  -3.712  0.00  0.00     0.252 A 
ATOM     47  N   LIG d   1       9.338   9.629  -4.921  0.00  0.00    -0.248 N 
ATOM     48  O   LIG d   1      10.002  10.243  -2.831  0.00  0.00    -0.270 OA
ATOM     49  C   LIG d   1       9.363   8.505  -5.657  0.00  0.00     0.252 A 
ATOM     50  H   LIG d   1       8.979  10.479  -5.223  0.00  0.00     0.158 HD
ATOM     51  O   LIG d   1       8.943   8.391  -6.791  0.00  0.00    -0.270 OA
BRANCH  45  52
ATOM     52  C   LIG d   1      10.953   7.337  -2.485  0.00  0.00     0.013 A 
ATOM     53  C   LIG d   1      10.388   7.075  -1.271  0.00  0.00     0.013 A 
ATOM     54  N   LIG d   1      11.293   6.449  -0.471  0.00  0.00    -0.349 N 
ATOM     55  H   LIG d   1       9.377   7.327  -0.988  0.00  0.00     0.082 H 
ATOM     56  C   LIG d   1      12.487   6.279  -1.140  0.00  0.00     0.049 A 
ATOM     57  C   LIG d   1      12.331   6.818  -2.427  0.00  0.00     0.008 A 
ATOM     58  C   LIG d   1      13.705   5.710  -0.782  0.00  0.00    -0.038 A 
ATOM     59  C   LIG d   1      13.391   6.792  -3.329  0.00  0.00    -0.052 A 
ATOM     60  C   LIG d   1      14.591   6.224  -2.956  0.00  0.00    -0.061 A 
ATOM     61  H   LIG d   1      13.274   7.212  -4.318  0.00  0.00     0.062 H 
ATOM     62  C   LIG d   1      14.745   5.685  -1.687  0.00  0.00    -0.060 A 
ATOM     63  H   LIG d   1      15.414   6.199  -3.654  0.00  0.00     0.062 H 
ATOM     64  H   LIG d   1      15.689   5.242  -1.405  0.00  0.00     0.062 H 
ATOM     65  H   LIG d   1      13.836   5.287   0.202  0.00  0.00     0.064 H 
BRANCH  54  66
ATOM     66  C   LIG d   1      11.035   6.015   0.905  0.00  0.00     0.012 C 
ATOM     67  H   LIG d   1      11.645   6.601   1.591  0.00  0.00     0.046 H 
ATOM     68  H   LIG d   1       9.981   6.162   1.140  0.00  0.00     0.046 H 
ATOM     69  H   LIG d   1      11.287   4.959   1.006  0.00  0.00     0.046 H 
ENDBRANCH  54  66
ENDBRANCH  45  52
ENDBRANCH   1  44
TORSDOF 6
ENDMDL
MODEL 8
REMARK VINA RESULT:      -8.1      3.436      9.598
REMARK  6 active torsions:
REMARK  status: ('A' for Active; 'I' for Inactive)
REMARK    1  A    between atoms: C_1  and  N_2 
REMARK    2  A    between atoms: C_4  and  C_11 
REMARK    3  A    between atoms: C_12  and  C_18 
REMARK    4  A    between atoms: N_20  and  C_27 
REMARK    5  A    between atoms: C_32  and  C_33 
REMARK    6  A    between atoms: C_32  and  N_68 
ROOT
ATOM      1  C   LIG d   1       4.289  -1.309  -6.000  0.00  0.00     0.013 A 
ATOM      2  C   LIG d   1       4.746  -2.591  -6.093  0.00  0.00     0.014 A 
ATOM      3  N   LIG d   1       4.474  -3.087  -7.330  0.00  0.00    -0.343 N 
ATOM      4  C   LIG d   1       3.825  -2.138  -8.095  0.00  0.00     0.050 A 
ATOM      5  C   LIG d   1       3.673  -0.989  -7.301  0.00  0.00     0.008 A 
ATOM      6  C   LIG d   1       3.050   0.142  -7.822  0.00  0.00    -0.052 A 
ATOM      7  C   LIG d   1       2.574   0.123  -9.115  0.00  0.00    -0.061 A 
ATOM      8  C   LIG d   1       2.718  -1.012  -9.898  0.00  0.00    -0.060 A 
ATOM      9  C   LIG d   1       3.337  -2.138  -9.397  0.00  0.00    -0.038 A 
ATOM     10  H   LIG d   1       5.249  -3.130  -5.304  0.00  0.00     0.082 H 
ATOM     11  H   LIG d   1       2.936   1.027  -7.215  0.00  0.00     0.062 H 
ATOM     12  H   LIG d   1       2.087   0.998  -9.521  0.00  0.00     0.062 H 
ATOM     13  H   LIG d   1       2.341  -1.016 -10.911  0.00  0.00     0.062 H 
ATOM     14  H   LIG d   1       3.444  -3.017 -10.015  0.00  0.00     0.064 H 
ENDROOT
BRANCH   3  15
ATOM     15  C   LIG d   1       4.821  -4.435  -7.787  0.00  0.00     0.044 C 
ATOM     16  C   LIG d   1       5.927  -5.009  -6.898  0.00  0.00     0.009 C 
ATOM     17  C   LIG d   1       6.242  -6.439  -7.342  0.00  0.00    -0.030 C 
ATOM     18  H   LIG d   1       6.823  -4.394  -6.990  0.00  0.00     0.034 H 
ATOM     19  H   LIG d   1       5.594  -5.013  -5.861  0.00  0.00     0.034 H 
ATOM     20  H   LIG d   1       6.588  -6.430  -8.376  0.00  0.00     0.082 H 
ATOM     21  H   LIG d   1       7.019  -6.855  -6.702  0.00  0.00     0.082 H 
ATOM     22  N   LIG d   1       5.021  -7.262  -7.211  0.00  0.00     0.240 N 
ATOM     23  C   LIG d   1       3.969  -6.759  -8.120  0.00  0.00    -0.030 C 
ATOM     24  H   LIG d   1       4.681  -7.201  -6.243  0.00  0.00     0.204 HD
ATOM     25  C   LIG d   1       3.587  -5.337  -7.700  0.00  0.00     0.009 C 
ATOM     26  H   LIG d   1       4.326  -6.749  -9.150  0.00  0.00     0.082 H 
ATOM     27  H   LIG d   1       3.096  -7.407  -8.045  0.00  0.00     0.082 H 
ATOM     28  H   LIG d   1       3.216  -5.349  -6.674  0.00  0.00     0.034 H 
ATOM     29  H   LIG d   1       2.809  -4.959  -8.363  0.00  0.00     0.034 H 
ATOM     30  H   LIG d   1       5.168  -4.392  -8.820  0.00  0.00     0.053 H 
BRANCH  22  31
ATOM     31  C   LIG d   1       5.327  -8.673  -7.525  0.00  0.00     0.011 C 
ATOM     32  H   LIG d   1       4.841  -8.972  -8.454  0.00  0.00     0.088 H 
ATOM     33  H   LIG d   1       6.406  -8.789  -7.624  0.00  0.00     0.088 H 
BRANCH  31  34
ATOM     34  C   LIG d   1       4.829  -9.539  -6.397  0.00  0.00     0.086 A 
ATOM     35  N   LIG d   1       4.469 -10.785  -6.642  0.00  0.00    -0.255 NA
ATOM     36  C   LIG d   1       4.032 -11.581  -5.686  0.00  0.00     0.028 A 
ATOM     37  C   LIG d   1       3.924 -11.130  -4.385  0.00  0.00    -0.044 A 
ATOM     38  H   LIG d   1       3.749 -12.596  -5.925  0.00  0.00     0.083 H 
ATOM     39  C   LIG d   1       4.288  -9.825  -4.090  0.00  0.00    -0.058 A 
ATOM     40  H   LIG d   1       3.560 -11.786  -3.607  0.00  0.00     0.063 H 
ATOM     41  C   LIG d   1       4.749  -9.019  -5.120  0.00  0.00    -0.035 A 
ATOM     42  H   LIG d   1       4.214  -9.445  -3.081  0.00  0.00     0.062 H 
ATOM     43  H   LIG d   1       5.040  -7.998  -4.926  0.00  0.00     0.064 H 
ENDBRANCH  31  34
ENDBRANCH  22  31
ENDBRANCH   3  15
BRANCH   1  44
ATOM     44  C   LIG d   1       4.386  -0.421  -4.829  0.00  0.00     0.059 A 
ATOM     45  C   LIG d   1       5.548   0.096  -4.267  0.00  0.00     0.059 A 
ATOM     46  C   LIG d   1       5.114   0.922  -3.122  0.00  0.00     0.252 A 
ATOM     47  N   LIG d   1       3.774   0.875  -3.041  0.00  0.00    -0.248 N 
ATOM     48  O   LIG d   1       5.848   1.545  -2.380  0.00  0.00    -0.270 OA
ATOM     49  C   LIG d   1       3.269   0.101  -4.016  0.00  0.00     0.252 A 
ATOM     50  H   LIG d   1       3.244   1.337  -2.371  0.00  0.00     0.158 HD
ATOM     51  O   LIG d   1       2.091  -0.131  -4.198  0.00  0.00    -0.270 OA
BRANCH  45  52
ATOM     52  C   LIG d   1       6.930  -0.134  -4.720  0.00  0.00     0.013 A 
ATOM     53  C   LIG d   1       7.703   0.724  -5.447  0.00  0.00     0.013 A 
ATOM     54  N   LIG d   1       8.920   0.161  -5.675  0.00  0.00    -0.349 N 
ATOM     55  H   LIG d   1       7.394   1.700  -5.790  0.00  0.00     0.082 H 
ATOM     56  C   LIG d   1       8.984  -1.091  -5.100  0.00  0.00     0.049 A 
ATOM     57  C   LIG d   1       7.751  -1.332  -4.473  0.00  0.00     0.008 A 
ATOM     58  C   LIG d   1       9.980  -2.060  -5.042  0.00  0.00    -0.038 A 
ATOM     59  C   LIG d   1       7.527  -2.536  -3.811  0.00  0.00    -0.052 A 
ATOM     60  C   LIG d   1       8.526  -3.485  -3.765  0.00  0.00    -0.061 A 
ATOM     61  H   LIG d   1       6.577  -2.725  -3.334  0.00  0.00     0.062 H 
ATOM     62  C   LIG d   1       9.748  -3.246  -4.377  0.00  0.00    -0.060 A 
ATOM     63  H   LIG d   1       8.358  -4.419  -3.248  0.00  0.00     0.062 H 
ATOM     64  H   LIG d   1      10.523  -3.996  -4.335  0.00  0.00     0.062 H 
ATOM     65  H   LIG d   1      10.935  -1.885  -5.515  0.00  0.00     0.064 H 
BRANCH  54  66
ATOM     66  C   LIG d   1      10.009   0.796  -6.423  0.00  0.00     0.012 C 
ATOM     67  H   LIG d   1      10.193   0.238  -7.341  0.00  0.00     0.046 H 
ATOM     68  H   LIG d   1       9.730   1.820  -6.670  0.00  0.00     0.046 H 
ATOM     69  H   LIG d   1      10.913   0.801  -5.815  0.00  0.00     0.046 H 
ENDBRANCH  54  66
ENDBRANCH  45  52
ENDBRANCH   1  44
TORSDOF 6
ENDMDL
MODEL 9
REMARK VINA RESULT:      -8.0      1.910      3.069
REMARK  6 active torsions:
REMARK  status: ('A' for Active; 'I' for Inactive)
REMARK    1  A    between atoms: C_1  and  N_2 
REMARK    2  A    between atoms: C_4  and  C_11 
REMARK    3  A    between atoms: C_12  and  C_18 
REMARK    4  A    between atoms: N_20  and  C_27 
REMARK    5  A    between atoms: C_32  and  C_33 
REMARK    6  A    between atoms: C_32  and  N_68 
ROOT
ATOM      1  C   LIG d   1       5.282  -1.511  -5.511  0.00  0.00     0.013 A 
ATOM      2  C   LIG d   1       6.476  -0.919  -5.804  0.00  0.00     0.014 A 
ATOM      3  N   LIG d   1       6.690   0.126  -4.959  0.00  0.00    -0.343 N 
ATOM      4  C   LIG d   1       5.636   0.253  -4.078  0.00  0.00     0.050 A 
ATOM      5  C   LIG d   1       4.706  -0.755  -4.384  0.00  0.00     0.008 A 
ATOM      6  C   LIG d   1       3.533  -0.871  -3.643  0.00  0.00    -0.052 A 
ATOM      7  C   LIG d   1       3.285   0.014  -2.617  0.00  0.00    -0.061 A 
ATOM      8  C   LIG d   1       4.198   1.014  -2.318  0.00  0.00    -0.060 A 
ATOM      9  C   LIG d   1       5.366   1.137  -3.039  0.00  0.00    -0.038 A 
ATOM     10  H   LIG d   1       7.149  -1.233  -6.588  0.00  0.00     0.082 H 
ATOM     11  H   LIG d   1       2.819  -1.647  -3.874  0.00  0.00     0.062 H 
ATOM     12  H   LIG d   1       2.373  -0.070  -2.042  0.00  0.00     0.062 H 
ATOM     13  H   LIG d   1       3.993   1.703  -1.511  0.00  0.00     0.062 H 
ATOM     14  H   LIG d   1       6.071   1.919  -2.798  0.00  0.00     0.064 H 
ENDROOT
BRANCH   3  15
ATOM     15  C   LIG d   1       7.872   0.992  -4.981  0.00  0.00     0.044 C 
ATOM     16  C   LIG d   1       8.224   1.414  -3.552  0.00  0.00     0.009 C 
ATOM     17  C   LIG d   1       9.494   2.267  -3.575  0.00  0.00    -0.030 C 
ATOM     18  H   LIG d   1       7.402   1.996  -3.132  0.00  0.00     0.034 H 
ATOM     19  H   LIG d   1       8.391   0.528  -2.941  0.00  0.00     0.034 H 
ATOM     20  H   LIG d   1       9.320   3.161  -4.175  0.00  0.00     0.082 H 
ATOM     21  H   LIG d   1       9.754   2.558  -2.558  0.00  0.00     0.082 H 
ATOM     22  N   LIG d   1      10.599   1.467  -4.144  0.00  0.00     0.240 N 
ATOM     23  C   LIG d   1      10.300   1.115  -5.548  0.00  0.00    -0.030 C 
ATOM     24  H   LIG d   1      10.699   0.602  -3.598  0.00  0.00     0.204 HD
ATOM     25  C   LIG d   1       9.054   0.227  -5.584  0.00  0.00     0.009 C 
ATOM     26  H   LIG d   1      10.123   2.013  -6.139  0.00  0.00     0.082 H 
ATOM     27  H   LIG d   1      11.147   0.568  -5.964  0.00  0.00     0.082 H 
ATOM     28  H   LIG d   1       9.235  -0.679  -5.005  0.00  0.00     0.034 H 
ATOM     29  H   LIG d   1       8.827  -0.040  -6.616  0.00  0.00     0.034 H 
ATOM     30  H   LIG d   1       7.665   1.877  -5.582  0.00  0.00     0.053 H 
BRANCH  22  31
ATOM     31  C   LIG d   1      11.863   2.229  -4.072  0.00  0.00     0.011 C 
ATOM     32  H   LIG d   1      11.851   3.058  -4.780  0.00  0.00     0.088 H 
ATOM     33  H   LIG d   1      11.988   2.615  -3.061  0.00  0.00     0.088 H 
BRANCH  31  34
ATOM     34  C   LIG d   1      13.006   1.305  -4.403  0.00  0.00     0.086 A 
ATOM     35  N   LIG d   1      13.801   1.589  -5.417  0.00  0.00    -0.255 NA
ATOM     36  C   LIG d   1      14.816   0.812  -5.741  0.00  0.00     0.028 A 
ATOM     37  C   LIG d   1      15.077  -0.343  -5.030  0.00  0.00    -0.044 A 
ATOM     38  H   LIG d   1      15.448   1.079  -6.575  0.00  0.00     0.083 H 
ATOM     39  C   LIG d   1      14.259  -0.678  -3.961  0.00  0.00    -0.058 A 
ATOM     40  H   LIG d   1      15.908  -0.978  -5.303  0.00  0.00     0.063 H 
ATOM     41  C   LIG d   1      13.205   0.166  -3.646  0.00  0.00    -0.035 A 
ATOM     42  H   LIG d   1      14.440  -1.575  -3.386  0.00  0.00     0.062 H 
ATOM     43  H   LIG d   1      12.549  -0.064  -2.821  0.00  0.00     0.064 H 
ENDBRANCH  31  34
ENDBRANCH  22  31
ENDBRANCH   3  15
BRANCH   1  44
ATOM     44  C   LIG d   1       4.684  -2.672  -6.191  0.00  0.00     0.059 A 
ATOM     45  C   LIG d   1       4.392  -2.789  -7.545  0.00  0.00     0.059 A 
ATOM     46  C   LIG d   1       3.810  -4.136  -7.721  0.00  0.00     0.252 A 
ATOM     47  N   LIG d   1       3.774  -4.749  -6.527  0.00  0.00    -0.248 N 
ATOM     48  O   LIG d   1       3.431  -4.610  -8.774  0.00  0.00    -0.270 OA
ATOM     49  C   LIG d   1       4.274  -3.949  -5.570  0.00  0.00     0.252 A 
ATOM     50  H   LIG d   1       3.436  -5.646  -6.376  0.00  0.00     0.158 HD
ATOM     51  O   LIG d   1       4.372  -4.228  -4.392  0.00  0.00    -0.270 OA
BRANCH  45  52
ATOM     52  C   LIG d   1       4.617  -1.777  -8.590  0.00  0.00     0.013 A 
ATOM     53  C   LIG d   1       5.408  -1.907  -9.694  0.00  0.00     0.013 A 
ATOM     54  N   LIG d   1       5.365  -0.761 -10.426  0.00  0.00    -0.349 N 
ATOM     55  H   LIG d   1       5.982  -2.786  -9.948  0.00  0.00     0.082 H 
ATOM     56  C   LIG d   1       4.537   0.162  -9.821  0.00  0.00     0.049 A 
ATOM     57  C   LIG d   1       4.028  -0.429  -8.653  0.00  0.00     0.008 A 
ATOM     58  C   LIG d   1       4.158   1.459 -10.151  0.00  0.00    -0.038 A 
ATOM     59  C   LIG d   1       3.161   0.286  -7.830  0.00  0.00    -0.052 A 
ATOM     60  C   LIG d   1       2.797   1.570  -8.174  0.00  0.00    -0.061 A 
ATOM     61  H   LIG d   1       2.773  -0.166  -6.929  0.00  0.00     0.062 H 
ATOM     62  C   LIG d   1       3.294   2.153  -9.331  0.00  0.00    -0.060 A 
ATOM     63  H   LIG d   1       2.121   2.126  -7.540  0.00  0.00     0.062 H 
ATOM     64  H   LIG d   1       3.002   3.159  -9.590  0.00  0.00     0.062 H 
ATOM     65  H   LIG d   1       4.539   1.922 -11.049  0.00  0.00     0.064 H 
BRANCH  54  66
ATOM     66  C   LIG d   1       6.092  -0.539 -11.679  0.00  0.00     0.012 C 
ATOM     67  H   LIG d   1       6.428  -1.495 -12.078  0.00  0.00     0.046 H 
ATOM     68  H   LIG d   1       5.433  -0.055 -12.400  0.00  0.00     0.046 H 
ATOM     69  H   LIG d   1       6.955   0.099 -11.489  0.00  0.00     0.046 H 
ENDBRANCH  54  66
ENDBRANCH  45  52
ENDBRANCH   1  44
TORSDOF 6
ENDMDL
