MODEL 1
REMARK VINA RESULT:      -5.5      0.000      0.000
REMARK  11 active torsions:
REMARK  status: ('A' for Active; 'I' for Inactive)
REMARK    1  A    between atoms: C_1  and  O_2 
REMARK    2  A    between atoms: O_2  and  C_3 
REMARK    3  A    between atoms: C_6  and  O_34 
REMARK    4  A    between atoms: C_7  and  N_9 
REMARK    5  A    between atoms: C_10  and  O_33 
REMARK    6  A    between atoms: C_11  and  C_18 
REMARK    7  A    between atoms: C_23  and  O_31 
REMARK    8  A    between atoms: C_24  and  O_29 
REMARK    9  A    between atoms: O_29  and  C_30 
REMARK   10  A    between atoms: O_31  and  C_32 
REMARK   11  A    between atoms: O_34  and  C_35 
ROOT
ATOM      1  N   LIG d   1       6.514  -0.413  -5.913  0.00  0.00    -0.229 N 
ATOM      2  C   LIG d   1       5.871   0.203  -6.959  0.00  0.00     0.214 A 
ATOM      3  C   LIG d   1       6.607   0.835  -7.918  0.00  0.00     0.121 A 
ATOM      4  C   LIG d   1       8.010   0.834  -7.814  0.00  0.00     0.265 A 
ATOM      5  O   LIG d   1       8.687   1.387  -8.663  0.00  0.00    -0.267 OA
ATOM      6  N   LIG d   1       8.599   0.222  -6.768  0.00  0.00    -0.274 N 
ATOM      7  H   LIG d   1       9.595   0.227  -6.686  0.00  0.00     0.173 HD
ATOM      8  C   LIG d   1       7.855  -0.396  -5.831  0.00  0.00     0.337 A 
ATOM      9  O   LIG d   1       8.407  -0.946  -4.898  0.00  0.00    -0.246 OA
ENDROOT
BRANCH   3  10
ATOM     10  C   LIG d   1       5.926   1.518  -9.075  0.00  0.00     0.164 A 
ATOM     11  H   LIG d   1       6.576   2.287  -9.491  0.00  0.00     0.084 H 
ATOM     12  O   LIG d   1       4.671   2.109  -8.639  0.00  0.00    -0.448 OA
ATOM     13  C   LIG d   1       3.661   1.551  -9.329  0.00  0.00     0.344 A 
ATOM     14  C   LIG d   1       4.181   0.548 -10.272  0.00  0.00     0.111 A 
ATOM     15  O   LIG d   1       2.488   1.833  -9.193  0.00  0.00    -0.245 OA
ATOM     16  C   LIG d   1       5.574   0.507 -10.138  0.00  0.00     0.015 A 
ATOM     17  C   LIG d   1       3.554  -0.293 -11.200  0.00  0.00     0.176 A 
ATOM     18  C   LIG d   1       6.322  -0.350 -10.908  0.00  0.00    -0.050 A 
ATOM     19  C   LIG d   1       5.700  -1.188 -11.822  0.00  0.00    -0.016 A 
ATOM     20  H   LIG d   1       7.395  -0.376 -10.797  0.00  0.00     0.062 H 
ATOM     21  C   LIG d   1       4.324  -1.157 -11.974  0.00  0.00     0.162 A 
ATOM     22  H   LIG d   1       6.292  -1.863 -12.422  0.00  0.00     0.066 H 
BRANCH  21  23
ATOM     23  O   LIG d   1       3.722  -1.976 -12.876  0.00  0.00    -0.491 OA
BRANCH  23  24
ATOM     24  C   LIG d   1       3.736  -3.377 -12.591  0.00  0.00     0.079 C 
ATOM     25  H   LIG d   1       3.676  -3.938 -13.523  0.00  0.00     0.066 H 
ATOM     26  H   LIG d   1       2.883  -3.628 -11.960  0.00  0.00     0.066 H 
ATOM     27  H   LIG d   1       4.659  -3.633 -12.071  0.00  0.00     0.066 H 
ENDBRANCH  23  24
ENDBRANCH  21  23
BRANCH  17  28
ATOM     28  O   LIG d   1       2.205  -0.266 -11.344  0.00  0.00    -0.491 OA
BRANCH  28  29
ATOM     29  C   LIG d   1       1.447  -1.158 -10.523  0.00  0.00     0.079 C 
ATOM     30  H   LIG d   1       1.126  -2.013 -11.117  0.00  0.00     0.066 H 
ATOM     31  H   LIG d   1       2.066  -1.502  -9.694  0.00  0.00     0.066 H 
ATOM     32  H   LIG d   1       0.573  -0.637 -10.132  0.00  0.00     0.066 H 
ENDBRANCH  28  29
ENDBRANCH  17  28
ENDBRANCH   3  10
BRANCH   2  33
ATOM     33  O   LIG d   1       4.524   0.184  -7.037  0.00  0.00    -0.493 OA
ATOM     34  H   LIG d   1       4.080   0.209  -6.179  0.00  0.00     0.294 HD
ENDBRANCH   2  33
BRANCH   1  35
ATOM     35  C   LIG d   1       5.763  -1.065  -4.922  0.00  0.00     0.099 A 
ATOM     36  C   LIG d   1       5.417  -2.404  -5.078  0.00  0.00     0.144 A 
ATOM     37  C   LIG d   1       4.681  -3.047  -4.096  0.00  0.00    -0.014 A 
ATOM     38  C   LIG d   1       4.280  -2.356  -2.968  0.00  0.00    -0.016 A 
ATOM     39  H   LIG d   1       4.417  -4.087  -4.213  0.00  0.00     0.066 H 
ATOM     40  C   LIG d   1       4.618  -1.020  -2.812  0.00  0.00     0.122 A 
ATOM     41  H   LIG d   1       3.703  -2.858  -2.206  0.00  0.00     0.066 H 
ATOM     42  C   LIG d   1       5.360  -0.374  -3.789  0.00  0.00     0.008 A 
ATOM     43  H   LIG d   1       5.623   0.667  -3.668  0.00  0.00     0.068 H 
BRANCH  36  44
ATOM     44  O   LIG d   1       5.806  -3.083  -6.190  0.00  0.00    -0.493 OA
BRANCH  44  45
ATOM     45  C   LIG d   1       4.782  -3.461  -7.112  0.00  0.00     0.079 C 
ATOM     46  H   LIG d   1       4.219  -2.578  -7.413  0.00  0.00     0.066 H 
ATOM     47  H   LIG d   1       5.236  -3.921  -7.990  0.00  0.00     0.066 H 
ATOM     48  H   LIG d   1       4.109  -4.175  -6.636  0.00  0.00     0.066 H 
ENDBRANCH  44  45
ENDBRANCH  36  44
BRANCH  40  49
ATOM     49  O   LIG d   1       4.222  -0.344  -1.702  0.00  0.00    -0.495 OA
BRANCH  49  50
ATOM     50  C   LIG d   1       4.557   1.045  -1.635  0.00  0.00     0.079 C 
ATOM     51  H   LIG d   1       3.740   1.594  -1.168  0.00  0.00     0.066 H 
ATOM     52  H   LIG d   1       5.464   1.171  -1.044  0.00  0.00     0.066 H 
ATOM     53  H   LIG d   1       4.724   1.427  -2.642  0.00  0.00     0.066 H 
ENDBRANCH  49  50
ENDBRANCH  40  49
ENDBRANCH   1  35
TORSDOF 11
ENDMDL
MODEL 2
REMARK VINA RESULT:      -5.5      0.752      2.272
REMARK  11 active torsions:
REMARK  status: ('A' for Active; 'I' for Inactive)
REMARK    1  A    between atoms: C_1  and  O_2 
REMARK    2  A    between atoms: O_2  and  C_3 
REMARK    3  A    between atoms: C_6  and  O_34 
REMARK    4  A    between atoms: C_7  and  N_9 
REMARK    5  A    between atoms: C_10  and  O_33 
REMARK    6  A    between atoms: C_11  and  C_18 
REMARK    7  A    between atoms: C_23  and  O_31 
REMARK    8  A    between atoms: C_24  and  O_29 
REMARK    9  A    between atoms: O_29  and  C_30 
REMARK   10  A    between atoms: O_31  and  C_32 
REMARK   11  A    between atoms: O_34  and  C_35 
ROOT
ATOM      1  N   LIG d   1       6.535  -0.322  -5.971  0.00  0.00    -0.229 N 
ATOM      2  C   LIG d   1       5.910   0.264  -7.044  0.00  0.00     0.214 A 
ATOM      3  C   LIG d   1       6.646   0.994  -7.931  0.00  0.00     0.121 A 
ATOM      4  C   LIG d   1       8.031   1.122  -7.727  0.00  0.00     0.265 A 
ATOM      5  O   LIG d   1       8.709   1.765  -8.509  0.00  0.00    -0.267 OA
ATOM      6  N   LIG d   1       8.603   0.536  -6.657  0.00  0.00    -0.274 N 
ATOM      7  H   LIG d   1       9.586   0.632  -6.503  0.00  0.00     0.173 HD
ATOM      8  C   LIG d   1       7.860  -0.181  -5.792  0.00  0.00     0.337 A 
ATOM      9  O   LIG d   1       8.396  -0.707  -4.836  0.00  0.00    -0.246 OA
ENDROOT
BRANCH   3  10
ATOM     10  C   LIG d   1       5.983   1.647  -9.116  0.00  0.00     0.164 A 
ATOM     11  H   LIG d   1       6.641   2.403  -9.543  0.00  0.00     0.084 H 
ATOM     12  O   LIG d   1       4.723   2.251  -8.715  0.00  0.00    -0.448 OA
ATOM     13  C   LIG d   1       3.723   1.677  -9.405  0.00  0.00     0.344 A 
ATOM     14  C   LIG d   1       4.254   0.648 -10.313  0.00  0.00     0.111 A 
ATOM     15  O   LIG d   1       2.548   1.964  -9.294  0.00  0.00    -0.245 OA
ATOM     16  C   LIG d   1       5.645   0.608 -10.157  0.00  0.00     0.015 A 
ATOM     17  C   LIG d   1       3.640  -0.217 -11.227  0.00  0.00     0.176 A 
ATOM     18  C   LIG d   1       6.402  -0.271 -10.892  0.00  0.00    -0.050 A 
ATOM     19  C   LIG d   1       5.792  -1.131 -11.793  0.00  0.00    -0.016 A 
ATOM     20  H   LIG d   1       7.474  -0.295 -10.765  0.00  0.00     0.062 H 
ATOM     21  C   LIG d   1       4.420  -1.102 -11.966  0.00  0.00     0.162 A 
ATOM     22  H   LIG d   1       6.392  -1.823 -12.366  0.00  0.00     0.066 H 
BRANCH  21  23
ATOM     23  O   LIG d   1       3.829  -1.944 -12.855  0.00  0.00    -0.491 OA
BRANCH  23  24
ATOM     24  C   LIG d   1       3.831  -3.336 -12.530  0.00  0.00     0.079 C 
ATOM     25  H   LIG d   1       3.785  -3.924 -13.446  0.00  0.00     0.066 H 
ATOM     26  H   LIG d   1       2.966  -3.565 -11.907  0.00  0.00     0.066 H 
ATOM     27  H   LIG d   1       4.744  -3.581 -11.987  0.00  0.00     0.066 H 
ENDBRANCH  23  24
ENDBRANCH  21  23
BRANCH  17  28
ATOM     28  O   LIG d   1       2.293  -0.192 -11.392  0.00  0.00    -0.491 OA
BRANCH  28  29
ATOM     29  C   LIG d   1       1.521  -1.061 -10.559  0.00  0.00     0.079 C 
ATOM     30  H   LIG d   1       1.207  -1.930 -11.135  0.00  0.00     0.066 H 
ATOM     31  H   LIG d   1       2.127  -1.384  -9.712  0.00  0.00     0.066 H 
ATOM     32  H   LIG d   1       0.643  -0.529 -10.195  0.00  0.00     0.066 H 
ENDBRANCH  28  29
ENDBRANCH  17  28
ENDBRANCH   3  10
BRANCH   2  33
ATOM     33  O   LIG d   1       4.579   0.120  -7.220  0.00  0.00    -0.493 OA
ATOM     34  H   LIG d   1       4.049   0.799  -6.782  0.00  0.00     0.294 HD
ENDBRANCH   2  33
BRANCH   1  35
ATOM     35  C   LIG d   1       5.784  -1.074  -5.054  0.00  0.00     0.099 A 
ATOM     36  C   LIG d   1       5.300  -0.477  -3.894  0.00  0.00     0.144 A 
ATOM     37  C   LIG d   1       4.554  -1.220  -2.993  0.00  0.00    -0.014 A 
ATOM     38  C   LIG d   1       4.302  -2.556  -3.240  0.00  0.00    -0.016 A 
ATOM     39  H   LIG d   1       4.173  -0.757  -2.095  0.00  0.00     0.066 H 
ATOM     40  C   LIG d   1       4.787  -3.156  -4.392  0.00  0.00     0.122 A 
ATOM     41  H   LIG d   1       3.723  -3.135  -2.535  0.00  0.00     0.066 H 
ATOM     42  C   LIG d   1       5.529  -2.415  -5.300  0.00  0.00     0.008 A 
ATOM     43  H   LIG d   1       5.907  -2.882  -6.197  0.00  0.00     0.068 H 
BRANCH  36  44
ATOM     44  O   LIG d   1       5.553   0.836  -3.646  0.00  0.00    -0.493 OA
BRANCH  44  45
ATOM     45  C   LIG d   1       4.808   1.455  -2.596  0.00  0.00     0.079 C 
ATOM     46  H   LIG d   1       4.938   0.888  -1.674  0.00  0.00     0.066 H 
ATOM     47  H   LIG d   1       5.165   2.474  -2.449  0.00  0.00     0.066 H 
ATOM     48  H   LIG d   1       3.751   1.476  -2.863  0.00  0.00     0.066 H 
ENDBRANCH  44  45
ENDBRANCH  36  44
BRANCH  40  49
ATOM     49  O   LIG d   1       4.537  -4.470  -4.633  0.00  0.00    -0.495 OA
BRANCH  49  50
ATOM     50  C   LIG d   1       4.364  -4.858  -5.998  0.00  0.00     0.079 C 
ATOM     51  H   LIG d   1       3.316  -5.095  -6.179  0.00  0.00     0.066 H 
ATOM     52  H   LIG d   1       4.668  -4.038  -6.649  0.00  0.00     0.066 H 
ATOM     53  H   LIG d   1       4.977  -5.735  -6.207  0.00  0.00     0.066 H 
ENDBRANCH  49  50
ENDBRANCH  40  49
ENDBRANCH   1  35
TORSDOF 11
ENDMDL
MODEL 3
REMARK VINA RESULT:      -5.4      2.468      7.269
REMARK  11 active torsions:
REMARK  status: ('A' for Active; 'I' for Inactive)
REMARK    1  A    between atoms: C_1  and  O_2 
REMARK    2  A    between atoms: O_2  and  C_3 
REMARK    3  A    between atoms: C_6  and  O_34 
REMARK    4  A    between atoms: C_7  and  N_9 
REMARK    5  A    between atoms: C_10  and  O_33 
REMARK    6  A    between atoms: C_11  and  C_18 
REMARK    7  A    between atoms: C_23  and  O_31 
REMARK    8  A    between atoms: C_24  and  O_29 
REMARK    9  A    between atoms: O_29  and  C_30 
REMARK   10  A    between atoms: O_31  and  C_32 
REMARK   11  A    between atoms: O_34  and  C_35 
ROOT
ATOM      1  N   LIG d   1       4.785  -3.330  -8.293  0.00  0.00    -0.229 N 
ATOM      2  C   LIG d   1       4.754  -3.001  -6.959  0.00  0.00     0.214 A 
ATOM      3  C   LIG d   1       5.596  -3.633  -6.093  0.00  0.00     0.121 A 
ATOM      4  C   LIG d   1       6.483  -4.605  -6.589  0.00  0.00     0.265 A 
ATOM      5  O   LIG d   1       7.248  -5.179  -5.834  0.00  0.00    -0.267 OA
ATOM      6  N   LIG d   1       6.477  -4.902  -7.904  0.00  0.00    -0.274 N 
ATOM      7  H   LIG d   1       7.099  -5.599  -8.259  0.00  0.00     0.173 HD
ATOM      8  C   LIG d   1       5.637  -4.267  -8.743  0.00  0.00     0.337 A 
ATOM      9  O   LIG d   1       5.651  -4.545  -9.927  0.00  0.00    -0.246 OA
ENDROOT
BRANCH   3  10
ATOM     10  C   LIG d   1       5.580  -3.290  -4.626  0.00  0.00     0.164 A 
ATOM     11  H   LIG d   1       6.068  -4.077  -4.052  0.00  0.00     0.084 H 
ATOM     12  O   LIG d   1       4.212  -3.114  -4.168  0.00  0.00    -0.448 OA
ATOM     13  C   LIG d   1       4.061  -1.859  -3.710  0.00  0.00     0.344 A 
ATOM     14  C   LIG d   1       5.325  -1.115  -3.835  0.00  0.00     0.111 A 
ATOM     15  O   LIG d   1       3.029  -1.403  -3.259  0.00  0.00    -0.245 OA
ATOM     16  C   LIG d   1       6.279  -1.973  -4.396  0.00  0.00     0.015 A 
ATOM     17  C   LIG d   1       5.687   0.197  -3.508  0.00  0.00     0.176 A 
ATOM     18  C   LIG d   1       7.560  -1.532  -4.624  0.00  0.00    -0.050 A 
ATOM     19  C   LIG d   1       7.916  -0.230  -4.305  0.00  0.00    -0.016 A 
ATOM     20  H   LIG d   1       8.289  -2.200  -5.058  0.00  0.00     0.062 H 
ATOM     21  C   LIG d   1       6.988   0.630  -3.744  0.00  0.00     0.162 A 
ATOM     22  H   LIG d   1       8.924   0.112  -4.491  0.00  0.00     0.066 H 
BRANCH  21  23
ATOM     23  O   LIG d   1       7.347   1.903  -3.428  0.00  0.00    -0.491 OA
BRANCH  23  24
ATOM     24  C   LIG d   1       8.698   2.282  -3.701  0.00  0.00     0.079 C 
ATOM     25  H   LIG d   1       9.185   2.584  -2.774  0.00  0.00     0.066 H 
ATOM     26  H   LIG d   1       8.706   3.116  -4.404  0.00  0.00     0.066 H 
ATOM     27  H   LIG d   1       9.232   1.437  -4.134  0.00  0.00     0.066 H 
ENDBRANCH  23  24
ENDBRANCH  21  23
BRANCH  17  28
ATOM     28  O   LIG d   1       4.775   1.042  -2.962  0.00  0.00    -0.491 OA
BRANCH  28  29
ATOM     29  C   LIG d   1       4.608   0.988  -1.544  0.00  0.00     0.079 C 
ATOM     30  H   LIG d   1       3.634   0.560  -1.309  0.00  0.00     0.066 H 
ATOM     31  H   LIG d   1       5.393   0.369  -1.109  0.00  0.00     0.066 H 
ATOM     32  H   LIG d   1       4.671   1.996  -1.133  0.00  0.00     0.066 H 
ENDBRANCH  28  29
ENDBRANCH  17  28
ENDBRANCH   3  10
BRANCH   2  33
ATOM     33  O   LIG d   1       3.896  -2.059  -6.510  0.00  0.00    -0.493 OA
ATOM     34  H   LIG d   1       4.296  -1.421  -5.905  0.00  0.00     0.294 HD
ENDBRANCH   2  33
BRANCH   1  35
ATOM     35  C   LIG d   1       3.921  -2.683  -9.190  0.00  0.00     0.099 A 
ATOM     36  C   LIG d   1       4.300  -1.479  -9.776  0.00  0.00     0.144 A 
ATOM     37  C   LIG d   1       3.447  -0.845 -10.666  0.00  0.00    -0.014 A 
ATOM     38  C   LIG d   1       2.217  -1.402 -10.962  0.00  0.00    -0.016 A 
ATOM     39  H   LIG d   1       3.742   0.086 -11.125  0.00  0.00     0.066 H 
ATOM     40  C   LIG d   1       1.835  -2.600 -10.375  0.00  0.00     0.122 A 
ATOM     41  H   LIG d   1       1.553  -0.905 -11.653  0.00  0.00     0.066 H 
ATOM     42  C   LIG d   1       2.687  -3.241  -9.489  0.00  0.00     0.008 A 
ATOM     43  H   LIG d   1       2.389  -4.173  -9.032  0.00  0.00     0.068 H 
BRANCH  36  44
ATOM     44  O   LIG d   1       5.506  -0.927  -9.481  0.00  0.00    -0.493 OA
BRANCH  44  45
ATOM     45  C   LIG d   1       5.508   0.428  -9.029  0.00  0.00     0.079 C 
ATOM     46  H   LIG d   1       6.473   0.886  -9.252  0.00  0.00     0.066 H 
ATOM     47  H   LIG d   1       4.718   0.982  -9.538  0.00  0.00     0.066 H 
ATOM     48  H   LIG d   1       5.334   0.455  -7.953  0.00  0.00     0.066 H 
ENDBRANCH  44  45
ENDBRANCH  36  44
BRANCH  40  49
ATOM     49  O   LIG d   1       0.625  -3.145 -10.669  0.00  0.00    -0.495 OA
BRANCH  49  50
ATOM     50  C   LIG d   1       0.610  -4.526 -11.041  0.00  0.00     0.079 C 
ATOM     51  H   LIG d   1      -0.225  -5.025 -10.549  0.00  0.00     0.066 H 
ATOM     52  H   LIG d   1       0.498  -4.609 -12.121  0.00  0.00     0.066 H 
ATOM     53  H   LIG d   1       1.545  -4.995 -10.734  0.00  0.00     0.066 H 
ENDBRANCH  49  50
ENDBRANCH  40  49
ENDBRANCH   1  35
TORSDOF 11
ENDMDL
MODEL 4
REMARK VINA RESULT:      -5.4      2.550      7.011
REMARK  11 active torsions:
REMARK  status: ('A' for Active; 'I' for Inactive)
REMARK    1  A    between atoms: C_1  and  O_2 
REMARK    2  A    between atoms: O_2  and  C_3 
REMARK    3  A    between atoms: C_6  and  O_34 
REMARK    4  A    between atoms: C_7  and  N_9 
REMARK    5  A    between atoms: C_10  and  O_33 
REMARK    6  A    between atoms: C_11  and  C_18 
REMARK    7  A    between atoms: C_23  and  O_31 
REMARK    8  A    between atoms: C_24  and  O_29 
REMARK    9  A    between atoms: O_29  and  C_30 
REMARK   10  A    between atoms: O_31  and  C_32 
REMARK   11  A    between atoms: O_34  and  C_35 
ROOT
ATOM      1  N   LIG d   1       4.599  -2.909  -8.535  0.00  0.00    -0.229 N 
ATOM      2  C   LIG d   1       4.685  -2.784  -7.170  0.00  0.00     0.214 A 
ATOM      3  C   LIG d   1       5.540  -3.588  -6.477  0.00  0.00     0.121 A 
ATOM      4  C   LIG d   1       6.320  -4.524  -7.179  0.00  0.00     0.265 A 
ATOM      5  O   LIG d   1       7.095  -5.250  -6.580  0.00  0.00    -0.267 OA
ATOM      6  N   LIG d   1       6.200  -4.618  -8.518  0.00  0.00    -0.274 N 
ATOM      7  H   LIG d   1       6.745  -5.289  -9.020  0.00  0.00     0.173 HD
ATOM      8  C   LIG d   1       5.349  -3.815  -9.186  0.00  0.00     0.337 A 
ATOM      9  O   LIG d   1       5.260  -3.912 -10.394  0.00  0.00    -0.246 OA
ENDROOT
BRANCH   3  10
ATOM     10  C   LIG d   1       5.653  -3.470  -4.978  0.00  0.00     0.164 A 
ATOM     11  H   LIG d   1       6.228  -4.305  -4.580  0.00  0.00     0.084 H 
ATOM     12  O   LIG d   1       4.329  -3.444  -4.378  0.00  0.00    -0.448 OA
ATOM     13  C   LIG d   1       4.170  -2.283  -3.720  0.00  0.00     0.344 A 
ATOM     14  C   LIG d   1       5.382  -1.457  -3.841  0.00  0.00     0.111 A 
ATOM     15  O   LIG d   1       3.168  -1.960  -3.113  0.00  0.00    -0.245 OA
ATOM     16  C   LIG d   1       6.313  -2.164  -4.611  0.00  0.00     0.015 A 
ATOM     17  C   LIG d   1       5.717  -0.190  -3.348  0.00  0.00     0.176 A 
ATOM     18  C   LIG d   1       7.545  -1.622  -4.882  0.00  0.00    -0.050 A 
ATOM     19  C   LIG d   1       7.874  -0.364  -4.399  0.00  0.00    -0.016 A 
ATOM     20  H   LIG d   1       8.257  -2.173  -5.478  0.00  0.00     0.062 H 
ATOM     21  C   LIG d   1       6.969   0.347  -3.631  0.00  0.00     0.162 A 
ATOM     22  H   LIG d   1       8.843   0.060  -4.619  0.00  0.00     0.066 H 
BRANCH  21  23
ATOM     23  O   LIG d   1       7.301   1.577  -3.155  0.00  0.00    -0.491 OA
BRANCH  23  24
ATOM     24  C   LIG d   1       8.372   2.259  -3.812  0.00  0.00     0.079 C 
ATOM     25  H   LIG d   1       9.178   1.555  -4.019  0.00  0.00     0.066 H 
ATOM     26  H   LIG d   1       8.744   3.057  -3.169  0.00  0.00     0.066 H 
ATOM     27  H   LIG d   1       8.012   2.684  -4.748  0.00  0.00     0.066 H 
ENDBRANCH  23  24
ENDBRANCH  21  23
BRANCH  17  28
ATOM     28  O   LIG d   1       4.826   0.509  -2.599  0.00  0.00    -0.491 OA
BRANCH  28  29
ATOM     29  C   LIG d   1       3.899   1.339  -3.302  0.00  0.00     0.079 C 
ATOM     30  H   LIG d   1       3.123   1.678  -2.616  0.00  0.00     0.066 H 
ATOM     31  H   LIG d   1       4.423   2.202  -3.714  0.00  0.00     0.066 H 
ATOM     32  H   LIG d   1       3.445   0.769  -4.113  0.00  0.00     0.066 H 
ENDBRANCH  28  29
ENDBRANCH  17  28
ENDBRANCH   3  10
BRANCH   2  33
ATOM     33  O   LIG d   1       3.930  -1.872  -6.521  0.00  0.00    -0.493 OA
ATOM     34  H   LIG d   1       4.302  -0.980  -6.524  0.00  0.00     0.294 HD
ENDBRANCH   2  33
BRANCH   1  35
ATOM     35  C   LIG d   1       3.721  -2.085  -9.256  0.00  0.00     0.099 A 
ATOM     36  C   LIG d   1       2.501  -2.586  -9.700  0.00  0.00     0.144 A 
ATOM     37  C   LIG d   1       1.634  -1.769 -10.407  0.00  0.00    -0.014 A 
ATOM     38  C   LIG d   1       1.984  -0.460 -10.680  0.00  0.00    -0.016 A 
ATOM     39  H   LIG d   1       0.684  -2.155 -10.747  0.00  0.00     0.066 H 
ATOM     40  C   LIG d   1       3.201   0.041 -10.243  0.00  0.00     0.122 A 
ATOM     41  H   LIG d   1       1.308   0.174 -11.234  0.00  0.00     0.066 H 
ATOM     42  C   LIG d   1       4.070  -0.771  -9.531  0.00  0.00     0.008 A 
ATOM     43  H   LIG d   1       5.018  -0.381  -9.191  0.00  0.00     0.068 H 
BRANCH  36  44
ATOM     44  O   LIG d   1       2.158  -3.875  -9.437  0.00  0.00    -0.493 OA
BRANCH  44  45
ATOM     45  C   LIG d   1       1.759  -4.681 -10.547  0.00  0.00     0.079 C 
ATOM     46  H   LIG d   1       0.985  -5.381 -10.230  0.00  0.00     0.066 H 
ATOM     47  H   LIG d   1       1.366  -4.041 -11.338  0.00  0.00     0.066 H 
ATOM     48  H   LIG d   1       2.618  -5.236 -10.922  0.00  0.00     0.066 H 
ENDBRANCH  44  45
ENDBRANCH  36  44
BRANCH  40  49
ATOM     49  O   LIG d   1       3.543   1.329 -10.514  0.00  0.00    -0.495 OA
BRANCH  49  50
ATOM     50  C   LIG d   1       3.743   2.195  -9.394  0.00  0.00     0.079 C 
ATOM     51  H   LIG d   1       2.841   2.783  -9.224  0.00  0.00     0.066 H 
ATOM     52  H   LIG d   1       3.961   1.598  -8.508  0.00  0.00     0.066 H 
ATOM     53  H   LIG d   1       4.580   2.863  -9.597  0.00  0.00     0.066 H 
ENDBRANCH  49  50
ENDBRANCH  40  49
ENDBRANCH   1  35
TORSDOF 11
ENDMDL
MODEL 5
REMARK VINA RESULT:      -5.4      4.420      7.924
REMARK  11 active torsions:
REMARK  status: ('A' for Active; 'I' for Inactive)
REMARK    1  A    between atoms: C_1  and  O_2 
REMARK    2  A    between atoms: O_2  and  C_3 
REMARK    3  A    between atoms: C_6  and  O_34 
REMARK    4  A    between atoms: C_7  and  N_9 
REMARK    5  A    between atoms: C_10  and  O_33 
REMARK    6  A    between atoms: C_11  and  C_18 
REMARK    7  A    between atoms: C_23  and  O_31 
REMARK    8  A    between atoms: C_24  and  O_29 
REMARK    9  A    between atoms: O_29  and  C_30 
REMARK   10  A    between atoms: O_31  and  C_32 
REMARK   11  A    between atoms: O_34  and  C_35 
ROOT
ATOM      1  N   LIG d   1       7.381   0.718  -5.575  0.00  0.00    -0.229 N 
ATOM      2  C   LIG d   1       8.538   1.382  -5.246  0.00  0.00     0.214 A 
ATOM      3  C   LIG d   1       9.127   2.197  -6.167  0.00  0.00     0.121 A 
ATOM      4  C   LIG d   1       8.529   2.343  -7.432  0.00  0.00     0.265 A 
ATOM      5  O   LIG d   1       9.035   3.071  -8.269  0.00  0.00    -0.267 OA
ATOM      6  N   LIG d   1       7.398   1.668  -7.715  0.00  0.00    -0.274 N 
ATOM      7  H   LIG d   1       6.976   1.762  -8.616  0.00  0.00     0.173 HD
ATOM      8  C   LIG d   1       6.831   0.868  -6.792  0.00  0.00     0.337 A 
ATOM      9  O   LIG d   1       5.808   0.271  -7.066  0.00  0.00    -0.246 OA
ENDROOT
BRANCH   3  10
ATOM     10  C   LIG d   1      10.396   2.937  -5.831  0.00  0.00     0.164 A 
ATOM     11  H   LIG d   1      10.886   3.273  -6.744  0.00  0.00     0.084 H 
ATOM     12  O   LIG d   1      11.289   2.077  -5.072  0.00  0.00    -0.448 OA
ATOM     13  C   LIG d   1      11.517   2.634  -3.870  0.00  0.00     0.344 A 
ATOM     14  C   LIG d   1      10.786   3.906  -3.751  0.00  0.00     0.111 A 
ATOM     15  O   LIG d   1      12.224   2.156  -3.006  0.00  0.00    -0.245 OA
ATOM     16  C   LIG d   1      10.087   4.118  -4.945  0.00  0.00     0.015 A 
ATOM     17  C   LIG d   1      10.692   4.850  -2.721  0.00  0.00     0.176 A 
ATOM     18  C   LIG d   1       9.314   5.242  -5.107  0.00  0.00    -0.050 A 
ATOM     19  C   LIG d   1       9.217   6.174  -4.085  0.00  0.00    -0.016 A 
ATOM     20  H   LIG d   1       8.777   5.397  -6.031  0.00  0.00     0.062 H 
ATOM     21  C   LIG d   1       9.906   5.984  -2.900  0.00  0.00     0.162 A 
ATOM     22  H   LIG d   1       8.605   7.054  -4.216  0.00  0.00     0.066 H 
BRANCH  21  23
ATOM     23  O   LIG d   1       9.811   6.906  -1.904  0.00  0.00    -0.491 OA
BRANCH  23  24
ATOM     24  C   LIG d   1      10.241   8.235  -2.208  0.00  0.00     0.079 C 
ATOM     25  H   LIG d   1      10.370   8.338  -3.285  0.00  0.00     0.066 H 
ATOM     26  H   LIG d   1      11.190   8.433  -1.708  0.00  0.00     0.066 H 
ATOM     27  H   LIG d   1       9.493   8.947  -1.861  0.00  0.00     0.066 H 
ENDBRANCH  23  24
ENDBRANCH  21  23
BRANCH  17  28
ATOM     28  O   LIG d   1      11.364   4.661  -1.557  0.00  0.00    -0.491 OA
BRANCH  28  29
ATOM     29  C   LIG d   1      12.653   5.269  -1.446  0.00  0.00     0.079 C 
ATOM     30  H   LIG d   1      13.379   4.524  -1.123  0.00  0.00     0.066 H 
ATOM     31  H   LIG d   1      12.949   5.671  -2.415  0.00  0.00     0.066 H 
ATOM     32  H   LIG d   1      12.610   6.077  -0.715  0.00  0.00     0.066 H 
ENDBRANCH  28  29
ENDBRANCH  17  28
ENDBRANCH   3  10
BRANCH   2  33
ATOM     33  O   LIG d   1       9.087   1.230  -4.022  0.00  0.00    -0.493 OA
ATOM     34  H   LIG d   1       9.809   0.588  -3.993  0.00  0.00     0.294 HD
ENDBRANCH   2  33
BRANCH   1  35
ATOM     35  C   LIG d   1       6.770  -0.123  -4.632  0.00  0.00     0.099 A 
ATOM     36  C   LIG d   1       7.050  -1.486  -4.629  0.00  0.00     0.144 A 
ATOM     37  C   LIG d   1       6.449  -2.314  -3.694  0.00  0.00    -0.014 A 
ATOM     38  C   LIG d   1       5.564  -1.788  -2.772  0.00  0.00    -0.016 A 
ATOM     39  H   LIG d   1       6.670  -3.371  -3.687  0.00  0.00     0.066 H 
ATOM     40  C   LIG d   1       5.278  -0.431  -2.776  0.00  0.00     0.122 A 
ATOM     41  H   LIG d   1       5.094  -2.435  -2.046  0.00  0.00     0.066 H 
ATOM     42  C   LIG d   1       5.881   0.403  -3.706  0.00  0.00     0.008 A 
ATOM     43  H   LIG d   1       5.659   1.459  -3.709  0.00  0.00     0.068 H 
BRANCH  36  44
ATOM     44  O   LIG d   1       7.917  -2.006  -5.539  0.00  0.00    -0.493 OA
BRANCH  44  45
ATOM     45  C   LIG d   1       7.424  -3.046  -6.385  0.00  0.00     0.079 C 
ATOM     46  H   LIG d   1       6.417  -3.323  -6.073  0.00  0.00     0.066 H 
ATOM     47  H   LIG d   1       7.400  -2.694  -7.417  0.00  0.00     0.066 H 
ATOM     48  H   LIG d   1       8.078  -3.915  -6.314  0.00  0.00     0.066 H 
ENDBRANCH  44  45
ENDBRANCH  36  44
BRANCH  40  49
ATOM     49  O   LIG d   1       4.407   0.084  -1.868  0.00  0.00    -0.495 OA
BRANCH  49  50
ATOM     50  C   LIG d   1       3.679   1.251  -2.258  0.00  0.00     0.079 C 
ATOM     51  H   LIG d   1       3.437   1.191  -3.319  0.00  0.00     0.066 H 
ATOM     52  H   LIG d   1       2.758   1.314  -1.679  0.00  0.00     0.066 H 
ATOM     53  H   LIG d   1       4.286   2.137  -2.073  0.00  0.00     0.066 H 
ENDBRANCH  49  50
ENDBRANCH  40  49
ENDBRANCH   1  35
TORSDOF 11
ENDMDL
MODEL 6
REMARK VINA RESULT:      -5.3      4.316      7.724
REMARK  11 active torsions:
REMARK  status: ('A' for Active; 'I' for Inactive)
REMARK    1  A    between atoms: C_1  and  O_2 
REMARK    2  A    between atoms: O_2  and  C_3 
REMARK    3  A    between atoms: C_6  and  O_34 
REMARK    4  A    between atoms: C_7  and  N_9 
REMARK    5  A    between atoms: C_10  and  O_33 
REMARK    6  A    between atoms: C_11  and  C_18 
REMARK    7  A    between atoms: C_23  and  O_31 
REMARK    8  A    between atoms: C_24  and  O_29 
REMARK    9  A    between atoms: O_29  and  C_30 
REMARK   10  A    between atoms: O_31  and  C_32 
REMARK   11  A    between atoms: O_34  and  C_35 
ROOT
ATOM      1  N   LIG d   1       5.953  -7.080  -5.729  0.00  0.00    -0.229 N 
ATOM      2  C   LIG d   1       5.183  -5.970  -5.979  0.00  0.00     0.214 A 
ATOM      3  C   LIG d   1       5.703  -4.730  -5.751  0.00  0.00     0.121 A 
ATOM      4  C   LIG d   1       7.020  -4.618  -5.271  0.00  0.00     0.265 A 
ATOM      5  O   LIG d   1       7.506  -3.520  -5.066  0.00  0.00    -0.267 OA
ATOM      6  N   LIG d   1       7.738  -5.733  -5.034  0.00  0.00    -0.274 N 
ATOM      7  H   LIG d   1       8.671  -5.658  -4.684  0.00  0.00     0.173 HD
ATOM      8  C   LIG d   1       7.208  -6.949  -5.264  0.00  0.00     0.337 A 
ATOM      9  O   LIG d   1       7.874  -7.943  -5.048  0.00  0.00    -0.246 OA
ENDROOT
BRANCH   3  10
ATOM     10  C   LIG d   1       4.878  -3.497  -6.017  0.00  0.00     0.164 A 
ATOM     11  H   LIG d   1       3.878  -3.779  -6.343  0.00  0.00     0.084 H 
ATOM     12  O   LIG d   1       5.520  -2.676  -7.031  0.00  0.00    -0.448 OA
ATOM     13  C   LIG d   1       5.807  -1.474  -6.503  0.00  0.00     0.344 A 
ATOM     14  C   LIG d   1       5.375  -1.417  -5.098  0.00  0.00     0.111 A 
ATOM     15  O   LIG d   1       6.348  -0.564  -7.101  0.00  0.00    -0.245 OA
ATOM     16  C   LIG d   1       4.798  -2.650  -4.772  0.00  0.00     0.015 A 
ATOM     17  C   LIG d   1       5.443  -0.411  -4.127  0.00  0.00     0.176 A 
ATOM     18  C   LIG d   1       4.304  -2.874  -3.510  0.00  0.00    -0.050 A 
ATOM     19  C   LIG d   1       4.377  -1.879  -2.546  0.00  0.00    -0.016 A 
ATOM     20  H   LIG d   1       3.861  -3.828  -3.266  0.00  0.00     0.062 H 
ATOM     21  C   LIG d   1       4.938  -0.651  -2.852  0.00  0.00     0.162 A 
ATOM     22  H   LIG d   1       3.990  -2.061  -1.555  0.00  0.00     0.066 H 
BRANCH  21  23
ATOM     23  O   LIG d   1       5.001   0.322  -1.905  0.00  0.00    -0.491 OA
BRANCH  23  24
ATOM     24  C   LIG d   1       3.995   1.337  -1.950  0.00  0.00     0.079 C 
ATOM     25  H   LIG d   1       3.154   0.989  -2.549  0.00  0.00     0.066 H 
ATOM     26  H   LIG d   1       4.410   2.240  -2.397  0.00  0.00     0.066 H 
ATOM     27  H   LIG d   1       3.654   1.556  -0.938  0.00  0.00     0.066 H 
ENDBRANCH  23  24
ENDBRANCH  21  23
BRANCH  17  28
ATOM     28  O   LIG d   1       5.999   0.791  -4.426  0.00  0.00    -0.491 OA
BRANCH  28  29
ATOM     29  C   LIG d   1       7.382   0.964  -4.109  0.00  0.00     0.079 C 
ATOM     30  H   LIG d   1       7.527   1.931  -3.631  0.00  0.00     0.066 H 
ATOM     31  H   LIG d   1       7.700   0.171  -3.432  0.00  0.00     0.066 H 
ATOM     32  H   LIG d   1       7.972   0.918  -5.025  0.00  0.00     0.066 H 
ENDBRANCH  28  29
ENDBRANCH  17  28
ENDBRANCH   3  10
BRANCH   2  33
ATOM     33  O   LIG d   1       3.924  -6.106  -6.445  0.00  0.00    -0.493 OA
ATOM     34  H   LIG d   1       3.638  -5.384  -7.020  0.00  0.00     0.294 HD
ENDBRANCH   2  33
BRANCH   1  35
ATOM     35  C   LIG d   1       5.425  -8.360  -5.960  0.00  0.00     0.099 A 
ATOM     36  C   LIG d   1       5.587  -8.966  -7.203  0.00  0.00     0.144 A 
ATOM     37  C   LIG d   1       5.069 -10.231  -7.427  0.00  0.00    -0.014 A 
ATOM     38  C   LIG d   1       4.384 -10.887  -6.422  0.00  0.00    -0.016 A 
ATOM     39  H   LIG d   1       5.199 -10.705  -8.389  0.00  0.00     0.066 H 
ATOM     40  C   LIG d   1       4.217 -10.284  -5.185  0.00  0.00     0.122 A 
ATOM     41  H   LIG d   1       3.978 -11.872  -6.600  0.00  0.00     0.066 H 
ATOM     42  C   LIG d   1       4.738  -9.020  -4.953  0.00  0.00     0.008 A 
ATOM     43  H   LIG d   1       4.607  -8.550  -3.989  0.00  0.00     0.068 H 
BRANCH  36  44
ATOM     44  O   LIG d   1       6.256  -8.319  -8.195  0.00  0.00    -0.493 OA
BRANCH  44  45
ATOM     45  C   LIG d   1       5.485  -7.859  -9.306  0.00  0.00     0.079 C 
ATOM     46  H   LIG d   1       6.034  -8.041 -10.230  0.00  0.00     0.066 H 
ATOM     47  H   LIG d   1       4.536  -8.395  -9.337  0.00  0.00     0.066 H 
ATOM     48  H   LIG d   1       5.295  -6.791  -9.201  0.00  0.00     0.066 H 
ENDBRANCH  44  45
ENDBRANCH  36  44
BRANCH  40  49
ATOM     49  O   LIG d   1       3.542 -10.931  -4.198  0.00  0.00    -0.495 OA
BRANCH  49  50
ATOM     50  C   LIG d   1       3.129 -10.150  -3.075  0.00  0.00     0.079 C 
ATOM     51  H   LIG d   1       3.704 -10.443  -2.196  0.00  0.00     0.066 H 
ATOM     52  H   LIG d   1       3.299  -9.094  -3.285  0.00  0.00     0.066 H 
ATOM     53  H   LIG d   1       2.068 -10.316  -2.887  0.00  0.00     0.066 H 
ENDBRANCH  49  50
ENDBRANCH  40  49
ENDBRANCH   1  35
TORSDOF 11
ENDMDL
MODEL 7
REMARK VINA RESULT:      -5.2      3.427      6.298
REMARK  11 active torsions:
REMARK  status: ('A' for Active; 'I' for Inactive)
REMARK    1  A    between atoms: C_1  and  O_2 
REMARK    2  A    between atoms: O_2  and  C_3 
REMARK    3  A    between atoms: C_6  and  O_34 
REMARK    4  A    between atoms: C_7  and  N_9 
REMARK    5  A    between atoms: C_10  and  O_33 
REMARK    6  A    between atoms: C_11  and  C_18 
REMARK    7  A    between atoms: C_23  and  O_31 
REMARK    8  A    between atoms: C_24  and  O_29 
REMARK    9  A    between atoms: O_29  and  C_30 
REMARK   10  A    between atoms: O_31  and  C_32 
REMARK   11  A    between atoms: O_34  and  C_35 
ROOT
ATOM      1  N   LIG d   1       5.793  -1.894  -5.342  0.00  0.00    -0.229 N 
ATOM      2  C   LIG d   1       5.845  -2.961  -6.205  0.00  0.00     0.214 A 
ATOM      3  C   LIG d   1       7.002  -3.673  -6.319  0.00  0.00     0.121 A 
ATOM      4  C   LIG d   1       8.114  -3.301  -5.544  0.00  0.00     0.265 A 
ATOM      5  O   LIG d   1       9.157  -3.927  -5.626  0.00  0.00    -0.267 OA
ATOM      6  N   LIG d   1       8.021  -2.243  -4.714  0.00  0.00    -0.274 N 
ATOM      7  H   LIG d   1       8.812  -1.970  -4.168  0.00  0.00     0.173 HD
ATOM      8  C   LIG d   1       6.870  -1.552  -4.614  0.00  0.00     0.337 A 
ATOM      9  O   LIG d   1       6.806  -0.604  -3.856  0.00  0.00    -0.246 OA
ENDROOT
BRANCH   3  10
ATOM     10  C   LIG d   1       7.084  -4.848  -7.260  0.00  0.00     0.164 A 
ATOM     11  H   LIG d   1       8.122  -5.034  -7.536  0.00  0.00     0.084 H 
ATOM     12  O   LIG d   1       6.289  -4.593  -8.449  0.00  0.00    -0.448 OA
ATOM     13  C   LIG d   1       5.327  -5.528  -8.542  0.00  0.00     0.344 A 
ATOM     14  C   LIG d   1       5.420  -6.469  -7.414  0.00  0.00     0.111 A 
ATOM     15  O   LIG d   1       4.498  -5.587  -9.428  0.00  0.00    -0.245 OA
ATOM     16  C   LIG d   1       6.495  -6.074  -6.608  0.00  0.00     0.015 A 
ATOM     17  C   LIG d   1       4.669  -7.595  -7.057  0.00  0.00     0.176 A 
ATOM     18  C   LIG d   1       6.811  -6.785  -5.476  0.00  0.00    -0.050 A 
ATOM     19  C   LIG d   1       6.063  -7.897  -5.119  0.00  0.00    -0.016 A 
ATOM     20  H   LIG d   1       7.641  -6.473  -4.859  0.00  0.00     0.062 H 
ATOM     21  C   LIG d   1       5.001  -8.305  -5.907  0.00  0.00     0.162 A 
ATOM     22  H   LIG d   1       6.314  -8.449  -4.226  0.00  0.00     0.066 H 
BRANCH  21  23
ATOM     23  O   LIG d   1       4.276  -9.401  -5.555  0.00  0.00    -0.491 OA
BRANCH  23  24
ATOM     24  C   LIG d   1       4.299  -9.777  -4.176  0.00  0.00     0.079 C 
ATOM     25  H   LIG d   1       3.580  -9.173  -3.622  0.00  0.00     0.066 H 
ATOM     26  H   LIG d   1       5.298  -9.613  -3.771  0.00  0.00     0.066 H 
ATOM     27  H   LIG d   1       4.037 -10.830  -4.082  0.00  0.00     0.066 H 
ENDBRANCH  23  24
ENDBRANCH  21  23
BRANCH  17  28
ATOM     28  O   LIG d   1       3.624  -7.992  -7.827  0.00  0.00    -0.491 OA
BRANCH  28  29
ATOM     29  C   LIG d   1       3.909  -8.914  -8.882  0.00  0.00     0.079 C 
ATOM     30  H   LIG d   1       3.817  -9.933  -8.507  0.00  0.00     0.066 H 
ATOM     31  H   LIG d   1       3.203  -8.760  -9.698  0.00  0.00     0.066 H 
ATOM     32  H   LIG d   1       4.924  -8.749  -9.243  0.00  0.00     0.066 H 
ENDBRANCH  28  29
ENDBRANCH  17  28
ENDBRANCH   3  10
BRANCH   2  33
ATOM     33  O   LIG d   1       4.760  -3.301  -6.933  0.00  0.00    -0.493 OA
ATOM     34  H   LIG d   1       4.962  -3.550  -7.845  0.00  0.00     0.294 HD
ENDBRANCH   2  33
BRANCH   1  35
ATOM     35  C   LIG d   1       4.605  -1.156  -5.218  0.00  0.00     0.099 A 
ATOM     36  C   LIG d   1       3.745  -1.393  -4.150  0.00  0.00     0.144 A 
ATOM     37  C   LIG d   1       2.576  -0.659  -4.027  0.00  0.00    -0.014 A 
ATOM     38  C   LIG d   1       2.258   0.299  -4.971  0.00  0.00    -0.016 A 
ATOM     39  H   LIG d   1       1.911  -0.838  -3.196  0.00  0.00     0.066 H 
ATOM     40  C   LIG d   1       3.111   0.534  -6.040  0.00  0.00     0.122 A 
ATOM     41  H   LIG d   1       1.345   0.868  -4.876  0.00  0.00     0.066 H 
ATOM     42  C   LIG d   1       4.285  -0.193  -6.164  0.00  0.00     0.008 A 
ATOM     43  H   LIG d   1       4.948  -0.011  -6.996  0.00  0.00     0.068 H 
BRANCH  36  44
ATOM     44  O   LIG d   1       4.054  -2.339  -3.224  0.00  0.00    -0.493 OA
BRANCH  44  45
ATOM     45  C   LIG d   1       4.248  -1.895  -1.880  0.00  0.00     0.079 C 
ATOM     46  H   LIG d   1       4.255  -2.755  -1.209  0.00  0.00     0.066 H 
ATOM     47  H   LIG d   1       5.200  -1.369  -1.806  0.00  0.00     0.066 H 
ATOM     48  H   LIG d   1       3.439  -1.221  -1.598  0.00  0.00     0.066 H 
ENDBRANCH  44  45
ENDBRANCH  36  44
BRANCH  40  49
ATOM     49  O   LIG d   1       2.796   1.477  -6.967  0.00  0.00    -0.495 OA
BRANCH  49  50
ATOM     50  C   LIG d   1       3.137   1.191  -8.325  0.00  0.00     0.079 C 
ATOM     51  H   LIG d   1       3.800   1.968  -8.705  0.00  0.00     0.066 H 
ATOM     52  H   LIG d   1       3.640   0.226  -8.377  0.00  0.00     0.066 H 
ATOM     53  H   LIG d   1       2.229   1.160  -8.929  0.00  0.00     0.066 H 
ENDBRANCH  49  50
ENDBRANCH  40  49
ENDBRANCH   1  35
TORSDOF 11
ENDMDL
MODEL 8
REMARK VINA RESULT:      -5.1      9.988     13.509
REMARK  11 active torsions:
REMARK  status: ('A' for Active; 'I' for Inactive)
REMARK    1  A    between atoms: C_1  and  O_2 
REMARK    2  A    between atoms: O_2  and  C_3 
REMARK    3  A    between atoms: C_6  and  O_34 
REMARK    4  A    between atoms: C_7  and  N_9 
REMARK    5  A    between atoms: C_10  and  O_33 
REMARK    6  A    between atoms: C_11  and  C_18 
REMARK    7  A    between atoms: C_23  and  O_31 
REMARK    8  A    between atoms: C_24  and  O_29 
REMARK    9  A    between atoms: O_29  and  C_30 
REMARK   10  A    between atoms: O_31  and  C_32 
REMARK   11  A    between atoms: O_34  and  C_35 
ROOT
ATOM      1  N   LIG d   1       9.911  10.607  -3.777  0.00  0.00    -0.229 N 
ATOM      2  C   LIG d   1      10.691   9.746  -3.043  0.00  0.00     0.214 A 
ATOM      3  C   LIG d   1      10.341   9.459  -1.757  0.00  0.00     0.121 A 
ATOM      4  C   LIG d   1       9.185  10.048  -1.214  0.00  0.00     0.265 A 
ATOM      5  O   LIG d   1       8.852   9.801  -0.068  0.00  0.00    -0.267 OA
ATOM      6  N   LIG d   1       8.453  10.891  -1.968  0.00  0.00    -0.274 N 
ATOM      7  H   LIG d   1       7.636  11.319  -1.582  0.00  0.00     0.173 HD
ATOM      8  C   LIG d   1       8.814  11.163  -3.236  0.00  0.00     0.337 A 
ATOM      9  O   LIG d   1       8.136  11.923  -3.900  0.00  0.00    -0.246 OA
ENDROOT
BRANCH   3  10
ATOM     10  C   LIG d   1      11.180   8.517  -0.931  0.00  0.00     0.164 A 
ATOM     11  H   LIG d   1      10.861   8.549   0.110  0.00  0.00     0.084 H 
ATOM     12  O   LIG d   1      12.584   8.878  -1.034  0.00  0.00    -0.448 OA
ATOM     13  C   LIG d   1      13.264   7.845  -1.562  0.00  0.00     0.344 A 
ATOM     14  C   LIG d   1      12.352   6.727  -1.847  0.00  0.00     0.111 A 
ATOM     15  O   LIG d   1      14.460   7.837  -1.776  0.00  0.00    -0.245 OA
ATOM     16  C   LIG d   1      11.060   7.113  -1.468  0.00  0.00     0.015 A 
ATOM     17  C   LIG d   1      12.558   5.452  -2.389  0.00  0.00     0.176 A 
ATOM     18  C   LIG d   1      10.003   6.250  -1.624  0.00  0.00    -0.050 A 
ATOM     19  C   LIG d   1      10.207   4.990  -2.166  0.00  0.00    -0.016 A 
ATOM     20  H   LIG d   1       9.010   6.556  -1.330  0.00  0.00     0.062 H 
ATOM     21  C   LIG d   1      11.477   4.588  -2.541  0.00  0.00     0.162 A 
ATOM     22  H   LIG d   1       9.371   4.317  -2.291  0.00  0.00     0.066 H 
BRANCH  21  23
ATOM     23  O   LIG d   1      11.670   3.348  -3.066  0.00  0.00    -0.491 OA
BRANCH  23  24
ATOM     24  C   LIG d   1      10.518   2.512  -3.192  0.00  0.00     0.079 C 
ATOM     25  H   LIG d   1      10.028   2.419  -2.222  0.00  0.00     0.066 H 
ATOM     26  H   LIG d   1      10.822   1.524  -3.540  0.00  0.00     0.066 H 
ATOM     27  H   LIG d   1       9.825   2.952  -3.909  0.00  0.00     0.066 H 
ENDBRANCH  23  24
ENDBRANCH  21  23
BRANCH  17  28
ATOM     28  O   LIG d   1      13.803   5.061  -2.762  0.00  0.00    -0.491 OA
BRANCH  28  29
ATOM     29  C   LIG d   1      14.178   5.300  -4.120  0.00  0.00     0.079 C 
ATOM     30  H   LIG d   1      14.867   6.143  -4.163  0.00  0.00     0.066 H 
ATOM     31  H   LIG d   1      14.663   4.412  -4.525  0.00  0.00     0.066 H 
ATOM     32  H   LIG d   1      13.288   5.527  -4.707  0.00  0.00     0.066 H 
ENDBRANCH  28  29
ENDBRANCH  17  28
ENDBRANCH   3  10
BRANCH   2  33
ATOM     33  O   LIG d   1      11.792   9.190  -3.591  0.00  0.00    -0.493 OA
ATOM     34  H   LIG d   1      12.026   9.551  -4.456  0.00  0.00     0.294 HD
ENDBRANCH   2  33
BRANCH   1  35
ATOM     35  C   LIG d   1      10.264  10.908  -5.102  0.00  0.00     0.099 A 
ATOM     36  C   LIG d   1      11.069  12.010  -5.375  0.00  0.00     0.144 A 
ATOM     37  C   LIG d   1      11.421  12.302  -6.683  0.00  0.00    -0.014 A 
ATOM     38  C   LIG d   1      10.964  11.507  -7.717  0.00  0.00    -0.016 A 
ATOM     39  H   LIG d   1      12.050  13.154  -6.896  0.00  0.00     0.066 H 
ATOM     40  C   LIG d   1      10.157  10.411  -7.448  0.00  0.00     0.122 A 
ATOM     41  H   LIG d   1      11.236  11.738  -8.736  0.00  0.00     0.066 H 
ATOM     42  C   LIG d   1       9.807  10.111  -6.140  0.00  0.00     0.008 A 
ATOM     43  H   LIG d   1       9.179   9.258  -5.931  0.00  0.00     0.068 H 
BRANCH  36  44
ATOM     44  O   LIG d   1      11.515  12.797  -4.360  0.00  0.00    -0.493 OA
BRANCH  44  45
ATOM     45  C   LIG d   1      11.014  14.134  -4.305  0.00  0.00     0.079 C 
ATOM     46  H   LIG d   1      11.278  14.583  -3.348  0.00  0.00     0.066 H 
ATOM     47  H   LIG d   1      11.452  14.719  -5.114  0.00  0.00     0.066 H 
ATOM     48  H   LIG d   1       9.929  14.121  -4.413  0.00  0.00     0.066 H 
ENDBRANCH  44  45
ENDBRANCH  36  44
BRANCH  40  49
ATOM     49  O   LIG d   1       9.709   9.630  -8.467  0.00  0.00    -0.495 OA
BRANCH  49  50
ATOM     50  C   LIG d   1       8.910   8.499  -8.113  0.00  0.00     0.079 C 
ATOM     51  H   LIG d   1       8.512   8.635  -7.108  0.00  0.00     0.066 H 
ATOM     52  H   LIG d   1       8.087   8.401  -8.820  0.00  0.00     0.066 H 
ATOM     53  H   LIG d   1       9.524   7.598  -8.142  0.00  0.00     0.066 H 
ENDBRANCH  49  50
ENDBRANCH  40  49
ENDBRANCH   1  35
TORSDOF 11
ENDMDL
MODEL 9
REMARK VINA RESULT:      -5.0      9.160     11.187
REMARK  11 active torsions:
REMARK  status: ('A' for Active; 'I' for Inactive)
REMARK    1  A    between atoms: C_1  and  O_2 
REMARK    2  A    between atoms: O_2  and  C_3 
REMARK    3  A    between atoms: C_6  and  O_34 
REMARK    4  A    between atoms: C_7  and  N_9 
REMARK    5  A    between atoms: C_10  and  O_33 
REMARK    6  A    between atoms: C_11  and  C_18 
REMARK    7  A    between atoms: C_23  and  O_31 
REMARK    8  A    between atoms: C_24  and  O_29 
REMARK    9  A    between atoms: O_29  and  C_30 
REMARK   10  A    between atoms: O_31  and  C_32 
REMARK   11  A    between atoms: O_34  and  C_35 
ROOT
ATOM      1  N   LIG d   1      10.367   9.043  -2.204  0.00  0.00    -0.229 N 
ATOM      2  C   LIG d   1      11.104   8.804  -3.338  0.00  0.00     0.214 A 
ATOM      3  C   LIG d   1      10.800   9.472  -4.487  0.00  0.00     0.121 A 
ATOM      4  C   LIG d   1       9.740  10.397  -4.480  0.00  0.00     0.265 A 
ATOM      5  O   LIG d   1       9.454  11.010  -5.494  0.00  0.00    -0.267 OA
ATOM      6  N   LIG d   1       9.039  10.596  -3.347  0.00  0.00    -0.274 N 
ATOM      7  H   LIG d   1       8.280  11.246  -3.340  0.00  0.00     0.173 HD
ATOM      8  C   LIG d   1       9.354   9.927  -2.222  0.00  0.00     0.337 A 
ATOM      9  O   LIG d   1       8.713  10.125  -1.208  0.00  0.00    -0.246 OA
ENDROOT
BRANCH   3  10
ATOM     10  C   LIG d   1      11.593   9.228  -5.745  0.00  0.00     0.164 A 
ATOM     11  H   LIG d   1      12.600   8.896  -5.493  0.00  0.00     0.084 H 
ATOM     12  O   LIG d   1      11.653  10.442  -6.542  0.00  0.00    -0.448 OA
ATOM     13  C   LIG d   1      11.081  10.210  -7.737  0.00  0.00     0.344 A 
ATOM     14  C   LIG d   1      10.601   8.821  -7.811  0.00  0.00     0.111 A 
ATOM     15  O   LIG d   1      10.974  11.030  -8.627  0.00  0.00    -0.245 OA
ATOM     16  C   LIG d   1      10.904   8.192  -6.597  0.00  0.00     0.015 A 
ATOM     17  C   LIG d   1       9.950   8.098  -8.817  0.00  0.00     0.176 A 
ATOM     18  C   LIG d   1      10.566   6.877  -6.393  0.00  0.00    -0.050 A 
ATOM     19  C   LIG d   1       9.915   6.162  -7.388  0.00  0.00    -0.016 A 
ATOM     20  H   LIG d   1      10.802   6.399  -5.454  0.00  0.00     0.062 H 
ATOM     21  C   LIG d   1       9.613   6.765  -8.597  0.00  0.00     0.162 A 
ATOM     22  H   LIG d   1       9.647   5.129  -7.221  0.00  0.00     0.066 H 
BRANCH  21  23
ATOM     23  O   LIG d   1       8.981   6.057  -9.570  0.00  0.00    -0.491 OA
BRANCH  23  24
ATOM     24  C   LIG d   1       8.771   4.664  -9.326  0.00  0.00     0.079 C 
ATOM     25  H   LIG d   1       9.556   4.288  -8.669  0.00  0.00     0.066 H 
ATOM     26  H   LIG d   1       8.798   4.121 -10.270  0.00  0.00     0.066 H 
ATOM     27  H   LIG d   1       7.800   4.521  -8.851  0.00  0.00     0.066 H 
ENDBRANCH  23  24
ENDBRANCH  21  23
BRANCH  17  28
ATOM     28  O   LIG d   1       9.649   8.692 -10.000  0.00  0.00    -0.491 OA
BRANCH  28  29
ATOM     29  C   LIG d   1      10.594   8.537 -11.062  0.00  0.00     0.079 C 
ATOM     30  H   LIG d   1      10.171   8.934 -11.984  0.00  0.00     0.066 H 
ATOM     31  H   LIG d   1      11.507   9.079 -10.816  0.00  0.00     0.066 H 
ATOM     32  H   LIG d   1      10.823   7.480 -11.192  0.00  0.00     0.066 H 
ENDBRANCH  28  29
ENDBRANCH  17  28
ENDBRANCH   3  10
BRANCH   2  33
ATOM     33  O   LIG d   1      12.120   7.916  -3.316  0.00  0.00    -0.493 OA
ATOM     34  H   LIG d   1      12.894   8.216  -2.820  0.00  0.00     0.294 HD
ENDBRANCH   2  33
BRANCH   1  35
ATOM     35  C   LIG d   1      10.674   8.358  -1.017  0.00  0.00     0.099 A 
ATOM     36  C   LIG d   1      10.301   7.026  -0.865  0.00  0.00     0.144 A 
ATOM     37  C   LIG d   1      10.610   6.351   0.305  0.00  0.00    -0.014 A 
ATOM     38  C   LIG d   1      11.278   7.003   1.324  0.00  0.00    -0.016 A 
ATOM     39  H   LIG d   1      10.326   5.316   0.422  0.00  0.00     0.066 H 
ATOM     40  C   LIG d   1      11.646   8.332   1.178  0.00  0.00     0.122 A 
ATOM     41  H   LIG d   1      11.515   6.476   2.237  0.00  0.00     0.066 H 
ATOM     42  C   LIG d   1      11.344   9.010   0.007  0.00  0.00     0.008 A 
ATOM     43  H   LIG d   1      11.631  10.046  -0.107  0.00  0.00     0.068 H 
BRANCH  36  44
ATOM     44  O   LIG d   1       9.639   6.385  -1.865  0.00  0.00    -0.493 OA
BRANCH  44  45
ATOM     45  C   LIG d   1      10.197   5.155  -2.329  0.00  0.00     0.079 C 
ATOM     46  H   LIG d   1      11.164   4.991  -1.854  0.00  0.00     0.066 H 
ATOM     47  H   LIG d   1       9.525   4.333  -2.077  0.00  0.00     0.066 H 
ATOM     48  H   LIG d   1      10.327   5.198  -3.411  0.00  0.00     0.066 H 
ENDBRANCH  44  45
ENDBRANCH  36  44
BRANCH  40  49
ATOM     49  O   LIG d   1      12.303   8.971   2.182  0.00  0.00    -0.495 OA
BRANCH  49  50
ATOM     50  C   LIG d   1      12.202  10.396   2.219  0.00  0.00     0.079 C 
ATOM     51  H   LIG d   1      11.407  10.722   1.548  0.00  0.00     0.066 H 
ATOM     52  H   LIG d   1      11.974  10.717   3.235  0.00  0.00     0.066 H 
ATOM     53  H   LIG d   1      13.148  10.836   1.902  0.00  0.00     0.066 H 
ENDBRANCH  49  50
ENDBRANCH  40  49
ENDBRANCH   1  35
TORSDOF 11
ENDMDL
