MODEL 1
REMARK VINA RESULT:      -6.4      0.000      0.000
REMARK  7 active torsions:
REMARK  status: ('A' for Active; 'I' for Inactive)
REMARK    1  A    between atoms: C_1  and  C_2 
REMARK    2  A    between atoms: C_2  and  C_3 
REMARK    3  A    between atoms: C_3  and  O_4 
REMARK    4  A    between atoms: O_4  and  C_5 
REMARK    5  A    between atoms: C_8  and  C_11 
REMARK    6  A    between atoms: C_11  and  O_13 
REMARK    7  A    between atoms: O_13  and  C_14 
ROOT
ATOM      1  C   LIG d   1       6.263   0.775  -9.186  0.00  0.00     0.120 A 
ATOM      2  C   LIG d   1       6.945   1.470  -8.193  0.00  0.00    -0.019 A 
ATOM      3  C   LIG d   1       7.551   0.785  -7.163  0.00  0.00    -0.044 A 
ATOM      4  C   LIG d   1       7.480  -0.610  -7.117  0.00  0.00     0.060 A 
ATOM      5  C   LIG d   1       6.799  -1.305  -8.121  0.00  0.00    -0.044 A 
ATOM      6  C   LIG d   1       6.190  -0.613  -9.143  0.00  0.00    -0.019 A 
ATOM      7  H   LIG d   1       6.999   2.548  -8.230  0.00  0.00     0.065 H 
ATOM      8  H   LIG d   1       8.080   1.326  -6.392  0.00  0.00     0.063 H 
ATOM      9  H   LIG d   1       6.745  -2.383  -8.092  0.00  0.00     0.063 H 
ATOM     10  H   LIG d   1       5.659  -1.148  -9.916  0.00  0.00     0.065 H 
ENDROOT
BRANCH   4  11
ATOM     11  C   LIG d   1       8.127  -1.347  -6.017  0.00  0.00     0.344 C 
ATOM     12  O   LIG d   1       9.018  -2.138  -6.257  0.00  0.00    -0.244 OA
BRANCH  11  13
ATOM     13  O   LIG d   1       7.731  -1.144  -4.744  0.00  0.00    -0.421 OA
BRANCH  13  14
ATOM     14  C   LIG d   1       6.500  -1.593  -4.405  0.00  0.00     0.149 A 
ATOM     15  C   LIG d   1       5.575  -0.752  -3.630  0.00  0.00     0.060 A 
ATOM     16  C   LIG d   1       4.309  -1.263  -3.297  0.00  0.00     0.143 A 
ATOM     17  C   LIG d   1       5.939   0.532  -3.220  0.00  0.00    -0.048 A 
ATOM     18  O   LIG d   1       3.962  -2.508  -3.689  0.00  0.00    -0.422 OA
ATOM     19  C   LIG d   1       3.425  -0.476  -2.571  0.00  0.00    -0.018 A 
ATOM     20  C   LIG d   1       4.802  -3.285  -4.392  0.00  0.00     0.341 A 
ATOM     21  C   LIG d   1       6.086  -2.847  -4.758  0.00  0.00     0.066 A 
ATOM     22  O   LIG d   1       4.441  -4.401  -4.722  0.00  0.00    -0.245 OA
ATOM     23  H   LIG d   1       6.739  -3.495  -5.324  0.00  0.00     0.073 H 
ATOM     24  C   LIG d   1       3.798   0.790  -2.173  0.00  0.00    -0.058 A 
ATOM     25  H   LIG d   1       2.448  -0.858  -2.314  0.00  0.00     0.065 H 
ATOM     26  C   LIG d   1       5.049   1.293  -2.496  0.00  0.00    -0.061 A 
ATOM     27  H   LIG d   1       3.108   1.397  -1.604  0.00  0.00     0.062 H 
ATOM     28  H   LIG d   1       5.327   2.287  -2.178  0.00  0.00     0.062 H 
ATOM     29  H   LIG d   1       6.913   0.926  -3.471  0.00  0.00     0.063 H 
ENDBRANCH  13  14
ENDBRANCH  11  13
ENDBRANCH   4  11
BRANCH   1  30
ATOM     30  O   LIG d   1       5.667   1.453 -10.199  0.00  0.00    -0.492 OA
BRANCH  30  31
ATOM     31  C   LIG d   1       4.239   1.412 -10.256  0.00  0.00     0.089 C 
ATOM     32  H   LIG d   1       3.915   1.477 -11.294  0.00  0.00     0.070 H 
ATOM     33  H   LIG d   1       3.887   0.476  -9.823  0.00  0.00     0.070 H 
BRANCH  31  34
ATOM     34  C   LIG d   1       3.663   2.589  -9.466  0.00  0.00    -0.021 C 
ATOM     35  H   LIG d   1       4.479   3.172  -9.038  0.00  0.00     0.029 H 
ATOM     36  H   LIG d   1       3.076   3.221 -10.132  0.00  0.00     0.029 H 
BRANCH  34  37
ATOM     37  C   LIG d   1       2.770   2.061  -8.342  0.00  0.00    -0.062 C 
ATOM     38  H   LIG d   1       1.862   2.661  -8.287  0.00  0.00     0.023 H 
ATOM     39  H   LIG d   1       2.508   1.022  -8.545  0.00  0.00     0.023 H 
ATOM     40  H   LIG d   1       3.304   2.123  -7.394  0.00  0.00     0.023 H 
ENDBRANCH  34  37
ENDBRANCH  31  34
ENDBRANCH  30  31
ENDBRANCH   1  30
TORSDOF 7
ENDMDL
MODEL 2
REMARK VINA RESULT:      -6.2      1.709      2.983
REMARK  7 active torsions:
REMARK  status: ('A' for Active; 'I' for Inactive)
REMARK    1  A    between atoms: C_1  and  C_2 
REMARK    2  A    between atoms: C_2  and  C_3 
REMARK    3  A    between atoms: C_3  and  O_4 
REMARK    4  A    between atoms: O_4  and  C_5 
REMARK    5  A    between atoms: C_8  and  C_11 
REMARK    6  A    between atoms: C_11  and  O_13 
REMARK    7  A    between atoms: O_13  and  C_14 
ROOT
ATOM      1  C   LIG d   1       4.582  -0.832  -8.634  0.00  0.00     0.120 A 
ATOM      2  C   LIG d   1       4.201  -1.864  -7.783  0.00  0.00    -0.019 A 
ATOM      3  C   LIG d   1       5.090  -2.355  -6.853  0.00  0.00    -0.044 A 
ATOM      4  C   LIG d   1       6.376  -1.816  -6.765  0.00  0.00     0.060 A 
ATOM      5  C   LIG d   1       6.753  -0.774  -7.618  0.00  0.00    -0.044 A 
ATOM      6  C   LIG d   1       5.861  -0.293  -8.550  0.00  0.00    -0.019 A 
ATOM      7  H   LIG d   1       3.207  -2.280  -7.852  0.00  0.00     0.065 H 
ATOM      8  H   LIG d   1       4.793  -3.157  -6.193  0.00  0.00     0.063 H 
ATOM      9  H   LIG d   1       7.745  -0.352  -7.552  0.00  0.00     0.063 H 
ATOM     10  H   LIG d   1       6.153   0.507  -9.214  0.00  0.00     0.065 H 
ENDROOT
BRANCH   4  11
ATOM     11  C   LIG d   1       7.331  -2.339  -5.771  0.00  0.00     0.344 C 
ATOM     12  O   LIG d   1       8.353  -2.884  -6.139  0.00  0.00    -0.244 OA
BRANCH  11  13
ATOM     13  O   LIG d   1       7.071  -2.212  -4.454  0.00  0.00    -0.421 OA
BRANCH  13  14
ATOM     14  C   LIG d   1       6.769  -0.972  -4.004  0.00  0.00     0.149 A 
ATOM     15  C   LIG d   1       5.432  -0.663  -3.474  0.00  0.00     0.060 A 
ATOM     16  C   LIG d   1       5.164   0.639  -3.023  0.00  0.00     0.143 A 
ATOM     17  C   LIG d   1       4.435  -1.640  -3.420  0.00  0.00    -0.048 A 
ATOM     18  O   LIG d   1       6.129   1.583  -3.081  0.00  0.00    -0.422 OA
ATOM     19  C   LIG d   1       3.907   0.941  -2.514  0.00  0.00    -0.018 A 
ATOM     20  C   LIG d   1       7.351   1.313  -3.568  0.00  0.00     0.341 A 
ATOM     21  C   LIG d   1       7.693   0.035  -4.043  0.00  0.00     0.066 A 
ATOM     22  O   LIG d   1       8.185   2.199  -3.600  0.00  0.00    -0.245 OA
ATOM     23  H   LIG d   1       8.683  -0.152  -4.430  0.00  0.00     0.073 H 
ATOM     24  C   LIG d   1       2.932  -0.033  -2.468  0.00  0.00    -0.058 A 
ATOM     25  H   LIG d   1       3.693   1.939  -2.161  0.00  0.00     0.065 H 
ATOM     26  C   LIG d   1       3.194  -1.318  -2.918  0.00  0.00    -0.061 A 
ATOM     27  H   LIG d   1       1.954   0.207  -2.076  0.00  0.00     0.062 H 
ATOM     28  H   LIG d   1       2.421  -2.071  -2.875  0.00  0.00     0.062 H 
ATOM     29  H   LIG d   1       4.637  -2.641  -3.771  0.00  0.00     0.063 H 
ENDBRANCH  13  14
ENDBRANCH  11  13
ENDBRANCH   4  11
BRANCH   1  30
ATOM     30  O   LIG d   1       3.704  -0.351  -9.550  0.00  0.00    -0.492 OA
BRANCH  30  31
ATOM     31  C   LIG d   1       2.534   0.299  -9.048  0.00  0.00     0.089 C 
ATOM     32  H   LIG d   1       1.778   0.343  -9.832  0.00  0.00     0.070 H 
ATOM     33  H   LIG d   1       2.145  -0.261  -8.198  0.00  0.00     0.070 H 
BRANCH  31  34
ATOM     34  C   LIG d   1       2.891   1.719  -8.604  0.00  0.00    -0.021 C 
ATOM     35  H   LIG d   1       1.982   2.253  -8.329  0.00  0.00     0.029 H 
ATOM     36  H   LIG d   1       3.561   1.674  -7.745  0.00  0.00     0.029 H 
BRANCH  34  37
ATOM     37  C   LIG d   1       3.585   2.453  -9.753  0.00  0.00    -0.062 C 
ATOM     38  H   LIG d   1       3.933   1.729 -10.490  0.00  0.00     0.023 H 
ATOM     39  H   LIG d   1       2.880   3.140 -10.223  0.00  0.00     0.023 H 
ATOM     40  H   LIG d   1       4.436   3.014  -9.366  0.00  0.00     0.023 H 
ENDBRANCH  34  37
ENDBRANCH  31  34
ENDBRANCH  30  31
ENDBRANCH   1  30
TORSDOF 7
ENDMDL
MODEL 3
REMARK VINA RESULT:      -6.1      3.218      4.580
REMARK  7 active torsions:
REMARK  status: ('A' for Active; 'I' for Inactive)
REMARK    1  A    between atoms: C_1  and  C_2 
REMARK    2  A    between atoms: C_2  and  C_3 
REMARK    3  A    between atoms: C_3  and  O_4 
REMARK    4  A    between atoms: O_4  and  C_5 
REMARK    5  A    between atoms: C_8  and  C_11 
REMARK    6  A    between atoms: C_11  and  O_13 
REMARK    7  A    between atoms: O_13  and  C_14 
ROOT
ATOM      1  C   LIG d   1       2.539  -0.806 -11.624  0.00  0.00     0.120 A 
ATOM      2  C   LIG d   1       3.539   0.115 -11.331  0.00  0.00    -0.019 A 
ATOM      3  C   LIG d   1       3.649   0.636 -10.061  0.00  0.00    -0.044 A 
ATOM      4  C   LIG d   1       2.753   0.237  -9.065  0.00  0.00     0.060 A 
ATOM      5  C   LIG d   1       1.753  -0.694  -9.361  0.00  0.00    -0.044 A 
ATOM      6  C   LIG d   1       1.646  -1.205 -10.635  0.00  0.00    -0.019 A 
ATOM      7  H   LIG d   1       4.231   0.422 -12.102  0.00  0.00     0.065 H 
ATOM      8  H   LIG d   1       4.425   1.351  -9.835  0.00  0.00     0.063 H 
ATOM      9  H   LIG d   1       1.061  -1.009  -8.594  0.00  0.00     0.063 H 
ATOM     10  H   LIG d   1       0.871  -1.920 -10.867  0.00  0.00     0.065 H 
ENDROOT
BRANCH   4  11
ATOM     11  C   LIG d   1       2.866   0.791  -7.703  0.00  0.00     0.344 C 
ATOM     12  O   LIG d   1       3.061   1.980  -7.547  0.00  0.00    -0.244 OA
BRANCH  11  13
ATOM     13  O   LIG d   1       2.754  -0.021  -6.633  0.00  0.00    -0.421 OA
BRANCH  13  14
ATOM     14  C   LIG d   1       3.898  -0.355  -5.992  0.00  0.00     0.149 A 
ATOM     15  C   LIG d   1       4.108   0.002  -4.581  0.00  0.00     0.060 A 
ATOM     16  C   LIG d   1       5.314  -0.362  -3.960  0.00  0.00     0.143 A 
ATOM     17  C   LIG d   1       3.134   0.696  -3.860  0.00  0.00    -0.048 A 
ATOM     18  O   LIG d   1       6.257  -1.028  -4.661  0.00  0.00    -0.422 OA
ATOM     19  C   LIG d   1       5.521  -0.035  -2.626  0.00  0.00    -0.018 A 
ATOM     20  C   LIG d   1       6.077  -1.354  -5.951  0.00  0.00     0.341 A 
ATOM     21  C   LIG d   1       4.900  -1.020  -6.642  0.00  0.00     0.066 A 
ATOM     22  O   LIG d   1       6.959  -1.955  -6.539  0.00  0.00    -0.245 OA
ATOM     23  H   LIG d   1       4.784  -1.295  -7.680  0.00  0.00     0.073 H 
ATOM     24  C   LIG d   1       4.550   0.651  -1.927  0.00  0.00    -0.058 A 
ATOM     25  H   LIG d   1       6.443  -0.315  -2.138  0.00  0.00     0.065 H 
ATOM     26  C   LIG d   1       3.361   1.015  -2.541  0.00  0.00    -0.061 A 
ATOM     27  H   LIG d   1       4.717   0.907  -0.891  0.00  0.00     0.062 H 
ATOM     28  H   LIG d   1       2.610   1.552  -1.980  0.00  0.00     0.062 H 
ATOM     29  H   LIG d   1       2.207   0.981  -4.337  0.00  0.00     0.063 H 
ENDBRANCH  13  14
ENDBRANCH  11  13
ENDBRANCH   4  11
BRANCH   1  30
ATOM     30  O   LIG d   1       2.434  -1.316 -12.877  0.00  0.00    -0.492 OA
BRANCH  30  31
ATOM     31  C   LIG d   1       1.728  -2.551 -13.018  0.00  0.00     0.089 C 
ATOM     32  H   LIG d   1       2.425  -3.336 -13.313  0.00  0.00     0.070 H 
ATOM     33  H   LIG d   1       1.266  -2.814 -12.067  0.00  0.00     0.070 H 
BRANCH  31  34
ATOM     34  C   LIG d   1       0.646  -2.400 -14.089  0.00  0.00    -0.021 C 
ATOM     35  H   LIG d   1       0.940  -1.622 -14.793  0.00  0.00     0.029 H 
ATOM     36  H   LIG d   1       0.526  -3.344 -14.619  0.00  0.00     0.029 H 
BRANCH  34  37
ATOM     37  C   LIG d   1      -0.677  -2.013 -13.425  0.00  0.00    -0.062 C 
ATOM     38  H   LIG d   1      -0.582  -1.026 -12.973  0.00  0.00     0.023 H 
ATOM     39  H   LIG d   1      -1.468  -1.995 -14.175  0.00  0.00     0.023 H 
ATOM     40  H   LIG d   1      -0.923  -2.744 -12.654  0.00  0.00     0.023 H 
ENDBRANCH  34  37
ENDBRANCH  31  34
ENDBRANCH  30  31
ENDBRANCH   1  30
TORSDOF 7
ENDMDL
MODEL 4
REMARK VINA RESULT:      -6.1      2.875      4.465
REMARK  7 active torsions:
REMARK  status: ('A' for Active; 'I' for Inactive)
REMARK    1  A    between atoms: C_1  and  C_2 
REMARK    2  A    between atoms: C_2  and  C_3 
REMARK    3  A    between atoms: C_3  and  O_4 
REMARK    4  A    between atoms: O_4  and  C_5 
REMARK    5  A    between atoms: C_8  and  C_11 
REMARK    6  A    between atoms: C_11  and  O_13 
REMARK    7  A    between atoms: O_13  and  C_14 
ROOT
ATOM      1  C   LIG d   1       3.078  -0.438 -11.658  0.00  0.00     0.120 A 
ATOM      2  C   LIG d   1       2.107  -0.958 -10.810  0.00  0.00    -0.019 A 
ATOM      3  C   LIG d   1       2.029  -0.530  -9.503  0.00  0.00    -0.044 A 
ATOM      4  C   LIG d   1       2.929   0.428  -9.030  0.00  0.00     0.060 A 
ATOM      5  C   LIG d   1       3.901   0.954  -9.886  0.00  0.00    -0.044 A 
ATOM      6  C   LIG d   1       3.976   0.515 -11.189  0.00  0.00    -0.019 A 
ATOM      7  H   LIG d   1       1.411  -1.698 -11.177  0.00  0.00     0.065 H 
ATOM      8  H   LIG d   1       1.274  -0.935  -8.846  0.00  0.00     0.063 H 
ATOM      9  H   LIG d   1       4.596   1.697  -9.526  0.00  0.00     0.063 H 
ATOM     10  H   LIG d   1       4.730   0.916 -11.851  0.00  0.00     0.065 H 
ENDROOT
BRANCH   4  11
ATOM     11  C   LIG d   1       2.850   0.890  -7.631  0.00  0.00     0.344 C 
ATOM     12  O   LIG d   1       2.896   2.078  -7.381  0.00  0.00    -0.244 OA
BRANCH  11  13
ATOM     13  O   LIG d   1       2.728  -0.006  -6.631  0.00  0.00    -0.421 OA
BRANCH  13  14
ATOM     14  C   LIG d   1       3.861  -0.360  -5.981  0.00  0.00     0.149 A 
ATOM     15  C   LIG d   1       4.079   0.022  -4.578  0.00  0.00     0.060 A 
ATOM     16  C   LIG d   1       5.273  -0.365  -3.947  0.00  0.00     0.143 A 
ATOM     17  C   LIG d   1       3.126   0.761  -3.874  0.00  0.00    -0.048 A 
ATOM     18  O   LIG d   1       6.197  -1.075  -4.631  0.00  0.00    -0.422 OA
ATOM     19  C   LIG d   1       5.488  -0.015  -2.619  0.00  0.00    -0.018 A 
ATOM     20  C   LIG d   1       6.009  -1.423  -5.914  0.00  0.00     0.341 A 
ATOM     21  C   LIG d   1       4.843  -1.070  -6.614  0.00  0.00     0.066 A 
ATOM     22  O   LIG d   1       6.872  -2.063  -6.486  0.00  0.00    -0.245 OA
ATOM     23  H   LIG d   1       4.721  -1.364  -7.646  0.00  0.00     0.073 H 
ATOM     24  C   LIG d   1       4.538   0.716  -1.938  0.00  0.00    -0.058 A 
ATOM     25  H   LIG d   1       6.401  -0.311  -2.124  0.00  0.00     0.065 H 
ATOM     26  C   LIG d   1       3.361   1.102  -2.562  0.00  0.00    -0.061 A 
ATOM     27  H   LIG d   1       4.711   0.989  -0.907  0.00  0.00     0.062 H 
ATOM     28  H   LIG d   1       2.625   1.673  -2.015  0.00  0.00     0.062 H 
ATOM     29  H   LIG d   1       2.208   1.063  -4.359  0.00  0.00     0.063 H 
ENDBRANCH  13  14
ENDBRANCH  11  13
ENDBRANCH   4  11
BRANCH   1  30
ATOM     30  O   LIG d   1       3.152  -0.862 -12.944  0.00  0.00    -0.492 OA
BRANCH  30  31
ATOM     31  C   LIG d   1       4.409  -0.710 -13.607  0.00  0.00     0.089 C 
ATOM     32  H   LIG d   1       4.951   0.128 -13.169  0.00  0.00     0.070 H 
ATOM     33  H   LIG d   1       4.993  -1.622 -13.490  0.00  0.00     0.070 H 
BRANCH  31  34
ATOM     34  C   LIG d   1       4.171  -0.442 -15.095  0.00  0.00    -0.021 C 
ATOM     35  H   LIG d   1       3.802   0.575 -15.226  0.00  0.00     0.029 H 
ATOM     36  H   LIG d   1       5.107  -0.563 -15.640  0.00  0.00     0.029 H 
BRANCH  34  37
ATOM     37  C   LIG d   1       3.136  -1.432 -15.631  0.00  0.00    -0.062 C 
ATOM     38  H   LIG d   1       3.244  -2.387 -15.116  0.00  0.00     0.023 H 
ATOM     39  H   LIG d   1       2.134  -1.039 -15.461  0.00  0.00     0.023 H 
ATOM     40  H   LIG d   1       3.293  -1.578 -16.701  0.00  0.00     0.023 H 
ENDBRANCH  34  37
ENDBRANCH  31  34
ENDBRANCH  30  31
ENDBRANCH   1  30
TORSDOF 7
ENDMDL
MODEL 5
REMARK VINA RESULT:      -6.0      1.998      3.600
REMARK  7 active torsions:
REMARK  status: ('A' for Active; 'I' for Inactive)
REMARK    1  A    between atoms: C_1  and  C_2 
REMARK    2  A    between atoms: C_2  and  C_3 
REMARK    3  A    between atoms: C_3  and  O_4 
REMARK    4  A    between atoms: O_4  and  C_5 
REMARK    5  A    between atoms: C_8  and  C_11 
REMARK    6  A    between atoms: C_11  and  O_13 
REMARK    7  A    between atoms: O_13  and  C_14 
ROOT
ATOM      1  C   LIG d   1       4.858  -0.883  -8.456  0.00  0.00     0.120 A 
ATOM      2  C   LIG d   1       3.977  -0.542  -7.436  0.00  0.00    -0.019 A 
ATOM      3  C   LIG d   1       4.042  -1.190  -6.222  0.00  0.00    -0.044 A 
ATOM      4  C   LIG d   1       4.994  -2.192  -6.018  0.00  0.00     0.060 A 
ATOM      5  C   LIG d   1       5.882  -2.528  -7.044  0.00  0.00    -0.044 A 
ATOM      6  C   LIG d   1       5.806  -1.880  -8.257  0.00  0.00    -0.019 A 
ATOM      7  H   LIG d   1       3.241   0.233  -7.595  0.00  0.00     0.065 H 
ATOM      8  H   LIG d   1       3.357  -0.925  -5.431  0.00  0.00     0.063 H 
ATOM      9  H   LIG d   1       6.623  -3.299  -6.890  0.00  0.00     0.063 H 
ATOM     10  H   LIG d   1       6.488  -2.141  -9.052  0.00  0.00     0.065 H 
ENDROOT
BRANCH   4  11
ATOM     11  C   LIG d   1       5.068  -2.890  -4.721  0.00  0.00     0.344 C 
ATOM     12  O   LIG d   1       4.317  -3.817  -4.487  0.00  0.00    -0.244 OA
BRANCH  11  13
ATOM     13  O   LIG d   1       5.966  -2.499  -3.795  0.00  0.00    -0.421 OA
BRANCH  13  14
ATOM     14  C   LIG d   1       5.952  -1.194  -3.437  0.00  0.00     0.149 A 
ATOM     15  C   LIG d   1       6.997  -0.270  -3.902  0.00  0.00     0.060 A 
ATOM     16  C   LIG d   1       6.943   1.075  -3.500  0.00  0.00     0.143 A 
ATOM     17  C   LIG d   1       8.035  -0.711  -4.725  0.00  0.00    -0.048 A 
ATOM     18  O   LIG d   1       5.941   1.498  -2.699  0.00  0.00    -0.422 OA
ATOM     19  C   LIG d   1       7.921   1.959  -3.939  0.00  0.00    -0.018 A 
ATOM     20  C   LIG d   1       4.985   0.661  -2.265  0.00  0.00     0.341 A 
ATOM     21  C   LIG d   1       4.974  -0.699  -2.619  0.00  0.00     0.066 A 
ATOM     22  O   LIG d   1       4.103   1.092  -1.543  0.00  0.00    -0.245 OA
ATOM     23  H   LIG d   1       4.193  -1.348  -2.254  0.00  0.00     0.073 H 
ATOM     24  C   LIG d   1       8.941   1.509  -4.751  0.00  0.00    -0.058 A 
ATOM     25  H   LIG d   1       7.886   2.996  -3.639  0.00  0.00     0.065 H 
ATOM     26  C   LIG d   1       8.998   0.180  -5.143  0.00  0.00    -0.061 A 
ATOM     27  H   LIG d   1       9.702   2.199  -5.085  0.00  0.00     0.062 H 
ATOM     28  H   LIG d   1       9.802  -0.158  -5.781  0.00  0.00     0.062 H 
ATOM     29  H   LIG d   1       8.082  -1.746  -5.032  0.00  0.00     0.063 H 
ENDBRANCH  13  14
ENDBRANCH  11  13
ENDBRANCH   4  11
BRANCH   1  30
ATOM     30  O   LIG d   1       4.790  -0.242  -9.650  0.00  0.00    -0.492 OA
BRANCH  30  31
ATOM     31  C   LIG d   1       3.535   0.344 -10.003  0.00  0.00     0.089 C 
ATOM     32  H   LIG d   1       3.070  -0.243 -10.794  0.00  0.00     0.070 H 
ATOM     33  H   LIG d   1       2.884   0.357  -9.129  0.00  0.00     0.070 H 
BRANCH  31  34
ATOM     34  C   LIG d   1       3.761   1.775 -10.494  0.00  0.00    -0.021 C 
ATOM     35  H   LIG d   1       4.604   1.793 -11.185  0.00  0.00     0.029 H 
ATOM     36  H   LIG d   1       2.865   2.130 -11.005  0.00  0.00     0.029 H 
BRANCH  34  37
ATOM     37  C   LIG d   1       4.061   2.682  -9.300  0.00  0.00    -0.062 C 
ATOM     38  H   LIG d   1       4.215   3.704  -9.648  0.00  0.00     0.023 H 
ATOM     39  H   LIG d   1       3.222   2.658  -8.605  0.00  0.00     0.023 H 
ATOM     40  H   LIG d   1       4.962   2.332  -8.795  0.00  0.00     0.023 H 
ENDBRANCH  34  37
ENDBRANCH  31  34
ENDBRANCH  30  31
ENDBRANCH   1  30
TORSDOF 7
ENDMDL
MODEL 6
REMARK VINA RESULT:      -5.9      2.092      4.028
REMARK  7 active torsions:
REMARK  status: ('A' for Active; 'I' for Inactive)
REMARK    1  A    between atoms: C_1  and  C_2 
REMARK    2  A    between atoms: C_2  and  C_3 
REMARK    3  A    between atoms: C_3  and  O_4 
REMARK    4  A    between atoms: O_4  and  C_5 
REMARK    5  A    between atoms: C_8  and  C_11 
REMARK    6  A    between atoms: C_11  and  O_13 
REMARK    7  A    between atoms: O_13  and  C_14 
ROOT
ATOM      1  C   LIG d   1       3.219   0.001  -7.124  0.00  0.00     0.120 A 
ATOM      2  C   LIG d   1       4.070  -1.094  -7.229  0.00  0.00    -0.019 A 
ATOM      3  C   LIG d   1       4.528  -1.724  -6.094  0.00  0.00    -0.044 A 
ATOM      4  C   LIG d   1       4.137  -1.261  -4.835  0.00  0.00     0.060 A 
ATOM      5  C   LIG d   1       3.276  -0.164  -4.733  0.00  0.00    -0.044 A 
ATOM      6  C   LIG d   1       2.828   0.465  -5.873  0.00  0.00    -0.019 A 
ATOM      7  H   LIG d   1       4.371  -1.450  -8.203  0.00  0.00     0.065 H 
ATOM      8  H   LIG d   1       5.189  -2.574  -6.177  0.00  0.00     0.063 H 
ATOM      9  H   LIG d   1       2.968   0.194  -3.762  0.00  0.00     0.063 H 
ATOM     10  H   LIG d   1       2.168   1.316  -5.796  0.00  0.00     0.065 H 
ENDROOT
BRANCH   4  11
ATOM     11  C   LIG d   1       4.625  -1.933  -3.616  0.00  0.00     0.344 C 
ATOM     12  O   LIG d   1       4.029  -2.896  -3.174  0.00  0.00    -0.244 OA
BRANCH  11  13
ATOM     13  O   LIG d   1       5.730  -1.478  -2.992  0.00  0.00    -0.421 OA
BRANCH  13  14
ATOM     14  C   LIG d   1       6.891  -1.530  -3.684  0.00  0.00     0.149 A 
ATOM     15  C   LIG d   1       7.584  -0.299  -4.094  0.00  0.00     0.060 A 
ATOM     16  C   LIG d   1       8.784  -0.403  -4.816  0.00  0.00     0.143 A 
ATOM     17  C   LIG d   1       7.064   0.959  -3.782  0.00  0.00    -0.048 A 
ATOM     18  O   LIG d   1       9.282  -1.621  -5.122  0.00  0.00    -0.422 OA
ATOM     19  C   LIG d   1       9.451   0.754  -5.203  0.00  0.00    -0.018 A 
ATOM     20  C   LIG d   1       8.654  -2.750  -4.757  0.00  0.00     0.341 A 
ATOM     21  C   LIG d   1       7.448  -2.728  -4.038  0.00  0.00     0.066 A 
ATOM     22  O   LIG d   1       9.145  -3.824  -5.058  0.00  0.00    -0.245 OA
ATOM     23  H   LIG d   1       6.966  -3.653  -3.759  0.00  0.00     0.073 H 
ATOM     24  C   LIG d   1       8.925   1.989  -4.888  0.00  0.00    -0.058 A 
ATOM     25  H   LIG d   1      10.376   0.684  -5.755  0.00  0.00     0.065 H 
ATOM     26  C   LIG d   1       7.737   2.092  -4.180  0.00  0.00    -0.061 A 
ATOM     27  H   LIG d   1       9.444   2.885  -5.195  0.00  0.00     0.062 H 
ATOM     28  H   LIG d   1       7.338   3.067  -3.940  0.00  0.00     0.062 H 
ATOM     29  H   LIG d   1       6.139   1.042  -3.230  0.00  0.00     0.063 H 
ENDBRANCH  13  14
ENDBRANCH  11  13
ENDBRANCH   4  11
BRANCH   1  30
ATOM     30  O   LIG d   1       2.770   0.620  -8.245  0.00  0.00    -0.492 OA
BRANCH  30  31
ATOM     31  C   LIG d   1       2.832   2.047  -8.268  0.00  0.00     0.089 C 
ATOM     32  H   LIG d   1       1.861   2.448  -8.558  0.00  0.00     0.070 H 
ATOM     33  H   LIG d   1       3.095   2.414  -7.276  0.00  0.00     0.070 H 
BRANCH  31  34
ATOM     34  C   LIG d   1       3.892   2.496  -9.276  0.00  0.00    -0.021 C 
ATOM     35  H   LIG d   1       3.686   3.520  -9.587  0.00  0.00     0.029 H 
ATOM     36  H   LIG d   1       4.877   2.448  -8.813  0.00  0.00     0.029 H 
BRANCH  34  37
ATOM     37  C   LIG d   1       3.855   1.576 -10.497  0.00  0.00    -0.062 C 
ATOM     38  H   LIG d   1       4.233   2.111 -11.368  0.00  0.00     0.023 H 
ATOM     39  H   LIG d   1       4.477   0.700 -10.311  0.00  0.00     0.023 H 
ATOM     40  H   LIG d   1       2.828   1.259 -10.683  0.00  0.00     0.023 H 
ENDBRANCH  34  37
ENDBRANCH  31  34
ENDBRANCH  30  31
ENDBRANCH   1  30
TORSDOF 7
ENDMDL
MODEL 7
REMARK VINA RESULT:      -5.8      4.209      5.359
REMARK  7 active torsions:
REMARK  status: ('A' for Active; 'I' for Inactive)
REMARK    1  A    between atoms: C_1  and  C_2 
REMARK    2  A    between atoms: C_2  and  C_3 
REMARK    3  A    between atoms: C_3  and  O_4 
REMARK    4  A    between atoms: O_4  and  C_5 
REMARK    5  A    between atoms: C_8  and  C_11 
REMARK    6  A    between atoms: C_11  and  O_13 
REMARK    7  A    between atoms: O_13  and  C_14 
ROOT
ATOM      1  C   LIG d   1      10.280   5.792  -6.619  0.00  0.00     0.120 A 
ATOM      2  C   LIG d   1      10.201   4.477  -7.062  0.00  0.00    -0.019 A 
ATOM      3  C   LIG d   1       9.674   3.502  -6.244  0.00  0.00    -0.044 A 
ATOM      4  C   LIG d   1       9.219   3.838  -4.966  0.00  0.00     0.060 A 
ATOM      5  C   LIG d   1       9.293   5.163  -4.526  0.00  0.00    -0.044 A 
ATOM      6  C   LIG d   1       9.828   6.130  -5.348  0.00  0.00    -0.019 A 
ATOM      7  H   LIG d   1      10.554   4.219  -8.050  0.00  0.00     0.065 H 
ATOM      8  H   LIG d   1       9.615   2.481  -6.589  0.00  0.00     0.063 H 
ATOM      9  H   LIG d   1       8.938   5.427  -3.541  0.00  0.00     0.063 H 
ATOM     10  H   LIG d   1       9.891   7.152  -5.008  0.00  0.00     0.065 H 
ENDROOT
BRANCH   4  11
ATOM     11  C   LIG d   1       8.654   2.798  -4.086  0.00  0.00     0.344 C 
ATOM     12  O   LIG d   1       9.286   2.409  -3.123  0.00  0.00    -0.244 OA
BRANCH  11  13
ATOM     13  O   LIG d   1       7.437   2.279  -4.349  0.00  0.00    -0.421 OA
BRANCH  13  14
ATOM     14  C   LIG d   1       7.304   0.938  -4.234  0.00  0.00     0.149 A 
ATOM     15  C   LIG d   1       6.246   0.350  -3.398  0.00  0.00     0.060 A 
ATOM     16  C   LIG d   1       6.151  -1.048  -3.307  0.00  0.00     0.143 A 
ATOM     17  C   LIG d   1       5.349   1.159  -2.698  0.00  0.00    -0.048 A 
ATOM     18  O   LIG d   1       7.024  -1.828  -3.981  0.00  0.00    -0.422 OA
ATOM     19  C   LIG d   1       5.151  -1.614  -2.525  0.00  0.00    -0.018 A 
ATOM     20  C   LIG d   1       7.996  -1.301  -4.742  0.00  0.00     0.341 A 
ATOM     21  C   LIG d   1       8.159   0.088  -4.880  0.00  0.00     0.066 A 
ATOM     22  O   LIG d   1       8.759  -2.048  -5.330  0.00  0.00    -0.245 OA
ATOM     23  H   LIG d   1       8.951   0.482  -5.499  0.00  0.00     0.073 H 
ATOM     24  C   LIG d   1       4.273  -0.804  -1.838  0.00  0.00    -0.058 A 
ATOM     25  H   LIG d   1       5.067  -2.689  -2.452  0.00  0.00     0.065 H 
ATOM     26  C   LIG d   1       4.370   0.577  -1.924  0.00  0.00    -0.061 A 
ATOM     27  H   LIG d   1       3.500  -1.249  -1.228  0.00  0.00     0.062 H 
ATOM     28  H   LIG d   1       3.674   1.199  -1.381  0.00  0.00     0.062 H 
ATOM     29  H   LIG d   1       5.423   2.234  -2.763  0.00  0.00     0.063 H 
ENDBRANCH  13  14
ENDBRANCH  11  13
ENDBRANCH   4  11
BRANCH   1  30
ATOM     30  O   LIG d   1      10.800   6.749  -7.428  0.00  0.00    -0.492 OA
BRANCH  30  31
ATOM     31  C   LIG d   1      10.258   8.066  -7.307  0.00  0.00     0.089 C 
ATOM     32  H   LIG d   1       9.779   8.174  -6.334  0.00  0.00     0.070 H 
ATOM     33  H   LIG d   1      11.060   8.798  -7.401  0.00  0.00     0.070 H 
BRANCH  31  34
ATOM     34  C   LIG d   1       9.225   8.296  -8.413  0.00  0.00    -0.021 C 
ATOM     35  H   LIG d   1       8.298   7.783  -8.155  0.00  0.00     0.029 H 
ATOM     36  H   LIG d   1       9.033   9.364  -8.515  0.00  0.00     0.029 H 
BRANCH  34  37
ATOM     37  C   LIG d   1       9.762   7.744  -9.734  0.00  0.00    -0.062 C 
ATOM     38  H   LIG d   1      10.445   6.918  -9.534  0.00  0.00     0.023 H 
ATOM     39  H   LIG d   1       8.932   7.390 -10.345  0.00  0.00     0.023 H 
ATOM     40  H   LIG d   1      10.294   8.533 -10.267  0.00  0.00     0.023 H 
ENDBRANCH  34  37
ENDBRANCH  31  34
ENDBRANCH  30  31
ENDBRANCH   1  30
TORSDOF 7
ENDMDL
MODEL 8
REMARK VINA RESULT:      -5.7      4.630      6.152
REMARK  7 active torsions:
REMARK  status: ('A' for Active; 'I' for Inactive)
REMARK    1  A    between atoms: C_1  and  C_2 
REMARK    2  A    between atoms: C_2  and  C_3 
REMARK    3  A    between atoms: C_3  and  O_4 
REMARK    4  A    between atoms: O_4  and  C_5 
REMARK    5  A    between atoms: C_8  and  C_11 
REMARK    6  A    between atoms: C_11  and  O_13 
REMARK    7  A    between atoms: O_13  and  C_14 
ROOT
ATOM      1  C   LIG d   1      10.822   5.399  -3.424  0.00  0.00     0.120 A 
ATOM      2  C   LIG d   1      10.786   4.280  -2.600  0.00  0.00    -0.019 A 
ATOM      3  C   LIG d   1       9.958   3.222  -2.906  0.00  0.00    -0.044 A 
ATOM      4  C   LIG d   1       9.154   3.276  -4.048  0.00  0.00     0.060 A 
ATOM      5  C   LIG d   1       9.197   4.401  -4.878  0.00  0.00    -0.044 A 
ATOM      6  C   LIG d   1      10.022   5.456  -4.560  0.00  0.00    -0.019 A 
ATOM      7  H   LIG d   1      11.408   4.239  -1.718  0.00  0.00     0.065 H 
ATOM      8  H   LIG d   1       9.930   2.354  -2.265  0.00  0.00     0.063 H 
ATOM      9  H   LIG d   1       8.581   4.445  -5.763  0.00  0.00     0.063 H 
ATOM     10  H   LIG d   1      10.053   6.328  -5.197  0.00  0.00     0.065 H 
ENDROOT
BRANCH   4  11
ATOM     11  C   LIG d   1       8.265   2.147  -4.381  0.00  0.00     0.344 C 
ATOM     12  O   LIG d   1       7.737   2.092  -5.474  0.00  0.00    -0.244 OA
BRANCH  11  13
ATOM     13  O   LIG d   1       8.039   1.176  -3.473  0.00  0.00    -0.421 OA
BRANCH  13  14
ATOM     14  C   LIG d   1       7.201   0.179  -3.836  0.00  0.00     0.149 A 
ATOM     15  C   LIG d   1       5.795   0.175  -3.403  0.00  0.00     0.060 A 
ATOM     16  C   LIG d   1       4.963  -0.884  -3.801  0.00  0.00     0.143 A 
ATOM     17  C   LIG d   1       5.285   1.200  -2.603  0.00  0.00    -0.048 A 
ATOM     18  O   LIG d   1       5.461  -1.877  -4.570  0.00  0.00    -0.422 OA
ATOM     19  C   LIG d   1       3.632  -0.895  -3.403  0.00  0.00    -0.018 A 
ATOM     20  C   LIG d   1       6.744  -1.886  -4.966  0.00  0.00     0.341 A 
ATOM     21  C   LIG d   1       7.638  -0.865  -4.604  0.00  0.00     0.066 A 
ATOM     22  O   LIG d   1       7.144  -2.805  -5.658  0.00  0.00    -0.245 OA
ATOM     23  H   LIG d   1       8.665  -0.899  -4.938  0.00  0.00     0.073 H 
ATOM     24  C   LIG d   1       3.143   0.124  -2.613  0.00  0.00    -0.058 A 
ATOM     25  H   LIG d   1       2.984  -1.703  -3.708  0.00  0.00     0.065 H 
ATOM     26  C   LIG d   1       3.964   1.167  -2.215  0.00  0.00    -0.061 A 
ATOM     27  H   LIG d   1       2.108   0.109  -2.302  0.00  0.00     0.062 H 
ATOM     28  H   LIG d   1       3.566   1.959  -1.597  0.00  0.00     0.062 H 
ATOM     29  H   LIG d   1       5.923   2.014  -2.292  0.00  0.00     0.063 H 
ENDBRANCH  13  14
ENDBRANCH  11  13
ENDBRANCH   4  11
BRANCH   1  30
ATOM     30  O   LIG d   1      11.638   6.439  -3.118  0.00  0.00    -0.492 OA
BRANCH  30  31
ATOM     31  C   LIG d   1      11.017   7.703  -2.876  0.00  0.00     0.089 C 
ATOM     32  H   LIG d   1      11.677   8.502  -3.211  0.00  0.00     0.070 H 
ATOM     33  H   LIG d   1      10.076   7.754  -3.423  0.00  0.00     0.070 H 
BRANCH  31  34
ATOM     34  C   LIG d   1      10.746   7.859  -1.378  0.00  0.00    -0.021 C 
ATOM     35  H   LIG d   1      11.196   7.026  -0.839  0.00  0.00     0.029 H 
ATOM     36  H   LIG d   1      11.179   8.796  -1.026  0.00  0.00     0.029 H 
BRANCH  34  37
ATOM     37  C   LIG d   1       9.237   7.870  -1.132  0.00  0.00    -0.062 C 
ATOM     38  H   LIG d   1       8.774   7.041  -1.667  0.00  0.00     0.023 H 
ATOM     39  H   LIG d   1       9.042   7.767  -0.064  0.00  0.00     0.023 H 
ATOM     40  H   LIG d   1       8.817   8.811  -1.488  0.00  0.00     0.023 H 
ENDBRANCH  34  37
ENDBRANCH  31  34
ENDBRANCH  30  31
ENDBRANCH   1  30
TORSDOF 7
ENDMDL
MODEL 9
REMARK VINA RESULT:      -5.5      3.514      5.050
REMARK  7 active torsions:
REMARK  status: ('A' for Active; 'I' for Inactive)
REMARK    1  A    between atoms: C_1  and  C_2 
REMARK    2  A    between atoms: C_2  and  C_3 
REMARK    3  A    between atoms: C_3  and  O_4 
REMARK    4  A    between atoms: O_4  and  C_5 
REMARK    5  A    between atoms: C_8  and  C_11 
REMARK    6  A    between atoms: C_11  and  O_13 
REMARK    7  A    between atoms: O_13  and  C_14 
ROOT
ATOM      1  C   LIG d   1       9.814   3.621  -4.245  0.00  0.00     0.120 A 
ATOM      2  C   LIG d   1       9.580   3.664  -5.615  0.00  0.00    -0.019 A 
ATOM      3  C   LIG d   1       8.884   2.647  -6.230  0.00  0.00    -0.044 A 
ATOM      4  C   LIG d   1       8.414   1.570  -5.474  0.00  0.00     0.060 A 
ATOM      5  C   LIG d   1       8.645   1.533  -4.095  0.00  0.00    -0.044 A 
ATOM      6  C   LIG d   1       9.347   2.551  -3.490  0.00  0.00    -0.019 A 
ATOM      7  H   LIG d   1       9.944   4.497  -6.198  0.00  0.00     0.065 H 
ATOM      8  H   LIG d   1       8.704   2.681  -7.294  0.00  0.00     0.063 H 
ATOM      9  H   LIG d   1       8.280   0.705  -3.507  0.00  0.00     0.063 H 
ATOM     10  H   LIG d   1       9.532   2.522  -2.427  0.00  0.00     0.065 H 
ENDROOT
BRANCH   4  11
ATOM     11  C   LIG d   1       7.669   0.477  -6.127  0.00  0.00     0.344 C 
ATOM     12  O   LIG d   1       8.271  -0.436  -6.656  0.00  0.00    -0.244 OA
BRANCH  11  13
ATOM     13  O   LIG d   1       6.320   0.492  -6.136  0.00  0.00    -0.421 OA
BRANCH  13  14
ATOM     14  C   LIG d   1       5.691  -0.596  -5.633  0.00  0.00     0.149 A 
ATOM     15  C   LIG d   1       5.218  -0.620  -4.241  0.00  0.00     0.060 A 
ATOM     16  C   LIG d   1       4.574  -1.773  -3.762  0.00  0.00     0.143 A 
ATOM     17  C   LIG d   1       5.405   0.476  -3.396  0.00  0.00    -0.048 A 
ATOM     18  O   LIG d   1       4.400  -2.835  -4.579  0.00  0.00    -0.422 OA
ATOM     19  C   LIG d   1       4.118  -1.806  -2.450  0.00  0.00    -0.018 A 
ATOM     20  C   LIG d   1       4.834  -2.824  -5.850  0.00  0.00     0.341 A 
ATOM     21  C   LIG d   1       5.490  -1.710  -6.399  0.00  0.00     0.066 A 
ATOM     22  O   LIG d   1       4.653  -3.807  -6.546  0.00  0.00    -0.245 OA
ATOM     23  H   LIG d   1       5.828  -1.731  -7.425  0.00  0.00     0.073 H 
ATOM     24  C   LIG d   1       4.310  -0.716  -1.628  0.00  0.00    -0.058 A 
ATOM     25  H   LIG d   1       3.618  -2.686  -2.074  0.00  0.00     0.065 H 
ATOM     26  C   LIG d   1       4.950   0.421  -2.098  0.00  0.00    -0.061 A 
ATOM     27  H   LIG d   1       3.957  -0.747  -0.607  0.00  0.00     0.062 H 
ATOM     28  H   LIG d   1       5.092   1.267  -1.442  0.00  0.00     0.062 H 
ATOM     29  H   LIG d   1       5.903   1.363  -3.761  0.00  0.00     0.063 H 
ENDBRANCH  13  14
ENDBRANCH  11  13
ENDBRANCH   4  11
BRANCH   1  30
ATOM     30  O   LIG d   1      10.500   4.626  -3.644  0.00  0.00    -0.492 OA
BRANCH  30  31
ATOM     31  C   LIG d   1       9.732   5.708  -3.112  0.00  0.00     0.089 C 
ATOM     32  H   LIG d   1       9.921   6.609  -3.697  0.00  0.00     0.070 H 
ATOM     33  H   LIG d   1       8.673   5.459  -3.161  0.00  0.00     0.070 H 
BRANCH  31  34
ATOM     34  C   LIG d   1      10.135   5.951  -1.656  0.00  0.00    -0.021 C 
ATOM     35  H   LIG d   1       9.562   5.290  -1.007  0.00  0.00     0.029 H 
ATOM     36  H   LIG d   1      11.199   5.748  -1.534  0.00  0.00     0.029 H 
BRANCH  34  37
ATOM     37  C   LIG d   1       9.846   7.406  -1.284  0.00  0.00    -0.062 C 
ATOM     38  H   LIG d   1      10.007   7.548  -0.215  0.00  0.00     0.023 H 
ATOM     39  H   LIG d   1      10.514   8.063  -1.842  0.00  0.00     0.023 H 
ATOM     40  H   LIG d   1       8.811   7.646  -1.530  0.00  0.00     0.023 H 
ENDBRANCH  34  37
ENDBRANCH  31  34
ENDBRANCH  30  31
ENDBRANCH   1  30
TORSDOF 7
ENDMDL
MODEL 10
REMARK VINA RESULT:      -5.5      5.161      6.650
REMARK  7 active torsions:
REMARK  status: ('A' for Active; 'I' for Inactive)
REMARK    1  A    between atoms: C_1  and  C_2 
REMARK    2  A    between atoms: C_2  and  C_3 
REMARK    3  A    between atoms: C_3  and  O_4 
REMARK    4  A    between atoms: O_4  and  C_5 
REMARK    5  A    between atoms: C_8  and  C_11 
REMARK    6  A    between atoms: C_11  and  O_13 
REMARK    7  A    between atoms: O_13  and  C_14 
ROOT
ATOM      1  C   LIG d   1      10.092   6.733  -3.745  0.00  0.00     0.120 A 
ATOM      2  C   LIG d   1       9.514   6.205  -4.894  0.00  0.00    -0.019 A 
ATOM      3  C   LIG d   1       9.141   4.880  -4.934  0.00  0.00    -0.044 A 
ATOM      4  C   LIG d   1       9.344   4.065  -3.816  0.00  0.00     0.060 A 
ATOM      5  C   LIG d   1       9.920   4.601  -2.660  0.00  0.00    -0.044 A 
ATOM      6  C   LIG d   1      10.296   5.925  -2.631  0.00  0.00    -0.019 A 
ATOM      7  H   LIG d   1       9.358   6.835  -5.757  0.00  0.00     0.065 H 
ATOM      8  H   LIG d   1       8.693   4.471  -5.827  0.00  0.00     0.063 H 
ATOM      9  H   LIG d   1      10.075   3.977  -1.793  0.00  0.00     0.063 H 
ATOM     10  H   LIG d   1      10.745   6.339  -1.741  0.00  0.00     0.065 H 
ENDROOT
BRANCH   4  11
ATOM     11  C   LIG d   1       8.947   2.646  -3.853  0.00  0.00     0.344 C 
ATOM     12  O   LIG d   1       9.702   1.793  -3.430  0.00  0.00    -0.244 OA
BRANCH  11  13
ATOM     13  O   LIG d   1       7.747   2.294  -4.357  0.00  0.00    -0.421 OA
BRANCH  13  14
ATOM     14  C   LIG d   1       7.426   0.980  -4.321  0.00  0.00     0.149 A 
ATOM     15  C   LIG d   1       6.345   0.488  -3.454  0.00  0.00     0.060 A 
ATOM     16  C   LIG d   1       6.052  -0.886  -3.447  0.00  0.00     0.143 A 
ATOM     17  C   LIG d   1       5.617   1.361  -2.643  0.00  0.00    -0.048 A 
ATOM     18  O   LIG d   1       6.761  -1.729  -4.228  0.00  0.00    -0.422 OA
ATOM     19  C   LIG d   1       5.028  -1.361  -2.637  0.00  0.00    -0.018 A 
ATOM     20  C   LIG d   1       7.754  -1.290  -5.019  0.00  0.00     0.341 A 
ATOM     21  C   LIG d   1       8.109   0.068  -5.077  0.00  0.00     0.066 A 
ATOM     22  O   LIG d   1       8.364  -2.092  -5.704  0.00  0.00    -0.245 OA
ATOM     23  H   LIG d   1       8.913   0.391  -5.722  0.00  0.00     0.073 H 
ATOM     24  C   LIG d   1       4.319  -0.488  -1.840  0.00  0.00    -0.058 A 
ATOM     25  H   LIG d   1       4.793  -2.416  -2.627  0.00  0.00     0.065 H 
ATOM     26  C   LIG d   1       4.611   0.868  -1.843  0.00  0.00    -0.061 A 
ATOM     27  H   LIG d   1       3.527  -0.863  -1.209  0.00  0.00     0.062 H 
ATOM     28  H   LIG d   1       4.046   1.541  -1.215  0.00  0.00     0.062 H 
ATOM     29  H   LIG d   1       5.843   2.417  -2.643  0.00  0.00     0.063 H 
ENDBRANCH  13  14
ENDBRANCH  11  13
ENDBRANCH   4  11
BRANCH   1  30
ATOM     30  O   LIG d   1      10.458   8.039  -3.710  0.00  0.00    -0.492 OA
BRANCH  30  31
ATOM     31  C   LIG d   1      10.825   8.576  -2.437  0.00  0.00     0.089 C 
ATOM     32  H   LIG d   1      10.887   7.770  -1.707  0.00  0.00     0.070 H 
ATOM     33  H   LIG d   1      11.793   9.070  -2.518  0.00  0.00     0.070 H 
BRANCH  31  34
ATOM     34  C   LIG d   1       9.770   9.590  -1.989  0.00  0.00    -0.021 C 
ATOM     35  H   LIG d   1      10.080  10.591  -2.288  0.00  0.00     0.029 H 
ATOM     36  H   LIG d   1       8.815   9.351  -2.456  0.00  0.00     0.029 H 
BRANCH  34  37
ATOM     37  C   LIG d   1       9.623   9.534  -0.468  0.00  0.00    -0.062 C 
ATOM     38  H   LIG d   1       9.904   8.543  -0.111  0.00  0.00     0.023 H 
ATOM     39  H   LIG d   1      10.273  10.281  -0.012  0.00  0.00     0.023 H 
ATOM     40  H   LIG d   1       8.588   9.737  -0.195  0.00  0.00     0.023 H 
ENDBRANCH  34  37
ENDBRANCH  31  34
ENDBRANCH  30  31
ENDBRANCH   1  30
TORSDOF 7
ENDMDL
