MODEL 1
REMARK VINA RESULT:      -6.9      0.000      0.000
REMARK  10 active torsions:
REMARK  status: ('A' for Active; 'I' for Inactive)
REMARK    1  A    between atoms: C_1  and  O_2 
REMARK    2  A    between atoms: O_2  and  C_3 
REMARK    3  A    between atoms: C_3  and  C_5 
REMARK    4  A    between atoms: C_21  and  C_31 
REMARK    5  A    between atoms: C_24  and  N_27 
REMARK    6  A    between atoms: N_27  and  C_28 
REMARK    7  A    between atoms: C_28  and  C_29 
REMARK    8  A    between atoms: C_29  and  O_30 
REMARK    9  A    between atoms: C_34  and  O_37 
REMARK   10  A    between atoms: O_37  and  C_38 
ROOT
ATOM      1  C   LIG d   1       4.142  -4.348  -6.991  0.00  0.00     0.113 C 
ATOM      2  H   LIG d   1       3.553  -3.753  -6.292  0.00  0.00     0.058 H 
ATOM      3  C   LIG d   1       3.321  -4.600  -8.264  0.00  0.00     0.001 C 
ATOM      4  C   LIG d   1       3.227  -3.303  -9.028  0.00  0.00    -0.016 A 
ATOM      5  C   LIG d   1       2.332  -2.936 -10.101  0.00  0.00     0.003 A 
ATOM      6  C   LIG d   1       1.304  -3.621 -10.758  0.00  0.00    -0.052 A 
ATOM      7  C   LIG d   1       0.647  -2.946 -11.757  0.00  0.00    -0.061 A 
ATOM      8  C   LIG d   1       0.976  -1.646 -12.107  0.00  0.00    -0.060 A 
ATOM      9  C   LIG d   1       1.987  -0.944 -11.473  0.00  0.00    -0.038 A 
ATOM     10  C   LIG d   1       2.671  -1.605 -10.454  0.00  0.00     0.047 A 
ATOM     11  N   LIG d   1       3.698  -1.216  -9.641  0.00  0.00    -0.356 N 
ATOM     12  H   LIG d   1       4.131  -0.349  -9.664  0.00  0.00     0.166 HD
ATOM     13  C   LIG d   1       4.025  -2.236  -8.788  0.00  0.00     0.038 A 
ATOM     14  C   LIG d   1       5.094  -2.235  -7.726  0.00  0.00     0.057 C 
ATOM     15  H   LIG d   1       4.745  -1.676  -6.857  0.00  0.00     0.053 H 
ATOM     16  N   LIG d   1       5.370  -3.626  -7.336  0.00  0.00    -0.274 N 
ATOM     17  C   LIG d   1       6.356  -3.680  -6.250  0.00  0.00     0.042 C 
ATOM     18  H   LIG d   1       6.513  -4.716  -5.952  0.00  0.00     0.051 H 
ATOM     19  C   LIG d   1       7.679  -3.082  -6.738  0.00  0.00     0.010 C 
ATOM     20  C   LIG d   1       7.451  -1.635  -7.183  0.00  0.00    -0.019 C 
ATOM     21  H   LIG d   1       8.381  -1.226  -7.579  0.00  0.00     0.085 H 
ATOM     22  C   LIG d   1       6.372  -1.594  -8.269  0.00  0.00     0.011 C 
ATOM     23  H   LIG d   1       3.816  -5.353  -8.877  0.00  0.00     0.033 H 
ATOM     24  H   LIG d   1       2.322  -4.942  -7.995  0.00  0.00     0.033 H 
ATOM     25  H   LIG d   1       1.041  -4.634 -10.493  0.00  0.00     0.062 H 
ATOM     26  H   LIG d   1      -0.151  -3.443 -12.287  0.00  0.00     0.062 H 
ATOM     27  H   LIG d   1       0.425  -1.165 -12.901  0.00  0.00     0.062 H 
ATOM     28  H   LIG d   1       2.234   0.069 -11.756  0.00  0.00     0.064 H 
ATOM     29  H   LIG d   1       8.408  -3.102  -5.928  0.00  0.00     0.034 H 
ATOM     30  H   LIG d   1       8.053  -3.666  -7.579  0.00  0.00     0.034 H 
ATOM     31  H   LIG d   1       6.716  -2.149  -9.141  0.00  0.00     0.034 H 
ATOM     32  H   LIG d   1       6.169  -0.560  -8.550  0.00  0.00     0.034 H 
ENDROOT
BRANCH  17  33
ATOM     33  C   LIG d   1       5.850  -2.889  -5.070  0.00  0.00    -0.030 A 
ATOM     34  C   LIG d   1       4.558  -2.397  -5.074  0.00  0.00    -0.054 A 
ATOM     35  C   LIG d   1       4.090  -1.677  -3.991  0.00  0.00    -0.019 A 
ATOM     36  H   LIG d   1       3.914  -2.578  -5.921  0.00  0.00     0.062 H 
ATOM     37  C   LIG d   1       4.921  -1.439  -2.906  0.00  0.00     0.130 A 
ATOM     38  H   LIG d   1       3.080  -1.295  -3.992  0.00  0.00     0.065 H 
ATOM     39  C   LIG d   1       6.218  -1.930  -2.908  0.00  0.00    -0.019 A 
ATOM     40  C   LIG d   1       6.680  -2.654  -3.990  0.00  0.00    -0.054 A 
ATOM     41  H   LIG d   1       6.868  -1.747  -2.065  0.00  0.00     0.065 H 
ATOM     42  H   LIG d   1       7.691  -3.036  -3.993  0.00  0.00     0.062 H 
BRANCH  37  43
ATOM     43  O   LIG d   1       4.464  -0.726  -1.842  0.00  0.00    -0.406 OA
BRANCH  43  44
ATOM     44  C   LIG d   1       4.402   0.693  -1.992  0.00  0.00     0.575 C 
ATOM     45  F   LIG d   1       3.088   1.073  -2.288  0.00  0.00    -0.133 F 
ATOM     46  F   LIG d   1       4.808   1.306  -0.801  0.00  0.00    -0.133 F 
ATOM     47  F   LIG d   1       5.248   1.091  -3.032  0.00  0.00    -0.133 F 
ENDBRANCH  43  44
ENDBRANCH  37  43
ENDBRANCH  17  33
BRANCH   1  48
ATOM     48  C   LIG d   1       4.496  -5.667  -6.353  0.00  0.00     0.325 C 
ATOM     49  O   LIG d   1       4.137  -5.909  -5.225  0.00  0.00    -0.249 OA
BRANCH  48  50
ATOM     50  O   LIG d   1       5.211  -6.573  -7.038  0.00  0.00    -0.467 OA
BRANCH  50  51
ATOM     51  C   LIG d   1       4.692  -7.903  -7.092  0.00  0.00     0.082 C 
ATOM     52  H   LIG d   1       3.963  -8.042  -6.295  0.00  0.00     0.066 H 
ATOM     53  H   LIG d   1       4.211  -8.067  -8.058  0.00  0.00     0.066 H 
ATOM     54  H   LIG d   1       5.507  -8.616  -6.968  0.00  0.00     0.066 H 
ENDBRANCH  50  51
ENDBRANCH  48  50
ENDBRANCH   1  48
BRANCH  20  55
ATOM     55  N   LIG d   1       7.013  -0.831  -6.034  0.00  0.00     0.231 N 
ATOM     56  H   LIG d   1       6.014  -0.696  -6.080  0.00  0.00     0.202 HD
ATOM     57  H   LIG d   1       7.248  -1.312  -5.179  0.00  0.00     0.202 HD
BRANCH  55  58
ATOM     58  C   LIG d   1       7.686   0.474  -6.064  0.00  0.00    -0.010 C 
ATOM     59  H   LIG d   1       8.051   0.672  -7.072  0.00  0.00     0.084 H 
ATOM     60  H   LIG d   1       6.981   1.253  -5.774  0.00  0.00     0.084 H 
BRANCH  58  61
ATOM     61  C   LIG d   1       8.864   0.462  -5.088  0.00  0.00     0.084 C 
ATOM     62  H   LIG d   1       9.358  -0.509  -5.126  0.00  0.00     0.061 H 
ATOM     63  H   LIG d   1       9.575   1.241  -5.367  0.00  0.00     0.061 H 
BRANCH  61  64
ATOM     64  O   LIG d   1       8.389   0.704  -3.763  0.00  0.00    -0.390 OA
ATOM     65  H   LIG d   1       7.429   0.806  -3.702  0.00  0.00     0.210 HD
ENDBRANCH  61  64
ENDBRANCH  58  61
ENDBRANCH  55  58
ENDBRANCH  20  55
TORSDOF 10
ENDMDL
MODEL 2
REMARK VINA RESULT:      -6.7      3.408      6.549
REMARK  10 active torsions:
REMARK  status: ('A' for Active; 'I' for Inactive)
REMARK    1  A    between atoms: C_1  and  O_2 
REMARK    2  A    between atoms: O_2  and  C_3 
REMARK    3  A    between atoms: C_3  and  C_5 
REMARK    4  A    between atoms: C_21  and  C_31 
REMARK    5  A    between atoms: C_24  and  N_27 
REMARK    6  A    between atoms: N_27  and  C_28 
REMARK    7  A    between atoms: C_28  and  C_29 
REMARK    8  A    between atoms: C_29  and  O_30 
REMARK    9  A    between atoms: C_34  and  O_37 
REMARK   10  A    between atoms: O_37  and  C_38 
ROOT
ATOM      1  C   LIG d   1       5.795  -4.200  -5.788  0.00  0.00     0.113 C 
ATOM      2  H   LIG d   1       6.006  -3.519  -6.613  0.00  0.00     0.058 H 
ATOM      3  C   LIG d   1       6.921  -5.238  -5.681  0.00  0.00     0.001 C 
ATOM      4  C   LIG d   1       8.150  -4.545  -5.150  0.00  0.00    -0.016 A 
ATOM      5  C   LIG d   1       9.526  -4.989  -5.157  0.00  0.00     0.003 A 
ATOM      6  C   LIG d   1      10.149  -6.146  -5.634  0.00  0.00    -0.052 A 
ATOM      7  C   LIG d   1      11.509  -6.234  -5.467  0.00  0.00    -0.061 A 
ATOM      8  C   LIG d   1      12.242  -5.228  -4.857  0.00  0.00    -0.060 A 
ATOM      9  C   LIG d   1      11.652  -4.072  -4.376  0.00  0.00    -0.038 A 
ATOM     10  C   LIG d   1      10.272  -3.956  -4.532  0.00  0.00     0.047 A 
ATOM     11  N   LIG d   1       9.392  -2.971  -4.183  0.00  0.00    -0.356 N 
ATOM     12  H   LIG d   1       9.629  -2.144  -3.736  0.00  0.00     0.166 HD
ATOM     13  C   LIG d   1       8.125  -3.329  -4.556  0.00  0.00     0.038 A 
ATOM     14  C   LIG d   1       6.856  -2.537  -4.367  0.00  0.00     0.057 C 
ATOM     15  H   LIG d   1       6.807  -1.742  -5.112  0.00  0.00     0.053 H 
ATOM     16  N   LIG d   1       5.708  -3.441  -4.537  0.00  0.00    -0.274 N 
ATOM     17  C   LIG d   1       4.442  -2.706  -4.433  0.00  0.00     0.042 C 
ATOM     18  H   LIG d   1       3.610  -3.388  -4.602  0.00  0.00     0.051 H 
ATOM     19  C   LIG d   1       4.326  -2.095  -3.034  0.00  0.00     0.010 C 
ATOM     20  C   LIG d   1       5.511  -1.158  -2.786  0.00  0.00    -0.019 C 
ATOM     21  H   LIG d   1       5.456  -0.764  -1.770  0.00  0.00     0.085 H 
ATOM     22  C   LIG d   1       6.823  -1.929  -2.964  0.00  0.00     0.011 C 
ATOM     23  H   LIG d   1       6.623  -6.034  -4.999  0.00  0.00     0.033 H 
ATOM     24  H   LIG d   1       7.131  -5.656  -6.665  0.00  0.00     0.033 H 
ATOM     25  H   LIG d   1       9.586  -6.935  -6.111  0.00  0.00     0.062 H 
ATOM     26  H   LIG d   1      12.024  -7.113  -5.823  0.00  0.00     0.062 H 
ATOM     27  H   LIG d   1      13.310  -5.352  -4.752  0.00  0.00     0.062 H 
ATOM     28  H   LIG d   1      12.235  -3.296  -3.902  0.00  0.00     0.064 H 
ATOM     29  H   LIG d   1       3.396  -1.532  -2.959  0.00  0.00     0.034 H 
ATOM     30  H   LIG d   1       4.330  -2.891  -2.289  0.00  0.00     0.034 H 
ATOM     31  H   LIG d   1       6.878  -2.722  -2.221  0.00  0.00     0.034 H 
ATOM     32  H   LIG d   1       7.668  -1.252  -2.841  0.00  0.00     0.034 H 
ENDROOT
BRANCH  17  33
ATOM     33  C   LIG d   1       4.410  -1.609  -5.466  0.00  0.00    -0.030 A 
ATOM     34  C   LIG d   1       3.350  -0.721  -5.496  0.00  0.00    -0.054 A 
ATOM     35  C   LIG d   1       3.322   0.290  -6.438  0.00  0.00    -0.019 A 
ATOM     36  H   LIG d   1       2.547  -0.814  -4.780  0.00  0.00     0.062 H 
ATOM     37  C   LIG d   1       4.351   0.406  -7.361  0.00  0.00     0.130 A 
ATOM     38  H   LIG d   1       2.496   0.986  -6.459  0.00  0.00     0.065 H 
ATOM     39  C   LIG d   1       5.409  -0.490  -7.331  0.00  0.00    -0.019 A 
ATOM     40  C   LIG d   1       5.437  -1.495  -6.385  0.00  0.00    -0.054 A 
ATOM     41  H   LIG d   1       6.212  -0.402  -8.049  0.00  0.00     0.065 H 
ATOM     42  H   LIG d   1       6.261  -2.193  -6.362  0.00  0.00     0.062 H 
BRANCH  37  43
ATOM     43  O   LIG d   1       4.322   1.396  -8.292  0.00  0.00    -0.406 OA
BRANCH  43  44
ATOM     44  C   LIG d   1       3.310   1.310  -9.298  0.00  0.00     0.575 C 
ATOM     45  F   LIG d   1       2.198   2.062  -8.905  0.00  0.00    -0.133 F 
ATOM     46  F   LIG d   1       3.810   1.812 -10.505  0.00  0.00    -0.133 F 
ATOM     47  F   LIG d   1       2.934  -0.026  -9.469  0.00  0.00    -0.133 F 
ENDBRANCH  43  44
ENDBRANCH  37  43
ENDBRANCH  17  33
BRANCH   1  48
ATOM     48  C   LIG d   1       4.486  -4.904  -6.041  0.00  0.00     0.325 C 
ATOM     49  O   LIG d   1       4.091  -5.743  -5.266  0.00  0.00    -0.249 OA
BRANCH  48  50
ATOM     50  O   LIG d   1       3.759  -4.599  -7.127  0.00  0.00    -0.467 OA
BRANCH  50  51
ATOM     51  C   LIG d   1       4.461  -4.477  -8.366  0.00  0.00     0.082 C 
ATOM     52  H   LIG d   1       5.534  -4.510  -8.180  0.00  0.00     0.066 H 
ATOM     53  H   LIG d   1       4.180  -5.299  -9.026  0.00  0.00     0.066 H 
ATOM     54  H   LIG d   1       4.203  -3.529  -8.838  0.00  0.00     0.066 H 
ENDBRANCH  50  51
ENDBRANCH  48  50
ENDBRANCH   1  48
BRANCH  20  55
ATOM     55  N   LIG d   1       5.467  -0.047  -3.746  0.00  0.00     0.231 N 
ATOM     56  H   LIG d   1       6.271  -0.096  -4.353  0.00  0.00     0.202 HD
ATOM     57  H   LIG d   1       4.625  -0.112  -4.298  0.00  0.00     0.202 HD
BRANCH  55  58
ATOM     58  C   LIG d   1       5.478   1.229  -3.019  0.00  0.00    -0.010 C 
ATOM     59  H   LIG d   1       6.502   1.479  -2.739  0.00  0.00     0.084 H 
ATOM     60  H   LIG d   1       5.075   2.015  -3.657  0.00  0.00     0.084 H 
BRANCH  58  61
ATOM     61  C   LIG d   1       4.621   1.105  -1.758  0.00  0.00     0.084 C 
ATOM     62  H   LIG d   1       4.658   0.079  -1.392  0.00  0.00     0.061 H 
ATOM     63  H   LIG d   1       5.005   1.777  -0.989  0.00  0.00     0.061 H 
BRANCH  61  64
ATOM     64  O   LIG d   1       3.270   1.454  -2.064  0.00  0.00    -0.390 OA
ATOM     65  H   LIG d   1       2.950   1.091  -2.901  0.00  0.00     0.210 HD
ENDBRANCH  61  64
ENDBRANCH  58  61
ENDBRANCH  55  58
ENDBRANCH  20  55
TORSDOF 10
ENDMDL
MODEL 3
REMARK VINA RESULT:      -6.3      5.268      6.955
REMARK  10 active torsions:
REMARK  status: ('A' for Active; 'I' for Inactive)
REMARK    1  A    between atoms: C_1  and  O_2 
REMARK    2  A    between atoms: O_2  and  C_3 
REMARK    3  A    between atoms: C_3  and  C_5 
REMARK    4  A    between atoms: C_21  and  C_31 
REMARK    5  A    between atoms: C_24  and  N_27 
REMARK    6  A    between atoms: N_27  and  C_28 
REMARK    7  A    between atoms: C_28  and  C_29 
REMARK    8  A    between atoms: C_29  and  O_30 
REMARK    9  A    between atoms: C_34  and  O_37 
REMARK   10  A    between atoms: O_37  and  C_38 
ROOT
ATOM      1  C   LIG d   1       6.675  -4.376  -4.919  0.00  0.00     0.113 C 
ATOM      2  H   LIG d   1       6.910  -4.773  -3.931  0.00  0.00     0.058 H 
ATOM      3  C   LIG d   1       5.417  -3.502  -4.831  0.00  0.00     0.001 C 
ATOM      4  C   LIG d   1       5.778  -2.229  -4.108  0.00  0.00    -0.016 A 
ATOM      5  C   LIG d   1       4.911  -1.240  -3.509  0.00  0.00     0.003 A 
ATOM      6  C   LIG d   1       3.520  -1.134  -3.401  0.00  0.00    -0.052 A 
ATOM      7  C   LIG d   1       3.030  -0.030  -2.749  0.00  0.00    -0.061 A 
ATOM      8  C   LIG d   1       3.863   0.941  -2.217  0.00  0.00    -0.060 A 
ATOM      9  C   LIG d   1       5.242   0.862  -2.307  0.00  0.00    -0.038 A 
ATOM     10  C   LIG d   1       5.768  -0.248  -2.964  0.00  0.00     0.047 A 
ATOM     11  N   LIG d   1       7.053  -0.632  -3.227  0.00  0.00    -0.356 N 
ATOM     12  H   LIG d   1       7.846  -0.138  -2.968  0.00  0.00     0.166 HD
ATOM     13  C   LIG d   1       7.052  -1.818  -3.909  0.00  0.00     0.038 A 
ATOM     14  C   LIG d   1       8.248  -2.598  -4.392  0.00  0.00     0.057 C 
ATOM     15  H   LIG d   1       8.701  -3.129  -3.553  0.00  0.00     0.053 H 
ATOM     16  N   LIG d   1       7.800  -3.569  -5.402  0.00  0.00    -0.274 N 
ATOM     17  C   LIG d   1       8.916  -4.406  -5.856  0.00  0.00     0.042 C 
ATOM     18  H   LIG d   1       8.552  -5.142  -6.572  0.00  0.00     0.051 H 
ATOM     19  C   LIG d   1       9.973  -3.522  -6.524  0.00  0.00     0.010 C 
ATOM     20  C   LIG d   1      10.463  -2.471  -5.526  0.00  0.00    -0.019 C 
ATOM     21  H   LIG d   1      11.177  -1.809  -6.017  0.00  0.00     0.085 H 
ATOM     22  C   LIG d   1       9.275  -1.651  -5.014  0.00  0.00     0.011 C 
ATOM     23  H   LIG d   1       5.062  -3.267  -5.834  0.00  0.00     0.033 H 
ATOM     24  H   LIG d   1       4.640  -4.030  -4.280  0.00  0.00     0.033 H 
ATOM     25  H   LIG d   1       2.863  -1.885  -3.813  0.00  0.00     0.062 H 
ATOM     26  H   LIG d   1       1.961   0.085  -2.647  0.00  0.00     0.062 H 
ATOM     27  H   LIG d   1       3.420   1.789  -1.715  0.00  0.00     0.062 H 
ATOM     28  H   LIG d   1       5.879   1.627  -1.889  0.00  0.00     0.064 H 
ATOM     29  H   LIG d   1      10.812  -4.138  -6.845  0.00  0.00     0.034 H 
ATOM     30  H   LIG d   1       9.535  -3.025  -7.389  0.00  0.00     0.034 H 
ATOM     31  H   LIG d   1       8.820  -1.117  -5.847  0.00  0.00     0.034 H 
ATOM     32  H   LIG d   1       9.614  -0.937  -4.264  0.00  0.00     0.034 H 
ENDROOT
BRANCH  17  33
ATOM     33  C   LIG d   1       9.527  -5.116  -4.674  0.00  0.00    -0.030 A 
ATOM     34  C   LIG d   1       9.096  -4.818  -3.394  0.00  0.00    -0.054 A 
ATOM     35  C   LIG d   1       9.651  -5.471  -2.309  0.00  0.00    -0.019 A 
ATOM     36  H   LIG d   1       8.324  -4.079  -3.242  0.00  0.00     0.062 H 
ATOM     37  C   LIG d   1      10.646  -6.416  -2.505  0.00  0.00     0.130 A 
ATOM     38  H   LIG d   1       9.312  -5.242  -1.310  0.00  0.00     0.065 H 
ATOM     39  C   LIG d   1      11.080  -6.708  -3.790  0.00  0.00    -0.019 A 
ATOM     40  C   LIG d   1      10.520  -6.057  -4.872  0.00  0.00    -0.054 A 
ATOM     41  H   LIG d   1      11.855  -7.444  -3.945  0.00  0.00     0.065 H 
ATOM     42  H   LIG d   1      10.857  -6.284  -5.872  0.00  0.00     0.062 H 
BRANCH  37  43
ATOM     43  O   LIG d   1      11.197  -7.056  -1.439  0.00  0.00    -0.406 OA
BRANCH  43  44
ATOM     44  C   LIG d   1      10.673  -8.346  -1.116  0.00  0.00     0.575 C 
ATOM     45  F   LIG d   1      11.428  -9.331  -1.763  0.00  0.00    -0.133 F 
ATOM     46  F   LIG d   1      10.740  -8.542   0.269  0.00  0.00    -0.133 F 
ATOM     47  F   LIG d   1       9.341  -8.427  -1.535  0.00  0.00    -0.133 F 
ENDBRANCH  43  44
ENDBRANCH  37  43
ENDBRANCH  17  33
BRANCH   1  48
ATOM     48  C   LIG d   1       6.429  -5.517  -5.872  0.00  0.00     0.325 C 
ATOM     49  O   LIG d   1       6.152  -5.291  -7.027  0.00  0.00    -0.249 OA
BRANCH  48  50
ATOM     50  O   LIG d   1       6.517  -6.784  -5.440  0.00  0.00    -0.467 OA
BRANCH  50  51
ATOM     51  C   LIG d   1       5.310  -7.549  -5.420  0.00  0.00     0.082 C 
ATOM     52  H   LIG d   1       4.505  -6.948  -4.998  0.00  0.00     0.066 H 
ATOM     53  H   LIG d   1       5.049  -7.843  -6.438  0.00  0.00     0.066 H 
ATOM     54  H   LIG d   1       5.455  -8.441  -4.811  0.00  0.00     0.066 H 
ENDBRANCH  50  51
ENDBRANCH  48  50
ENDBRANCH   1  48
BRANCH  20  55
ATOM     55  N   LIG d   1      11.116  -3.138  -4.391  0.00  0.00     0.231 N 
ATOM     56  H   LIG d   1      10.590  -2.959  -3.549  0.00  0.00     0.202 HD
ATOM     57  H   LIG d   1      11.151  -4.132  -4.561  0.00  0.00     0.202 HD
BRANCH  55  58
ATOM     58  C   LIG d   1      12.481  -2.619  -4.237  0.00  0.00    -0.010 C 
ATOM     59  H   LIG d   1      12.732  -1.995  -5.094  0.00  0.00     0.084 H 
ATOM     60  H   LIG d   1      12.543  -2.025  -3.325  0.00  0.00     0.084 H 
BRANCH  58  61
ATOM     61  C   LIG d   1      13.465  -3.788  -4.152  0.00  0.00     0.084 C 
ATOM     62  H   LIG d   1      13.146  -4.581  -4.829  0.00  0.00     0.061 H 
ATOM     63  H   LIG d   1      14.461  -3.447  -4.439  0.00  0.00     0.061 H 
BRANCH  61  64
ATOM     64  O   LIG d   1      13.498  -4.287  -2.815  0.00  0.00    -0.390 OA
ATOM     65  H   LIG d   1      13.294  -5.229  -2.741  0.00  0.00     0.210 HD
ENDBRANCH  61  64
ENDBRANCH  58  61
ENDBRANCH  55  58
ENDBRANCH  20  55
TORSDOF 10
ENDMDL
MODEL 4
REMARK VINA RESULT:      -6.3      4.376      6.898
REMARK  10 active torsions:
REMARK  status: ('A' for Active; 'I' for Inactive)
REMARK    1  A    between atoms: C_1  and  O_2 
REMARK    2  A    between atoms: O_2  and  C_3 
REMARK    3  A    between atoms: C_3  and  C_5 
REMARK    4  A    between atoms: C_21  and  C_31 
REMARK    5  A    between atoms: C_24  and  N_27 
REMARK    6  A    between atoms: N_27  and  C_28 
REMARK    7  A    between atoms: C_28  and  C_29 
REMARK    8  A    between atoms: C_29  and  O_30 
REMARK    9  A    between atoms: C_34  and  O_37 
REMARK   10  A    between atoms: O_37  and  C_38 
ROOT
ATOM      1  C   LIG d   1       5.141  -3.453  -6.966  0.00  0.00     0.113 C 
ATOM      2  H   LIG d   1       4.448  -4.180  -6.541  0.00  0.00     0.058 H 
ATOM      3  C   LIG d   1       4.664  -2.034  -6.628  0.00  0.00     0.001 C 
ATOM      4  C   LIG d   1       4.895  -1.797  -5.157  0.00  0.00    -0.016 A 
ATOM      5  C   LIG d   1       4.351  -0.769  -4.299  0.00  0.00     0.003 A 
ATOM      6  C   LIG d   1       3.474   0.295  -4.529  0.00  0.00    -0.052 A 
ATOM      7  C   LIG d   1       3.168   1.092  -3.454  0.00  0.00    -0.061 A 
ATOM      8  C   LIG d   1       3.696   0.862  -2.194  0.00  0.00    -0.060 A 
ATOM      9  C   LIG d   1       4.566  -0.184  -1.937  0.00  0.00    -0.038 A 
ATOM     10  C   LIG d   1       4.894  -1.009  -3.010  0.00  0.00     0.047 A 
ATOM     11  N   LIG d   1       5.703  -2.107  -3.106  0.00  0.00    -0.356 N 
ATOM     12  H   LIG d   1       6.205  -2.495  -2.373  0.00  0.00     0.166 HD
ATOM     13  C   LIG d   1       5.697  -2.575  -4.392  0.00  0.00     0.038 A 
ATOM     14  C   LIG d   1       6.445  -3.764  -4.937  0.00  0.00     0.057 C 
ATOM     15  H   LIG d   1       5.933  -4.682  -4.645  0.00  0.00     0.053 H 
ATOM     16  N   LIG d   1       6.478  -3.667  -6.404  0.00  0.00    -0.274 N 
ATOM     17  C   LIG d   1       7.135  -4.840  -6.993  0.00  0.00     0.042 C 
ATOM     18  H   LIG d   1       7.112  -4.764  -8.079  0.00  0.00     0.051 H 
ATOM     19  C   LIG d   1       8.589  -4.899  -6.516  0.00  0.00     0.010 C 
ATOM     20  C   LIG d   1       8.622  -4.977  -4.987  0.00  0.00    -0.019 C 
ATOM     21  H   LIG d   1       9.657  -4.966  -4.645  0.00  0.00     0.085 H 
ATOM     22  C   LIG d   1       7.875  -3.779  -4.394  0.00  0.00     0.011 C 
ATOM     23  H   LIG d   1       5.230  -1.308  -7.211  0.00  0.00     0.033 H 
ATOM     24  H   LIG d   1       3.602  -1.940  -6.854  0.00  0.00     0.033 H 
ATOM     25  H   LIG d   1       3.057   0.482  -5.508  0.00  0.00     0.062 H 
ATOM     26  H   LIG d   1       2.494   1.924  -3.594  0.00  0.00     0.062 H 
ATOM     27  H   LIG d   1       3.420   1.523  -1.385  0.00  0.00     0.062 H 
ATOM     28  H   LIG d   1       4.971  -0.351  -0.950  0.00  0.00     0.064 H 
ATOM     29  H   LIG d   1       9.075  -5.779  -6.935  0.00  0.00     0.034 H 
ATOM     30  H   LIG d   1       9.115  -4.002  -6.845  0.00  0.00     0.034 H 
ATOM     31  H   LIG d   1       8.383  -2.859  -4.680  0.00  0.00     0.034 H 
ATOM     32  H   LIG d   1       7.850  -3.860  -3.307  0.00  0.00     0.034 H 
ENDROOT
BRANCH  17  33
ATOM     33  C   LIG d   1       6.413  -6.091  -6.562  0.00  0.00    -0.030 A 
ATOM     34  C   LIG d   1       5.336  -6.002  -5.699  0.00  0.00    -0.054 A 
ATOM     35  C   LIG d   1       4.668  -7.147  -5.307  0.00  0.00    -0.019 A 
ATOM     36  H   LIG d   1       5.014  -5.038  -5.335  0.00  0.00     0.062 H 
ATOM     37  C   LIG d   1       5.087  -8.385  -5.770  0.00  0.00     0.130 A 
ATOM     38  H   LIG d   1       3.824  -7.077  -4.636  0.00  0.00     0.065 H 
ATOM     39  C   LIG d   1       6.171  -8.471  -6.631  0.00  0.00    -0.019 A 
ATOM     40  C   LIG d   1       6.832  -7.324  -7.024  0.00  0.00    -0.054 A 
ATOM     41  H   LIG d   1       6.499  -9.435  -6.993  0.00  0.00     0.065 H 
ATOM     42  H   LIG d   1       7.677  -7.391  -7.694  0.00  0.00     0.062 H 
BRANCH  37  43
ATOM     43  O   LIG d   1       4.435  -9.513  -5.381  0.00  0.00    -0.406 OA
BRANCH  43  44
ATOM     44  C   LIG d   1       4.641  -9.950  -4.036  0.00  0.00     0.575 C 
ATOM     45  F   LIG d   1       4.642 -11.349  -3.996  0.00  0.00    -0.133 F 
ATOM     46  F   LIG d   1       5.872  -9.470  -3.575  0.00  0.00    -0.133 F 
ATOM     47  F   LIG d   1       3.615  -9.460  -3.223  0.00  0.00    -0.133 F 
ENDBRANCH  43  44
ENDBRANCH  37  43
ENDBRANCH  17  33
BRANCH   1  48
ATOM     48  C   LIG d   1       5.191  -3.624  -8.462  0.00  0.00     0.325 C 
ATOM     49  O   LIG d   1       5.745  -2.796  -9.147  0.00  0.00    -0.249 OA
BRANCH  48  50
ATOM     50  O   LIG d   1       4.621  -4.695  -9.036  0.00  0.00    -0.467 OA
BRANCH  50  51
ATOM     51  C   LIG d   1       3.273  -4.989  -8.664  0.00  0.00     0.082 C 
ATOM     52  H   LIG d   1       3.159  -6.065  -8.532  0.00  0.00     0.066 H 
ATOM     53  H   LIG d   1       3.034  -4.480  -7.730  0.00  0.00     0.066 H 
ATOM     54  H   LIG d   1       2.597  -4.646  -9.447  0.00  0.00     0.066 H 
ENDBRANCH  50  51
ENDBRANCH  48  50
ENDBRANCH   1  48
BRANCH  20  55
ATOM     55  N   LIG d   1       7.974  -6.220  -4.546  0.00  0.00     0.231 N 
ATOM     56  H   LIG d   1       7.274  -6.004  -3.852  0.00  0.00     0.202 HD
ATOM     57  H   LIG d   1       7.537  -6.669  -5.336  0.00  0.00     0.202 HD
BRANCH  55  58
ATOM     58  C   LIG d   1       8.981  -7.117  -3.965  0.00  0.00    -0.010 C 
ATOM     59  H   LIG d   1       8.520  -8.078  -3.732  0.00  0.00     0.084 H 
ATOM     60  H   LIG d   1       9.790  -7.267  -4.681  0.00  0.00     0.084 H 
BRANCH  58  61
ATOM     61  C   LIG d   1       9.540  -6.495  -2.684  0.00  0.00     0.084 C 
ATOM     62  H   LIG d   1      10.626  -6.432  -2.755  0.00  0.00     0.061 H 
ATOM     63  H   LIG d   1       9.126  -5.495  -2.555  0.00  0.00     0.061 H 
BRANCH  61  64
ATOM     64  O   LIG d   1       9.183  -7.307  -1.565  0.00  0.00    -0.390 OA
ATOM     65  H   LIG d   1       9.932  -7.568  -1.012  0.00  0.00     0.210 HD
ENDBRANCH  61  64
ENDBRANCH  58  61
ENDBRANCH  55  58
ENDBRANCH  20  55
TORSDOF 10
ENDMDL
MODEL 5
REMARK VINA RESULT:      -6.2      4.425      8.142
REMARK  10 active torsions:
REMARK  status: ('A' for Active; 'I' for Inactive)
REMARK    1  A    between atoms: C_1  and  O_2 
REMARK    2  A    between atoms: O_2  and  C_3 
REMARK    3  A    between atoms: C_3  and  C_5 
REMARK    4  A    between atoms: C_21  and  C_31 
REMARK    5  A    between atoms: C_24  and  N_27 
REMARK    6  A    between atoms: N_27  and  C_28 
REMARK    7  A    between atoms: C_28  and  C_29 
REMARK    8  A    between atoms: C_29  and  O_30 
REMARK    9  A    between atoms: C_34  and  O_37 
REMARK   10  A    between atoms: O_37  and  C_38 
ROOT
ATOM      1  C   LIG d   1       5.180   0.158  -8.197  0.00  0.00     0.113 C 
ATOM      2  H   LIG d   1       4.108   0.295  -8.338  0.00  0.00     0.058 H 
ATOM      3  C   LIG d   1       5.540   0.423  -6.729  0.00  0.00     0.001 C 
ATOM      4  C   LIG d   1       5.012  -0.721  -5.901  0.00  0.00    -0.016 A 
ATOM      5  C   LIG d   1       4.818  -0.803  -4.471  0.00  0.00     0.003 A 
ATOM      6  C   LIG d   1       5.041   0.102  -3.428  0.00  0.00    -0.052 A 
ATOM      7  C   LIG d   1       4.736  -0.325  -2.159  0.00  0.00    -0.061 A 
ATOM      8  C   LIG d   1       4.229  -1.590  -1.910  0.00  0.00    -0.060 A 
ATOM      9  C   LIG d   1       3.997  -2.505  -2.923  0.00  0.00    -0.038 A 
ATOM     10  C   LIG d   1       4.298  -2.099  -4.221  0.00  0.00     0.047 A 
ATOM     11  N   LIG d   1       4.193  -2.735  -5.426  0.00  0.00    -0.356 N 
ATOM     12  H   LIG d   1       3.866  -3.639  -5.553  0.00  0.00     0.166 HD
ATOM     13  C   LIG d   1       4.620  -1.905  -6.427  0.00  0.00     0.038 A 
ATOM     14  C   LIG d   1       4.670  -2.201  -7.904  0.00  0.00     0.057 C 
ATOM     15  H   LIG d   1       3.667  -2.125  -8.326  0.00  0.00     0.053 H 
ATOM     16  N   LIG d   1       5.549  -1.216  -8.551  0.00  0.00    -0.274 N 
ATOM     17  C   LIG d   1       5.578  -1.414 -10.005  0.00  0.00     0.042 C 
ATOM     18  H   LIG d   1       6.203  -0.650 -10.465  0.00  0.00     0.051 H 
ATOM     19  C   LIG d   1       6.154  -2.799 -10.315  0.00  0.00     0.010 C 
ATOM     20  C   LIG d   1       5.292  -3.872  -9.645  0.00  0.00    -0.019 C 
ATOM     21  H   LIG d   1       5.731  -4.854  -9.822  0.00  0.00     0.085 H 
ATOM     22  C   LIG d   1       5.220  -3.609  -8.138  0.00  0.00     0.011 C 
ATOM     23  H   LIG d   1       6.623   0.486  -6.621  0.00  0.00     0.033 H 
ATOM     24  H   LIG d   1       5.083   1.356  -6.401  0.00  0.00     0.033 H 
ATOM     25  H   LIG d   1       5.437   1.090  -3.612  0.00  0.00     0.062 H 
ATOM     26  H   LIG d   1       4.896   0.347  -1.329  0.00  0.00     0.062 H 
ATOM     27  H   LIG d   1       4.007  -1.872  -0.891  0.00  0.00     0.062 H 
ATOM     28  H   LIG d   1       3.602  -3.489  -2.715  0.00  0.00     0.064 H 
ATOM     29  H   LIG d   1       6.159  -2.958 -11.393  0.00  0.00     0.034 H 
ATOM     30  H   LIG d   1       7.173  -2.862  -9.933  0.00  0.00     0.034 H 
ATOM     31  H   LIG d   1       6.219  -3.685  -7.711  0.00  0.00     0.034 H 
ATOM     32  H   LIG d   1       4.564  -4.339  -7.666  0.00  0.00     0.034 H 
ENDROOT
BRANCH  17  33
ATOM     33  C   LIG d   1       4.178  -1.316 -10.555  0.00  0.00    -0.030 A 
ATOM     34  C   LIG d   1       3.968  -1.383 -11.920  0.00  0.00    -0.054 A 
ATOM     35  C   LIG d   1       2.685  -1.300 -12.427  0.00  0.00    -0.019 A 
ATOM     36  H   LIG d   1       4.806  -1.505 -12.590  0.00  0.00     0.062 H 
ATOM     37  C   LIG d   1       1.610  -1.138 -11.566  0.00  0.00     0.130 A 
ATOM     38  H   LIG d   1       2.520  -1.356 -13.493  0.00  0.00     0.065 H 
ATOM     39  C   LIG d   1       1.825  -1.065 -10.197  0.00  0.00    -0.019 A 
ATOM     40  C   LIG d   1       3.108  -1.154  -9.695  0.00  0.00    -0.054 A 
ATOM     41  H   LIG d   1       0.989  -0.939  -9.524  0.00  0.00     0.065 H 
ATOM     42  H   LIG d   1       3.276  -1.097  -8.629  0.00  0.00     0.062 H 
BRANCH  37  43
ATOM     43  O   LIG d   1       0.347  -1.050 -12.062  0.00  0.00    -0.406 OA
BRANCH  43  44
ATOM     44  C   LIG d   1      -0.139  -2.173 -12.799  0.00  0.00     0.575 C 
ATOM     45  F   LIG d   1      -1.538  -2.133 -12.840  0.00  0.00    -0.133 F 
ATOM     46  F   LIG d   1       0.367  -2.129 -14.103  0.00  0.00    -0.133 F 
ATOM     47  F   LIG d   1       0.276  -3.354 -12.177  0.00  0.00    -0.133 F 
ENDBRANCH  43  44
ENDBRANCH  37  43
ENDBRANCH  17  33
BRANCH   1  48
ATOM     48  C   LIG d   1       5.930   1.123  -9.080  0.00  0.00     0.325 C 
ATOM     49  O   LIG d   1       7.136   1.177  -9.029  0.00  0.00    -0.249 OA
BRANCH  48  50
ATOM     50  O   LIG d   1       5.257   1.923  -9.923  0.00  0.00    -0.467 OA
BRANCH  50  51
ATOM     51  C   LIG d   1       3.987   2.408  -9.483  0.00  0.00     0.082 C 
ATOM     52  H   LIG d   1       3.616   3.148 -10.191  0.00  0.00     0.066 H 
ATOM     53  H   LIG d   1       3.282   1.578  -9.421  0.00  0.00     0.066 H 
ATOM     54  H   LIG d   1       4.094   2.867  -8.500  0.00  0.00     0.066 H 
ENDBRANCH  50  51
ENDBRANCH  48  50
ENDBRANCH   1  48
BRANCH  20  55
ATOM     55  N   LIG d   1       3.935  -3.834 -10.209  0.00  0.00     0.231 N 
ATOM     56  H   LIG d   1       3.280  -3.568  -9.489  0.00  0.00     0.202 HD
ATOM     57  H   LIG d   1       3.902  -3.160 -10.959  0.00  0.00     0.202 HD
BRANCH  55  58
ATOM     58  C   LIG d   1       3.583  -5.162 -10.727  0.00  0.00    -0.010 C 
ATOM     59  H   LIG d   1       3.511  -5.121 -11.814  0.00  0.00     0.084 H 
ATOM     60  H   LIG d   1       4.352  -5.880 -10.440  0.00  0.00     0.084 H 
BRANCH  58  61
ATOM     61  C   LIG d   1       2.236  -5.595 -10.144  0.00  0.00     0.084 C 
ATOM     62  H   LIG d   1       1.453  -4.929 -10.503  0.00  0.00     0.061 H 
ATOM     63  H   LIG d   1       2.016  -6.616 -10.457  0.00  0.00     0.061 H 
BRANCH  61  64
ATOM     64  O   LIG d   1       2.294  -5.537  -8.718  0.00  0.00    -0.390 OA
ATOM     65  H   LIG d   1       1.954  -6.328  -8.277  0.00  0.00     0.210 HD
ENDBRANCH  61  64
ENDBRANCH  58  61
ENDBRANCH  55  58
ENDBRANCH  20  55
TORSDOF 10
ENDMDL
MODEL 6
REMARK VINA RESULT:      -6.1      4.150      7.106
REMARK  10 active torsions:
REMARK  status: ('A' for Active; 'I' for Inactive)
REMARK    1  A    between atoms: C_1  and  O_2 
REMARK    2  A    between atoms: O_2  and  C_3 
REMARK    3  A    between atoms: C_3  and  C_5 
REMARK    4  A    between atoms: C_21  and  C_31 
REMARK    5  A    between atoms: C_24  and  N_27 
REMARK    6  A    between atoms: N_27  and  C_28 
REMARK    7  A    between atoms: C_28  and  C_29 
REMARK    8  A    between atoms: C_29  and  O_30 
REMARK    9  A    between atoms: C_34  and  O_37 
REMARK   10  A    between atoms: O_37  and  C_38 
ROOT
ATOM      1  C   LIG d   1       4.672  -3.196  -7.217  0.00  0.00     0.113 C 
ATOM      2  H   LIG d   1       5.673  -2.819  -7.429  0.00  0.00     0.058 H 
ATOM      3  C   LIG d   1       4.445  -3.216  -5.699  0.00  0.00     0.001 C 
ATOM      4  C   LIG d   1       4.303  -1.792  -5.225  0.00  0.00    -0.016 A 
ATOM      5  C   LIG d   1       4.383  -1.262  -3.883  0.00  0.00     0.003 A 
ATOM      6  C   LIG d   1       4.608  -1.857  -2.638  0.00  0.00    -0.052 A 
ATOM      7  C   LIG d   1       4.617  -1.027  -1.544  0.00  0.00    -0.061 A 
ATOM      8  C   LIG d   1       4.415   0.340  -1.656  0.00  0.00    -0.060 A 
ATOM      9  C   LIG d   1       4.191   0.956  -2.876  0.00  0.00    -0.038 A 
ATOM     10  C   LIG d   1       4.177   0.137  -4.003  0.00  0.00     0.047 A 
ATOM     11  N   LIG d   1       3.989   0.409  -5.329  0.00  0.00    -0.356 N 
ATOM     12  H   LIG d   1       3.825   1.290  -5.700  0.00  0.00     0.166 HD
ATOM     13  C   LIG d   1       4.068  -0.749  -6.055  0.00  0.00     0.038 A 
ATOM     14  C   LIG d   1       3.925  -0.906  -7.547  0.00  0.00     0.057 C 
ATOM     15  H   LIG d   1       4.845  -0.584  -8.038  0.00  0.00     0.053 H 
ATOM     16  N   LIG d   1       3.678  -2.323  -7.849  0.00  0.00    -0.274 N 
ATOM     17  C   LIG d   1       3.601  -2.545  -9.298  0.00  0.00     0.042 C 
ATOM     18  H   LIG d   1       3.458  -3.607  -9.497  0.00  0.00     0.051 H 
ATOM     19  C   LIG d   1       2.420  -1.754  -9.869  0.00  0.00     0.010 C 
ATOM     20  C   LIG d   1       2.608  -0.266  -9.564  0.00  0.00    -0.019 C 
ATOM     21  H   LIG d   1       1.743   0.291  -9.925  0.00  0.00     0.085 H 
ATOM     22  C   LIG d   1       2.752  -0.063  -8.053  0.00  0.00     0.011 C 
ATOM     23  H   LIG d   1       3.536  -3.773  -5.472  0.00  0.00     0.033 H 
ATOM     24  H   LIG d   1       5.297  -3.685  -5.207  0.00  0.00     0.033 H 
ATOM     25  H   LIG d   1       4.766  -2.921  -2.540  0.00  0.00     0.062 H 
ATOM     26  H   LIG d   1       4.787  -1.451  -0.566  0.00  0.00     0.062 H 
ATOM     27  H   LIG d   1       4.432   0.944  -0.761  0.00  0.00     0.062 H 
ATOM     28  H   LIG d   1       4.034   2.022  -2.949  0.00  0.00     0.064 H 
ATOM     29  H   LIG d   1       2.372  -1.901 -10.948  0.00  0.00     0.034 H 
ATOM     30  H   LIG d   1       1.495  -2.104  -9.412  0.00  0.00     0.034 H 
ATOM     31  H   LIG d   1       1.836  -0.381  -7.557  0.00  0.00     0.034 H 
ATOM     32  H   LIG d   1       2.940   0.988  -7.837  0.00  0.00     0.034 H 
ENDROOT
BRANCH  17  33
ATOM     33  C   LIG d   1       4.880  -2.081  -9.947  0.00  0.00    -0.030 A 
ATOM     34  C   LIG d   1       5.033  -2.181 -11.318  0.00  0.00    -0.054 A 
ATOM     35  C   LIG d   1       6.201  -1.750 -11.916  0.00  0.00    -0.019 A 
ATOM     36  H   LIG d   1       4.237  -2.592 -11.921  0.00  0.00     0.062 H 
ATOM     37  C   LIG d   1       7.225  -1.228 -11.140  0.00  0.00     0.130 A 
ATOM     38  H   LIG d   1       6.320  -1.825 -12.987  0.00  0.00     0.065 H 
ATOM     39  C   LIG d   1       7.070  -1.134  -9.764  0.00  0.00    -0.019 A 
ATOM     40  C   LIG d   1       5.899  -1.561  -9.171  0.00  0.00    -0.054 A 
ATOM     41  H   LIG d   1       7.866  -0.727  -9.157  0.00  0.00     0.065 H 
ATOM     42  H   LIG d   1       5.778  -1.488  -8.100  0.00  0.00     0.062 H 
BRANCH  37  43
ATOM     43  O   LIG d   1       8.378  -0.809 -11.725  0.00  0.00    -0.406 OA
BRANCH  43  44
ATOM     44  C   LIG d   1       9.307  -1.818 -12.123  0.00  0.00     0.575 C 
ATOM     45  F   LIG d   1       9.079  -2.161 -13.460  0.00  0.00    -0.133 F 
ATOM     46  F   LIG d   1      10.612  -1.332 -11.982  0.00  0.00    -0.133 F 
ATOM     47  F   LIG d   1       9.142  -2.949 -11.316  0.00  0.00    -0.133 F 
ENDBRANCH  43  44
ENDBRANCH  37  43
ENDBRANCH  17  33
BRANCH   1  48
ATOM     48  C   LIG d   1       4.535  -4.593  -7.765  0.00  0.00     0.325 C 
ATOM     49  O   LIG d   1       3.536  -5.235  -7.541  0.00  0.00    -0.249 OA
BRANCH  48  50
ATOM     50  O   LIG d   1       5.524  -5.126  -8.501  0.00  0.00    -0.467 OA
BRANCH  50  51
ATOM     51  C   LIG d   1       6.857  -4.959  -8.015  0.00  0.00     0.082 C 
ATOM     52  H   LIG d   1       6.937  -4.008  -7.490  0.00  0.00     0.066 H 
ATOM     53  H   LIG d   1       7.099  -5.774  -7.331  0.00  0.00     0.066 H 
ATOM     54  H   LIG d   1       7.553  -4.971  -8.854  0.00  0.00     0.066 H 
ENDBRANCH  50  51
ENDBRANCH  48  50
ENDBRANCH   1  48
BRANCH  20  55
ATOM     55  N   LIG d   1       3.820   0.224 -10.237  0.00  0.00     0.231 N 
ATOM     56  H   LIG d   1       4.622   0.048  -9.651  0.00  0.00     0.202 HD
ATOM     57  H   LIG d   1       3.934  -0.258 -11.115  0.00  0.00     0.202 HD
BRANCH  55  58
ATOM     58  C   LIG d   1       3.696   1.666 -10.480  0.00  0.00    -0.010 C 
ATOM     59  H   LIG d   1       4.114   1.907 -11.457  0.00  0.00     0.084 H 
ATOM     60  H   LIG d   1       2.643   1.950 -10.456  0.00  0.00     0.084 H 
BRANCH  58  61
ATOM     61  C   LIG d   1       4.456   2.433  -9.397  0.00  0.00     0.084 C 
ATOM     62  H   LIG d   1       4.297   3.503  -9.529  0.00  0.00     0.061 H 
ATOM     63  H   LIG d   1       4.092   2.132  -8.414  0.00  0.00     0.061 H 
BRANCH  61  64
ATOM     64  O   LIG d   1       5.851   2.143  -9.497  0.00  0.00    -0.390 OA
ATOM     65  H   LIG d   1       6.050   1.333  -9.987  0.00  0.00     0.210 HD
ENDBRANCH  61  64
ENDBRANCH  58  61
ENDBRANCH  55  58
ENDBRANCH  20  55
TORSDOF 10
ENDMDL
MODEL 7
REMARK VINA RESULT:      -6.0      2.760      4.497
REMARK  10 active torsions:
REMARK  status: ('A' for Active; 'I' for Inactive)
REMARK    1  A    between atoms: C_1  and  O_2 
REMARK    2  A    between atoms: O_2  and  C_3 
REMARK    3  A    between atoms: C_3  and  C_5 
REMARK    4  A    between atoms: C_21  and  C_31 
REMARK    5  A    between atoms: C_24  and  N_27 
REMARK    6  A    between atoms: N_27  and  C_28 
REMARK    7  A    between atoms: C_28  and  C_29 
REMARK    8  A    between atoms: C_29  and  O_30 
REMARK    9  A    between atoms: C_34  and  O_37 
REMARK   10  A    between atoms: O_37  and  C_38 
ROOT
ATOM      1  C   LIG d   1       3.667  -0.143  -6.027  0.00  0.00     0.113 C 
ATOM      2  H   LIG d   1       4.415   0.563  -6.387  0.00  0.00     0.058 H 
ATOM      3  C   LIG d   1       2.537  -0.262  -7.060  0.00  0.00     0.001 C 
ATOM      4  C   LIG d   1       3.068  -1.017  -8.252  0.00  0.00    -0.016 A 
ATOM      5  C   LIG d   1       2.520  -1.123  -9.585  0.00  0.00     0.003 A 
ATOM      6  C   LIG d   1       1.376  -0.591 -10.189  0.00  0.00    -0.052 A 
ATOM      7  C   LIG d   1       1.163  -0.909 -11.507  0.00  0.00    -0.061 A 
ATOM      8  C   LIG d   1       2.034  -1.719 -12.219  0.00  0.00    -0.060 A 
ATOM      9  C   LIG d   1       3.174  -2.258 -11.648  0.00  0.00    -0.038 A 
ATOM     10  C   LIG d   1       3.416  -1.951 -10.311  0.00  0.00     0.047 A 
ATOM     11  N   LIG d   1       4.423  -2.306  -9.458  0.00  0.00    -0.356 N 
ATOM     12  H   LIG d   1       5.175  -2.873  -9.689  0.00  0.00     0.166 HD
ATOM     13  C   LIG d   1       4.210  -1.742  -8.230  0.00  0.00     0.038 A 
ATOM     14  C   LIG d   1       5.075  -1.870  -7.001  0.00  0.00     0.057 C 
ATOM     15  H   LIG d   1       5.948  -1.224  -7.100  0.00  0.00     0.053 H 
ATOM     16  N   LIG d   1       4.289  -1.456  -5.829  0.00  0.00    -0.274 N 
ATOM     17  C   LIG d   1       5.107  -1.493  -4.610  0.00  0.00     0.042 C 
ATOM     18  H   LIG d   1       4.515  -1.145  -3.764  0.00  0.00     0.051 H 
ATOM     19  C   LIG d   1       5.568  -2.931  -4.354  0.00  0.00     0.010 C 
ATOM     20  C   LIG d   1       6.375  -3.429  -5.556  0.00  0.00    -0.019 C 
ATOM     21  H   LIG d   1       6.659  -4.470  -5.396  0.00  0.00     0.085 H 
ATOM     22  C   LIG d   1       5.527  -3.320  -6.827  0.00  0.00     0.011 C 
ATOM     23  H   LIG d   1       1.698  -0.804  -6.625  0.00  0.00     0.033 H 
ATOM     24  H   LIG d   1       2.214   0.732  -7.367  0.00  0.00     0.033 H 
ATOM     25  H   LIG d   1       0.691   0.041  -9.642  0.00  0.00     0.062 H 
ATOM     26  H   LIG d   1       0.289  -0.517 -12.005  0.00  0.00     0.062 H 
ATOM     27  H   LIG d   1       1.815  -1.936 -13.254  0.00  0.00     0.062 H 
ATOM     28  H   LIG d   1       3.844  -2.888 -12.214  0.00  0.00     0.064 H 
ATOM     29  H   LIG d   1       6.192  -2.959  -3.461  0.00  0.00     0.034 H 
ATOM     30  H   LIG d   1       4.698  -3.571  -4.210  0.00  0.00     0.034 H 
ATOM     31  H   LIG d   1       4.654  -3.965  -6.734  0.00  0.00     0.034 H 
ATOM     32  H   LIG d   1       6.117  -3.624  -7.692  0.00  0.00     0.034 H 
ENDROOT
BRANCH  17  33
ATOM     33  C   LIG d   1       6.309  -0.601  -4.783  0.00  0.00    -0.030 A 
ATOM     34  C   LIG d   1       7.149  -0.361  -3.712  0.00  0.00    -0.054 A 
ATOM     35  C   LIG d   1       8.256   0.452  -3.869  0.00  0.00    -0.019 A 
ATOM     36  H   LIG d   1       6.943  -0.812  -2.752  0.00  0.00     0.062 H 
ATOM     37  C   LIG d   1       8.517   1.035  -5.100  0.00  0.00     0.130 A 
ATOM     38  H   LIG d   1       8.915   0.636  -3.033  0.00  0.00     0.065 H 
ATOM     39  C   LIG d   1       7.669   0.796  -6.172  0.00  0.00    -0.019 A 
ATOM     40  C   LIG d   1       6.567  -0.021  -6.012  0.00  0.00    -0.054 A 
ATOM     41  H   LIG d   1       7.870   1.249  -7.132  0.00  0.00     0.065 H 
ATOM     42  H   LIG d   1       5.907  -0.206  -6.846  0.00  0.00     0.062 H 
BRANCH  37  43
ATOM     43  O   LIG d   1       9.602   1.839  -5.256  0.00  0.00    -0.406 OA
BRANCH  43  44
ATOM     44  C   LIG d   1       9.363   3.246  -5.312  0.00  0.00     0.575 C 
ATOM     45  F   LIG d   1       8.185   3.546  -4.618  0.00  0.00    -0.133 F 
ATOM     46  F   LIG d   1      10.437   3.925  -4.723  0.00  0.00    -0.133 F 
ATOM     47  F   LIG d   1       9.234   3.646  -6.646  0.00  0.00    -0.133 F 
ENDBRANCH  43  44
ENDBRANCH  37  43
ENDBRANCH  17  33
BRANCH   1  48
ATOM     48  C   LIG d   1       3.101   0.347  -4.719  0.00  0.00     0.325 C 
ATOM     49  O   LIG d   1       2.137  -0.197  -4.235  0.00  0.00    -0.249 OA
BRANCH  48  50
ATOM     50  O   LIG d   1       3.669   1.389  -4.091  0.00  0.00    -0.467 OA
BRANCH  50  51
ATOM     51  C   LIG d   1       3.740   1.328  -2.665  0.00  0.00     0.082 C 
ATOM     52  H   LIG d   1       2.760   1.549  -2.243  0.00  0.00     0.066 H 
ATOM     53  H   LIG d   1       4.051   0.329  -2.359  0.00  0.00     0.066 H 
ATOM     54  H   LIG d   1       4.464   2.059  -2.306  0.00  0.00     0.066 H 
ENDBRANCH  50  51
ENDBRANCH  48  50
ENDBRANCH   1  48
BRANCH  20  55
ATOM     55  N   LIG d   1       7.585  -2.610  -5.708  0.00  0.00     0.231 N 
ATOM     56  H   LIG d   1       7.554  -2.128  -6.595  0.00  0.00     0.202 HD
ATOM     57  H   LIG d   1       7.630  -1.934  -4.961  0.00  0.00     0.202 HD
BRANCH  55  58
ATOM     58  C   LIG d   1       8.771  -3.474  -5.661  0.00  0.00    -0.010 C 
ATOM     59  H   LIG d   1       8.468  -4.494  -5.426  0.00  0.00     0.084 H 
ATOM     60  H   LIG d   1       9.271  -3.458  -6.630  0.00  0.00     0.084 H 
BRANCH  58  61
ATOM     61  C   LIG d   1       9.730  -2.965  -4.583  0.00  0.00     0.084 C 
ATOM     62  H   LIG d   1      10.679  -3.497  -4.660  0.00  0.00     0.061 H 
ATOM     63  H   LIG d   1       9.901  -1.897  -4.723  0.00  0.00     0.061 H 
BRANCH  61  64
ATOM     64  O   LIG d   1       9.160  -3.191  -3.293  0.00  0.00    -0.390 OA
ATOM     65  H   LIG d   1       9.804  -3.441  -2.617  0.00  0.00     0.210 HD
ENDBRANCH  61  64
ENDBRANCH  58  61
ENDBRANCH  55  58
ENDBRANCH  20  55
TORSDOF 10
ENDMDL
MODEL 8
REMARK VINA RESULT:      -6.0      3.190      7.889
REMARK  10 active torsions:
REMARK  status: ('A' for Active; 'I' for Inactive)
REMARK    1  A    between atoms: C_1  and  O_2 
REMARK    2  A    between atoms: O_2  and  C_3 
REMARK    3  A    between atoms: C_3  and  C_5 
REMARK    4  A    between atoms: C_21  and  C_31 
REMARK    5  A    between atoms: C_24  and  N_27 
REMARK    6  A    between atoms: N_27  and  C_28 
REMARK    7  A    between atoms: C_28  and  C_29 
REMARK    8  A    between atoms: C_29  and  O_30 
REMARK    9  A    between atoms: C_34  and  O_37 
REMARK   10  A    between atoms: O_37  and  C_38 
ROOT
ATOM      1  C   LIG d   1       9.739  -0.179  -5.843  0.00  0.00     0.113 C 
ATOM      2  H   LIG d   1       9.278   0.003  -4.872  0.00  0.00     0.058 H 
ATOM      3  C   LIG d   1      11.258  -0.315  -5.670  0.00  0.00     0.001 C 
ATOM      4  C   LIG d   1      11.539  -1.630  -4.988  0.00  0.00    -0.016 A 
ATOM      5  C   LIG d   1      12.746  -2.083  -4.336  0.00  0.00     0.003 A 
ATOM      6  C   LIG d   1      13.995  -1.488  -4.127  0.00  0.00    -0.052 A 
ATOM      7  C   LIG d   1      14.931  -2.230  -3.450  0.00  0.00    -0.061 A 
ATOM      8  C   LIG d   1      14.664  -3.510  -2.990  0.00  0.00    -0.060 A 
ATOM      9  C   LIG d   1      13.438  -4.123  -3.182  0.00  0.00    -0.038 A 
ATOM     10  C   LIG d   1      12.468  -3.393  -3.866  0.00  0.00     0.047 A 
ATOM     11  N   LIG d   1      11.181  -3.688  -4.219  0.00  0.00    -0.356 N 
ATOM     12  H   LIG d   1      10.727  -4.522  -4.025  0.00  0.00     0.166 HD
ATOM     13  C   LIG d   1      10.631  -2.629  -4.888  0.00  0.00     0.038 A 
ATOM     14  C   LIG d   1       9.236  -2.526  -5.451  0.00  0.00     0.057 C 
ATOM     15  H   LIG d   1       8.530  -2.329  -4.643  0.00  0.00     0.053 H 
ATOM     16  N   LIG d   1       9.199  -1.416  -6.416  0.00  0.00    -0.274 N 
ATOM     17  C   LIG d   1       7.843  -1.226  -6.944  0.00  0.00     0.042 C 
ATOM     18  H   LIG d   1       7.833  -0.375  -7.624  0.00  0.00     0.051 H 
ATOM     19  C   LIG d   1       7.411  -2.487  -7.697  0.00  0.00     0.010 C 
ATOM     20  C   LIG d   1       7.452  -3.687  -6.748  0.00  0.00    -0.019 C 
ATOM     21  H   LIG d   1       7.195  -4.594  -7.297  0.00  0.00     0.085 H 
ATOM     22  C   LIG d   1       8.859  -3.829  -6.157  0.00  0.00     0.011 C 
ATOM     23  H   LIG d   1      11.742  -0.296  -6.647  0.00  0.00     0.033 H 
ATOM     24  H   LIG d   1      11.633   0.505  -5.058  0.00  0.00     0.033 H 
ATOM     25  H   LIG d   1      14.212  -0.491  -4.482  0.00  0.00     0.062 H 
ATOM     26  H   LIG d   1      15.906  -1.803  -3.271  0.00  0.00     0.062 H 
ATOM     27  H   LIG d   1      15.440  -4.047  -2.465  0.00  0.00     0.062 H 
ATOM     28  H   LIG d   1      13.244  -5.121  -2.819  0.00  0.00     0.064 H 
ATOM     29  H   LIG d   1       6.397  -2.356  -8.073  0.00  0.00     0.034 H 
ATOM     30  H   LIG d   1       8.090  -2.661  -8.532  0.00  0.00     0.034 H 
ATOM     31  H   LIG d   1       9.568  -4.028  -6.959  0.00  0.00     0.034 H 
ATOM     32  H   LIG d   1       8.877  -4.650  -5.440  0.00  0.00     0.034 H 
ENDROOT
BRANCH  17  33
ATOM     33  C   LIG d   1       6.890  -0.968  -5.804  0.00  0.00    -0.030 A 
ATOM     34  C   LIG d   1       5.559  -0.703  -6.065  0.00  0.00    -0.054 A 
ATOM     35  C   LIG d   1       4.682  -0.473  -5.022  0.00  0.00    -0.019 A 
ATOM     36  H   LIG d   1       5.202  -0.680  -7.085  0.00  0.00     0.062 H 
ATOM     37  C   LIG d   1       5.141  -0.497  -3.714  0.00  0.00     0.130 A 
ATOM     38  H   LIG d   1       3.641  -0.270  -5.226  0.00  0.00     0.065 H 
ATOM     39  C   LIG d   1       6.479  -0.758  -3.455  0.00  0.00    -0.019 A 
ATOM     40  C   LIG d   1       7.351  -0.993  -4.501  0.00  0.00    -0.054 A 
ATOM     41  H   LIG d   1       6.840  -0.777  -2.437  0.00  0.00     0.065 H 
ATOM     42  H   LIG d   1       8.393  -1.195  -4.300  0.00  0.00     0.062 H 
BRANCH  37  43
ATOM     43  O   LIG d   1       4.282  -0.266  -2.686  0.00  0.00    -0.406 OA
BRANCH  43  44
ATOM     44  C   LIG d   1       4.289   1.045  -2.118  0.00  0.00     0.575 C 
ATOM     45  F   LIG d   1       2.983   1.545  -2.082  0.00  0.00    -0.133 F 
ATOM     46  F   LIG d   1       4.802   0.986  -0.817  0.00  0.00    -0.133 F 
ATOM     47  F   LIG d   1       5.090   1.887  -2.896  0.00  0.00    -0.133 F 
ENDBRANCH  43  44
ENDBRANCH  37  43
ENDBRANCH  17  33
BRANCH   1  48
ATOM     48  C   LIG d   1       9.439   0.974  -6.765  0.00  0.00     0.325 C 
ATOM     49  O   LIG d   1       9.980   1.042  -7.844  0.00  0.00    -0.249 OA
BRANCH  48  50
ATOM     50  O   LIG d   1       8.572   1.927  -6.389  0.00  0.00    -0.467 OA
BRANCH  50  51
ATOM     51  C   LIG d   1       8.667   2.397  -5.043  0.00  0.00     0.082 C 
ATOM     52  H   LIG d   1       9.173   3.361  -5.029  0.00  0.00     0.066 H 
ATOM     53  H   LIG d   1       7.666   2.505  -4.623  0.00  0.00     0.066 H 
ATOM     54  H   LIG d   1       9.234   1.681  -4.448  0.00  0.00     0.066 H 
ENDBRANCH  50  51
ENDBRANCH  48  50
ENDBRANCH   1  48
BRANCH  20  55
ATOM     55  N   LIG d   1       6.487  -3.485  -5.659  0.00  0.00     0.231 N 
ATOM     56  H   LIG d   1       6.978  -3.453  -4.777  0.00  0.00     0.202 HD
ATOM     57  H   LIG d   1       5.997  -2.615  -5.801  0.00  0.00     0.202 HD
BRANCH  55  58
ATOM     58  C   LIG d   1       5.525  -4.594  -5.644  0.00  0.00    -0.010 C 
ATOM     59  H   LIG d   1       6.011  -5.502  -6.001  0.00  0.00     0.084 H 
ATOM     60  H   LIG d   1       5.165  -4.750  -4.627  0.00  0.00     0.084 H 
BRANCH  58  61
ATOM     61  C   LIG d   1       4.344  -4.256  -6.557  0.00  0.00     0.084 C 
ATOM     62  H   LIG d   1       4.079  -3.206  -6.435  0.00  0.00     0.061 H 
ATOM     63  H   LIG d   1       4.622  -4.441  -7.595  0.00  0.00     0.061 H 
BRANCH  61  64
ATOM     64  O   LIG d   1       3.225  -5.074  -6.211  0.00  0.00    -0.390 OA
ATOM     65  H   LIG d   1       3.213  -5.933  -6.655  0.00  0.00     0.210 HD
ENDBRANCH  61  64
ENDBRANCH  58  61
ENDBRANCH  55  58
ENDBRANCH  20  55
TORSDOF 10
ENDMDL
MODEL 9
REMARK VINA RESULT:      -6.0      2.842      6.134
REMARK  10 active torsions:
REMARK  status: ('A' for Active; 'I' for Inactive)
REMARK    1  A    between atoms: C_1  and  O_2 
REMARK    2  A    between atoms: O_2  and  C_3 
REMARK    3  A    between atoms: C_3  and  C_5 
REMARK    4  A    between atoms: C_21  and  C_31 
REMARK    5  A    between atoms: C_24  and  N_27 
REMARK    6  A    between atoms: N_27  and  C_28 
REMARK    7  A    between atoms: C_28  and  C_29 
REMARK    8  A    between atoms: C_29  and  O_30 
REMARK    9  A    between atoms: C_34  and  O_37 
REMARK   10  A    between atoms: O_37  and  C_38 
ROOT
ATOM      1  C   LIG d   1       7.822  -5.465  -4.959  0.00  0.00     0.113 C 
ATOM      2  H   LIG d   1       7.151  -5.054  -4.204  0.00  0.00     0.058 H 
ATOM      3  C   LIG d   1       8.038  -6.961  -4.690  0.00  0.00     0.001 C 
ATOM      4  C   LIG d   1       6.764  -7.691  -5.036  0.00  0.00    -0.016 A 
ATOM      5  C   LIG d   1       6.352  -9.029  -4.680  0.00  0.00     0.003 A 
ATOM      6  C   LIG d   1       6.959 -10.045  -3.935  0.00  0.00    -0.052 A 
ATOM      7  C   LIG d   1       6.259 -11.219  -3.798  0.00  0.00    -0.061 A 
ATOM      8  C   LIG d   1       5.008 -11.400  -4.366  0.00  0.00    -0.060 A 
ATOM      9  C   LIG d   1       4.382 -10.412  -5.106  0.00  0.00    -0.038 A 
ATOM     10  C   LIG d   1       5.070  -9.210  -5.262  0.00  0.00     0.047 A 
ATOM     11  N   LIG d   1       4.752  -8.052  -5.915  0.00  0.00    -0.356 N 
ATOM     12  H   LIG d   1       3.930  -7.896  -6.405  0.00  0.00     0.166 HD
ATOM     13  C   LIG d   1       5.769  -7.147  -5.774  0.00  0.00     0.038 A 
ATOM     14  C   LIG d   1       5.832  -5.747  -6.329  0.00  0.00     0.057 C 
ATOM     15  H   LIG d   1       5.214  -5.085  -5.721  0.00  0.00     0.053 H 
ATOM     16  N   LIG d   1       7.229  -5.288  -6.288  0.00  0.00    -0.274 N 
ATOM     17  C   LIG d   1       7.338  -3.900  -6.753  0.00  0.00     0.042 C 
ATOM     18  H   LIG d   1       8.374  -3.571  -6.676  0.00  0.00     0.051 H 
ATOM     19  C   LIG d   1       6.883  -3.817  -8.213  0.00  0.00     0.010 C 
ATOM     20  C   LIG d   1       5.437  -4.307  -8.325  0.00  0.00    -0.019 C 
ATOM     21  H   LIG d   1       5.130  -4.298  -9.371  0.00  0.00     0.085 H 
ATOM     22  C   LIG d   1       5.332  -5.733  -7.774  0.00  0.00     0.011 C 
ATOM     23  H   LIG d   1       8.854  -7.332  -5.310  0.00  0.00     0.033 H 
ATOM     24  H   LIG d   1       8.276  -7.114  -3.638  0.00  0.00     0.033 H 
ATOM     25  H   LIG d   1       7.934  -9.914  -3.490  0.00  0.00     0.062 H 
ATOM     26  H   LIG d   1       6.697 -12.025  -3.230  0.00  0.00     0.062 H 
ATOM     27  H   LIG d   1       4.504 -12.345  -4.225  0.00  0.00     0.062 H 
ATOM     28  H   LIG d   1       3.407 -10.566  -5.544  0.00  0.00     0.064 H 
ATOM     29  H   LIG d   1       6.944  -2.785  -8.555  0.00  0.00     0.034 H 
ATOM     30  H   LIG d   1       7.527  -4.444  -8.829  0.00  0.00     0.034 H 
ATOM     31  H   LIG d   1       5.945  -6.399  -8.379  0.00  0.00     0.034 H 
ATOM     32  H   LIG d   1       4.294  -6.064  -7.803  0.00  0.00     0.034 H 
ENDROOT
BRANCH  17  33
ATOM     33  C   LIG d   1       6.465  -3.014  -5.902  0.00  0.00    -0.030 A 
ATOM     34  C   LIG d   1       6.450  -1.648  -6.119  0.00  0.00    -0.054 A 
ATOM     35  C   LIG d   1       5.645  -0.834  -5.344  0.00  0.00    -0.019 A 
ATOM     36  H   LIG d   1       7.063  -1.218  -6.897  0.00  0.00     0.062 H 
ATOM     37  C   LIG d   1       4.863  -1.387  -4.342  0.00  0.00     0.130 A 
ATOM     38  H   LIG d   1       5.630   0.232  -5.517  0.00  0.00     0.065 H 
ATOM     39  C   LIG d   1       4.885  -2.756  -4.123  0.00  0.00    -0.019 A 
ATOM     40  C   LIG d   1       5.686  -3.567  -4.903  0.00  0.00    -0.054 A 
ATOM     41  H   LIG d   1       4.276  -3.189  -3.342  0.00  0.00     0.065 H 
ATOM     42  H   LIG d   1       5.704  -4.633  -4.732  0.00  0.00     0.062 H 
BRANCH  37  43
ATOM     43  O   LIG d   1       4.075  -0.587  -3.575  0.00  0.00    -0.406 OA
BRANCH  43  44
ATOM     44  C   LIG d   1       4.570  -0.238  -2.281  0.00  0.00     0.575 C 
ATOM     45  F   LIG d   1       3.845   0.850  -1.782  0.00  0.00    -0.133 F 
ATOM     46  F   LIG d   1       4.426  -1.330  -1.417  0.00  0.00    -0.133 F 
ATOM     47  F   LIG d   1       5.922   0.106  -2.376  0.00  0.00    -0.133 F 
ENDBRANCH  43  44
ENDBRANCH  37  43
ENDBRANCH  17  33
BRANCH   1  48
ATOM     48  C   LIG d   1       9.145  -4.748  -4.899  0.00  0.00     0.325 C 
ATOM     49  O   LIG d   1      10.082  -5.151  -5.548  0.00  0.00    -0.249 OA
BRANCH  48  50
ATOM     50  O   LIG d   1       9.285  -3.660  -4.126  0.00  0.00    -0.467 OA
BRANCH  50  51
ATOM     51  C   LIG d   1      10.085  -2.594  -4.641  0.00  0.00     0.082 C 
ATOM     52  H   LIG d   1      10.972  -2.473  -4.021  0.00  0.00     0.066 H 
ATOM     53  H   LIG d   1      10.385  -2.826  -5.664  0.00  0.00     0.066 H 
ATOM     54  H   LIG d   1       9.508  -1.670  -4.633  0.00  0.00     0.066 H 
ENDBRANCH  50  51
ENDBRANCH  48  50
ENDBRANCH   1  48
BRANCH  20  55
ATOM     55  N   LIG d   1       4.558  -3.422  -7.549  0.00  0.00     0.231 N 
ATOM     56  H   LIG d   1       4.109  -3.952  -6.817  0.00  0.00     0.202 HD
ATOM     57  H   LIG d   1       5.105  -2.680  -7.139  0.00  0.00     0.202 HD
BRANCH  55  58
ATOM     58  C   LIG d   1       3.537  -2.847  -8.434  0.00  0.00    -0.010 C 
ATOM     59  H   LIG d   1       3.680  -3.223  -9.447  0.00  0.00     0.084 H 
ATOM     60  H   LIG d   1       2.546  -3.131  -8.078  0.00  0.00     0.084 H 
BRANCH  58  61
ATOM     61  C   LIG d   1       3.662  -1.322  -8.434  0.00  0.00     0.084 C 
ATOM     62  H   LIG d   1       4.701  -1.043  -8.259  0.00  0.00     0.061 H 
ATOM     63  H   LIG d   1       3.339  -0.931  -9.400  0.00  0.00     0.061 H 
BRANCH  61  64
ATOM     64  O   LIG d   1       2.841  -0.777  -7.401  0.00  0.00    -0.390 OA
ATOM     65  H   LIG d   1       1.973  -0.476  -7.705  0.00  0.00     0.210 HD
ENDBRANCH  61  64
ENDBRANCH  58  61
ENDBRANCH  55  58
ENDBRANCH  20  55
TORSDOF 10
ENDMDL
MODEL 10
REMARK VINA RESULT:      -6.0      3.505      7.637
REMARK  10 active torsions:
REMARK  status: ('A' for Active; 'I' for Inactive)
REMARK    1  A    between atoms: C_1  and  O_2 
REMARK    2  A    between atoms: O_2  and  C_3 
REMARK    3  A    between atoms: C_3  and  C_5 
REMARK    4  A    between atoms: C_21  and  C_31 
REMARK    5  A    between atoms: C_24  and  N_27 
REMARK    6  A    between atoms: N_27  and  C_28 
REMARK    7  A    between atoms: C_28  and  C_29 
REMARK    8  A    between atoms: C_29  and  O_30 
REMARK    9  A    between atoms: C_34  and  O_37 
REMARK   10  A    between atoms: O_37  and  C_38 
ROOT
ATOM      1  C   LIG d   1       9.102  -0.502  -5.903  0.00  0.00     0.113 C 
ATOM      2  H   LIG d   1       8.567  -0.212  -6.808  0.00  0.00     0.058 H 
ATOM      3  C   LIG d   1      10.343   0.386  -5.737  0.00  0.00     0.001 C 
ATOM      4  C   LIG d   1       9.884   1.768  -5.346  0.00  0.00    -0.016 A 
ATOM      5  C   LIG d   1      10.613   3.015  -5.371  0.00  0.00     0.003 A 
ATOM      6  C   LIG d   1      11.919   3.346  -5.747  0.00  0.00    -0.052 A 
ATOM      7  C   LIG d   1      12.282   4.666  -5.637  0.00  0.00    -0.061 A 
ATOM      8  C   LIG d   1      11.404   5.635  -5.178  0.00  0.00    -0.060 A 
ATOM      9  C   LIG d   1      10.106   5.337  -4.801  0.00  0.00    -0.038 A 
ATOM     10  C   LIG d   1       9.710   4.005  -4.902  0.00  0.00     0.047 A 
ATOM     11  N   LIG d   1       8.529   3.378  -4.621  0.00  0.00    -0.356 N 
ATOM     12  H   LIG d   1       7.733   3.815  -4.281  0.00  0.00     0.166 HD
ATOM     13  C   LIG d   1       8.639   2.041  -4.890  0.00  0.00     0.038 A 
ATOM     14  C   LIG d   1       7.577   0.983  -4.728  0.00  0.00     0.057 C 
ATOM     15  H   LIG d   1       6.867   1.049  -5.554  0.00  0.00     0.053 H 
ATOM     16  N   LIG d   1       8.223  -0.338  -4.741  0.00  0.00    -0.274 N 
ATOM     17  C   LIG d   1       7.225  -1.411  -4.658  0.00  0.00     0.042 C 
ATOM     18  H   LIG d   1       7.725  -2.378  -4.709  0.00  0.00     0.051 H 
ATOM     19  C   LIG d   1       6.469  -1.296  -3.331  0.00  0.00     0.010 C 
ATOM     20  C   LIG d   1       5.792   0.074  -3.246  0.00  0.00    -0.019 C 
ATOM     21  H   LIG d   1       5.297   0.175  -2.279  0.00  0.00     0.085 H 
ATOM     22  C   LIG d   1       6.841   1.179  -3.402  0.00  0.00     0.011 C 
ATOM     23  H   LIG d   1      10.985  -0.023  -4.957  0.00  0.00     0.033 H 
ATOM     24  H   LIG d   1      10.891   0.432  -6.677  0.00  0.00     0.033 H 
ATOM     25  H   LIG d   1      12.611   2.598  -6.105  0.00  0.00     0.062 H 
ATOM     26  H   LIG d   1      13.283   4.958  -5.918  0.00  0.00     0.062 H 
ATOM     27  H   LIG d   1      11.745   6.658  -5.113  0.00  0.00     0.062 H 
ATOM     28  H   LIG d   1       9.433   6.102  -4.444  0.00  0.00     0.064 H 
ATOM     29  H   LIG d   1       5.714  -2.079  -3.274  0.00  0.00     0.034 H 
ATOM     30  H   LIG d   1       7.171  -1.406  -2.503  0.00  0.00     0.034 H 
ATOM     31  H   LIG d   1       7.552   1.119  -2.579  0.00  0.00     0.034 H 
ATOM     32  H   LIG d   1       6.355   2.154  -3.395  0.00  0.00     0.034 H 
ENDROOT
BRANCH  17  33
ATOM     33  C   LIG d   1       6.254  -1.285  -5.803  0.00  0.00    -0.030 A 
ATOM     34  C   LIG d   1       5.285  -2.254  -5.995  0.00  0.00    -0.054 A 
ATOM     35  C   LIG d   1       4.390  -2.138  -7.041  0.00  0.00    -0.019 A 
ATOM     36  H   LIG d   1       5.227  -3.099  -5.325  0.00  0.00     0.062 H 
ATOM     37  C   LIG d   1       4.469  -1.056  -7.904  0.00  0.00     0.130 A 
ATOM     38  H   LIG d   1       3.631  -2.893  -7.189  0.00  0.00     0.065 H 
ATOM     39  C   LIG d   1       5.445  -0.088  -7.712  0.00  0.00    -0.019 A 
ATOM     40  C   LIG d   1       6.335  -0.205  -6.663  0.00  0.00    -0.054 A 
ATOM     41  H   LIG d   1       5.510   0.756  -8.383  0.00  0.00     0.065 H 
ATOM     42  H   LIG d   1       7.096   0.547  -6.513  0.00  0.00     0.062 H 
BRANCH  37  43
ATOM     43  O   LIG d   1       3.593  -0.942  -8.937  0.00  0.00    -0.406 OA
BRANCH  43  44
ATOM     44  C   LIG d   1       2.427  -0.147  -8.713  0.00  0.00     0.575 C 
ATOM     45  F   LIG d   1       2.159  -0.089  -7.341  0.00  0.00    -0.133 F 
ATOM     46  F   LIG d   1       2.645   1.147  -9.201  0.00  0.00    -0.133 F 
ATOM     47  F   LIG d   1       1.337  -0.718  -9.378  0.00  0.00    -0.133 F 
ENDBRANCH  43  44
ENDBRANCH  37  43
ENDBRANCH  17  33
BRANCH   1  48
ATOM     48  C   LIG d   1       9.527  -1.944  -6.012  0.00  0.00     0.325 C 
ATOM     49  O   LIG d   1       9.206  -2.598  -6.977  0.00  0.00    -0.249 OA
BRANCH  48  50
ATOM     50  O   LIG d   1      10.262  -2.503  -5.038  0.00  0.00    -0.467 OA
BRANCH  50  51
ATOM     51  C   LIG d   1      10.021  -3.882  -4.752  0.00  0.00     0.082 C 
ATOM     52  H   LIG d   1      10.907  -4.318  -4.293  0.00  0.00     0.066 H 
ATOM     53  H   LIG d   1       9.176  -3.969  -4.068  0.00  0.00     0.066 H 
ATOM     54  H   LIG d   1       9.793  -4.410  -5.678  0.00  0.00     0.066 H 
ENDBRANCH  50  51
ENDBRANCH  48  50
ENDBRANCH   1  48
BRANCH  20  55
ATOM     55  N   LIG d   1       4.796   0.196  -4.320  0.00  0.00     0.231 N 
ATOM     56  H   LIG d   1       5.117   0.870  -4.999  0.00  0.00     0.202 HD
ATOM     57  H   LIG d   1       4.674  -0.700  -4.768  0.00  0.00     0.202 HD
BRANCH  55  58
ATOM     58  C   LIG d   1       3.517   0.640  -3.754  0.00  0.00    -0.010 C 
ATOM     59  H   LIG d   1       3.690   1.473  -3.071  0.00  0.00     0.084 H 
ATOM     60  H   LIG d   1       2.856   0.963  -4.558  0.00  0.00     0.084 H 
BRANCH  58  61
ATOM     61  C   LIG d   1       2.867  -0.516  -2.992  0.00  0.00     0.084 C 
ATOM     62  H   LIG d   1       3.431  -0.713  -2.079  0.00  0.00     0.061 H 
ATOM     63  H   LIG d   1       1.841  -0.251  -2.733  0.00  0.00     0.061 H 
BRANCH  61  64
ATOM     64  O   LIG d   1       2.865  -1.686  -3.812  0.00  0.00    -0.390 OA
ATOM     65  H   LIG d   1       3.095  -2.498  -3.340  0.00  0.00     0.210 HD
ENDBRANCH  61  64
ENDBRANCH  58  61
ENDBRANCH  55  58
ENDBRANCH  20  55
TORSDOF 10
ENDMDL
