MODEL 1
REMARK VINA RESULT:      -5.5      0.000      0.000
REMARK  3 active torsions:
REMARK  status: ('A' for Active; 'I' for Inactive)
REMARK    1  A    between atoms: C_1  and  O_2 
REMARK    2  A    between atoms: O_2  and  C_3 
REMARK    3  A    between atoms: C_12  and  C_13 
ROOT
ATOM      1  C   LIG d   1       8.251  -0.442  -4.670  0.00  0.00     0.131 A 
ATOM      2  C   LIG d   1       7.876  -1.781  -4.550  0.00  0.00    -0.019 A 
ATOM      3  C   LIG d   1       6.779  -2.157  -3.843  0.00  0.00    -0.051 A 
ATOM      4  C   LIG d   1       5.973  -1.201  -3.198  0.00  0.00    -0.017 A 
ATOM      5  C   LIG d   1       4.837  -1.583  -2.465  0.00  0.00    -0.054 A 
ATOM      6  C   LIG d   1       4.079  -0.630  -1.852  0.00  0.00    -0.061 A 
ATOM      7  C   LIG d   1       4.409   0.718  -1.947  0.00  0.00    -0.061 A 
ATOM      8  C   LIG d   1       5.508   1.123  -2.646  0.00  0.00    -0.053 A 
ATOM      9  C   LIG d   1       6.309   0.170  -3.286  0.00  0.00    -0.004 A 
ATOM     10  C   LIG d   1       7.495   0.561  -4.052  0.00  0.00     0.063 A 
ATOM     11  H   LIG d   1       8.474  -2.539  -5.035  0.00  0.00     0.065 H 
ATOM     12  H   LIG d   1       6.523  -3.204  -3.776  0.00  0.00     0.062 H 
ATOM     13  H   LIG d   1       4.567  -2.625  -2.386  0.00  0.00     0.062 H 
ATOM     14  H   LIG d   1       3.206  -0.926  -1.289  0.00  0.00     0.062 H 
ATOM     15  H   LIG d   1       3.789   1.455  -1.456  0.00  0.00     0.062 H 
ATOM     16  H   LIG d   1       5.757   2.171  -2.709  0.00  0.00     0.062 H 
ENDROOT
BRANCH   1  17
ATOM     17  O   LIG d   1       9.352  -0.112  -5.385  0.00  0.00    -0.494 OA
BRANCH  17  18
ATOM     18  C   LIG d   1      10.434  -1.046  -5.378  0.00  0.00     0.079 C 
ATOM     19  H   LIG d   1      10.641  -1.370  -6.398  0.00  0.00     0.066 H 
ATOM     20  H   LIG d   1      11.321  -0.572  -4.961  0.00  0.00     0.066 H 
ATOM     21  H   LIG d   1      10.164  -1.910  -4.771  0.00  0.00     0.066 H 
ENDBRANCH  17  18
ENDBRANCH   1  17
BRANCH  10  22
ATOM     22  C   LIG d   1       7.878   1.966  -4.172  0.00  0.00     0.154 C 
ATOM     23  O   LIG d   1       8.655   2.453  -3.376  0.00  0.00    -0.296 OA
ATOM     24  H   LIG d   1       7.470   2.570  -4.969  0.00  0.00     0.108 H 
ENDBRANCH  10  22
TORSDOF 3
ENDMDL
MODEL 2
REMARK VINA RESULT:      -5.4      3.473      3.949
REMARK  3 active torsions:
REMARK  status: ('A' for Active; 'I' for Inactive)
REMARK    1  A    between atoms: C_1  and  O_2 
REMARK    2  A    between atoms: O_2  and  C_3 
REMARK    3  A    between atoms: C_12  and  C_13 
ROOT
ATOM      1  C   LIG d   1       4.500  -2.004  -5.853  0.00  0.00     0.131 A 
ATOM      2  C   LIG d   1       5.168  -2.729  -4.865  0.00  0.00    -0.019 A 
ATOM      3  C   LIG d   1       5.290  -2.265  -3.595  0.00  0.00    -0.051 A 
ATOM      4  C   LIG d   1       4.744  -1.021  -3.225  0.00  0.00    -0.017 A 
ATOM      5  C   LIG d   1       4.866  -0.534  -1.913  0.00  0.00    -0.054 A 
ATOM      6  C   LIG d   1       4.325   0.674  -1.590  0.00  0.00    -0.061 A 
ATOM      7  C   LIG d   1       3.645   1.431  -2.539  0.00  0.00    -0.061 A 
ATOM      8  C   LIG d   1       3.513   0.990  -3.823  0.00  0.00    -0.053 A 
ATOM      9  C   LIG d   1       4.058  -0.245  -4.188  0.00  0.00    -0.004 A 
ATOM     10  C   LIG d   1       3.933  -0.760  -5.554  0.00  0.00     0.063 A 
ATOM     11  H   LIG d   1       5.598  -3.688  -5.117  0.00  0.00     0.065 H 
ATOM     12  H   LIG d   1       5.814  -2.857  -2.860  0.00  0.00     0.062 H 
ATOM     13  H   LIG d   1       5.388  -1.113  -1.166  0.00  0.00     0.062 H 
ATOM     14  H   LIG d   1       4.421   1.046  -0.580  0.00  0.00     0.062 H 
ATOM     15  H   LIG d   1       3.220   2.384  -2.256  0.00  0.00     0.062 H 
ATOM     16  H   LIG d   1       2.987   1.588  -4.551  0.00  0.00     0.062 H 
ENDROOT
BRANCH   1  17
ATOM     17  O   LIG d   1       4.402  -2.506  -7.107  0.00  0.00    -0.494 OA
BRANCH  17  18
ATOM     18  C   LIG d   1       4.272  -3.924  -7.230  0.00  0.00     0.079 C 
ATOM     19  H   LIG d   1       3.249  -4.173  -7.509  0.00  0.00     0.066 H 
ATOM     20  H   LIG d   1       4.956  -4.286  -7.997  0.00  0.00     0.066 H 
ATOM     21  H   LIG d   1       4.513  -4.394  -6.276  0.00  0.00     0.066 H 
ENDBRANCH  17  18
ENDBRANCH   1  17
BRANCH  10  22
ATOM     22  C   LIG d   1       3.232   0.007  -6.581  0.00  0.00     0.154 C 
ATOM     23  O   LIG d   1       3.851   0.761  -7.305  0.00  0.00    -0.296 OA
ATOM     24  H   LIG d   1       2.163  -0.097  -6.696  0.00  0.00     0.108 H 
ENDBRANCH  10  22
TORSDOF 3
ENDMDL
MODEL 3
REMARK VINA RESULT:      -5.2      1.271      2.763
REMARK  3 active torsions:
REMARK  status: ('A' for Active; 'I' for Inactive)
REMARK    1  A    between atoms: C_1  and  O_2 
REMARK    2  A    between atoms: O_2  and  C_3 
REMARK    3  A    between atoms: C_12  and  C_13 
ROOT
ATOM      1  C   LIG d   1       8.260  -0.476  -4.711  0.00  0.00     0.131 A 
ATOM      2  C   LIG d   1       8.140   0.899  -4.502  0.00  0.00    -0.019 A 
ATOM      3  C   LIG d   1       7.136   1.426  -3.754  0.00  0.00    -0.051 A 
ATOM      4  C   LIG d   1       6.169   0.596  -3.157  0.00  0.00    -0.017 A 
ATOM      5  C   LIG d   1       5.128   1.134  -2.382  0.00  0.00    -0.054 A 
ATOM      6  C   LIG d   1       4.208   0.301  -1.819  0.00  0.00    -0.061 A 
ATOM      7  C   LIG d   1       4.288  -1.078  -1.993  0.00  0.00    -0.061 A 
ATOM      8  C   LIG d   1       5.283  -1.632  -2.744  0.00  0.00    -0.053 A 
ATOM      9  C   LIG d   1       6.243  -0.805  -3.337  0.00  0.00    -0.004 A 
ATOM     10  C   LIG d   1       7.332  -1.358  -4.146  0.00  0.00     0.063 A 
ATOM     11  H   LIG d   1       8.868   1.563  -4.947  0.00  0.00     0.065 H 
ATOM     12  H   LIG d   1       7.080   2.495  -3.617  0.00  0.00     0.062 H 
ATOM     13  H   LIG d   1       5.056   2.201  -2.236  0.00  0.00     0.062 H 
ATOM     14  H   LIG d   1       3.409   0.716  -1.224  0.00  0.00     0.062 H 
ATOM     15  H   LIG d   1       3.550  -1.717  -1.531  0.00  0.00     0.062 H 
ATOM     16  H   LIG d   1       5.333  -2.702  -2.875  0.00  0.00     0.062 H 
ENDROOT
BRANCH   1  17
ATOM     17  O   LIG d   1       9.277  -0.957  -5.463  0.00  0.00    -0.494 OA
BRANCH  17  18
ATOM     18  C   LIG d   1      10.527  -0.267  -5.383  0.00  0.00     0.079 C 
ATOM     19  H   LIG d   1      10.972  -0.435  -4.403  0.00  0.00     0.066 H 
ATOM     20  H   LIG d   1      11.198  -0.640  -6.156  0.00  0.00     0.066 H 
ATOM     21  H   LIG d   1      10.361   0.800  -5.529  0.00  0.00     0.066 H 
ENDBRANCH  17  18
ENDBRANCH   1  17
BRANCH  10  22
ATOM     22  C   LIG d   1       7.448  -2.800  -4.358  0.00  0.00     0.154 C 
ATOM     23  O   LIG d   1       8.198  -3.456  -3.665  0.00  0.00    -0.296 OA
ATOM     24  H   LIG d   1       6.866  -3.280  -5.131  0.00  0.00     0.108 H 
ENDBRANCH  10  22
TORSDOF 3
ENDMDL
MODEL 4
REMARK VINA RESULT:      -5.2      3.907      5.049
REMARK  3 active torsions:
REMARK  status: ('A' for Active; 'I' for Inactive)
REMARK    1  A    between atoms: C_1  and  O_2 
REMARK    2  A    between atoms: O_2  and  C_3 
REMARK    3  A    between atoms: C_12  and  C_13 
ROOT
ATOM      1  C   LIG d   1       3.434  -0.169  -6.900  0.00  0.00     0.131 A 
ATOM      2  C   LIG d   1       2.521   0.627  -6.207  0.00  0.00    -0.019 A 
ATOM      3  C   LIG d   1       2.469   0.640  -4.850  0.00  0.00    -0.051 A 
ATOM      4  C   LIG d   1       3.341  -0.158  -4.086  0.00  0.00    -0.017 A 
ATOM      5  C   LIG d   1       3.292  -0.150  -2.681  0.00  0.00    -0.054 A 
ATOM      6  C   LIG d   1       4.152  -0.935  -1.973  0.00  0.00    -0.061 A 
ATOM      7  C   LIG d   1       5.084  -1.741  -2.619  0.00  0.00    -0.061 A 
ATOM      8  C   LIG d   1       5.154  -1.777  -3.981  0.00  0.00    -0.053 A 
ATOM      9  C   LIG d   1       4.285  -0.984  -4.738  0.00  0.00    -0.004 A 
ATOM     10  C   LIG d   1       4.331  -0.987  -6.203  0.00  0.00     0.063 A 
ATOM     11  H   LIG d   1       1.839   1.251  -6.765  0.00  0.00     0.065 H 
ATOM     12  H   LIG d   1       1.748   1.270  -4.351  0.00  0.00     0.062 H 
ATOM     13  H   LIG d   1       2.577   0.474  -2.167  0.00  0.00     0.062 H 
ATOM     14  H   LIG d   1       4.112  -0.927  -0.893  0.00  0.00     0.062 H 
ATOM     15  H   LIG d   1       5.757  -2.350  -2.034  0.00  0.00     0.062 H 
ATOM     16  H   LIG d   1       5.878  -2.409  -4.471  0.00  0.00     0.062 H 
ENDROOT
BRANCH   1  17
ATOM     17  O   LIG d   1       3.453  -0.151  -8.254  0.00  0.00    -0.494 OA
BRANCH  17  18
ATOM     18  C   LIG d   1       2.286  -0.632  -8.925  0.00  0.00     0.079 C 
ATOM     19  H   LIG d   1       2.214  -0.167  -9.908  0.00  0.00     0.066 H 
ATOM     20  H   LIG d   1       2.352  -1.713  -9.039  0.00  0.00     0.066 H 
ATOM     21  H   LIG d   1       1.401  -0.381  -8.339  0.00  0.00     0.066 H 
ENDBRANCH  17  18
ENDBRANCH   1  17
BRANCH  10  22
ATOM     22  C   LIG d   1       5.291  -1.824  -6.919  0.00  0.00     0.154 C 
ATOM     23  O   LIG d   1       4.962  -2.924  -7.313  0.00  0.00    -0.296 OA
ATOM     24  H   LIG d   1       6.293  -1.463  -7.097  0.00  0.00     0.108 H 
ENDBRANCH  10  22
TORSDOF 3
ENDMDL
MODEL 5
REMARK VINA RESULT:      -5.1      1.757      2.849
REMARK  3 active torsions:
REMARK  status: ('A' for Active; 'I' for Inactive)
REMARK    1  A    between atoms: C_1  and  O_2 
REMARK    2  A    between atoms: O_2  and  C_3 
REMARK    3  A    between atoms: C_12  and  C_13 
ROOT
ATOM      1  C   LIG d   1       6.039  -2.828  -4.899  0.00  0.00     0.131 A 
ATOM      2  C   LIG d   1       4.926  -3.321  -4.216  0.00  0.00    -0.019 A 
ATOM      3  C   LIG d   1       4.249  -2.568  -3.311  0.00  0.00    -0.051 A 
ATOM      4  C   LIG d   1       4.651  -1.250  -3.025  0.00  0.00    -0.017 A 
ATOM      5  C   LIG d   1       3.955  -0.465  -2.090  0.00  0.00    -0.054 A 
ATOM      6  C   LIG d   1       4.372   0.808  -1.837  0.00  0.00    -0.061 A 
ATOM      7  C   LIG d   1       5.472   1.346  -2.496  0.00  0.00    -0.061 A 
ATOM      8  C   LIG d   1       6.173   0.609  -3.405  0.00  0.00    -0.053 A 
ATOM      9  C   LIG d   1       5.773  -0.701  -3.688  0.00  0.00    -0.004 A 
ATOM     10  C   LIG d   1       6.493  -1.526  -4.662  0.00  0.00     0.063 A 
ATOM     11  H   LIG d   1       4.593  -4.329  -4.414  0.00  0.00     0.065 H 
ATOM     12  H   LIG d   1       3.393  -2.987  -2.805  0.00  0.00     0.062 H 
ATOM     13  H   LIG d   1       3.098  -0.868  -1.574  0.00  0.00     0.062 H 
ATOM     14  H   LIG d   1       3.836   1.409  -1.117  0.00  0.00     0.062 H 
ATOM     15  H   LIG d   1       5.779   2.360  -2.281  0.00  0.00     0.062 H 
ATOM     16  H   LIG d   1       7.028   1.036  -3.908  0.00  0.00     0.062 H 
ENDROOT
BRANCH   1  17
ATOM     17  O   LIG d   1       6.684  -3.614  -5.793  0.00  0.00    -0.494 OA
BRANCH  17  18
ATOM     18  C   LIG d   1       7.384  -4.748  -5.275  0.00  0.00     0.079 C 
ATOM     19  H   LIG d   1       8.439  -4.674  -5.537  0.00  0.00     0.066 H 
ATOM     20  H   LIG d   1       7.279  -4.775  -4.191  0.00  0.00     0.066 H 
ATOM     21  H   LIG d   1       6.966  -5.659  -5.704  0.00  0.00     0.066 H 
ENDBRANCH  17  18
ENDBRANCH   1  17
BRANCH  10  22
ATOM     22  C   LIG d   1       7.657  -0.999  -5.372  0.00  0.00     0.154 C 
ATOM     23  O   LIG d   1       8.774  -1.215  -4.949  0.00  0.00    -0.296 OA
ATOM     24  H   LIG d   1       7.522  -0.418  -6.272  0.00  0.00     0.108 H 
ENDBRANCH  10  22
TORSDOF 3
ENDMDL
MODEL 6
REMARK VINA RESULT:      -5.1      3.998      4.897
REMARK  3 active torsions:
REMARK  status: ('A' for Active; 'I' for Inactive)
REMARK    1  A    between atoms: C_1  and  O_2 
REMARK    2  A    between atoms: O_2  and  C_3 
REMARK    3  A    between atoms: C_12  and  C_13 
ROOT
ATOM      1  C   LIG d   1       4.459  -2.223  -6.688  0.00  0.00     0.131 A 
ATOM      2  C   LIG d   1       3.970  -0.947  -6.973  0.00  0.00    -0.019 A 
ATOM      3  C   LIG d   1       3.665  -0.061  -5.991  0.00  0.00    -0.051 A 
ATOM      4  C   LIG d   1       3.831  -0.401  -4.635  0.00  0.00    -0.017 A 
ATOM      5  C   LIG d   1       3.517   0.511  -3.613  0.00  0.00    -0.054 A 
ATOM      6  C   LIG d   1       3.690   0.149  -2.311  0.00  0.00    -0.061 A 
ATOM      7  C   LIG d   1       4.180  -1.109  -1.976  0.00  0.00    -0.061 A 
ATOM      8  C   LIG d   1       4.489  -2.020  -2.943  0.00  0.00    -0.053 A 
ATOM      9  C   LIG d   1       4.323  -1.681  -4.290  0.00  0.00    -0.004 A 
ATOM     10  C   LIG d   1       4.648  -2.626  -5.361  0.00  0.00     0.063 A 
ATOM     11  H   LIG d   1       3.832  -0.656  -8.004  0.00  0.00     0.065 H 
ATOM     12  H   LIG d   1       3.289   0.916  -6.254  0.00  0.00     0.062 H 
ATOM     13  H   LIG d   1       3.139   1.492  -3.858  0.00  0.00     0.062 H 
ATOM     14  H   LIG d   1       3.447   0.852  -1.527  0.00  0.00     0.062 H 
ATOM     15  H   LIG d   1       4.313  -1.370  -0.936  0.00  0.00     0.062 H 
ATOM     16  H   LIG d   1       4.865  -2.994  -2.671  0.00  0.00     0.062 H 
ENDROOT
BRANCH   1  17
ATOM     17  O   LIG d   1       4.751  -3.075  -7.699  0.00  0.00    -0.494 OA
BRANCH  17  18
ATOM     18  C   LIG d   1       3.658  -3.535  -8.496  0.00  0.00     0.079 C 
ATOM     19  H   LIG d   1       2.822  -3.800  -7.848  0.00  0.00     0.066 H 
ATOM     20  H   LIG d   1       3.350  -2.746  -9.181  0.00  0.00     0.066 H 
ATOM     21  H   LIG d   1       3.967  -4.411  -9.066  0.00  0.00     0.066 H 
ENDBRANCH  17  18
ENDBRANCH   1  17
BRANCH  10  22
ATOM     22  C   LIG d   1       5.160  -3.959  -5.051  0.00  0.00     0.154 C 
ATOM     23  O   LIG d   1       4.398  -4.901  -4.981  0.00  0.00    -0.296 OA
ATOM     24  H   LIG d   1       6.218  -4.106  -4.885  0.00  0.00     0.108 H 
ENDBRANCH  10  22
TORSDOF 3
ENDMDL
MODEL 7
REMARK VINA RESULT:      -4.9      3.467      3.821
REMARK  3 active torsions:
REMARK  status: ('A' for Active; 'I' for Inactive)
REMARK    1  A    between atoms: C_1  and  O_2 
REMARK    2  A    between atoms: O_2  and  C_3 
REMARK    3  A    between atoms: C_12  and  C_13 
ROOT
ATOM      1  C   LIG d   1       5.208  -0.909  -7.001  0.00  0.00     0.131 A 
ATOM      2  C   LIG d   1       6.272  -1.569  -6.383  0.00  0.00    -0.019 A 
ATOM      3  C   LIG d   1       6.266  -1.848  -5.054  0.00  0.00    -0.051 A 
ATOM      4  C   LIG d   1       5.178  -1.476  -4.243  0.00  0.00    -0.017 A 
ATOM      5  C   LIG d   1       5.165  -1.761  -2.867  0.00  0.00    -0.054 A 
ATOM      6  C   LIG d   1       4.095  -1.387  -2.111  0.00  0.00    -0.061 A 
ATOM      7  C   LIG d   1       3.008  -0.731  -2.683  0.00  0.00    -0.061 A 
ATOM      8  C   LIG d   1       2.991  -0.434  -4.014  0.00  0.00    -0.053 A 
ATOM      9  C   LIG d   1       4.075  -0.804  -4.818  0.00  0.00    -0.004 A 
ATOM     10  C   LIG d   1       4.094  -0.510  -6.254  0.00  0.00     0.063 A 
ATOM     11  H   LIG d   1       7.122  -1.868  -6.979  0.00  0.00     0.065 H 
ATOM     12  H   LIG d   1       7.108  -2.361  -4.614  0.00  0.00     0.062 H 
ATOM     13  H   LIG d   1       5.999  -2.273  -2.411  0.00  0.00     0.062 H 
ATOM     14  H   LIG d   1       4.088  -1.607  -1.054  0.00  0.00     0.062 H 
ATOM     15  H   LIG d   1       2.170  -0.450  -2.063  0.00  0.00     0.062 H 
ATOM     16  H   LIG d   1       2.145   0.078  -4.445  0.00  0.00     0.062 H 
ENDROOT
BRANCH   1  17
ATOM     17  O   LIG d   1       5.256  -0.652  -8.330  0.00  0.00    -0.494 OA
BRANCH  17  18
ATOM     18  C   LIG d   1       6.226   0.300  -8.772  0.00  0.00     0.079 C 
ATOM     19  H   LIG d   1       6.916   0.521  -7.957  0.00  0.00     0.066 H 
ATOM     20  H   LIG d   1       6.781  -0.112  -9.615  0.00  0.00     0.066 H 
ATOM     21  H   LIG d   1       5.722   1.216  -9.081  0.00  0.00     0.066 H 
ENDBRANCH  17  18
ENDBRANCH   1  17
BRANCH  10  22
ATOM     22  C   LIG d   1       2.976   0.181  -6.891  0.00  0.00     0.154 C 
ATOM     23  O   LIG d   1       3.031   1.379  -7.081  0.00  0.00    -0.296 OA
ATOM     24  H   LIG d   1       2.099  -0.374  -7.192  0.00  0.00     0.108 H 
ENDBRANCH  10  22
TORSDOF 3
ENDMDL
MODEL 8
REMARK VINA RESULT:      -4.8      8.918     10.363
REMARK  3 active torsions:
REMARK  status: ('A' for Active; 'I' for Inactive)
REMARK    1  A    between atoms: C_1  and  O_2 
REMARK    2  A    between atoms: O_2  and  C_3 
REMARK    3  A    between atoms: C_12  and  C_13 
ROOT
ATOM      1  C   LIG d   1       5.196  -8.959  -4.802  0.00  0.00     0.131 A 
ATOM      2  C   LIG d   1       6.460  -8.381  -4.923  0.00  0.00    -0.019 A 
ATOM      3  C   LIG d   1       7.449  -8.626  -4.025  0.00  0.00    -0.051 A 
ATOM      4  C   LIG d   1       7.232  -9.481  -2.928  0.00  0.00    -0.017 A 
ATOM      5  C   LIG d   1       8.251  -9.740  -1.995  0.00  0.00    -0.054 A 
ATOM      6  C   LIG d   1       8.006 -10.573  -0.945  0.00  0.00    -0.061 A 
ATOM      7  C   LIG d   1       6.763 -11.178  -0.785  0.00  0.00    -0.061 A 
ATOM      8  C   LIG d   1       5.751 -10.943  -1.669  0.00  0.00    -0.053 A 
ATOM      9  C   LIG d   1       5.969 -10.093  -2.758  0.00  0.00    -0.004 A 
ATOM     10  C   LIG d   1       4.912  -9.819  -3.735  0.00  0.00     0.063 A 
ATOM     11  H   LIG d   1       6.658  -7.720  -5.755  0.00  0.00     0.065 H 
ATOM     12  H   LIG d   1       8.414  -8.159  -4.155  0.00  0.00     0.062 H 
ATOM     13  H   LIG d   1       9.220  -9.280  -2.109  0.00  0.00     0.062 H 
ATOM     14  H   LIG d   1       8.790 -10.770  -0.229  0.00  0.00     0.062 H 
ATOM     15  H   LIG d   1       6.597 -11.838   0.054  0.00  0.00     0.062 H 
ATOM     16  H   LIG d   1       4.790 -11.415  -1.532  0.00  0.00     0.062 H 
ENDROOT
BRANCH   1  17
ATOM     17  O   LIG d   1       4.239  -8.687  -5.721  0.00  0.00    -0.494 OA
BRANCH  17  18
ATOM     18  C   LIG d   1       4.616  -8.778  -7.097  0.00  0.00     0.079 C 
ATOM     19  H   LIG d   1       5.066  -7.837  -7.413  0.00  0.00     0.066 H 
ATOM     20  H   LIG d   1       5.336  -9.585  -7.223  0.00  0.00     0.066 H 
ATOM     21  H   LIG d   1       3.733  -8.980  -7.703  0.00  0.00     0.066 H 
ENDBRANCH  17  18
ENDBRANCH   1  17
BRANCH  10  22
ATOM     22  C   LIG d   1       3.591 -10.430  -3.599  0.00  0.00     0.154 C 
ATOM     23  O   LIG d   1       2.676  -9.797  -3.113  0.00  0.00    -0.296 OA
ATOM     24  H   LIG d   1       3.431 -11.445  -3.932  0.00  0.00     0.108 H 
ENDBRANCH  10  22
TORSDOF 3
ENDMDL
MODEL 9
REMARK VINA RESULT:      -4.7      2.708      3.999
REMARK  3 active torsions:
REMARK  status: ('A' for Active; 'I' for Inactive)
REMARK    1  A    between atoms: C_1  and  O_2 
REMARK    2  A    between atoms: O_2  and  C_3 
REMARK    3  A    between atoms: C_12  and  C_13 
ROOT
ATOM      1  C   LIG d   1       6.962  -2.994  -5.484  0.00  0.00     0.131 A 
ATOM      2  C   LIG d   1       7.705  -1.846  -5.203  0.00  0.00    -0.019 A 
ATOM      3  C   LIG d   1       7.291  -0.930  -4.289  0.00  0.00    -0.051 A 
ATOM      4  C   LIG d   1       6.085  -1.107  -3.586  0.00  0.00    -0.017 A 
ATOM      5  C   LIG d   1       5.650  -0.164  -2.639  0.00  0.00    -0.054 A 
ATOM      6  C   LIG d   1       4.477  -0.368  -1.976  0.00  0.00    -0.061 A 
ATOM      7  C   LIG d   1       3.704  -1.499  -2.217  0.00  0.00    -0.061 A 
ATOM      8  C   LIG d   1       4.094  -2.431  -3.134  0.00  0.00    -0.053 A 
ATOM      9  C   LIG d   1       5.293  -2.253  -3.833  0.00  0.00    -0.004 A 
ATOM     10  C   LIG d   1       5.753  -3.232  -4.821  0.00  0.00     0.063 A 
ATOM     11  H   LIG d   1       8.636  -1.682  -5.726  0.00  0.00     0.065 H 
ATOM     12  H   LIG d   1       7.895  -0.056  -4.101  0.00  0.00     0.062 H 
ATOM     13  H   LIG d   1       6.241   0.716  -2.440  0.00  0.00     0.062 H 
ATOM     14  H   LIG d   1       4.145   0.359  -1.249  0.00  0.00     0.062 H 
ATOM     15  H   LIG d   1       2.781  -1.639  -1.674  0.00  0.00     0.062 H 
ATOM     16  H   LIG d   1       3.485  -3.303  -3.315  0.00  0.00     0.062 H 
ENDROOT
BRANCH   1  17
ATOM     17  O   LIG d   1       7.413  -3.880  -6.403  0.00  0.00    -0.494 OA
BRANCH  17  18
ATOM     18  C   LIG d   1       7.449  -3.443  -7.763  0.00  0.00     0.079 C 
ATOM     19  H   LIG d   1       8.226  -2.689  -7.882  0.00  0.00     0.066 H 
ATOM     20  H   LIG d   1       7.665  -4.291  -8.412  0.00  0.00     0.066 H 
ATOM     21  H   LIG d   1       6.483  -3.016  -8.032  0.00  0.00     0.066 H 
ENDBRANCH  17  18
ENDBRANCH   1  17
BRANCH  10  22
ATOM     22  C   LIG d   1       4.968  -4.431  -5.107  0.00  0.00     0.154 C 
ATOM     23  O   LIG d   1       4.102  -4.402  -5.958  0.00  0.00    -0.296 OA
ATOM     24  H   LIG d   1       5.158  -5.343  -4.560  0.00  0.00     0.108 H 
ENDBRANCH  10  22
TORSDOF 3
ENDMDL
