MODEL 1
REMARK VINA RESULT:      -7.2      0.000      0.000
REMARK  5 active torsions:
REMARK  status: ('A' for Active; 'I' for Inactive)
REMARK    1  A    between atoms: C_1  and  C_2 
REMARK    2  A    between atoms: C_7  and  C_9 
REMARK    3  A    between atoms: C_7  and  C_10 
REMARK    4  A    between atoms: N_31  and  C_38 
REMARK    5  A    between atoms: N_34  and  C_37 
ROOT
ATOM      1  C   LIG d   1      11.473   8.340  -2.264  0.00  0.00    -0.010 C 
ATOM      2  C   LIG d   1      12.762   9.220  -1.744  0.00  0.00    -0.027 C 
ATOM      3  C   LIG d   1      12.191   9.591  -0.366  0.00  0.00     0.030 C 
ATOM      4  H   LIG d   1      13.001   9.911   0.348  0.00  0.00     0.050 H 
ATOM      5  C   LIG d   1      11.156  10.670  -0.529  0.00  0.00    -0.029 C 
ATOM      6  C   LIG d   1      10.077  10.384  -1.507  0.00  0.00    -0.033 C 
ATOM      7  C   LIG d   1      10.367   9.387  -2.645  0.00  0.00    -0.041 C 
ATOM      8  N   LIG d   1      11.637   8.395   0.154  0.00  0.00    -0.270 N 
ATOM      9  C   LIG d   1      11.006   7.638  -1.049  0.00  0.00     0.057 C 
ATOM     10  H   LIG d   1       9.909   7.641  -0.984  0.00  0.00     0.052 H 
ATOM     11  C   LIG d   1      11.550   6.165  -0.890  0.00  0.00     0.147 A 
ATOM     12  C   LIG d   1      10.984   5.644   0.460  0.00  0.00     0.004 C 
ATOM     13  C   LIG d   1      11.170   6.471   1.603  0.00  0.00     0.043 C 
ATOM     14  C   LIG d   1      11.541   7.890   1.396  0.00  0.00     0.276 C 
ATOM     15  N   LIG d   1      11.660   8.721   2.469  0.00  0.00    -0.191 N 
ATOM     16  C   LIG d   1      11.606   8.271   3.701  0.00  0.00     0.218 A 
ATOM     17  C   LIG d   1      11.906   9.154   4.732  0.00  0.00     0.056 A 
ATOM     18  C   LIG d   1      11.816   8.685   6.073  0.00  0.00     0.172 A 
ATOM     19  C   LIG d   1      11.431   7.341   6.291  0.00  0.00     0.167 A 
ATOM     20  C   LIG d   1      11.218   6.354   5.277  0.00  0.00    -0.003 A 
ATOM     21  C   LIG d   1      11.349   6.904   3.957  0.00  0.00     0.050 A 
ATOM     22  C   LIG d   1      11.031   6.035   2.937  0.00  0.00    -0.037 C 
ATOM     23  O   LIG d   1      11.399   7.079   7.629  0.00  0.00    -0.453 OA
ATOM     24  C   LIG d   1      12.179   8.192   8.261  0.00  0.00     0.233 C 
ATOM     25  O   LIG d   1      12.007   9.256   7.269  0.00  0.00    -0.452 OA
ATOM     26  C   LIG d   1      13.038   6.108  -0.826  0.00  0.00     0.240 A 
ATOM     27  O   LIG d   1      13.575   6.776  -0.038  0.00  0.00    -0.274 OA
ATOM     28  N   LIG d   1      13.640   5.309  -1.658  0.00  0.00    -0.228 N 
ATOM     29  C   LIG d   1      13.026   4.457  -2.589  0.00  0.00     0.317 A 
ATOM     30  O   LIG d   1      13.655   3.715  -3.202  0.00  0.00    -0.252 OA
ATOM     31  N   LIG d   1      11.767   4.509  -2.676  0.00  0.00    -0.228 N 
ATOM     32  C   LIG d   1      11.005   5.289  -1.999  0.00  0.00     0.240 A 
ATOM     33  O   LIG d   1       9.725   5.310  -2.170  0.00  0.00    -0.274 OA
ATOM     34  H   LIG d   1      13.601   8.583  -1.734  0.00  0.00     0.029 H 
ATOM     35  H   LIG d   1      12.875  10.074  -2.356  0.00  0.00     0.029 H 
ATOM     36  H   LIG d   1      10.670  10.883   0.450  0.00  0.00     0.029 H 
ATOM     37  H   LIG d   1      11.659  11.586  -0.765  0.00  0.00     0.029 H 
ATOM     38  H   LIG d   1      10.725   9.979  -3.589  0.00  0.00     0.028 H 
ATOM     39  H   LIG d   1       9.462   8.870  -2.894  0.00  0.00     0.028 H 
ATOM     40  H   LIG d   1       9.879   5.481   0.364  0.00  0.00     0.033 H 
ATOM     41  H   LIG d   1      11.438   4.705   0.670  0.00  0.00     0.033 H 
ATOM     42  H   LIG d   1      12.098  10.215   4.584  0.00  0.00     0.072 H 
ATOM     43  H   LIG d   1      10.944   5.400   5.472  0.00  0.00     0.066 H 
ATOM     44  H   LIG d   1      10.804   5.011   3.052  0.00  0.00     0.063 H 
ATOM     45  H   LIG d   1      11.764   8.480   9.140  0.00  0.00     0.117 H 
ATOM     46  H   LIG d   1      13.227   7.972   8.344  0.00  0.00     0.117 H 
ATOM     47  H   LIG d   1      11.944   9.592   2.260  0.00  0.00     0.455 HD
ENDROOT
BRANCH   1  48
ATOM     48  C   LIG d   1      11.863   7.509  -3.452  0.00  0.00    -0.058 C 
ATOM     49  H   LIG d   1      12.242   6.545  -3.114  0.00  0.00     0.024 H 
ATOM     50  H   LIG d   1      10.992   7.354  -4.089  0.00  0.00     0.024 H 
ATOM     51  H   LIG d   1      12.640   8.025  -4.018  0.00  0.00     0.024 H 
ENDBRANCH   1  48
BRANCH  31  52
ATOM     52  C   LIG d   1      11.145   3.606  -3.676  0.00  0.00     0.012 C 
ATOM     53  H   LIG d   1      10.074   3.802  -3.725  0.00  0.00     0.043 H 
ATOM     54  H   LIG d   1      11.593   3.783  -4.654  0.00  0.00     0.043 H 
ATOM     55  H   LIG d   1      11.311   2.570  -3.382  0.00  0.00     0.043 H 
ENDBRANCH  31  52
BRANCH  28  56
ATOM     56  C   LIG d   1      15.132   5.226  -1.628  0.00  0.00     0.012 C 
ATOM     57  H   LIG d   1      15.496   5.566  -0.657  0.00  0.00     0.043 H 
ATOM     58  H   LIG d   1      15.443   4.194  -1.791  0.00  0.00     0.043 H 
ATOM     59  H   LIG d   1      15.548   5.859  -2.412  0.00  0.00     0.043 H 
ENDBRANCH  28  56
BRANCH   6  60
ATOM     60  C   LIG d   1       8.793   9.985  -0.830  0.00  0.00    -0.060 C 
ATOM     61  H   LIG d   1       8.976   9.133  -0.176  0.00  0.00     0.024 H 
ATOM     62  H   LIG d   1       8.418  10.822  -0.241  0.00  0.00     0.024 H 
ATOM     63  H   LIG d   1       8.055   9.711  -1.584  0.00  0.00     0.024 H 
ENDBRANCH   6  60
BRANCH   6  64
ATOM     64  C   LIG d   1       9.745  11.758  -2.206  0.00  0.00    -0.060 C 
ATOM     65  H   LIG d   1      10.274  11.820  -3.156  0.00  0.00     0.024 H 
ATOM     66  H   LIG d   1       8.672  11.825  -2.383  0.00  0.00     0.024 H 
ATOM     67  H   LIG d   1      10.058  12.580  -1.561  0.00  0.00     0.024 H 
ENDBRANCH   6  64
TORSDOF 5
ENDMDL
MODEL 2
REMARK VINA RESULT:      -7.1      7.273     12.039
REMARK  5 active torsions:
REMARK  status: ('A' for Active; 'I' for Inactive)
REMARK    1  A    between atoms: C_1  and  C_2 
REMARK    2  A    between atoms: C_7  and  C_9 
REMARK    3  A    between atoms: C_7  and  C_10 
REMARK    4  A    between atoms: N_31  and  C_38 
REMARK    5  A    between atoms: N_34  and  C_37 
ROOT
ATOM      1  C   LIG d   1       6.176  -2.933  -5.602  0.00  0.00    -0.010 C 
ATOM      2  C   LIG d   1       5.797  -2.492  -4.063  0.00  0.00    -0.027 C 
ATOM      3  C   LIG d   1       7.100  -1.738  -3.757  0.00  0.00     0.030 C 
ATOM      4  H   LIG d   1       6.981  -1.035  -2.885  0.00  0.00     0.050 H 
ATOM      5  C   LIG d   1       8.203  -2.729  -3.506  0.00  0.00    -0.029 C 
ATOM      6  C   LIG d   1       8.401  -3.753  -4.562  0.00  0.00    -0.033 C 
ATOM      7  C   LIG d   1       7.206  -4.111  -5.466  0.00  0.00    -0.041 C 
ATOM      8  N   LIG d   1       7.355  -0.935  -4.897  0.00  0.00    -0.270 N 
ATOM      9  C   LIG d   1       6.917  -1.768  -6.134  0.00  0.00     0.057 C 
ATOM     10  H   LIG d   1       7.789  -2.086  -6.723  0.00  0.00     0.052 H 
ATOM     11  C   LIG d   1       6.040  -0.759  -6.973  0.00  0.00     0.147 A 
ATOM     12  C   LIG d   1       6.995   0.396  -7.384  0.00  0.00     0.004 C 
ATOM     13  C   LIG d   1       7.766   0.998  -6.351  0.00  0.00     0.043 C 
ATOM     14  C   LIG d   1       7.900   0.283  -5.060  0.00  0.00     0.276 C 
ATOM     15  N   LIG d   1       8.687   0.803  -4.078  0.00  0.00    -0.191 N 
ATOM     16  C   LIG d   1       9.215   2.001  -4.177  0.00  0.00     0.218 A 
ATOM     17  C   LIG d   1       9.860   2.524  -3.062  0.00  0.00     0.056 A 
ATOM     18  C   LIG d   1      10.467   3.807  -3.171  0.00  0.00     0.172 A 
ATOM     19  C   LIG d   1      10.378   4.491  -4.406  0.00  0.00     0.167 A 
ATOM     20  C   LIG d   1       9.635   4.061  -5.552  0.00  0.00    -0.003 A 
ATOM     21  C   LIG d   1       9.039   2.770  -5.350  0.00  0.00     0.050 A 
ATOM     22  C   LIG d   1       8.418   2.244  -6.461  0.00  0.00    -0.037 C 
ATOM     23  O   LIG d   1      11.014   5.694  -4.317  0.00  0.00    -0.453 OA
ATOM     24  C   LIG d   1      11.167   5.944  -2.848  0.00  0.00     0.233 C 
ATOM     25  O   LIG d   1      11.167   4.575  -2.327  0.00  0.00    -0.452 OA
ATOM     26  C   LIG d   1       4.919  -0.179  -6.180  0.00  0.00     0.240 A 
ATOM     27  O   LIG d   1       5.175   0.327  -5.164  0.00  0.00    -0.274 OA
ATOM     28  N   LIG d   1       3.722  -0.277  -6.683  0.00  0.00    -0.228 N 
ATOM     29  C   LIG d   1       3.381  -0.838  -7.922  0.00  0.00     0.317 A 
ATOM     30  O   LIG d   1       2.300  -0.774  -8.312  0.00  0.00    -0.252 OA
ATOM     31  N   LIG d   1       4.312  -1.357  -8.598  0.00  0.00    -0.228 N 
ATOM     32  C   LIG d   1       5.542  -1.431  -8.237  0.00  0.00     0.240 A 
ATOM     33  O   LIG d   1       6.435  -2.011  -8.967  0.00  0.00    -0.274 OA
ATOM     34  H   LIG d   1       4.926  -1.900  -4.106  0.00  0.00     0.029 H 
ATOM     35  H   LIG d   1       5.703  -3.357  -3.462  0.00  0.00     0.029 H 
ATOM     36  H   LIG d   1       9.172  -2.197  -3.373  0.00  0.00     0.029 H 
ATOM     37  H   LIG d   1       8.034  -3.186  -2.551  0.00  0.00     0.029 H 
ATOM     38  H   LIG d   1       6.652  -5.038  -5.018  0.00  0.00     0.028 H 
ATOM     39  H   LIG d   1       7.572  -4.373  -6.438  0.00  0.00     0.028 H 
ATOM     40  H   LIG d   1       7.725   0.023  -8.148  0.00  0.00     0.033 H 
ATOM     41  H   LIG d   1       6.411   1.164  -7.834  0.00  0.00     0.033 H 
ATOM     42  H   LIG d   1      10.029   1.966  -2.142  0.00  0.00     0.072 H 
ATOM     43  H   LIG d   1       9.594   4.579  -6.419  0.00  0.00     0.066 H 
ATOM     44  H   LIG d   1       8.272   2.745  -7.378  0.00  0.00     0.063 H 
ATOM     45  H   LIG d   1      12.057   6.384  -2.640  0.00  0.00     0.117 H 
ATOM     46  H   LIG d   1      10.332   6.469  -2.425  0.00  0.00     0.117 H 
ATOM     47  H   LIG d   1       8.682   0.316  -3.274  0.00  0.00     0.455 HD
ENDROOT
BRANCH   1  48
ATOM     48  C   LIG d   1       4.941  -3.376  -6.330  0.00  0.00    -0.058 C 
ATOM     49  H   LIG d   1       4.310  -2.512  -6.537  0.00  0.00     0.024 H 
ATOM     50  H   LIG d   1       5.223  -3.853  -7.268  0.00  0.00     0.024 H 
ATOM     51  H   LIG d   1       4.390  -4.086  -5.713  0.00  0.00     0.024 H 
ENDBRANCH   1  48
BRANCH  31  52
ATOM     52  C   LIG d   1       3.922  -1.953  -9.899  0.00  0.00     0.012 C 
ATOM     53  H   LIG d   1       4.307  -1.337 -10.711  0.00  0.00     0.043 H 
ATOM     54  H   LIG d   1       4.336  -2.958  -9.977  0.00  0.00     0.043 H 
ATOM     55  H   LIG d   1       2.835  -2.002  -9.964  0.00  0.00     0.043 H 
ENDBRANCH  31  52
BRANCH  28  56
ATOM     56  C   LIG d   1       2.570   0.290  -5.916  0.00  0.00     0.012 C 
ATOM     57  H   LIG d   1       1.692   0.339  -6.561  0.00  0.00     0.043 H 
ATOM     58  H   LIG d   1       2.356  -0.348  -5.058  0.00  0.00     0.043 H 
ATOM     59  H   LIG d   1       2.821   1.292  -5.569  0.00  0.00     0.043 H 
ENDBRANCH  28  56
BRANCH   6  60
ATOM     60  C   LIG d   1       9.591  -3.445  -5.431  0.00  0.00    -0.060 C 
ATOM     61  H   LIG d   1      10.357  -4.205  -5.281  0.00  0.00     0.024 H 
ATOM     62  H   LIG d   1       9.284  -3.439  -6.477  0.00  0.00     0.024 H 
ATOM     63  H   LIG d   1       9.992  -2.467  -5.165  0.00  0.00     0.024 H 
ENDBRANCH   6  60
BRANCH   6  64
ATOM     64  C   LIG d   1       8.793  -5.084  -3.812  0.00  0.00    -0.060 C 
ATOM     65  H   LIG d   1       8.180  -5.905  -4.184  0.00  0.00     0.024 H 
ATOM     66  H   LIG d   1       9.844  -5.306  -3.993  0.00  0.00     0.024 H 
ATOM     67  H   LIG d   1       8.626  -4.961  -2.742  0.00  0.00     0.024 H 
ENDBRANCH   6  64
TORSDOF 5
ENDMDL
MODEL 3
REMARK VINA RESULT:      -6.6     10.308     14.275
REMARK  5 active torsions:
REMARK  status: ('A' for Active; 'I' for Inactive)
REMARK    1  A    between atoms: C_1  and  C_2 
REMARK    2  A    between atoms: C_7  and  C_9 
REMARK    3  A    between atoms: C_7  and  C_10 
REMARK    4  A    between atoms: N_31  and  C_38 
REMARK    5  A    between atoms: N_34  and  C_37 
ROOT
ATOM      1  C   LIG d   1       6.856   0.304  -4.409  0.00  0.00    -0.010 C 
ATOM      2  C   LIG d   1       7.637  -0.768  -3.437  0.00  0.00    -0.027 C 
ATOM      3  C   LIG d   1       6.613  -1.908  -3.555  0.00  0.00     0.030 C 
ATOM      4  H   LIG d   1       7.057  -2.900  -3.260  0.00  0.00     0.050 H 
ATOM      5  C   LIG d   1       5.408  -1.585  -2.713  0.00  0.00    -0.029 C 
ATOM      6  C   LIG d   1       4.783  -0.263  -2.966  0.00  0.00    -0.033 C 
ATOM      7  C   LIG d   1       5.659   0.858  -3.559  0.00  0.00    -0.041 C 
ATOM      8  N   LIG d   1       6.293  -1.995  -4.932  0.00  0.00    -0.270 N 
ATOM      9  C   LIG d   1       6.276  -0.540  -5.478  0.00  0.00     0.057 C 
ATOM     10  H   LIG d   1       5.253  -0.223  -5.723  0.00  0.00     0.052 H 
ATOM     11  C   LIG d   1       7.144  -0.623  -6.793  0.00  0.00     0.147 A 
ATOM     12  C   LIG d   1       6.383  -1.588  -7.746  0.00  0.00     0.004 C 
ATOM     13  C   LIG d   1       5.991  -2.848  -7.213  0.00  0.00     0.043 C 
ATOM     14  C   LIG d   1       5.990  -3.024  -5.742  0.00  0.00     0.276 C 
ATOM     15  N   LIG d   1       5.554  -4.197  -5.203  0.00  0.00    -0.191 N 
ATOM     16  C   LIG d   1       5.277  -5.240  -5.949  0.00  0.00     0.218 A 
ATOM     17  C   LIG d   1       5.005  -6.446  -5.312  0.00  0.00     0.056 A 
ATOM     18  C   LIG d   1       4.668  -7.574  -6.112  0.00  0.00     0.172 A 
ATOM     19  C   LIG d   1       4.632  -7.415  -7.517  0.00  0.00     0.167 A 
ATOM     20  C   LIG d   1       5.008  -6.238  -8.239  0.00  0.00    -0.003 A 
ATOM     21  C   LIG d   1       5.354  -5.157  -7.359  0.00  0.00     0.050 A 
ATOM     22  C   LIG d   1       5.602  -3.959  -7.990  0.00  0.00    -0.037 C 
ATOM     23  O   LIG d   1       4.291  -8.596  -8.108  0.00  0.00    -0.453 OA
ATOM     24  C   LIG d   1       4.509  -9.636  -7.052  0.00  0.00     0.233 C 
ATOM     25  O   LIG d   1       4.337  -8.841  -5.834  0.00  0.00    -0.452 OA
ATOM     26  C   LIG d   1       8.503  -1.184  -6.548  0.00  0.00     0.240 A 
ATOM     27  O   LIG d   1       8.579  -2.209  -6.002  0.00  0.00    -0.274 OA
ATOM     28  N   LIG d   1       9.519  -0.486  -6.965  0.00  0.00    -0.228 N 
ATOM     29  C   LIG d   1       9.466   0.729  -7.665  0.00  0.00     0.317 A 
ATOM     30  O   LIG d   1      10.428   1.205  -8.078  0.00  0.00    -0.252 OA
ATOM     31  N   LIG d   1       8.325   1.233  -7.861  0.00  0.00    -0.228 N 
ATOM     32  C   LIG d   1       7.212   0.737  -7.457  0.00  0.00     0.240 A 
ATOM     33  O   LIG d   1       6.084   1.331  -7.664  0.00  0.00    -0.274 OA
ATOM     34  H   LIG d   1       8.582  -0.958  -3.863  0.00  0.00     0.029 H 
ATOM     35  H   LIG d   1       7.676  -0.387  -2.452  0.00  0.00     0.029 H 
ATOM     36  H   LIG d   1       4.621  -2.358  -2.862  0.00  0.00     0.029 H 
ATOM     37  H   LIG d   1       5.678  -1.695  -1.682  0.00  0.00     0.029 H 
ATOM     38  H   LIG d   1       6.091   1.507  -2.687  0.00  0.00     0.028 H 
ATOM     39  H   LIG d   1       5.048   1.486  -4.175  0.00  0.00     0.028 H 
ATOM     40  H   LIG d   1       5.446  -1.091  -8.109  0.00  0.00     0.033 H 
ATOM     41  H   LIG d   1       7.004  -1.778  -8.589  0.00  0.00     0.033 H 
ATOM     42  H   LIG d   1       4.924  -6.555  -4.232  0.00  0.00     0.072 H 
ATOM     43  H   LIG d   1       4.971  -6.162  -9.247  0.00  0.00     0.066 H 
ATOM     44  H   LIG d   1       5.650  -3.812  -9.034  0.00  0.00     0.063 H 
ATOM     45  H   LIG d   1       3.794 -10.355  -7.090  0.00  0.00     0.117 H 
ATOM     46  H   LIG d   1       5.505 -10.036  -7.059  0.00  0.00     0.117 H 
ATOM     47  H   LIG d   1       5.629  -4.249  -4.267  0.00  0.00     0.455 HD
ENDROOT
BRANCH   1  48
ATOM     48  C   LIG d   1       7.790   1.408  -4.812  0.00  0.00    -0.058 C 
ATOM     49  H   LIG d   1       8.791   1.192  -4.441  0.00  0.00     0.024 H 
ATOM     50  H   LIG d   1       7.814   1.486  -5.899  0.00  0.00     0.024 H 
ATOM     51  H   LIG d   1       7.443   2.351  -4.388  0.00  0.00     0.024 H 
ENDBRANCH   1  48
BRANCH  31  52
ATOM     52  C   LIG d   1       8.298   2.523  -8.593  0.00  0.00     0.012 C 
ATOM     53  H   LIG d   1       7.667   3.232  -8.058  0.00  0.00     0.043 H 
ATOM     54  H   LIG d   1       9.311   2.921  -8.666  0.00  0.00     0.043 H 
ATOM     55  H   LIG d   1       7.898   2.364  -9.594  0.00  0.00     0.043 H 
ENDBRANCH  31  52
BRANCH  28  56
ATOM     56  C   LIG d   1      10.899  -1.013  -6.735  0.00  0.00     0.012 C 
ATOM     57  H   LIG d   1      11.173  -0.871  -5.689  0.00  0.00     0.043 H 
ATOM     58  H   LIG d   1      10.928  -2.076  -6.977  0.00  0.00     0.043 H 
ATOM     59  H   LIG d   1      11.604  -0.476  -7.370  0.00  0.00     0.043 H 
ENDBRANCH  28  56
BRANCH   6  60
ATOM     60  C   LIG d   1       3.526  -0.380  -3.785  0.00  0.00    -0.060 C 
ATOM     61  H   LIG d   1       3.742  -0.915  -4.709  0.00  0.00     0.024 H 
ATOM     62  H   LIG d   1       2.772  -0.924  -3.217  0.00  0.00     0.024 H 
ATOM     63  H   LIG d   1       3.153   0.617  -4.022  0.00  0.00     0.024 H 
ENDBRANCH   6  60
BRANCH   6  64
ATOM     64  C   LIG d   1       4.293   0.264  -1.562  0.00  0.00    -0.060 C 
ATOM     65  H   LIG d   1       4.122   1.339  -1.617  0.00  0.00     0.024 H 
ATOM     66  H   LIG d   1       3.365  -0.238  -1.291  0.00  0.00     0.024 H 
ATOM     67  H   LIG d   1       5.053   0.054  -0.809  0.00  0.00     0.024 H 
ENDBRANCH   6  64
TORSDOF 5
ENDMDL
MODEL 4
REMARK VINA RESULT:      -6.6      9.734     14.986
REMARK  5 active torsions:
REMARK  status: ('A' for Active; 'I' for Inactive)
REMARK    1  A    between atoms: C_1  and  C_2 
REMARK    2  A    between atoms: C_7  and  C_9 
REMARK    3  A    between atoms: C_7  and  C_10 
REMARK    4  A    between atoms: N_31  and  C_38 
REMARK    5  A    between atoms: N_34  and  C_37 
ROOT
ATOM      1  C   LIG d   1       6.856  -1.200  -4.542  0.00  0.00    -0.010 C 
ATOM      2  C   LIG d   1       6.730  -2.803  -4.886  0.00  0.00    -0.027 C 
ATOM      3  C   LIG d   1       5.341  -2.747  -5.539  0.00  0.00     0.030 C 
ATOM      4  H   LIG d   1       5.143  -3.653  -6.179  0.00  0.00     0.050 H 
ATOM      5  C   LIG d   1       4.292  -2.602  -4.470  0.00  0.00    -0.029 C 
ATOM      6  C   LIG d   1       4.494  -1.480  -3.520  0.00  0.00    -0.033 C 
ATOM      7  C   LIG d   1       5.926  -0.956  -3.301  0.00  0.00    -0.041 C 
ATOM      8  N   LIG d   1       5.371  -1.630  -6.410  0.00  0.00    -0.270 N 
ATOM      9  C   LIG d   1       6.217  -0.536  -5.700  0.00  0.00     0.057 C 
ATOM     10  H   LIG d   1       5.585   0.303  -5.379  0.00  0.00     0.052 H 
ATOM     11  C   LIG d   1       7.221  -0.055  -6.818  0.00  0.00     0.147 A 
ATOM     12  C   LIG d   1       6.344   0.558  -7.946  0.00  0.00     0.004 C 
ATOM     13  C   LIG d   1       5.259  -0.230  -8.422  0.00  0.00     0.043 C 
ATOM     14  C   LIG d   1       4.807  -1.379  -7.604  0.00  0.00     0.276 C 
ATOM     15  N   LIG d   1       3.728  -2.109  -8.002  0.00  0.00    -0.191 N 
ATOM     16  C   LIG d   1       3.161  -1.924  -9.172  0.00  0.00     0.218 A 
ATOM     17  C   LIG d   1       2.178  -2.822  -9.571  0.00  0.00     0.056 A 
ATOM     18  C   LIG d   1       1.533  -2.608 -10.822  0.00  0.00     0.172 A 
ATOM     19  C   LIG d   1       1.929  -1.496 -11.602  0.00  0.00     0.167 A 
ATOM     20  C   LIG d   1       3.007  -0.602 -11.303  0.00  0.00    -0.003 A 
ATOM     21  C   LIG d   1       3.615  -0.901 -10.037  0.00  0.00     0.050 A 
ATOM     22  C   LIG d   1       4.574   0.001  -9.633  0.00  0.00    -0.037 C 
ATOM     23  O   LIG d   1       1.204  -1.457 -12.756  0.00  0.00    -0.453 OA
ATOM     24  C   LIG d   1       0.606  -2.825 -12.885  0.00  0.00     0.233 C 
ATOM     25  O   LIG d   1       0.559  -3.245 -11.483  0.00  0.00    -0.452 OA
ATOM     26  C   LIG d   1       8.011  -1.178  -7.399  0.00  0.00     0.240 A 
ATOM     27  O   LIG d   1       7.429  -2.097  -7.811  0.00  0.00    -0.274 OA
ATOM     28  N   LIG d   1       9.307  -1.052  -7.409  0.00  0.00    -0.228 N 
ATOM     29  C   LIG d   1      10.040   0.058  -6.964  0.00  0.00     0.317 A 
ATOM     30  O   LIG d   1      11.180   0.103  -7.119  0.00  0.00    -0.252 OA
ATOM     31  N   LIG d   1       9.392   1.009  -6.446  0.00  0.00    -0.228 N 
ATOM     32  C   LIG d   1       8.120   1.037  -6.274  0.00  0.00     0.240 A 
ATOM     33  O   LIG d   1       7.529   2.032  -5.701  0.00  0.00    -0.274 OA
ATOM     34  H   LIG d   1       7.527  -3.056  -5.529  0.00  0.00     0.029 H 
ATOM     35  H   LIG d   1       6.710  -3.356  -3.985  0.00  0.00     0.029 H 
ATOM     36  H   LIG d   1       3.290  -2.468  -4.935  0.00  0.00     0.029 H 
ATOM     37  H   LIG d   1       4.207  -3.536  -3.953  0.00  0.00     0.029 H 
ATOM     38  H   LIG d   1       6.394  -1.497  -2.375  0.00  0.00     0.028 H 
ATOM     39  H   LIG d   1       5.884   0.094  -3.093  0.00  0.00     0.028 H 
ATOM     40  H   LIG d   1       5.902   1.525  -7.590  0.00  0.00     0.033 H 
ATOM     41  H   LIG d   1       6.973   0.769  -8.777  0.00  0.00     0.033 H 
ATOM     42  H   LIG d   1       1.789  -3.616  -8.936  0.00  0.00     0.072 H 
ATOM     43  H   LIG d   1       3.262   0.183 -11.887  0.00  0.00     0.066 H 
ATOM     44  H   LIG d   1       4.945   0.803 -10.210  0.00  0.00     0.063 H 
ATOM     45  H   LIG d   1      -0.337  -2.781 -13.256  0.00  0.00     0.117 H 
ATOM     46  H   LIG d   1       1.237  -3.507 -13.423  0.00  0.00     0.117 H 
ATOM     47  H   LIG d   1       3.533  -2.849  -7.457  0.00  0.00     0.455 HD
ENDROOT
BRANCH   1  48
ATOM     48  C   LIG d   1       8.281  -0.851  -4.227  0.00  0.00    -0.058 C 
ATOM     49  H   LIG d   1       8.948  -1.532  -4.755  0.00  0.00     0.024 H 
ATOM     50  H   LIG d   1       8.483   0.172  -4.543  0.00  0.00     0.024 H 
ATOM     51  H   LIG d   1       8.449  -0.940  -3.154  0.00  0.00     0.024 H 
ENDBRANCH   1  48
BRANCH  31  52
ATOM     52  C   LIG d   1      10.193   2.165  -5.974  0.00  0.00     0.012 C 
ATOM     53  H   LIG d   1      11.247   1.891  -5.950  0.00  0.00     0.043 H 
ATOM     54  H   LIG d   1      10.051   3.007  -6.652  0.00  0.00     0.043 H 
ATOM     55  H   LIG d   1       9.869   2.447  -4.972  0.00  0.00     0.043 H 
ENDBRANCH  31  52
BRANCH  28  56
ATOM     56  C   LIG d   1      10.135  -2.158  -7.980  0.00  0.00     0.012 C 
ATOM     57  H   LIG d   1      10.522  -2.778  -7.171  0.00  0.00     0.043 H 
ATOM     58  H   LIG d   1       9.520  -2.768  -8.643  0.00  0.00     0.043 H 
ATOM     59  H   LIG d   1      10.967  -1.736  -8.544  0.00  0.00     0.043 H 
ENDBRANCH  28  56
BRANCH   6  60
ATOM     60  C   LIG d   1       3.593  -0.313  -3.825  0.00  0.00    -0.060 C 
ATOM     61  H   LIG d   1       3.274   0.152  -2.893  0.00  0.00     0.024 H 
ATOM     62  H   LIG d   1       4.134   0.415  -4.429  0.00  0.00     0.024 H 
ATOM     63  H   LIG d   1       2.719  -0.663  -4.374  0.00  0.00     0.024 H 
ENDBRANCH   6  60
BRANCH   6  64
ATOM     64  C   LIG d   1       4.002  -2.003  -2.115  0.00  0.00    -0.060 C 
ATOM     65  H   LIG d   1       3.987  -1.177  -1.405  0.00  0.00     0.024 H 
ATOM     66  H   LIG d   1       2.999  -2.416  -2.213  0.00  0.00     0.024 H 
ATOM     67  H   LIG d   1       4.681  -2.778  -1.758  0.00  0.00     0.024 H 
ENDBRANCH   6  64
TORSDOF 5
ENDMDL
MODEL 5
REMARK VINA RESULT:      -6.5     11.646     13.949
REMARK  5 active torsions:
REMARK  status: ('A' for Active; 'I' for Inactive)
REMARK    1  A    between atoms: C_1  and  C_2 
REMARK    2  A    between atoms: C_7  and  C_9 
REMARK    3  A    between atoms: C_7  and  C_10 
REMARK    4  A    between atoms: N_31  and  C_38 
REMARK    5  A    between atoms: N_34  and  C_37 
ROOT
ATOM      1  C   LIG d   1       5.353  -0.837  -5.736  0.00  0.00    -0.010 C 
ATOM      2  C   LIG d   1       6.760  -0.153  -5.229  0.00  0.00    -0.027 C 
ATOM      3  C   LIG d   1       7.142  -1.240  -4.212  0.00  0.00     0.030 C 
ATOM      4  H   LIG d   1       8.238  -1.204  -3.954  0.00  0.00     0.050 H 
ATOM      5  C   LIG d   1       6.292  -1.090  -2.979  0.00  0.00    -0.029 C 
ATOM      6  C   LIG d   1       4.826  -1.050  -3.210  0.00  0.00    -0.033 C 
ATOM      7  C   LIG d   1       4.315  -0.581  -4.586  0.00  0.00    -0.041 C 
ATOM      8  N   LIG d   1       6.916  -2.475  -4.868  0.00  0.00    -0.270 N 
ATOM      9  C   LIG d   1       5.644  -2.288  -5.743  0.00  0.00     0.057 C 
ATOM     10  H   LIG d   1       4.801  -2.865  -5.338  0.00  0.00     0.052 H 
ATOM     11  C   LIG d   1       6.068  -2.867  -7.148  0.00  0.00     0.147 A 
ATOM     12  C   LIG d   1       6.372  -4.373  -6.915  0.00  0.00     0.004 C 
ATOM     13  C   LIG d   1       7.257  -4.698  -5.849  0.00  0.00     0.043 C 
ATOM     14  C   LIG d   1       7.536  -3.667  -4.823  0.00  0.00     0.276 C 
ATOM     15  N   LIG d   1       8.325  -3.972  -3.755  0.00  0.00    -0.191 N 
ATOM     16  C   LIG d   1       8.976  -5.109  -3.680  0.00  0.00     0.218 A 
ATOM     17  C   LIG d   1       9.890  -5.271  -2.645  0.00  0.00     0.056 A 
ATOM     18  C   LIG d   1      10.575  -6.514  -2.534  0.00  0.00     0.172 A 
ATOM     19  C   LIG d   1      10.297  -7.523  -3.486  0.00  0.00     0.167 A 
ATOM     20  C   LIG d   1       9.456  -7.383  -4.636  0.00  0.00    -0.003 A 
ATOM     21  C   LIG d   1       8.822  -6.095  -4.683  0.00  0.00     0.050 A 
ATOM     22  C   LIG d   1       7.901  -5.943  -5.695  0.00  0.00    -0.037 C 
ATOM     23  O   LIG d   1      11.043  -8.632  -3.218  0.00  0.00    -0.453 OA
ATOM     24  C   LIG d   1      12.124  -8.159  -2.294  0.00  0.00     0.233 C 
ATOM     25  O   LIG d   1      11.477  -7.002  -1.673  0.00  0.00    -0.452 OA
ATOM     26  C   LIG d   1       7.298  -2.220  -7.686  0.00  0.00     0.240 A 
ATOM     27  O   LIG d   1       8.243  -2.197  -7.008  0.00  0.00    -0.274 OA
ATOM     28  N   LIG d   1       7.232  -1.723  -8.887  0.00  0.00    -0.228 N 
ATOM     29  C   LIG d   1       6.127  -1.770  -9.751  0.00  0.00     0.317 A 
ATOM     30  O   LIG d   1       6.217  -1.390 -10.833  0.00  0.00    -0.252 OA
ATOM     31  N   LIG d   1       5.068  -2.292  -9.305  0.00  0.00    -0.228 N 
ATOM     32  C   LIG d   1       4.911  -2.765  -8.121  0.00  0.00     0.240 A 
ATOM     33  O   LIG d   1       3.783  -3.251  -7.724  0.00  0.00    -0.274 OA
ATOM     34  H   LIG d   1       7.394  -0.068  -6.066  0.00  0.00     0.029 H 
ATOM     35  H   LIG d   1       6.552   0.766  -4.749  0.00  0.00     0.029 H 
ATOM     36  H   LIG d   1       6.494  -1.927  -2.273  0.00  0.00     0.029 H 
ATOM     37  H   LIG d   1       6.623  -0.223  -2.445  0.00  0.00     0.029 H 
ATOM     38  H   LIG d   1       4.089   0.565  -4.539  0.00  0.00     0.028 H 
ATOM     39  H   LIG d   1       3.404  -1.096  -4.812  0.00  0.00     0.028 H 
ATOM     40  H   LIG d   1       5.415  -4.920  -6.711  0.00  0.00     0.033 H 
ATOM     41  H   LIG d   1       6.793  -4.768  -7.809  0.00  0.00     0.033 H 
ATOM     42  H   LIG d   1      10.035  -4.547  -1.845  0.00  0.00     0.072 H 
ATOM     43  H   LIG d   1       9.281  -8.128  -5.297  0.00  0.00     0.066 H 
ATOM     44  H   LIG d   1       7.711  -6.642  -6.463  0.00  0.00     0.063 H 
ATOM     45  H   LIG d   1      12.330  -8.853  -1.583  0.00  0.00     0.117 H 
ATOM     46  H   LIG d   1      12.999  -7.821  -2.815  0.00  0.00     0.117 H 
ATOM     47  H   LIG d   1       8.493  -3.253  -3.174  0.00  0.00     0.455 HD
ENDROOT
BRANCH   1  48
ATOM     48  C   LIG d   1       4.905  -0.202  -7.020  0.00  0.00    -0.058 C 
ATOM     49  H   LIG d   1       3.857  -0.442  -7.199  0.00  0.00     0.024 H 
ATOM     50  H   LIG d   1       5.023   0.879  -6.951  0.00  0.00     0.024 H 
ATOM     51  H   LIG d   1       5.509  -0.582  -7.844  0.00  0.00     0.024 H 
ENDBRANCH   1  48
BRANCH  31  52
ATOM     52  C   LIG d   1       3.912  -2.319 -10.234  0.00  0.00     0.012 C 
ATOM     53  H   LIG d   1       3.472  -3.316 -10.238  0.00  0.00     0.043 H 
ATOM     54  H   LIG d   1       3.166  -1.594  -9.908  0.00  0.00     0.043 H 
ATOM     55  H   LIG d   1       4.248  -2.068 -11.240  0.00  0.00     0.043 H 
ENDBRANCH  31  52
BRANCH  28  56
ATOM     56  C   LIG d   1       8.444  -1.061  -9.462  0.00  0.00     0.012 C 
ATOM     57  H   LIG d   1       8.423   0.004  -9.228  0.00  0.00     0.043 H 
ATOM     58  H   LIG d   1       9.341  -1.510  -9.033  0.00  0.00     0.043 H 
ATOM     59  H   LIG d   1       8.453  -1.195 -10.544  0.00  0.00     0.043 H 
ENDBRANCH  28  56
BRANCH   6  60
ATOM     60  C   LIG d   1       4.164  -2.359  -2.868  0.00  0.00    -0.060 C 
ATOM     61  H   LIG d   1       4.234  -3.035  -3.720  0.00  0.00     0.024 H 
ATOM     62  H   LIG d   1       4.664  -2.804  -2.008  0.00  0.00     0.024 H 
ATOM     63  H   LIG d   1       3.116  -2.183  -2.629  0.00  0.00     0.024 H 
ENDBRANCH   6  60
BRANCH   6  64
ATOM     64  C   LIG d   1       4.246  -0.028  -2.158  0.00  0.00    -0.060 C 
ATOM     65  H   LIG d   1       3.583   0.675  -2.662  0.00  0.00     0.024 H 
ATOM     66  H   LIG d   1       3.689  -0.570  -1.395  0.00  0.00     0.024 H 
ATOM     67  H   LIG d   1       5.067   0.518  -1.691  0.00  0.00     0.024 H 
ENDBRANCH   6  64
TORSDOF 5
ENDMDL
MODEL 6
REMARK VINA RESULT:      -6.4      3.658      7.662
REMARK  5 active torsions:
REMARK  status: ('A' for Active; 'I' for Inactive)
REMARK    1  A    between atoms: C_1  and  C_2 
REMARK    2  A    between atoms: C_7  and  C_9 
REMARK    3  A    between atoms: C_7  and  C_10 
REMARK    4  A    between atoms: N_31  and  C_38 
REMARK    5  A    between atoms: N_34  and  C_37 
ROOT
ATOM      1  C   LIG d   1      11.558   1.076  -5.846  0.00  0.00    -0.010 C 
ATOM      2  C   LIG d   1      11.843   0.443  -4.354  0.00  0.00    -0.027 C 
ATOM      3  C   LIG d   1      12.446   1.709  -3.725  0.00  0.00     0.030 C 
ATOM      4  H   LIG d   1      12.422   1.668  -2.600  0.00  0.00     0.050 H 
ATOM      5  C   LIG d   1      13.851   1.895  -4.229  0.00  0.00    -0.029 C 
ATOM      6  C   LIG d   1      14.011   1.890  -5.705  0.00  0.00    -0.033 C 
ATOM      7  C   LIG d   1      12.958   1.151  -6.552  0.00  0.00    -0.041 C 
ATOM      8  N   LIG d   1      11.595   2.773  -4.114  0.00  0.00    -0.270 N 
ATOM      9  C   LIG d   1      11.136   2.467  -5.568  0.00  0.00     0.057 C 
ATOM     10  H   LIG d   1      11.591   3.170  -6.280  0.00  0.00     0.052 H 
ATOM     11  C   LIG d   1       9.574   2.683  -5.521  0.00  0.00     0.147 A 
ATOM     12  C   LIG d   1       9.361   4.183  -5.170  0.00  0.00     0.004 C 
ATOM     13  C   LIG d   1      10.064   4.689  -4.041  0.00  0.00     0.043 C 
ATOM     14  C   LIG d   1      11.201   3.905  -3.506  0.00  0.00     0.276 C 
ATOM     15  N   LIG d   1      11.934   4.399  -2.469  0.00  0.00    -0.191 N 
ATOM     16  C   LIG d   1      11.574   5.483  -1.822  0.00  0.00     0.218 A 
ATOM     17  C   LIG d   1      12.278   5.822  -0.673  0.00  0.00     0.056 A 
ATOM     18  C   LIG d   1      11.917   7.014   0.015  0.00  0.00     0.172 A 
ATOM     19  C   LIG d   1      10.855   7.794  -0.500  0.00  0.00     0.167 A 
ATOM     20  C   LIG d   1      10.020   7.445  -1.609  0.00  0.00    -0.003 A 
ATOM     21  C   LIG d   1      10.438   6.220  -2.231  0.00  0.00     0.050 A 
ATOM     22  C   LIG d   1       9.754   5.896  -3.381  0.00  0.00    -0.037 C 
ATOM     23  O   LIG d   1      10.659   8.890   0.288  0.00  0.00    -0.453 OA
ATOM     24  C   LIG d   1      11.367   8.577   1.571  0.00  0.00     0.233 C 
ATOM     25  O   LIG d   1      12.385   7.632   1.107  0.00  0.00    -0.452 OA
ATOM     26  C   LIG d   1       8.913   1.859  -4.470  0.00  0.00     0.240 A 
ATOM     27  O   LIG d   1       9.319   1.936  -3.382  0.00  0.00    -0.274 OA
ATOM     28  N   LIG d   1       7.919   1.105  -4.842  0.00  0.00    -0.228 N 
ATOM     29  C   LIG d   1       7.374   1.020  -6.132  0.00  0.00     0.317 A 
ATOM     30  O   LIG d   1       6.425   0.398  -6.322  0.00  0.00    -0.252 OA
ATOM     31  N   LIG d   1       7.935   1.691  -7.042  0.00  0.00    -0.228 N 
ATOM     32  C   LIG d   1       8.974   2.430  -6.889  0.00  0.00     0.240 A 
ATOM     33  O   LIG d   1       9.515   3.060  -7.878  0.00  0.00    -0.274 OA
ATOM     34  H   LIG d   1      10.918   0.132  -3.956  0.00  0.00     0.029 H 
ATOM     35  H   LIG d   1      12.562  -0.328  -4.431  0.00  0.00     0.029 H 
ATOM     36  H   LIG d   1      14.267   2.857  -3.853  0.00  0.00     0.029 H 
ATOM     37  H   LIG d   1      14.475   1.155  -3.770  0.00  0.00     0.029 H 
ATOM     38  H   LIG d   1      13.329   0.061  -6.756  0.00  0.00     0.028 H 
ATOM     39  H   LIG d   1      12.853   1.654  -7.492  0.00  0.00     0.028 H 
ATOM     40  H   LIG d   1       9.664   4.817  -6.043  0.00  0.00     0.033 H 
ATOM     41  H   LIG d   1       8.323   4.337  -4.994  0.00  0.00     0.033 H 
ATOM     42  H   LIG d   1      13.164   5.292  -0.326  0.00  0.00     0.072 H 
ATOM     43  H   LIG d   1       9.267   8.028  -1.949  0.00  0.00     0.066 H 
ATOM     44  H   LIG d   1       8.916   6.412  -3.763  0.00  0.00     0.063 H 
ATOM     45  H   LIG d   1      11.820   9.401   1.952  0.00  0.00     0.117 H 
ATOM     46  H   LIG d   1      10.739   8.077   2.283  0.00  0.00     0.117 H 
ATOM     47  H   LIG d   1      12.607   3.822  -2.156  0.00  0.00     0.455 HD
ENDROOT
BRANCH   1  48
ATOM     48  C   LIG d   1      10.614   0.192  -6.608  0.00  0.00    -0.058 C 
ATOM     49  H   LIG d   1      11.174  -0.403  -7.329  0.00  0.00     0.024 H 
ATOM     50  H   LIG d   1      10.096  -0.470  -5.914  0.00  0.00     0.024 H 
ATOM     51  H   LIG d   1       9.885   0.807  -7.135  0.00  0.00     0.024 H 
ENDBRANCH   1  48
BRANCH  31  52
ATOM     52  C   LIG d   1       7.346   1.574  -8.398  0.00  0.00     0.012 C 
ATOM     53  H   LIG d   1       8.143   1.538  -9.139  0.00  0.00     0.043 H 
ATOM     54  H   LIG d   1       6.751   0.662  -8.458  0.00  0.00     0.043 H 
ATOM     55  H   LIG d   1       6.708   2.437  -8.593  0.00  0.00     0.043 H 
ENDBRANCH  31  52
BRANCH  28  56
ATOM     56  C   LIG d   1       7.232   0.260  -3.817  0.00  0.00     0.012 C 
ATOM     57  H   LIG d   1       6.152   0.344  -3.941  0.00  0.00     0.043 H 
ATOM     58  H   LIG d   1       7.533  -0.780  -3.943  0.00  0.00     0.043 H 
ATOM     59  H   LIG d   1       7.510   0.600  -2.820  0.00  0.00     0.043 H 
ENDBRANCH  28  56
BRANCH   6  60
ATOM     60  C   LIG d   1      14.189   3.279  -6.258  0.00  0.00    -0.060 C 
ATOM     61  H   LIG d   1      15.056   3.747  -5.794  0.00  0.00     0.024 H 
ATOM     62  H   LIG d   1      14.340   3.223  -7.337  0.00  0.00     0.024 H 
ATOM     63  H   LIG d   1      13.299   3.871  -6.046  0.00  0.00     0.024 H 
ENDBRANCH   6  60
BRANCH   6  64
ATOM     64  C   LIG d   1      15.385   1.171  -5.993  0.00  0.00    -0.060 C 
ATOM     65  H   LIG d   1      15.794   1.532  -6.936  0.00  0.00     0.024 H 
ATOM     66  H   LIG d   1      16.085   1.390  -5.187  0.00  0.00     0.024 H 
ATOM     67  H   LIG d   1      15.226   0.094  -6.054  0.00  0.00     0.024 H 
ENDBRANCH   6  64
TORSDOF 5
ENDMDL
MODEL 7
REMARK VINA RESULT:      -6.4      4.779      9.727
REMARK  5 active torsions:
REMARK  status: ('A' for Active; 'I' for Inactive)
REMARK    1  A    between atoms: C_1  and  C_2 
REMARK    2  A    between atoms: C_7  and  C_9 
REMARK    3  A    between atoms: C_7  and  C_10 
REMARK    4  A    between atoms: N_31  and  C_38 
REMARK    5  A    between atoms: N_34  and  C_37 
ROOT
ATOM      1  C   LIG d   1      11.132   9.866  -2.132  0.00  0.00    -0.010 C 
ATOM      2  C   LIG d   1      12.561   9.156  -2.529  0.00  0.00    -0.027 C 
ATOM      3  C   LIG d   1      11.971   7.929  -3.242  0.00  0.00     0.030 C 
ATOM      4  H   LIG d   1      12.725   7.435  -3.916  0.00  0.00     0.050 H 
ATOM      5  C   LIG d   1      11.447   6.961  -2.216  0.00  0.00    -0.029 C 
ATOM      6  C   LIG d   1      10.498   7.526  -1.225  0.00  0.00    -0.033 C 
ATOM      7  C   LIG d   1      10.564   9.036  -0.927  0.00  0.00    -0.041 C 
ATOM      8  N   LIG d   1      10.941   8.430  -4.076  0.00  0.00    -0.270 N 
ATOM      9  C   LIG d   1      10.262   9.591  -3.297  0.00  0.00     0.057 C 
ATOM     10  H   LIG d   1       9.247   9.310  -2.979  0.00  0.00     0.052 H 
ATOM     11  C   LIG d   1      10.190  10.760  -4.354  0.00  0.00     0.147 A 
ATOM     12  C   LIG d   1       9.275  10.243  -5.500  0.00  0.00     0.004 C 
ATOM     13  C   LIG d   1       9.583   8.967  -6.048  0.00  0.00     0.043 C 
ATOM     14  C   LIG d   1      10.480   8.067  -5.286  0.00  0.00     0.276 C 
ATOM     15  N   LIG d   1      10.737   6.814  -5.753  0.00  0.00    -0.191 N 
ATOM     16  C   LIG d   1      10.337   6.423  -6.941  0.00  0.00     0.218 A 
ATOM     17  C   LIG d   1      10.785   5.194  -7.410  0.00  0.00     0.056 A 
ATOM     18  C   LIG d   1      10.328   4.747  -8.682  0.00  0.00     0.172 A 
ATOM     19  C   LIG d   1       9.444   5.577  -9.409  0.00  0.00     0.167 A 
ATOM     20  C   LIG d   1       9.034   6.897  -9.036  0.00  0.00    -0.003 A 
ATOM     21  C   LIG d   1       9.556   7.278  -7.754  0.00  0.00     0.050 A 
ATOM     22  C   LIG d   1       9.094   8.486  -7.281  0.00  0.00    -0.037 C 
ATOM     23  O   LIG d   1       9.118   4.983 -10.593  0.00  0.00    -0.453 OA
ATOM     24  C   LIG d   1      10.151   3.916 -10.789  0.00  0.00     0.233 C 
ATOM     25  O   LIG d   1      10.537   3.639  -9.404  0.00  0.00    -0.452 OA
ATOM     26  C   LIG d   1      11.523  11.091  -4.933  0.00  0.00     0.240 A 
ATOM     27  O   LIG d   1      12.145  10.224  -5.398  0.00  0.00    -0.274 OA
ATOM     28  N   LIG d   1      11.902  12.335  -4.882  0.00  0.00    -0.228 N 
ATOM     29  C   LIG d   1      11.162  13.412  -4.371  0.00  0.00     0.317 A 
ATOM     30  O   LIG d   1      11.555  14.489  -4.474  0.00  0.00    -0.252 OA
ATOM     31  N   LIG d   1      10.041  13.149  -3.854  0.00  0.00    -0.228 N 
ATOM     32  C   LIG d   1       9.530  11.977  -3.738  0.00  0.00     0.240 A 
ATOM     33  O   LIG d   1       8.391  11.782  -3.162  0.00  0.00    -0.274 OA
ATOM     34  H   LIG d   1      13.093   9.828  -3.143  0.00  0.00     0.029 H 
ATOM     35  H   LIG d   1      13.074   8.879  -1.647  0.00  0.00     0.029 H 
ATOM     36  H   LIG d   1      10.934   6.111  -2.720  0.00  0.00     0.029 H 
ATOM     37  H   LIG d   1      12.283   6.499  -1.731  0.00  0.00     0.029 H 
ATOM     38  H   LIG d   1      11.253   9.212   0.003  0.00  0.00     0.028 H 
ATOM     39  H   LIG d   1       9.580   9.386  -0.689  0.00  0.00     0.028 H 
ATOM     40  H   LIG d   1       8.217  10.186  -5.136  0.00  0.00     0.033 H 
ATOM     41  H   LIG d   1       9.312  10.948  -6.297  0.00  0.00     0.033 H 
ATOM     42  H   LIG d   1      11.377   4.499  -6.818  0.00  0.00     0.072 H 
ATOM     43  H   LIG d   1       8.400   7.463  -9.584  0.00  0.00     0.066 H 
ATOM     44  H   LIG d   1       8.488   9.165  -7.816  0.00  0.00     0.063 H 
ATOM     45  H   LIG d   1       9.746   3.082 -11.201  0.00  0.00     0.117 H 
ATOM     46  H   LIG d   1      11.017   4.267 -11.319  0.00  0.00     0.117 H 
ATOM     47  H   LIG d   1      11.352   6.323  -5.240  0.00  0.00     0.455 HD
ENDROOT
BRANCH   1  48
ATOM     48  C   LIG d   1      11.359  11.298  -1.744  0.00  0.00    -0.058 C 
ATOM     49  H   LIG d   1      10.478  11.679  -1.227  0.00  0.00     0.024 H 
ATOM     50  H   LIG d   1      12.223  11.363  -1.084  0.00  0.00     0.024 H 
ATOM     51  H   LIG d   1      11.539  11.893  -2.639  0.00  0.00     0.024 H 
ENDBRANCH   1  48
BRANCH  31  52
ATOM     52  C   LIG d   1       9.285  14.305  -3.312  0.00  0.00     0.012 C 
ATOM     53  H   LIG d   1       9.607  15.217  -3.812  0.00  0.00     0.043 H 
ATOM     54  H   LIG d   1       8.219  14.154  -3.483  0.00  0.00     0.043 H 
ATOM     55  H   LIG d   1       9.473  14.392  -2.242  0.00  0.00     0.043 H 
ENDBRANCH  31  52
BRANCH  28  56
ATOM     56  C   LIG d   1      13.235  12.707  -5.449  0.00  0.00     0.012 C 
ATOM     57  H   LIG d   1      13.961  12.799  -4.640  0.00  0.00     0.043 H 
ATOM     58  H   LIG d   1      13.562  11.934  -6.145  0.00  0.00     0.043 H 
ATOM     59  H   LIG d   1      13.154  13.658  -5.974  0.00  0.00     0.043 H 
ENDBRANCH  28  56
BRANCH   6  60
ATOM     60  C   LIG d   1       9.071   7.155  -1.534  0.00  0.00    -0.060 C 
ATOM     61  H   LIG d   1       8.501   7.101  -0.607  0.00  0.00     0.024 H 
ATOM     62  H   LIG d   1       8.634   7.911  -2.186  0.00  0.00     0.024 H 
ATOM     63  H   LIG d   1       9.048   6.186  -2.032  0.00  0.00     0.024 H 
ENDBRANCH   6  60
BRANCH   6  64
ATOM     64  C   LIG d   1      10.808   6.798   0.141  0.00  0.00    -0.060 C 
ATOM     65  H   LIG d   1      11.573   7.354   0.682  0.00  0.00     0.024 H 
ATOM     66  H   LIG d   1       9.900   6.751   0.741  0.00  0.00     0.024 H 
ATOM     67  H   LIG d   1      11.165   5.788  -0.059  0.00  0.00     0.024 H 
ENDBRANCH   6  64
TORSDOF 5
ENDMDL
MODEL 8
REMARK VINA RESULT:      -6.4      7.706     10.291
REMARK  5 active torsions:
REMARK  status: ('A' for Active; 'I' for Inactive)
REMARK    1  A    between atoms: C_1  and  C_2 
REMARK    2  A    between atoms: C_7  and  C_9 
REMARK    3  A    between atoms: C_7  and  C_10 
REMARK    4  A    between atoms: N_31  and  C_38 
REMARK    5  A    between atoms: N_34  and  C_37 
ROOT
ATOM      1  C   LIG d   1      12.366   2.233  -6.687  0.00  0.00    -0.010 C 
ATOM      2  C   LIG d   1      11.716   1.105  -7.693  0.00  0.00    -0.027 C 
ATOM      3  C   LIG d   1      11.028   0.261  -6.609  0.00  0.00     0.030 C 
ATOM      4  H   LIG d   1      10.219  -0.393  -7.040  0.00  0.00     0.050 H 
ATOM      5  C   LIG d   1      12.060  -0.562  -5.887  0.00  0.00    -0.029 C 
ATOM      6  C   LIG d   1      13.215   0.192  -5.339  0.00  0.00    -0.033 C 
ATOM      7  C   LIG d   1      13.590   1.534  -5.997  0.00  0.00    -0.041 C 
ATOM      8  N   LIG d   1      10.389   1.188  -5.748  0.00  0.00    -0.270 N 
ATOM      9  C   LIG d   1      11.331   2.421  -5.646  0.00  0.00     0.057 C 
ATOM     10  H   LIG d   1      11.780   2.491  -4.646  0.00  0.00     0.052 H 
ATOM     11  C   LIG d   1      10.369   3.648  -5.891  0.00  0.00     0.147 A 
ATOM     12  C   LIG d   1       9.344   3.626  -4.722  0.00  0.00     0.004 C 
ATOM     13  C   LIG d   1       8.680   2.394  -4.466  0.00  0.00     0.043 C 
ATOM     14  C   LIG d   1       9.243   1.153  -5.048  0.00  0.00     0.276 C 
ATOM     15  N   LIG d   1       8.667  -0.048  -4.763  0.00  0.00    -0.191 N 
ATOM     16  C   LIG d   1       7.532  -0.133  -4.109  0.00  0.00     0.218 A 
ATOM     17  C   LIG d   1       6.927  -1.381  -4.010  0.00  0.00     0.056 A 
ATOM     18  C   LIG d   1       5.714  -1.489  -3.274  0.00  0.00     0.172 A 
ATOM     19  C   LIG d   1       5.179  -0.321  -2.683  0.00  0.00     0.167 A 
ATOM     20  C   LIG d   1       5.688   1.008  -2.840  0.00  0.00    -0.003 A 
ATOM     21  C   LIG d   1       6.899   1.030  -3.613  0.00  0.00     0.050 A 
ATOM     22  C   LIG d   1       7.508   2.262  -3.693  0.00  0.00    -0.037 C 
ATOM     23  O   LIG d   1       4.024  -0.621  -2.023  0.00  0.00    -0.453 OA
ATOM     24  C   LIG d   1       3.611  -1.960  -2.555  0.00  0.00     0.233 C 
ATOM     25  O   LIG d   1       4.903  -2.510  -2.969  0.00  0.00    -0.452 OA
ATOM     26  C   LIG d   1       9.617   3.539  -7.173  0.00  0.00     0.240 A 
ATOM     27  O   LIG d   1       9.012   2.564  -7.369  0.00  0.00    -0.274 OA
ATOM     28  N   LIG d   1       9.686   4.549  -7.991  0.00  0.00    -0.228 N 
ATOM     29  C   LIG d   1      10.366   5.756  -7.771  0.00  0.00     0.317 A 
ATOM     30  O   LIG d   1      10.270   6.624  -8.521  0.00  0.00    -0.252 OA
ATOM     31  N   LIG d   1      11.029   5.859  -6.701  0.00  0.00    -0.228 N 
ATOM     32  C   LIG d   1      11.149   4.944  -5.809  0.00  0.00     0.240 A 
ATOM     33  O   LIG d   1      11.877   5.109  -4.755  0.00  0.00    -0.274 OA
ATOM     34  H   LIG d   1      11.071   1.605  -8.360  0.00  0.00     0.029 H 
ATOM     35  H   LIG d   1      12.493   0.565  -8.165  0.00  0.00     0.029 H 
ATOM     36  H   LIG d   1      11.588  -1.108  -5.040  0.00  0.00     0.029 H 
ATOM     37  H   LIG d   1      12.385  -1.345  -6.542  0.00  0.00     0.029 H 
ATOM     38  H   LIG d   1      14.414   1.346  -6.806  0.00  0.00     0.028 H 
ATOM     39  H   LIG d   1      13.994   2.186  -5.249  0.00  0.00     0.028 H 
ATOM     40  H   LIG d   1       9.859   3.913  -3.769  0.00  0.00     0.033 H 
ATOM     41  H   LIG d   1       8.595   4.355  -4.924  0.00  0.00     0.033 H 
ATOM     42  H   LIG d   1       7.381  -2.304  -4.367  0.00  0.00     0.072 H 
ATOM     43  H   LIG d   1       5.277   1.821  -2.402  0.00  0.00     0.066 H 
ATOM     44  H   LIG d   1       7.111   3.168  -3.324  0.00  0.00     0.063 H 
ATOM     45  H   LIG d   1       3.215  -2.541  -1.823  0.00  0.00     0.117 H 
ATOM     46  H   LIG d   1       2.979  -1.888  -3.420  0.00  0.00     0.117 H 
ATOM     47  H   LIG d   1       9.052  -0.782  -5.207  0.00  0.00     0.455 HD
ENDROOT
BRANCH   1  48
ATOM     48  C   LIG d   1      12.801   3.435  -7.474  0.00  0.00    -0.058 C 
ATOM     49  H   LIG d   1      13.498   3.127  -8.253  0.00  0.00     0.024 H 
ATOM     50  H   LIG d   1      11.931   3.905  -7.931  0.00  0.00     0.024 H 
ATOM     51  H   LIG d   1      13.292   4.146  -6.809  0.00  0.00     0.024 H 
ENDBRANCH   1  48
BRANCH  31  52
ATOM     52  C   LIG d   1      11.747   7.141  -6.499  0.00  0.00     0.012 C 
ATOM     53  H   LIG d   1      12.753   6.940  -6.129  0.00  0.00     0.043 H 
ATOM     54  H   LIG d   1      11.808   7.677  -7.446  0.00  0.00     0.043 H 
ATOM     55  H   LIG d   1      11.209   7.748  -5.771  0.00  0.00     0.043 H 
ENDBRANCH  31  52
BRANCH  28  56
ATOM     56  C   LIG d   1       8.949   4.477  -9.290  0.00  0.00     0.012 C 
ATOM     57  H   LIG d   1       8.448   3.511  -9.371  0.00  0.00     0.043 H 
ATOM     58  H   LIG d   1       8.207   5.275  -9.332  0.00  0.00     0.043 H 
ATOM     59  H   LIG d   1       9.652   4.592 -10.115  0.00  0.00     0.043 H 
ENDBRANCH  28  56
BRANCH   6  60
ATOM     60  C   LIG d   1      13.102   0.397  -3.852  0.00  0.00    -0.060 C 
ATOM     61  H   LIG d   1      13.344   1.431  -3.608  0.00  0.00     0.024 H 
ATOM     62  H   LIG d   1      12.084   0.176  -3.532  0.00  0.00     0.024 H 
ATOM     63  H   LIG d   1      13.797  -0.269  -3.340  0.00  0.00     0.024 H 
ENDBRANCH   6  60
BRANCH   6  64
ATOM     64  C   LIG d   1      14.472  -0.745  -5.515  0.00  0.00    -0.060 C 
ATOM     65  H   LIG d   1      14.228  -1.555  -6.202  0.00  0.00     0.024 H 
ATOM     66  H   LIG d   1      15.303  -0.166  -5.916  0.00  0.00     0.024 H 
ATOM     67  H   LIG d   1      14.752  -1.162  -4.547  0.00  0.00     0.024 H 
ENDBRANCH   6  64
TORSDOF 5
ENDMDL
MODEL 9
REMARK VINA RESULT:      -6.3      3.006      4.965
REMARK  5 active torsions:
REMARK  status: ('A' for Active; 'I' for Inactive)
REMARK    1  A    between atoms: C_1  and  C_2 
REMARK    2  A    between atoms: C_7  and  C_9 
REMARK    3  A    between atoms: C_7  and  C_10 
REMARK    4  A    between atoms: N_31  and  C_38 
REMARK    5  A    between atoms: N_34  and  C_37 
ROOT
ATOM      1  C   LIG d   1      10.964   4.931  -6.345  0.00  0.00    -0.010 C 
ATOM      2  C   LIG d   1      12.504   5.509  -6.321  0.00  0.00    -0.027 C 
ATOM      3  C   LIG d   1      12.249   6.682  -5.362  0.00  0.00     0.030 C 
ATOM      4  H   LIG d   1      13.205   7.054  -4.895  0.00  0.00     0.050 H 
ATOM      5  C   LIG d   1      11.543   7.786  -6.100  0.00  0.00    -0.029 C 
ATOM      6  C   LIG d   1      10.306   7.390  -6.818  0.00  0.00    -0.033 C 
ATOM      7  C   LIG d   1      10.152   5.920  -7.255  0.00  0.00    -0.041 C 
ATOM      8  N   LIG d   1      11.459   6.153  -4.311  0.00  0.00    -0.270 N 
ATOM      9  C   LIG d   1      10.488   5.127  -4.958  0.00  0.00     0.057 C 
ATOM     10  H   LIG d   1       9.454   5.499  -4.941  0.00  0.00     0.052 H 
ATOM     11  C   LIG d   1      10.617   3.855  -4.034  0.00  0.00     0.147 A 
ATOM     12  C   LIG d   1      10.115   4.294  -2.630  0.00  0.00     0.004 C 
ATOM     13  C   LIG d   1      10.675   5.483  -2.085  0.00  0.00     0.043 C 
ATOM     14  C   LIG d   1      11.395   6.407  -2.992  0.00  0.00     0.276 C 
ATOM     15  N   LIG d   1      11.882   7.584  -2.511  0.00  0.00    -0.191 N 
ATOM     16  C   LIG d   1      11.871   7.864  -1.229  0.00  0.00     0.218 A 
ATOM     17  C   LIG d   1      12.540   9.006  -0.804  0.00  0.00     0.056 A 
ATOM     18  C   LIG d   1      12.504   9.337   0.580  0.00  0.00     0.172 A 
ATOM     19  C   LIG d   1      11.793   8.484   1.458  0.00  0.00     0.167 A 
ATOM     20  C   LIG d   1      11.180   7.239   1.105  0.00  0.00    -0.003 A 
ATOM     21  C   LIG d   1      11.281   6.972  -0.302  0.00  0.00     0.050 A 
ATOM     22  C   LIG d   1      10.601   5.852  -0.725  0.00  0.00    -0.037 C 
ATOM     23  O   LIG d   1      11.870   8.962   2.733  0.00  0.00    -0.453 OA
ATOM     24  C   LIG d   1      13.006   9.939   2.713  0.00  0.00     0.233 C 
ATOM     25  O   LIG d   1      13.005  10.344   1.306  0.00  0.00    -0.452 OA
ATOM     26  C   LIG d   1      12.025   3.385  -3.900  0.00  0.00     0.240 A 
ATOM     27  O   LIG d   1      12.827   4.158  -3.562  0.00  0.00    -0.274 OA
ATOM     28  N   LIG d   1      12.264   2.134  -4.169  0.00  0.00    -0.228 N 
ATOM     29  C   LIG d   1      11.318   1.165  -4.536  0.00  0.00     0.317 A 
ATOM     30  O   LIG d   1      11.629   0.062  -4.647  0.00  0.00    -0.252 OA
ATOM     31  N   LIG d   1      10.124   1.548  -4.679  0.00  0.00    -0.228 N 
ATOM     32  C   LIG d   1       9.706   2.753  -4.536  0.00  0.00     0.240 A 
ATOM     33  O   LIG d   1       8.472   3.076  -4.736  0.00  0.00    -0.274 OA
ATOM     34  H   LIG d   1      13.127   4.743  -5.950  0.00  0.00     0.029 H 
ATOM     35  H   LIG d   1      12.768   5.851  -7.286  0.00  0.00     0.029 H 
ATOM     36  H   LIG d   1      11.271   8.603  -5.395  0.00  0.00     0.029 H 
ATOM     37  H   LIG d   1      12.244   8.249  -6.765  0.00  0.00     0.029 H 
ATOM     38  H   LIG d   1      10.531   5.808  -8.356  0.00  0.00     0.028 H 
ATOM     39  H   LIG d   1       9.115   5.656  -7.226  0.00  0.00     0.028 H 
ATOM     40  H   LIG d   1       9.005   4.453  -2.664  0.00  0.00     0.033 H 
ATOM     41  H   LIG d   1      10.314   3.505  -1.944  0.00  0.00     0.033 H 
ATOM     42  H   LIG d   1      12.998   9.726  -1.479  0.00  0.00     0.072 H 
ATOM     43  H   LIG d   1      10.681   6.655   1.761  0.00  0.00     0.066 H 
ATOM     44  H   LIG d   1      10.115   5.155  -0.099  0.00  0.00     0.063 H 
ATOM     45  H   LIG d   1      12.809  10.745   3.297  0.00  0.00     0.117 H 
ATOM     46  H   LIG d   1      13.952   9.483   2.934  0.00  0.00     0.117 H 
ATOM     47  H   LIG d   1      12.367   8.092  -3.136  0.00  0.00     0.455 HD
ENDROOT
BRANCH   1  48
ATOM     48  C   LIG d   1      10.945   3.540  -6.908  0.00  0.00    -0.058 C 
ATOM     49  H   LIG d   1      11.452   3.530  -7.873  0.00  0.00     0.024 H 
ATOM     50  H   LIG d   1      11.455   2.864  -6.223  0.00  0.00     0.024 H 
ATOM     51  H   LIG d   1       9.913   3.214  -7.039  0.00  0.00     0.024 H 
ENDBRANCH   1  48
BRANCH  31  52
ATOM     52  C   LIG d   1       9.147   0.505  -5.077  0.00  0.00     0.012 C 
ATOM     53  H   LIG d   1       8.756   0.014  -4.186  0.00  0.00     0.043 H 
ATOM     54  H   LIG d   1       8.327   0.966  -5.628  0.00  0.00     0.043 H 
ATOM     55  H   LIG d   1       9.641  -0.233  -5.710  0.00  0.00     0.043 H 
ENDBRANCH  31  52
BRANCH  28  56
ATOM     56  C   LIG d   1      13.665   1.625  -4.051  0.00  0.00     0.012 C 
ATOM     57  H   LIG d   1      14.354   2.352  -4.482  0.00  0.00     0.043 H 
ATOM     58  H   LIG d   1      13.909   1.474  -2.999  0.00  0.00     0.043 H 
ATOM     59  H   LIG d   1      13.755   0.679  -4.584  0.00  0.00     0.043 H 
ENDBRANCH  28  56
BRANCH   6  60
ATOM     60  C   LIG d   1       9.064   7.806  -6.075  0.00  0.00    -0.060 C 
ATOM     61  H   LIG d   1       8.758   7.007  -5.402  0.00  0.00     0.024 H 
ATOM     62  H   LIG d   1       9.271   8.708  -5.499  0.00  0.00     0.024 H 
ATOM     63  H   LIG d   1       8.265   8.007  -6.789  0.00  0.00     0.024 H 
ENDBRANCH   6  60
BRANCH   6  64
ATOM     64  C   LIG d   1      10.278   8.244  -8.144  0.00  0.00    -0.060 C 
ATOM     65  H   LIG d   1      11.021   7.856  -8.841  0.00  0.00     0.024 H 
ATOM     66  H   LIG d   1       9.289   8.180  -8.596  0.00  0.00     0.024 H 
ATOM     67  H   LIG d   1      10.506   9.284  -7.912  0.00  0.00     0.024 H 
ENDBRANCH   6  64
TORSDOF 5
ENDMDL
MODEL 10
REMARK VINA RESULT:      -6.3      6.292      9.266
REMARK  5 active torsions:
REMARK  status: ('A' for Active; 'I' for Inactive)
REMARK    1  A    between atoms: C_1  and  C_2 
REMARK    2  A    between atoms: C_7  and  C_9 
REMARK    3  A    between atoms: C_7  and  C_10 
REMARK    4  A    between atoms: N_31  and  C_38 
REMARK    5  A    between atoms: N_34  and  C_37 
ROOT
ATOM      1  C   LIG d   1      11.943   4.249  -4.703  0.00  0.00    -0.010 C 
ATOM      2  C   LIG d   1      11.958   3.636  -3.176  0.00  0.00    -0.027 C 
ATOM      3  C   LIG d   1      10.435   3.517  -3.008  0.00  0.00     0.030 C 
ATOM      4  H   LIG d   1      10.162   2.805  -2.179  0.00  0.00     0.050 H 
ATOM      5  C   LIG d   1       9.852   4.882  -2.761  0.00  0.00    -0.029 C 
ATOM      6  C   LIG d   1      10.210   5.922  -3.757  0.00  0.00    -0.033 C 
ATOM      7  C   LIG d   1      11.517   5.752  -4.555  0.00  0.00    -0.041 C 
ATOM      8  N   LIG d   1       9.960   2.944  -4.213  0.00  0.00    -0.270 N 
ATOM      9  C   LIG d   1      10.822   3.542  -5.360  0.00  0.00     0.057 C 
ATOM     10  H   LIG d   1      10.229   4.227  -5.982  0.00  0.00     0.052 H 
ATOM     11  C   LIG d   1      11.246   2.280  -6.206  0.00  0.00     0.147 A 
ATOM     12  C   LIG d   1       9.926   1.670  -6.756  0.00  0.00     0.004 C 
ATOM     13  C   LIG d   1       8.883   1.432  -5.818  0.00  0.00     0.043 C 
ATOM     14  C   LIG d   1       8.959   2.091  -4.494  0.00  0.00     0.276 C 
ATOM     15  N   LIG d   1       7.941   1.935  -3.602  0.00  0.00    -0.191 N 
ATOM     16  C   LIG d   1       6.958   1.092  -3.816  0.00  0.00     0.218 A 
ATOM     17  C   LIG d   1       6.055   0.867  -2.783  0.00  0.00     0.056 A 
ATOM     18  C   LIG d   1       4.965  -0.019  -3.018  0.00  0.00     0.172 A 
ATOM     19  C   LIG d   1       4.858  -0.632  -4.288  0.00  0.00     0.167 A 
ATOM     20  C   LIG d   1       5.811  -0.532  -5.352  0.00  0.00    -0.003 A 
ATOM     21  C   LIG d   1       6.886   0.362  -5.025  0.00  0.00     0.050 A 
ATOM     22  C   LIG d   1       7.769   0.600  -6.055  0.00  0.00    -0.037 C 
ATOM     23  O   LIG d   1       3.759  -1.439  -4.323  0.00  0.00    -0.453 OA
ATOM     24  C   LIG d   1       3.384  -1.645  -2.887  0.00  0.00     0.233 C 
ATOM     25  O   LIG d   1       3.930  -0.432  -2.275  0.00  0.00    -0.452 OA
ATOM     26  C   LIG d   1      11.932   1.243  -5.384  0.00  0.00     0.240 A 
ATOM     27  O   LIG d   1      11.394   0.867  -4.423  0.00  0.00    -0.274 OA
ATOM     28  N   LIG d   1      13.092   0.824  -5.799  0.00  0.00    -0.228 N 
ATOM     29  C   LIG d   1      13.751   1.221  -6.973  0.00  0.00     0.317 A 
ATOM     30  O   LIG d   1      14.727   0.704  -7.295  0.00  0.00    -0.252 OA
ATOM     31  N   LIG d   1      13.198   2.116  -7.671  0.00  0.00    -0.228 N 
ATOM     32  C   LIG d   1      12.095   2.708  -7.386  0.00  0.00     0.240 A 
ATOM     33  O   LIG d   1      11.609   3.643  -8.132  0.00  0.00    -0.274 OA
ATOM     34  H   LIG d   1      12.487   2.725  -3.202  0.00  0.00     0.029 H 
ATOM     35  H   LIG d   1      12.363   4.353  -2.513  0.00  0.00     0.029 H 
ATOM     36  H   LIG d   1       8.741   4.821  -2.729  0.00  0.00     0.029 H 
ATOM     37  H   LIG d   1      10.117   5.187  -1.769  0.00  0.00     0.029 H 
ATOM     38  H   LIG d   1      12.376   6.330  -4.010  0.00  0.00     0.028 H 
ATOM     39  H   LIG d   1      11.387   6.180  -5.529  0.00  0.00     0.028 H 
ATOM     40  H   LIG d   1       9.500   2.350  -7.539  0.00  0.00     0.033 H 
ATOM     41  H   LIG d   1      10.158   0.740  -7.218  0.00  0.00     0.033 H 
ATOM     42  H   LIG d   1       6.063   1.412  -1.841  0.00  0.00     0.072 H 
ATOM     43  H   LIG d   1       5.701  -0.987  -6.248  0.00  0.00     0.066 H 
ATOM     44  H   LIG d   1       7.764   0.116  -6.992  0.00  0.00     0.063 H 
ATOM     45  H   LIG d   1       2.377  -1.659  -2.767  0.00  0.00     0.117 H 
ATOM     46  H   LIG d   1       3.870  -2.496  -2.447  0.00  0.00     0.117 H 
ATOM     47  H   LIG d   1       8.085   2.345  -2.768  0.00  0.00     0.455 HD
ENDROOT
BRANCH   1  48
ATOM     48  C   LIG d   1      13.308   4.131  -5.317  0.00  0.00    -0.058 C 
ATOM     49  H   LIG d   1      13.486   3.098  -5.615  0.00  0.00     0.024 H 
ATOM     50  H   LIG d   1      13.369   4.777  -6.193  0.00  0.00     0.024 H 
ATOM     51  H   LIG d   1      14.062   4.434  -4.590  0.00  0.00     0.024 H 
ENDBRANCH   1  48
BRANCH  31  52
ATOM     52  C   LIG d   1      13.921   2.524  -8.900  0.00  0.00     0.012 C 
ATOM     53  H   LIG d   1      14.757   1.846  -9.073  0.00  0.00     0.043 H 
ATOM     54  H   LIG d   1      13.241   2.486  -9.751  0.00  0.00     0.043 H 
ATOM     55  H   LIG d   1      14.298   3.540  -8.780  0.00  0.00     0.043 H 
ENDBRANCH  31  52
BRANCH  28  56
ATOM     56  C   LIG d   1      13.814  -0.213  -4.999  0.00  0.00     0.012 C 
ATOM     57  H   LIG d   1      13.622  -1.199  -5.424  0.00  0.00     0.043 H 
ATOM     58  H   LIG d   1      14.885  -0.009  -5.021  0.00  0.00     0.043 H 
ATOM     59  H   LIG d   1      13.461  -0.188  -3.968  0.00  0.00     0.043 H 
ENDBRANCH  28  56
BRANCH   6  60
ATOM     60  C   LIG d   1       9.086   6.194  -4.720  0.00  0.00    -0.060 C 
ATOM     61  H   LIG d   1       9.480   6.237  -5.735  0.00  0.00     0.024 H 
ATOM     62  H   LIG d   1       8.347   5.395  -4.650  0.00  0.00     0.024 H 
ATOM     63  H   LIG d   1       8.616   7.146  -4.472  0.00  0.00     0.024 H 
ENDBRANCH   6  60
BRANCH   6  64
ATOM     64  C   LIG d   1      10.368   7.266  -2.945  0.00  0.00    -0.060 C 
ATOM     65  H   LIG d   1      10.918   7.991  -3.545  0.00  0.00     0.024 H 
ATOM     66  H   LIG d   1       9.382   7.665  -2.709  0.00  0.00     0.024 H 
ATOM     67  H   LIG d   1      10.912   7.071  -2.021  0.00  0.00     0.024 H 
ENDBRANCH   6  64
TORSDOF 5
ENDMDL
