MODEL 1
REMARK VINA RESULT:      -5.8      0.000      0.000
REMARK  9 active torsions:
REMARK  status: ('A' for Active; 'I' for Inactive)
REMARK    1  A    between atoms: C_1  and  C_2 
REMARK    2  A    between atoms: C_2  and  N_3 
REMARK    3  A    between atoms: C_5  and  C_14 
REMARK    4  A    between atoms: C_10  and  O_12 
REMARK    5  A    between atoms: O_12  and  C_13 
REMARK    6  A    between atoms: C_21  and  O_26 
REMARK    7  A    between atoms: C_22  and  C_25 
REMARK    8  A    between atoms: O_26  and  S_27 
REMARK    9  A    between atoms: S_27  and  C_30 
ROOT
ATOM      1  C   LIG d   1       8.512   2.604  -5.603  0.00  0.00    -0.006 C 
ATOM      2  C   LIG d   1       9.047   3.488  -4.715  0.00  0.00     0.176 A 
ATOM      3  C   LIG d   1       9.641   3.155  -3.468  0.00  0.00     0.232 A 
ATOM      4  O   LIG d   1       9.771   2.043  -2.983  0.00  0.00    -0.283 OA
ATOM      5  C   LIG d   1      10.063   4.440  -2.886  0.00  0.00     0.068 A 
ATOM      6  C   LIG d   1      10.697   4.793  -1.695  0.00  0.00    -0.044 A 
ATOM      7  C   LIG d   1      10.964   6.106  -1.428  0.00  0.00    -0.016 A 
ATOM      8  C   LIG d   1      10.605   7.094  -2.343  0.00  0.00     0.163 A 
ATOM      9  C   LIG d   1       9.974   6.758  -3.529  0.00  0.00     0.037 A 
ATOM     10  C   LIG d   1       9.697   5.427  -3.814  0.00  0.00     0.146 A 
ATOM     11  O   LIG d   1       9.109   4.831  -4.874  0.00  0.00    -0.451 OA
ATOM     12  H   LIG d   1       7.970   2.967  -6.464  0.00  0.00     0.066 H 
ATOM     13  H   LIG d   1      10.977   4.029  -0.983  0.00  0.00     0.063 H 
ATOM     14  H   LIG d   1      11.455   6.380  -0.506  0.00  0.00     0.066 H 
ENDROOT
BRANCH   1  15
ATOM     15  C   LIG d   1       8.669   1.168  -5.390  0.00  0.00     0.004 A 
ATOM     16  C   LIG d   1       9.676   0.364  -5.882  0.00  0.00     0.013 A 
ATOM     17  N   LIG d   1       9.480  -0.911  -5.470  0.00  0.00    -0.346 N 
ATOM     18  H   LIG d   1      10.495   0.700  -6.501  0.00  0.00     0.082 H 
ATOM     19  C   LIG d   1       8.337  -1.001  -4.697  0.00  0.00     0.050 A 
ATOM     20  C   LIG d   1       7.783   0.286  -4.606  0.00  0.00     0.011 A 
ATOM     21  C   LIG d   1       7.718  -2.059  -4.042  0.00  0.00    -0.034 A 
ATOM     22  C   LIG d   1       6.616   0.495  -3.876  0.00  0.00    -0.010 A 
ATOM     23  C   LIG d   1       6.010  -0.571  -3.236  0.00  0.00     0.121 A 
ATOM     24  H   LIG d   1       6.187   1.484  -3.809  0.00  0.00     0.066 H 
ATOM     25  C   LIG d   1       6.562  -1.844  -3.322  0.00  0.00    -0.018 A 
ATOM     26  H   LIG d   1       6.083  -2.671  -2.820  0.00  0.00     0.066 H 
ATOM     27  H   LIG d   1       8.139  -3.053  -4.102  0.00  0.00     0.064 H 
BRANCH  17  28
ATOM     28  C   LIG d   1      10.354  -2.040  -5.800  0.00  0.00     0.021 C 
ATOM     29  H   LIG d   1      10.804  -1.877  -6.780  0.00  0.00     0.049 H 
ATOM     30  H   LIG d   1       9.769  -2.959  -5.818  0.00  0.00     0.049 H 
BRANCH  28  31
ATOM     31  C   LIG d   1      11.457  -2.157  -4.746  0.00  0.00    -0.047 C 
ATOM     32  H   LIG d   1      11.761  -3.199  -4.652  0.00  0.00     0.025 H 
ATOM     33  H   LIG d   1      11.082  -1.799  -3.787  0.00  0.00     0.025 H 
ATOM     34  H   LIG d   1      12.313  -1.554  -5.048  0.00  0.00     0.025 H 
ENDBRANCH  28  31
ENDBRANCH  17  28
BRANCH  23  35
ATOM     35  O   LIG d   1       4.869  -0.373  -2.522  0.00  0.00    -0.495 OA
BRANCH  35  36
ATOM     36  C   LIG d   1       4.706   0.905  -1.903  0.00  0.00     0.079 C 
ATOM     37  H   LIG d   1       4.532   1.660  -2.669  0.00  0.00     0.066 H 
ATOM     38  H   LIG d   1       3.854   0.874  -1.224  0.00  0.00     0.066 H 
ATOM     39  H   LIG d   1       5.607   1.155  -1.344  0.00  0.00     0.066 H 
ENDBRANCH  35  36
ENDBRANCH  23  35
ENDBRANCH   1  15
BRANCH   9  40
ATOM     40  C   LIG d   1       9.591   7.836  -4.511  0.00  0.00    -0.033 C 
ATOM     41  H   LIG d   1       8.562   7.682  -4.836  0.00  0.00     0.028 H 
ATOM     42  H   LIG d   1       9.678   8.811  -4.032  0.00  0.00     0.028 H 
ATOM     43  H   LIG d   1      10.255   7.793  -5.374  0.00  0.00     0.028 H 
ENDBRANCH   9  40
BRANCH   8  44
ATOM     44  O   LIG d   1      10.874   8.395  -2.068  0.00  0.00    -0.346 OA
BRANCH  44  45
ATOM     45  S   LIG d   1       9.988   8.996  -0.986  0.00  0.00     0.118 S 
ATOM     46  O   LIG d   1       8.882   8.109  -0.888  0.00  0.00    -0.137 OA
ATOM     47  O   LIG d   1      10.856   9.196   0.122  0.00  0.00    -0.137 OA
BRANCH  45  48
ATOM     48  C   LIG d   1       9.452  10.593  -1.656  0.00  0.00     0.092 C 
ATOM     49  H   LIG d   1       9.131  10.464  -2.690  0.00  0.00     0.050 H 
ATOM     50  H   LIG d   1       8.622  10.976  -1.063  0.00  0.00     0.050 H 
ATOM     51  H   LIG d   1      10.282  11.300  -1.620  0.00  0.00     0.050 H 
ENDBRANCH  45  48
ENDBRANCH  44  45
ENDBRANCH   8  44
TORSDOF 9
ENDMDL
MODEL 2
REMARK VINA RESULT:      -5.7      1.884      2.749
REMARK  9 active torsions:
REMARK  status: ('A' for Active; 'I' for Inactive)
REMARK    1  A    between atoms: C_1  and  C_2 
REMARK    2  A    between atoms: C_2  and  N_3 
REMARK    3  A    between atoms: C_5  and  C_14 
REMARK    4  A    between atoms: C_10  and  O_12 
REMARK    5  A    between atoms: O_12  and  C_13 
REMARK    6  A    between atoms: C_21  and  O_26 
REMARK    7  A    between atoms: C_22  and  C_25 
REMARK    8  A    between atoms: O_26  and  S_27 
REMARK    9  A    between atoms: S_27  and  C_30 
ROOT
ATOM      1  C   LIG d   1       9.170   4.723  -4.502  0.00  0.00    -0.006 C 
ATOM      2  C   LIG d   1       9.652   5.226  -3.331  0.00  0.00     0.176 A 
ATOM      3  C   LIG d   1      10.406   4.506  -2.366  0.00  0.00     0.232 A 
ATOM      4  O   LIG d   1      10.745   3.335  -2.415  0.00  0.00    -0.283 OA
ATOM      5  C   LIG d   1      10.688   5.476  -1.295  0.00  0.00     0.068 A 
ATOM      6  C   LIG d   1      11.374   5.396  -0.083  0.00  0.00    -0.044 A 
ATOM      7  C   LIG d   1      11.469   6.497   0.720  0.00  0.00    -0.016 A 
ATOM      8  C   LIG d   1      10.881   7.699   0.333  0.00  0.00     0.163 A 
ATOM      9  C   LIG d   1      10.196   7.793  -0.867  0.00  0.00     0.037 A 
ATOM     10  C   LIG d   1      10.091   6.682  -1.695  0.00  0.00     0.146 A 
ATOM     11  O   LIG d   1       9.499   6.498  -2.894  0.00  0.00    -0.451 OA
ATOM     12  H   LIG d   1       8.500   5.315  -5.109  0.00  0.00     0.066 H 
ATOM     13  H   LIG d   1      11.832   4.464   0.220  0.00  0.00     0.063 H 
ATOM     14  H   LIG d   1      12.000   6.436   1.658  0.00  0.00     0.066 H 
ENDROOT
BRANCH   1  15
ATOM     15  C   LIG d   1       9.558   3.383  -4.937  0.00  0.00     0.004 A 
ATOM     16  C   LIG d   1      10.659   3.047  -5.697  0.00  0.00     0.013 A 
ATOM     17  N   LIG d   1      10.680   1.706  -5.894  0.00  0.00    -0.346 N 
ATOM     18  H   LIG d   1      11.392   3.744  -6.075  0.00  0.00     0.082 H 
ATOM     19  C   LIG d   1       9.595   1.108  -5.281  0.00  0.00     0.050 A 
ATOM     20  C   LIG d   1       8.850   2.120  -4.653  0.00  0.00     0.011 A 
ATOM     21  C   LIG d   1       9.173  -0.213  -5.180  0.00  0.00    -0.034 A 
ATOM     22  C   LIG d   1       7.694   1.801  -3.947  0.00  0.00    -0.010 A 
ATOM     23  C   LIG d   1       7.285   0.482  -3.863  0.00  0.00     0.121 A 
ATOM     24  H   LIG d   1       7.118   2.579  -3.468  0.00  0.00     0.066 H 
ATOM     25  C   LIG d   1       8.026  -0.519  -4.480  0.00  0.00    -0.018 A 
ATOM     26  H   LIG d   1       7.701  -1.547  -4.410  0.00  0.00     0.066 H 
ATOM     27  H   LIG d   1       9.742  -0.999  -5.655  0.00  0.00     0.064 H 
BRANCH  17  28
ATOM     28  C   LIG d   1      11.706   0.991  -6.656  0.00  0.00     0.021 C 
ATOM     29  H   LIG d   1      11.829  -0.013  -6.247  0.00  0.00     0.049 H 
ATOM     30  H   LIG d   1      12.651   1.529  -6.589  0.00  0.00     0.049 H 
BRANCH  28  31
ATOM     31  C   LIG d   1      11.277   0.894  -8.122  0.00  0.00    -0.047 C 
ATOM     32  H   LIG d   1      12.080   0.444  -8.706  0.00  0.00     0.025 H 
ATOM     33  H   LIG d   1      11.065   1.892  -8.505  0.00  0.00     0.025 H 
ATOM     34  H   LIG d   1      10.382   0.278  -8.199  0.00  0.00     0.025 H 
ENDBRANCH  28  31
ENDBRANCH  17  28
BRANCH  23  35
ATOM     35  O   LIG d   1       6.156   0.165  -3.175  0.00  0.00    -0.495 OA
BRANCH  35  36
ATOM     36  C   LIG d   1       5.328   1.251  -2.751  0.00  0.00     0.079 C 
ATOM     37  H   LIG d   1       5.940   1.997  -2.247  0.00  0.00     0.066 H 
ATOM     38  H   LIG d   1       4.848   1.701  -3.619  0.00  0.00     0.066 H 
ATOM     39  H   LIG d   1       4.567   0.880  -2.065  0.00  0.00     0.066 H 
ENDBRANCH  35  36
ENDBRANCH  23  35
ENDBRANCH   1  15
BRANCH   9  40
ATOM     40  C   LIG d   1       9.564   9.099  -1.275  0.00  0.00    -0.033 C 
ATOM     41  H   LIG d   1      10.085   9.500  -2.144  0.00  0.00     0.028 H 
ATOM     42  H   LIG d   1       8.516   8.933  -1.525  0.00  0.00     0.028 H 
ATOM     43  H   LIG d   1       9.633   9.808  -0.451  0.00  0.00     0.028 H 
ENDBRANCH   9  40
BRANCH   8  44
ATOM     44  O   LIG d   1      10.980   8.786   1.138  0.00  0.00    -0.346 OA
BRANCH  44  45
ATOM     45  S   LIG d   1      12.355   9.439   1.133  0.00  0.00     0.118 S 
ATOM     46  O   LIG d   1      12.929   9.087   2.384  0.00  0.00    -0.137 OA
ATOM     47  O   LIG d   1      12.952   9.013  -0.084  0.00  0.00    -0.137 OA
BRANCH  45  48
ATOM     48  C   LIG d   1      12.023  11.222   1.076  0.00  0.00     0.092 C 
ATOM     49  H   LIG d   1      12.313  11.675   2.024  0.00  0.00     0.050 H 
ATOM     50  H   LIG d   1      12.599  11.672   0.267  0.00  0.00     0.050 H 
ATOM     51  H   LIG d   1      10.960  11.389   0.903  0.00  0.00     0.050 H 
ENDBRANCH  45  48
ENDBRANCH  44  45
ENDBRANCH   8  44
TORSDOF 9
ENDMDL
MODEL 3
REMARK VINA RESULT:      -5.6      3.659      5.317
REMARK  9 active torsions:
REMARK  status: ('A' for Active; 'I' for Inactive)
REMARK    1  A    between atoms: C_1  and  C_2 
REMARK    2  A    between atoms: C_2  and  N_3 
REMARK    3  A    between atoms: C_5  and  C_14 
REMARK    4  A    between atoms: C_10  and  O_12 
REMARK    5  A    between atoms: O_12  and  C_13 
REMARK    6  A    between atoms: C_21  and  O_26 
REMARK    7  A    between atoms: C_22  and  C_25 
REMARK    8  A    between atoms: O_26  and  S_27 
REMARK    9  A    between atoms: S_27  and  C_30 
ROOT
ATOM      1  C   LIG d   1       7.912  -0.715  -5.452  0.00  0.00    -0.006 C 
ATOM      2  C   LIG d   1       8.653   0.304  -4.933  0.00  0.00     0.176 A 
ATOM      3  C   LIG d   1       8.138   1.511  -4.389  0.00  0.00     0.232 A 
ATOM      4  O   LIG d   1       6.967   1.841  -4.294  0.00  0.00    -0.283 OA
ATOM      5  C   LIG d   1       9.322   2.279  -3.966  0.00  0.00     0.068 A 
ATOM      6  C   LIG d   1       9.493   3.527  -3.368  0.00  0.00    -0.044 A 
ATOM      7  C   LIG d   1      10.751   3.982  -3.088  0.00  0.00    -0.016 A 
ATOM      8  C   LIG d   1      11.863   3.203  -3.399  0.00  0.00     0.163 A 
ATOM      9  C   LIG d   1      11.707   1.961  -3.993  0.00  0.00     0.037 A 
ATOM     10  C   LIG d   1      10.435   1.485  -4.283  0.00  0.00     0.146 A 
ATOM     11  O   LIG d   1      10.004   0.335  -4.843  0.00  0.00    -0.451 OA
ATOM     12  H   LIG d   1       8.402  -1.535  -5.957  0.00  0.00     0.066 H 
ATOM     13  H   LIG d   1       8.632   4.135  -3.126  0.00  0.00     0.063 H 
ATOM     14  H   LIG d   1      10.884   4.948  -2.626  0.00  0.00     0.066 H 
ENDROOT
BRANCH   1  15
ATOM     15  C   LIG d   1       6.457  -0.699  -5.326  0.00  0.00     0.004 A 
ATOM     16  C   LIG d   1       5.717  -1.103  -4.235  0.00  0.00     0.013 A 
ATOM     17  N   LIG d   1       4.398  -0.937  -4.497  0.00  0.00    -0.346 N 
ATOM     18  H   LIG d   1       6.125  -1.491  -3.314  0.00  0.00     0.082 H 
ATOM     19  C   LIG d   1       4.216  -0.425  -5.767  0.00  0.00     0.050 A 
ATOM     20  C   LIG d   1       5.485  -0.246  -6.340  0.00  0.00     0.011 A 
ATOM     21  C   LIG d   1       3.083  -0.073  -6.493  0.00  0.00    -0.034 A 
ATOM     22  C   LIG d   1       5.605   0.266  -7.629  0.00  0.00    -0.010 A 
ATOM     23  C   LIG d   1       4.467   0.604  -8.339  0.00  0.00     0.121 A 
ATOM     24  H   LIG d   1       6.581   0.399  -8.072  0.00  0.00     0.066 H 
ATOM     25  C   LIG d   1       3.211   0.433  -7.769  0.00  0.00    -0.018 A 
ATOM     26  H   LIG d   1       2.327   0.699  -8.330  0.00  0.00     0.066 H 
ATOM     27  H   LIG d   1       2.102  -0.201  -6.060  0.00  0.00     0.064 H 
BRANCH  17  28
ATOM     28  C   LIG d   1       3.314  -1.261  -3.565  0.00  0.00     0.021 C 
ATOM     29  H   LIG d   1       2.555  -1.849  -4.080  0.00  0.00     0.049 H 
ATOM     30  H   LIG d   1       2.869  -0.339  -3.191  0.00  0.00     0.049 H 
BRANCH  28  31
ATOM     31  C   LIG d   1       3.875  -2.069  -2.392  0.00  0.00    -0.047 C 
ATOM     32  H   LIG d   1       3.072  -2.301  -1.694  0.00  0.00     0.025 H 
ATOM     33  H   LIG d   1       4.643  -1.486  -1.883  0.00  0.00     0.025 H 
ATOM     34  H   LIG d   1       4.312  -2.995  -2.765  0.00  0.00     0.025 H 
ENDBRANCH  28  31
ENDBRANCH  17  28
BRANCH  23  35
ATOM     35  O   LIG d   1       4.579   1.105  -9.599  0.00  0.00    -0.495 OA
BRANCH  35  36
ATOM     36  C   LIG d   1       3.700   2.176  -9.951  0.00  0.00     0.079 C 
ATOM     37  H   LIG d   1       3.509   2.792  -9.073  0.00  0.00     0.066 H 
ATOM     38  H   LIG d   1       4.161   2.784 -10.728  0.00  0.00     0.066 H 
ATOM     39  H   LIG d   1       2.759   1.767 -10.320  0.00  0.00     0.066 H 
ENDBRANCH  35  36
ENDBRANCH  23  35
ENDBRANCH   1  15
BRANCH   9  40
ATOM     40  C   LIG d   1      12.918   1.127  -4.325  0.00  0.00    -0.033 C 
ATOM     41  H   LIG d   1      13.178   1.263  -5.374  0.00  0.00     0.028 H 
ATOM     42  H   LIG d   1      13.756   1.438  -3.700  0.00  0.00     0.028 H 
ATOM     43  H   LIG d   1      12.697   0.076  -4.139  0.00  0.00     0.028 H 
ENDBRANCH   9  40
BRANCH   8  44
ATOM     44  O   LIG d   1      13.107   3.664  -3.118  0.00  0.00    -0.346 OA
BRANCH  44  45
ATOM     45  S   LIG d   1      13.560   4.809  -4.011  0.00  0.00     0.118 S 
ATOM     46  O   LIG d   1      12.909   4.581  -5.254  0.00  0.00    -0.137 OA
ATOM     47  O   LIG d   1      13.291   5.984  -3.258  0.00  0.00    -0.137 OA
BRANCH  45  48
ATOM     48  C   LIG d   1      15.350   4.580  -4.192  0.00  0.00     0.092 C 
ATOM     49  H   LIG d   1      15.803   5.510  -4.536  0.00  0.00     0.050 H 
ATOM     50  H   LIG d   1      15.779   4.301  -3.230  0.00  0.00     0.050 H 
ATOM     51  H   LIG d   1      15.544   3.791  -4.919  0.00  0.00     0.050 H 
ENDBRANCH  45  48
ENDBRANCH  44  45
ENDBRANCH   8  44
TORSDOF 9
ENDMDL
MODEL 4
REMARK VINA RESULT:      -5.4      3.825      8.608
REMARK  9 active torsions:
REMARK  status: ('A' for Active; 'I' for Inactive)
REMARK    1  A    between atoms: C_1  and  C_2 
REMARK    2  A    between atoms: C_2  and  N_3 
REMARK    3  A    between atoms: C_5  and  C_14 
REMARK    4  A    between atoms: C_10  and  O_12 
REMARK    5  A    between atoms: O_12  and  C_13 
REMARK    6  A    between atoms: C_21  and  O_26 
REMARK    7  A    between atoms: C_22  and  C_25 
REMARK    8  A    between atoms: O_26  and  S_27 
REMARK    9  A    between atoms: S_27  and  C_30 
ROOT
ATOM      1  C   LIG d   1      10.547   2.985  -5.551  0.00  0.00    -0.006 C 
ATOM      2  C   LIG d   1       9.431   2.273  -5.229  0.00  0.00     0.176 A 
ATOM      3  C   LIG d   1       8.704   2.374  -4.012  0.00  0.00     0.232 A 
ATOM      4  O   LIG d   1       8.949   3.099  -3.062  0.00  0.00    -0.283 OA
ATOM      5  C   LIG d   1       7.595   1.415  -4.145  0.00  0.00     0.068 A 
ATOM      6  C   LIG d   1       6.543   1.042  -3.308  0.00  0.00    -0.044 A 
ATOM      7  C   LIG d   1       5.647   0.097  -3.721  0.00  0.00    -0.016 A 
ATOM      8  C   LIG d   1       5.781  -0.496  -4.975  0.00  0.00     0.163 A 
ATOM      9  C   LIG d   1       6.822  -0.136  -5.815  0.00  0.00     0.037 A 
ATOM     10  C   LIG d   1       7.740   0.824  -5.410  0.00  0.00     0.146 A 
ATOM     11  O   LIG d   1       8.823   1.355  -6.017  0.00  0.00    -0.451 OA
ATOM     12  H   LIG d   1      11.100   2.745  -6.448  0.00  0.00     0.066 H 
ATOM     13  H   LIG d   1       6.436   1.500  -2.335  0.00  0.00     0.063 H 
ATOM     14  H   LIG d   1       4.832  -0.193  -3.074  0.00  0.00     0.066 H 
ENDROOT
BRANCH   1  15
ATOM     15  C   LIG d   1      10.997   4.071  -4.684  0.00  0.00     0.004 A 
ATOM     16  C   LIG d   1      11.871   3.974  -3.622  0.00  0.00     0.013 A 
ATOM     17  N   LIG d   1      12.044   5.197  -3.064  0.00  0.00    -0.346 N 
ATOM     18  H   LIG d   1      12.346   3.063  -3.287  0.00  0.00     0.082 H 
ATOM     19  C   LIG d   1      11.289   6.144  -3.729  0.00  0.00     0.050 A 
ATOM     20  C   LIG d   1      10.608   5.492  -4.770  0.00  0.00     0.011 A 
ATOM     21  C   LIG d   1      11.126   7.514  -3.560  0.00  0.00    -0.034 A 
ATOM     22  C   LIG d   1       9.768   6.212  -5.615  0.00  0.00    -0.010 A 
ATOM     23  C   LIG d   1       9.613   7.574  -5.428  0.00  0.00     0.121 A 
ATOM     24  H   LIG d   1       9.241   5.710  -6.413  0.00  0.00     0.066 H 
ATOM     25  C   LIG d   1      10.292   8.219  -4.401  0.00  0.00    -0.018 A 
ATOM     26  H   LIG d   1      10.165   9.282  -4.261  0.00  0.00     0.066 H 
ATOM     27  H   LIG d   1      11.649   8.027  -2.766  0.00  0.00     0.064 H 
BRANCH  17  28
ATOM     28  C   LIG d   1      12.906   5.475  -1.913  0.00  0.00     0.021 C 
ATOM     29  H   LIG d   1      13.361   6.459  -2.028  0.00  0.00     0.049 H 
ATOM     30  H   LIG d   1      13.688   4.719  -1.853  0.00  0.00     0.049 H 
BRANCH  28  31
ATOM     31  C   LIG d   1      12.070   5.447  -0.632  0.00  0.00    -0.047 C 
ATOM     32  H   LIG d   1      11.143   4.904  -0.814  0.00  0.00     0.025 H 
ATOM     33  H   LIG d   1      11.839   6.468  -0.326  0.00  0.00     0.025 H 
ATOM     34  H   LIG d   1      12.632   4.951   0.159  0.00  0.00     0.025 H 
ENDBRANCH  28  31
ENDBRANCH  17  28
BRANCH  23  35
ATOM     35  O   LIG d   1       8.793   8.282  -6.250  0.00  0.00    -0.495 OA
BRANCH  35  36
ATOM     36  C   LIG d   1       9.168   8.362  -7.627  0.00  0.00     0.079 C 
ATOM     37  H   LIG d   1       9.739   7.475  -7.900  0.00  0.00     0.066 H 
ATOM     38  H   LIG d   1       8.272   8.421  -8.244  0.00  0.00     0.066 H 
ATOM     39  H   LIG d   1       9.779   9.250  -7.786  0.00  0.00     0.066 H 
ENDBRANCH  35  36
ENDBRANCH  23  35
ENDBRANCH   1  15
BRANCH   9  40
ATOM     40  C   LIG d   1       6.956  -0.784  -7.170  0.00  0.00    -0.033 C 
ATOM     41  H   LIG d   1       8.007  -0.810  -7.457  0.00  0.00     0.028 H 
ATOM     42  H   LIG d   1       6.567  -1.802  -7.125  0.00  0.00     0.028 H 
ATOM     43  H   LIG d   1       6.392  -0.211  -7.904  0.00  0.00     0.028 H 
ENDBRANCH   9  40
BRANCH   8  44
ATOM     44  O   LIG d   1       4.887  -1.434  -5.374  0.00  0.00    -0.346 OA
BRANCH  44  45
ATOM     45  S   LIG d   1       4.990  -2.751  -4.619  0.00  0.00     0.118 S 
ATOM     46  O   LIG d   1       6.343  -2.817  -4.187  0.00  0.00    -0.137 OA
ATOM     47  O   LIG d   1       3.929  -2.710  -3.674  0.00  0.00    -0.137 OA
BRANCH  45  48
ATOM     48  C   LIG d   1       4.668  -4.030  -5.864  0.00  0.00     0.092 C 
ATOM     49  H   LIG d   1       4.589  -3.567  -6.848  0.00  0.00     0.050 H 
ATOM     50  H   LIG d   1       5.487  -4.749  -5.867  0.00  0.00     0.050 H 
ATOM     51  H   LIG d   1       3.735  -4.542  -5.627  0.00  0.00     0.050 H 
ENDBRANCH  45  48
ENDBRANCH  44  45
ENDBRANCH   8  44
TORSDOF 9
ENDMDL
MODEL 5
REMARK VINA RESULT:      -5.3      7.388     11.799
REMARK  9 active torsions:
REMARK  status: ('A' for Active; 'I' for Inactive)
REMARK    1  A    between atoms: C_1  and  C_2 
REMARK    2  A    between atoms: C_2  and  N_3 
REMARK    3  A    between atoms: C_5  and  C_14 
REMARK    4  A    between atoms: C_10  and  O_12 
REMARK    5  A    between atoms: O_12  and  C_13 
REMARK    6  A    between atoms: C_21  and  O_26 
REMARK    7  A    between atoms: C_22  and  C_25 
REMARK    8  A    between atoms: O_26  and  S_27 
REMARK    9  A    between atoms: S_27  and  C_30 
ROOT
ATOM      1  C   LIG d   1       6.422  -2.733  -6.512  0.00  0.00    -0.006 C 
ATOM      2  C   LIG d   1       6.273  -4.058  -6.232  0.00  0.00     0.176 A 
ATOM      3  C   LIG d   1       5.056  -4.699  -5.877  0.00  0.00     0.232 A 
ATOM      4  O   LIG d   1       3.955  -4.186  -5.761  0.00  0.00    -0.283 OA
ATOM      5  C   LIG d   1       5.410  -6.115  -5.677  0.00  0.00     0.068 A 
ATOM      6  C   LIG d   1       4.677  -7.246  -5.322  0.00  0.00    -0.044 A 
ATOM      7  C   LIG d   1       5.302  -8.457  -5.214  0.00  0.00    -0.016 A 
ATOM      8  C   LIG d   1       6.669  -8.563  -5.458  0.00  0.00     0.163 A 
ATOM      9  C   LIG d   1       7.409  -7.447  -5.811  0.00  0.00     0.037 A 
ATOM     10  C   LIG d   1       6.788  -6.210  -5.925  0.00  0.00     0.146 A 
ATOM     11  O   LIG d   1       7.257  -4.987  -6.252  0.00  0.00    -0.451 OA
ATOM     12  H   LIG d   1       7.411  -2.318  -6.647  0.00  0.00     0.066 H 
ATOM     13  H   LIG d   1       3.616  -7.167  -5.132  0.00  0.00     0.063 H 
ATOM     14  H   LIG d   1       4.735  -9.333  -4.938  0.00  0.00     0.066 H 
ENDROOT
BRANCH   1  15
ATOM     15  C   LIG d   1       5.248  -1.873  -6.628  0.00  0.00     0.004 A 
ATOM     16  C   LIG d   1       4.558  -1.567  -7.782  0.00  0.00     0.013 A 
ATOM     17  N   LIG d   1       3.526  -0.740  -7.487  0.00  0.00    -0.346 N 
ATOM     18  H   LIG d   1       4.801  -1.932  -8.769  0.00  0.00     0.082 H 
ATOM     19  C   LIG d   1       3.498  -0.462  -6.134  0.00  0.00     0.050 A 
ATOM     20  C   LIG d   1       4.562  -1.157  -5.535  0.00  0.00     0.011 A 
ATOM     21  C   LIG d   1       2.654   0.308  -5.342  0.00  0.00    -0.034 A 
ATOM     22  C   LIG d   1       4.774  -1.063  -4.162  0.00  0.00    -0.010 A 
ATOM     23  C   LIG d   1       3.927  -0.288  -3.391  0.00  0.00     0.121 A 
ATOM     24  H   LIG d   1       5.594  -1.594  -3.702  0.00  0.00     0.066 H 
ATOM     25  C   LIG d   1       2.871   0.395  -3.984  0.00  0.00    -0.018 A 
ATOM     26  H   LIG d   1       2.215   0.999  -3.375  0.00  0.00     0.066 H 
ATOM     27  H   LIG d   1       1.830   0.842  -5.792  0.00  0.00     0.064 H 
BRANCH  17  28
ATOM     28  C   LIG d   1       2.575  -0.208  -8.467  0.00  0.00     0.021 C 
ATOM     29  H   LIG d   1       1.558  -0.355  -8.104  0.00  0.00     0.049 H 
ATOM     30  H   LIG d   1       2.702  -0.728  -9.416  0.00  0.00     0.049 H 
BRANCH  28  31
ATOM     31  C   LIG d   1       2.833   1.288  -8.668  0.00  0.00    -0.047 C 
ATOM     32  H   LIG d   1       1.897   1.788  -8.911  0.00  0.00     0.025 H 
ATOM     33  H   LIG d   1       3.543   1.428  -9.483  0.00  0.00     0.025 H 
ATOM     34  H   LIG d   1       3.245   1.711  -7.752  0.00  0.00     0.025 H 
ENDBRANCH  28  31
ENDBRANCH  17  28
BRANCH  23  35
ATOM     35  O   LIG d   1       4.130  -0.192  -2.049  0.00  0.00    -0.495 OA
BRANCH  35  36
ATOM     36  C   LIG d   1       4.667   1.040  -1.561  0.00  0.00     0.079 C 
ATOM     37  H   LIG d   1       4.230   1.870  -2.113  0.00  0.00     0.066 H 
ATOM     38  H   LIG d   1       4.433   1.143  -0.502  0.00  0.00     0.066 H 
ATOM     39  H   LIG d   1       5.748   1.042  -1.696  0.00  0.00     0.066 H 
ENDBRANCH  35  36
ENDBRANCH  23  35
ENDBRANCH   1  15
BRANCH   9  40
ATOM     40  C   LIG d   1       8.889  -7.575  -6.073  0.00  0.00    -0.033 C 
ATOM     41  H   LIG d   1       9.070  -8.430  -6.724  0.00  0.00     0.028 H 
ATOM     42  H   LIG d   1       9.252  -6.668  -6.556  0.00  0.00     0.028 H 
ATOM     43  H   LIG d   1       9.412  -7.719  -5.128  0.00  0.00     0.028 H 
ENDBRANCH   9  40
BRANCH   8  44
ATOM     44  O   LIG d   1       7.280  -9.769  -5.347  0.00  0.00    -0.346 OA
BRANCH  44  45
ATOM     45  S   LIG d   1       7.438 -10.255  -3.913  0.00  0.00     0.118 S 
ATOM     46  O   LIG d   1       8.654 -10.989  -3.910  0.00  0.00    -0.137 OA
ATOM     47  O   LIG d   1       7.295  -9.086  -3.118  0.00  0.00    -0.137 OA
BRANCH  45  48
ATOM     48  C   LIG d   1       6.033 -11.371  -3.642  0.00  0.00     0.092 C 
ATOM     49  H   LIG d   1       6.394 -12.319  -3.245  0.00  0.00     0.050 H 
ATOM     50  H   LIG d   1       5.343 -10.919  -2.931  0.00  0.00     0.050 H 
ATOM     51  H   LIG d   1       5.519 -11.545  -4.588  0.00  0.00     0.050 H 
ENDBRANCH  45  48
ENDBRANCH  44  45
ENDBRANCH   8  44
TORSDOF 9
ENDMDL
MODEL 6
REMARK VINA RESULT:      -5.3      3.844      8.628
REMARK  9 active torsions:
REMARK  status: ('A' for Active; 'I' for Inactive)
REMARK    1  A    between atoms: C_1  and  C_2 
REMARK    2  A    between atoms: C_2  and  N_3 
REMARK    3  A    between atoms: C_5  and  C_14 
REMARK    4  A    between atoms: C_10  and  O_12 
REMARK    5  A    between atoms: O_12  and  C_13 
REMARK    6  A    between atoms: C_21  and  O_26 
REMARK    7  A    between atoms: C_22  and  C_25 
REMARK    8  A    between atoms: O_26  and  S_27 
REMARK    9  A    between atoms: S_27  and  C_30 
ROOT
ATOM      1  C   LIG d   1      10.621   2.361  -5.909  0.00  0.00    -0.006 C 
ATOM      2  C   LIG d   1       9.572   1.740  -5.300  0.00  0.00     0.176 A 
ATOM      3  C   LIG d   1       8.555   2.379  -4.542  0.00  0.00     0.232 A 
ATOM      4  O   LIG d   1       8.446   3.571  -4.307  0.00  0.00    -0.283 OA
ATOM      5  C   LIG d   1       7.663   1.293  -4.101  0.00  0.00     0.068 A 
ATOM      6  C   LIG d   1       6.497   1.260  -3.336  0.00  0.00    -0.044 A 
ATOM      7  C   LIG d   1       5.878   0.066  -3.090  0.00  0.00    -0.016 A 
ATOM      8  C   LIG d   1       6.408  -1.116  -3.601  0.00  0.00     0.163 A 
ATOM      9  C   LIG d   1       7.565  -1.097  -4.362  0.00  0.00     0.037 A 
ATOM     10  C   LIG d   1       8.205   0.108  -4.621  0.00  0.00     0.146 A 
ATOM     11  O   LIG d   1       9.319   0.410  -5.321  0.00  0.00    -0.451 OA
ATOM     12  H   LIG d   1      11.411   1.774  -6.354  0.00  0.00     0.066 H 
ATOM     13  H   LIG d   1       6.084   2.175  -2.937  0.00  0.00     0.063 H 
ATOM     14  H   LIG d   1       4.976   0.040  -2.497  0.00  0.00     0.066 H 
ENDROOT
BRANCH   1  15
ATOM     15  C   LIG d   1      10.678   3.820  -5.958  0.00  0.00     0.004 A 
ATOM     16  C   LIG d   1      11.227   4.658  -5.010  0.00  0.00     0.013 A 
ATOM     17  N   LIG d   1      11.090   5.945  -5.411  0.00  0.00    -0.346 N 
ATOM     18  H   LIG d   1      11.696   4.338  -4.091  0.00  0.00     0.082 H 
ATOM     19  C   LIG d   1      10.442   6.008  -6.630  0.00  0.00     0.050 A 
ATOM     20  C   LIG d   1      10.162   4.691  -7.031  0.00  0.00     0.011 A 
ATOM     21  C   LIG d   1      10.076   7.065  -7.455  0.00  0.00    -0.034 A 
ATOM     22  C   LIG d   1       9.510   4.451  -8.237  0.00  0.00    -0.010 A 
ATOM     23  C   LIG d   1       9.147   5.516  -9.042  0.00  0.00     0.121 A 
ATOM     24  H   LIG d   1       9.290   3.439  -8.543  0.00  0.00     0.066 H 
ATOM     25  C   LIG d   1       9.431   6.819  -8.647  0.00  0.00    -0.018 A 
ATOM     26  H   LIG d   1       9.144   7.645  -9.281  0.00  0.00     0.066 H 
ATOM     27  H   LIG d   1      10.292   8.081  -7.158  0.00  0.00     0.064 H 
BRANCH  17  28
ATOM     28  C   LIG d   1      11.558   7.110  -4.654  0.00  0.00     0.021 C 
ATOM     29  H   LIG d   1      11.649   7.966  -5.323  0.00  0.00     0.049 H 
ATOM     30  H   LIG d   1      12.528   6.889  -4.211  0.00  0.00     0.049 H 
BRANCH  28  31
ATOM     31  C   LIG d   1      10.553   7.434  -3.546  0.00  0.00    -0.047 C 
ATOM     32  H   LIG d   1      11.089   7.681  -2.630  0.00  0.00     0.025 H 
ATOM     33  H   LIG d   1       9.913   6.570  -3.371  0.00  0.00     0.025 H 
ATOM     34  H   LIG d   1       9.941   8.283  -3.848  0.00  0.00     0.025 H 
ENDBRANCH  28  31
ENDBRANCH  17  28
BRANCH  23  35
ATOM     35  O   LIG d   1       8.510   5.288 -10.221  0.00  0.00    -0.495 OA
BRANCH  35  36
ATOM     36  C   LIG d   1       8.922   6.072 -11.343  0.00  0.00     0.079 C 
ATOM     37  H   LIG d   1       8.542   7.087 -11.235  0.00  0.00     0.066 H 
ATOM     38  H   LIG d   1      10.010   6.094 -11.391  0.00  0.00     0.066 H 
ATOM     39  H   LIG d   1       8.526   5.632 -12.258  0.00  0.00     0.066 H 
ENDBRANCH  35  36
ENDBRANCH  23  35
ENDBRANCH   1  15
BRANCH   9  40
ATOM     40  C   LIG d   1       8.128  -2.384  -4.910  0.00  0.00    -0.033 C 
ATOM     41  H   LIG d   1       7.637  -2.624  -5.853  0.00  0.00     0.028 H 
ATOM     42  H   LIG d   1       9.199  -2.268  -5.079  0.00  0.00     0.028 H 
ATOM     43  H   LIG d   1       7.957  -3.188  -4.195  0.00  0.00     0.028 H 
ENDBRANCH   9  40
BRANCH   8  44
ATOM     44  O   LIG d   1       5.786  -2.295  -3.350  0.00  0.00    -0.346 OA
BRANCH  44  45
ATOM     45  S   LIG d   1       4.494  -2.493  -4.131  0.00  0.00     0.118 S 
ATOM     46  O   LIG d   1       4.535  -3.847  -4.563  0.00  0.00    -0.137 OA
ATOM     47  O   LIG d   1       3.470  -2.043  -3.255  0.00  0.00    -0.137 OA
BRANCH  45  48
ATOM     48  C   LIG d   1       4.634  -1.378  -5.554  0.00  0.00     0.092 C 
ATOM     49  H   LIG d   1       4.422  -0.357  -5.238  0.00  0.00     0.050 H 
ATOM     50  H   LIG d   1       5.645  -1.430  -5.959  0.00  0.00     0.050 H 
ATOM     51  H   LIG d   1       3.920  -1.676  -6.321  0.00  0.00     0.050 H 
ENDBRANCH  45  48
ENDBRANCH  44  45
ENDBRANCH   8  44
TORSDOF 9
ENDMDL
MODEL 7
REMARK VINA RESULT:      -5.3      9.065     11.616
REMARK  9 active torsions:
REMARK  status: ('A' for Active; 'I' for Inactive)
REMARK    1  A    between atoms: C_1  and  C_2 
REMARK    2  A    between atoms: C_2  and  N_3 
REMARK    3  A    between atoms: C_5  and  C_14 
REMARK    4  A    between atoms: C_10  and  O_12 
REMARK    5  A    between atoms: O_12  and  C_13 
REMARK    6  A    between atoms: C_21  and  O_26 
REMARK    7  A    between atoms: C_22  and  C_25 
REMARK    8  A    between atoms: O_26  and  S_27 
REMARK    9  A    between atoms: S_27  and  C_30 
ROOT
ATOM      1  C   LIG d   1       2.917  -3.939 -11.115  0.00  0.00    -0.006 C 
ATOM      2  C   LIG d   1       3.072  -3.020 -10.121  0.00  0.00     0.176 A 
ATOM      3  C   LIG d   1       2.209  -1.920  -9.866  0.00  0.00     0.232 A 
ATOM      4  O   LIG d   1       1.201  -1.612 -10.481  0.00  0.00    -0.283 OA
ATOM      5  C   LIG d   1       2.795  -1.233  -8.703  0.00  0.00     0.068 A 
ATOM      6  C   LIG d   1       2.432  -0.101  -7.973  0.00  0.00    -0.044 A 
ATOM      7  C   LIG d   1       3.196   0.301  -6.915  0.00  0.00    -0.016 A 
ATOM      8  C   LIG d   1       4.337  -0.415  -6.562  0.00  0.00     0.163 A 
ATOM      9  C   LIG d   1       4.710  -1.541  -7.278  0.00  0.00     0.037 A 
ATOM     10  C   LIG d   1       3.943  -1.962  -8.357  0.00  0.00     0.146 A 
ATOM     11  O   LIG d   1       4.070  -3.004  -9.206  0.00  0.00    -0.451 OA
ATOM     12  H   LIG d   1       3.695  -4.664 -11.306  0.00  0.00     0.066 H 
ATOM     13  H   LIG d   1       1.547   0.457  -8.244  0.00  0.00     0.063 H 
ATOM     14  H   LIG d   1       2.916   1.178  -6.350  0.00  0.00     0.066 H 
ENDROOT
BRANCH   1  15
ATOM     15  C   LIG d   1       1.700  -3.945 -11.923  0.00  0.00     0.004 A 
ATOM     16  C   LIG d   1       1.577  -3.538 -13.235  0.00  0.00     0.013 A 
ATOM     17  N   LIG d   1       0.293  -3.693 -13.639  0.00  0.00    -0.346 N 
ATOM     18  H   LIG d   1       2.380  -3.155 -13.847  0.00  0.00     0.082 H 
ATOM     19  C   LIG d   1      -0.480  -4.201 -12.612  0.00  0.00     0.050 A 
ATOM     20  C   LIG d   1       0.358  -4.387 -11.500  0.00  0.00     0.011 A 
ATOM     21  C   LIG d   1      -1.825  -4.543 -12.518  0.00  0.00    -0.034 A 
ATOM     22  C   LIG d   1      -0.159  -4.898 -10.313  0.00  0.00    -0.010 A 
ATOM     23  C   LIG d   1      -1.500  -5.226 -10.235  0.00  0.00     0.121 A 
ATOM     24  H   LIG d   1       0.484  -5.037  -9.456  0.00  0.00     0.066 H 
ATOM     25  C   LIG d   1      -2.328  -5.047 -11.338  0.00  0.00    -0.018 A 
ATOM     26  H   LIG d   1      -3.374  -5.306 -11.270  0.00  0.00     0.066 H 
ATOM     27  H   LIG d   1      -2.477  -4.409 -13.369  0.00  0.00     0.064 H 
BRANCH  17  28
ATOM     28  C   LIG d   1      -0.209  -3.364 -14.975  0.00  0.00     0.021 C 
ATOM     29  H   LIG d   1      -0.929  -4.119 -15.290  0.00  0.00     0.049 H 
ATOM     30  H   LIG d   1       0.622  -3.339 -15.679  0.00  0.00     0.049 H 
BRANCH  28  31
ATOM     31  C   LIG d   1      -0.889  -1.993 -14.941  0.00  0.00    -0.047 C 
ATOM     32  H   LIG d   1      -1.337  -1.835 -13.960  0.00  0.00     0.025 H 
ATOM     33  H   LIG d   1      -1.664  -1.953 -15.706  0.00  0.00     0.025 H 
ATOM     34  H   LIG d   1      -0.150  -1.216 -15.132  0.00  0.00     0.025 H 
ENDBRANCH  28  31
ENDBRANCH  17  28
BRANCH  23  35
ATOM     35  O   LIG d   1      -2.011  -5.724  -9.077  0.00  0.00    -0.495 OA
BRANCH  35  36
ATOM     36  C   LIG d   1      -3.298  -6.341  -9.149  0.00  0.00     0.079 C 
ATOM     37  H   LIG d   1      -3.227  -7.372  -8.804  0.00  0.00     0.066 H 
ATOM     38  H   LIG d   1      -3.998  -5.794  -8.517  0.00  0.00     0.066 H 
ATOM     39  H   LIG d   1      -3.651  -6.325 -10.179  0.00  0.00     0.066 H 
ENDBRANCH  35  36
ENDBRANCH  23  35
ENDBRANCH   1  15
BRANCH   9  40
ATOM     40  C   LIG d   1       5.948  -2.308  -6.887  0.00  0.00    -0.033 C 
ATOM     41  H   LIG d   1       5.660  -3.258  -6.437  0.00  0.00     0.028 H 
ATOM     42  H   LIG d   1       6.554  -2.495  -7.773  0.00  0.00     0.028 H 
ATOM     43  H   LIG d   1       6.524  -1.725  -6.169  0.00  0.00     0.028 H 
ENDBRANCH   9  40
BRANCH   8  44
ATOM     44  O   LIG d   1       5.090  -0.006  -5.510  0.00  0.00    -0.346 OA
BRANCH  44  45
ATOM     45  S   LIG d   1       4.410  -0.173  -4.159  0.00  0.00     0.118 S 
ATOM     46  O   LIG d   1       3.619   0.998  -4.004  0.00  0.00    -0.137 OA
ATOM     47  O   LIG d   1       3.801  -1.455  -4.217  0.00  0.00    -0.137 OA
BRANCH  45  48
ATOM     48  C   LIG d   1       5.764  -0.177  -2.953  0.00  0.00     0.092 C 
ATOM     49  H   LIG d   1       6.521   0.547  -3.254  0.00  0.00     0.050 H 
ATOM     50  H   LIG d   1       5.376   0.092  -1.970  0.00  0.00     0.050 H 
ATOM     51  H   LIG d   1       6.209  -1.171  -2.909  0.00  0.00     0.050 H 
ENDBRANCH  45  48
ENDBRANCH  44  45
ENDBRANCH   8  44
TORSDOF 9
ENDMDL
MODEL 8
REMARK VINA RESULT:      -5.3      3.538      8.768
REMARK  9 active torsions:
REMARK  status: ('A' for Active; 'I' for Inactive)
REMARK    1  A    between atoms: C_1  and  C_2 
REMARK    2  A    between atoms: C_2  and  N_3 
REMARK    3  A    between atoms: C_5  and  C_14 
REMARK    4  A    between atoms: C_10  and  O_12 
REMARK    5  A    between atoms: O_12  and  C_13 
REMARK    6  A    between atoms: C_21  and  O_26 
REMARK    7  A    between atoms: C_22  and  C_25 
REMARK    8  A    between atoms: O_26  and  S_27 
REMARK    9  A    between atoms: S_27  and  C_30 
ROOT
ATOM      1  C   LIG d   1      10.499   2.723  -5.055  0.00  0.00    -0.006 C 
ATOM      2  C   LIG d   1       9.576   1.765  -4.760  0.00  0.00     0.176 A 
ATOM      3  C   LIG d   1       8.370   1.969  -4.037  0.00  0.00     0.232 A 
ATOM      4  O   LIG d   1       7.959   3.016  -3.562  0.00  0.00    -0.283 OA
ATOM      5  C   LIG d   1       7.724   0.647  -3.982  0.00  0.00     0.068 A 
ATOM      6  C   LIG d   1       6.534   0.182  -3.423  0.00  0.00    -0.044 A 
ATOM      7  C   LIG d   1       6.196  -1.137  -3.541  0.00  0.00    -0.016 A 
ATOM      8  C   LIG d   1       7.037  -2.018  -4.217  0.00  0.00     0.163 A 
ATOM      9  C   LIG d   1       8.222  -1.570  -4.777  0.00  0.00     0.037 A 
ATOM     10  C   LIG d   1       8.579  -0.232  -4.666  0.00  0.00     0.146 A 
ATOM     11  O   LIG d   1       9.650   0.459  -5.111  0.00  0.00    -0.451 OA
ATOM     12  H   LIG d   1      11.443   2.443  -5.498  0.00  0.00     0.066 H 
ATOM     13  H   LIG d   1       5.880   0.863  -2.897  0.00  0.00     0.063 H 
ATOM     14  H   LIG d   1       5.276  -1.498  -3.108  0.00  0.00     0.066 H 
ENDROOT
BRANCH   1  15
ATOM     15  C   LIG d   1      10.213   4.127  -4.771  0.00  0.00     0.004 A 
ATOM     16  C   LIG d   1       9.712   5.063  -5.652  0.00  0.00     0.013 A 
ATOM     17  N   LIG d   1       9.582   6.254  -5.020  0.00  0.00    -0.346 N 
ATOM     18  H   LIG d   1       9.462   4.875  -6.686  0.00  0.00     0.082 H 
ATOM     19  C   LIG d   1       9.995   6.154  -3.705  0.00  0.00     0.050 A 
ATOM     20  C   LIG d   1      10.400   4.828  -3.486  0.00  0.00     0.011 A 
ATOM     21  C   LIG d   1      10.050   7.067  -2.658  0.00  0.00    -0.034 A 
ATOM     22  C   LIG d   1      10.864   4.436  -2.234  0.00  0.00    -0.010 A 
ATOM     23  C   LIG d   1      10.918   5.359  -1.205  0.00  0.00     0.121 A 
ATOM     24  H   LIG d   1      11.180   3.417  -2.066  0.00  0.00     0.066 H 
ATOM     25  C   LIG d   1      10.511   6.670  -1.421  0.00  0.00    -0.018 A 
ATOM     26  H   LIG d   1      10.557   7.385  -0.613  0.00  0.00     0.066 H 
ATOM     27  H   LIG d   1       9.735   8.088  -2.814  0.00  0.00     0.064 H 
BRANCH  17  28
ATOM     28  C   LIG d   1       9.079   7.480  -5.645  0.00  0.00     0.021 C 
ATOM     29  H   LIG d   1       9.486   8.348  -5.125  0.00  0.00     0.049 H 
ATOM     30  H   LIG d   1       7.991   7.499  -5.586  0.00  0.00     0.049 H 
BRANCH  28  31
ATOM     31  C   LIG d   1       9.510   7.518  -7.114  0.00  0.00    -0.047 C 
ATOM     32  H   LIG d   1      10.584   7.345  -7.181  0.00  0.00     0.025 H 
ATOM     33  H   LIG d   1       9.272   8.494  -7.537  0.00  0.00     0.025 H 
ATOM     34  H   LIG d   1       8.981   6.743  -7.667  0.00  0.00     0.025 H 
ENDBRANCH  28  31
ENDBRANCH  17  28
BRANCH  23  35
ATOM     35  O   LIG d   1      11.372   4.982   0.020  0.00  0.00    -0.495 OA
BRANCH  35  36
ATOM     36  C   LIG d   1      11.167   5.898   1.098  0.00  0.00     0.079 C 
ATOM     37  H   LIG d   1      11.846   5.656   1.915  0.00  0.00     0.066 H 
ATOM     38  H   LIG d   1      11.362   6.913   0.753  0.00  0.00     0.066 H 
ATOM     39  H   LIG d   1      10.137   5.824   1.446  0.00  0.00     0.066 H 
ENDBRANCH  35  36
ENDBRANCH  23  35
ENDBRANCH   1  15
BRANCH   9  40
ATOM     40  C   LIG d   1       9.123  -2.533  -5.507  0.00  0.00    -0.033 C 
ATOM     41  H   LIG d   1       8.783  -3.554  -5.331  0.00  0.00     0.028 H 
ATOM     42  H   LIG d   1       9.094  -2.320  -6.575  0.00  0.00     0.028 H 
ATOM     43  H   LIG d   1      10.144  -2.422  -5.142  0.00  0.00     0.028 H 
ENDBRANCH   9  40
BRANCH   8  44
ATOM     44  O   LIG d   1       6.692  -3.326  -4.327  0.00  0.00    -0.346 OA
BRANCH  44  45
ATOM     45  S   LIG d   1       5.450  -3.571  -5.171  0.00  0.00     0.118 S 
ATOM     46  O   LIG d   1       4.371  -3.542  -4.246  0.00  0.00    -0.137 OA
ATOM     47  O   LIG d   1       5.530  -2.615  -6.219  0.00  0.00    -0.137 OA
BRANCH  45  48
ATOM     48  C   LIG d   1       5.660  -5.245  -5.835  0.00  0.00     0.092 C 
ATOM     49  H   LIG d   1       6.687  -5.374  -6.177  0.00  0.00     0.050 H 
ATOM     50  H   LIG d   1       5.443  -5.975  -5.055  0.00  0.00     0.050 H 
ATOM     51  H   LIG d   1       4.977  -5.394  -6.671  0.00  0.00     0.050 H 
ENDBRANCH  45  48
ENDBRANCH  44  45
ENDBRANCH   8  44
TORSDOF 9
ENDMDL
MODEL 9
REMARK VINA RESULT:      -5.2      6.347     10.963
REMARK  9 active torsions:
REMARK  status: ('A' for Active; 'I' for Inactive)
REMARK    1  A    between atoms: C_1  and  C_2 
REMARK    2  A    between atoms: C_2  and  N_3 
REMARK    3  A    between atoms: C_5  and  C_14 
REMARK    4  A    between atoms: C_10  and  O_12 
REMARK    5  A    between atoms: O_12  and  C_13 
REMARK    6  A    between atoms: C_21  and  O_26 
REMARK    7  A    between atoms: C_22  and  C_25 
REMARK    8  A    between atoms: O_26  and  S_27 
REMARK    9  A    between atoms: S_27  and  C_30 
ROOT
ATOM      1  C   LIG d   1       7.885  -3.570  -5.733  0.00  0.00    -0.006 C 
ATOM      2  C   LIG d   1       8.295  -4.564  -4.896  0.00  0.00     0.176 A 
ATOM      3  C   LIG d   1       9.069  -4.390  -3.718  0.00  0.00     0.232 A 
ATOM      4  O   LIG d   1       9.495  -3.343  -3.259  0.00  0.00    -0.283 OA
ATOM      5  C   LIG d   1       9.248  -5.746  -3.170  0.00  0.00     0.068 A 
ATOM      6  C   LIG d   1       9.904  -6.248  -2.046  0.00  0.00    -0.044 A 
ATOM      7  C   LIG d   1       9.893  -7.592  -1.796  0.00  0.00    -0.016 A 
ATOM      8  C   LIG d   1       9.231  -8.460  -2.660  0.00  0.00     0.163 A 
ATOM      9  C   LIG d   1       8.576  -7.975  -3.780  0.00  0.00     0.037 A 
ATOM     10  C   LIG d   1       8.578  -6.612  -4.048  0.00  0.00     0.146 A 
ATOM     11  O   LIG d   1       8.028  -5.884  -5.043  0.00  0.00    -0.451 OA
ATOM     12  H   LIG d   1       7.408  -3.817  -6.670  0.00  0.00     0.066 H 
ATOM     13  H   LIG d   1      10.419  -5.577  -1.374  0.00  0.00     0.063 H 
ATOM     14  H   LIG d   1      10.401  -7.982  -0.926  0.00  0.00     0.066 H 
ENDROOT
BRANCH   1  15
ATOM     15  C   LIG d   1       8.090  -2.172  -5.363  0.00  0.00     0.004 A 
ATOM     16  C   LIG d   1       9.146  -1.366  -5.731  0.00  0.00     0.013 A 
ATOM     17  N   LIG d   1       8.984  -0.133  -5.194  0.00  0.00    -0.346 N 
ATOM     18  H   LIG d   1       9.976  -1.670  -6.353  0.00  0.00     0.082 H 
ATOM     19  C   LIG d   1       7.821  -0.078  -4.448  0.00  0.00     0.050 A 
ATOM     20  C   LIG d   1       7.208  -1.339  -4.523  0.00  0.00     0.011 A 
ATOM     21  C   LIG d   1       7.210   0.936  -3.720  0.00  0.00    -0.034 A 
ATOM     22  C   LIG d   1       6.005  -1.572  -3.862  0.00  0.00    -0.010 A 
ATOM     23  C   LIG d   1       5.414  -0.553  -3.137  0.00  0.00     0.121 A 
ATOM     24  H   LIG d   1       5.535  -2.544  -3.916  0.00  0.00     0.066 H 
ATOM     25  C   LIG d   1       6.019   0.697  -3.068  0.00  0.00    -0.018 A 
ATOM     26  H   LIG d   1       5.552   1.487  -2.500  0.00  0.00     0.066 H 
ATOM     27  H   LIG d   1       7.671   1.912  -3.661  0.00  0.00     0.064 H 
BRANCH  17  28
ATOM     28  C   LIG d   1       9.913   0.986  -5.373  0.00  0.00     0.021 C 
ATOM     29  H   LIG d   1      10.910   0.600  -5.587  0.00  0.00     0.049 H 
ATOM     30  H   LIG d   1       9.942   1.583  -4.462  0.00  0.00     0.049 H 
BRANCH  28  31
ATOM     31  C   LIG d   1       9.443   1.857  -6.540  0.00  0.00    -0.047 C 
ATOM     32  H   LIG d   1       8.858   2.692  -6.157  0.00  0.00     0.025 H 
ATOM     33  H   LIG d   1       8.828   1.261  -7.214  0.00  0.00     0.025 H 
ATOM     34  H   LIG d   1      10.309   2.237  -7.081  0.00  0.00     0.025 H 
ENDBRANCH  28  31
ENDBRANCH  17  28
BRANCH  23  35
ATOM     35  O   LIG d   1       4.240  -0.776  -2.489  0.00  0.00    -0.495 OA
BRANCH  35  36
ATOM     36  C   LIG d   1       3.829  -2.137  -2.341  0.00  0.00     0.079 C 
ATOM     37  H   LIG d   1       2.992  -2.189  -1.645  0.00  0.00     0.066 H 
ATOM     38  H   LIG d   1       3.522  -2.531  -3.309  0.00  0.00     0.066 H 
ATOM     39  H   LIG d   1       4.660  -2.726  -1.954  0.00  0.00     0.066 H 
ENDBRANCH  35  36
ENDBRANCH  23  35
ENDBRANCH   1  15
BRANCH   9  40
ATOM     40  C   LIG d   1       7.863  -8.925  -4.708  0.00  0.00    -0.033 C 
ATOM     41  H   LIG d   1       8.090  -8.664  -5.741  0.00  0.00     0.028 H 
ATOM     42  H   LIG d   1       8.195  -9.944  -4.510  0.00  0.00     0.028 H 
ATOM     43  H   LIG d   1       6.788  -8.854  -4.543  0.00  0.00     0.028 H 
ENDBRANCH   9  40
BRANCH   8  44
ATOM     44  O   LIG d   1       9.228  -9.792  -2.403  0.00  0.00    -0.346 OA
BRANCH  44  45
ATOM     45  S   LIG d   1       8.382 -10.190  -1.202  0.00  0.00     0.118 S 
ATOM     46  O   LIG d   1       9.277 -10.155  -0.099  0.00  0.00    -0.137 OA
ATOM     47  O   LIG d   1       7.256  -9.324  -1.250  0.00  0.00    -0.137 OA
BRANCH  45  48
ATOM     48  C   LIG d   1       7.871 -11.898  -1.537  0.00  0.00     0.092 C 
ATOM     49  H   LIG d   1       8.540 -12.339  -2.276  0.00  0.00     0.050 H 
ATOM     50  H   LIG d   1       7.916 -12.478  -0.616  0.00  0.00     0.050 H 
ATOM     51  H   LIG d   1       6.851 -11.904  -1.921  0.00  0.00     0.050 H 
ENDBRANCH  45  48
ENDBRANCH  44  45
ENDBRANCH   8  44
TORSDOF 9
ENDMDL
MODEL 10
REMARK VINA RESULT:      -5.1      7.643     12.072
REMARK  9 active torsions:
REMARK  status: ('A' for Active; 'I' for Inactive)
REMARK    1  A    between atoms: C_1  and  C_2 
REMARK    2  A    between atoms: C_2  and  N_3 
REMARK    3  A    between atoms: C_5  and  C_14 
REMARK    4  A    between atoms: C_10  and  O_12 
REMARK    5  A    between atoms: O_12  and  C_13 
REMARK    6  A    between atoms: C_21  and  O_26 
REMARK    7  A    between atoms: C_22  and  C_25 
REMARK    8  A    between atoms: O_26  and  S_27 
REMARK    9  A    between atoms: S_27  and  C_30 
ROOT
ATOM      1  C   LIG d   1       4.595  -5.233  -5.888  0.00  0.00    -0.006 C 
ATOM      2  C   LIG d   1       4.117  -4.937  -7.129  0.00  0.00     0.176 A 
ATOM      3  C   LIG d   1       4.394  -3.753  -7.864  0.00  0.00     0.232 A 
ATOM      4  O   LIG d   1       5.093  -2.814  -7.519  0.00  0.00    -0.283 OA
ATOM      5  C   LIG d   1       3.656  -3.903  -9.130  0.00  0.00     0.068 A 
ATOM      6  C   LIG d   1       3.517  -3.099 -10.261  0.00  0.00    -0.044 A 
ATOM      7  C   LIG d   1       2.743  -3.521 -11.305  0.00  0.00    -0.016 A 
ATOM      8  C   LIG d   1       2.094  -4.751 -11.243  0.00  0.00     0.163 A 
ATOM      9  C   LIG d   1       2.223  -5.560 -10.126  0.00  0.00     0.037 A 
ATOM     10  C   LIG d   1       3.006  -5.145  -9.056  0.00  0.00     0.146 A 
ATOM     11  O   LIG d   1       3.303  -5.723  -7.873  0.00  0.00    -0.451 OA
ATOM     12  H   LIG d   1       4.225  -6.101  -5.361  0.00  0.00     0.066 H 
ATOM     13  H   LIG d   1       4.020  -2.143 -10.312  0.00  0.00     0.063 H 
ATOM     14  H   LIG d   1       2.634  -2.899 -12.181  0.00  0.00     0.066 H 
ENDROOT
BRANCH   1  15
ATOM     15  C   LIG d   1       5.606  -4.380  -5.270  0.00  0.00     0.004 A 
ATOM     16  C   LIG d   1       6.974  -4.552  -5.316  0.00  0.00     0.013 A 
ATOM     17  N   LIG d   1       7.579  -3.556  -4.625  0.00  0.00    -0.346 N 
ATOM     18  H   LIG d   1       7.484  -5.355  -5.826  0.00  0.00     0.082 H 
ATOM     19  C   LIG d   1       6.638  -2.694  -4.092  0.00  0.00     0.050 A 
ATOM     20  C   LIG d   1       5.370  -3.161  -4.472  0.00  0.00     0.011 A 
ATOM     21  C   LIG d   1       6.739  -1.538  -3.327  0.00  0.00    -0.034 A 
ATOM     22  C   LIG d   1       4.225  -2.477  -4.074  0.00  0.00    -0.010 A 
ATOM     23  C   LIG d   1       4.344  -1.331  -3.308  0.00  0.00     0.121 A 
ATOM     24  H   LIG d   1       3.248  -2.838  -4.363  0.00  0.00     0.066 H 
ATOM     25  C   LIG d   1       5.600  -0.867  -2.937  0.00  0.00    -0.018 A 
ATOM     26  H   LIG d   1       5.685   0.028  -2.339  0.00  0.00     0.066 H 
ATOM     27  H   LIG d   1       7.711  -1.167  -3.034  0.00  0.00     0.064 H 
BRANCH  17  28
ATOM     28  C   LIG d   1       9.028  -3.414  -4.460  0.00  0.00     0.021 C 
ATOM     29  H   LIG d   1       9.290  -2.356  -4.438  0.00  0.00     0.049 H 
ATOM     30  H   LIG d   1       9.537  -3.898  -5.292  0.00  0.00     0.049 H 
BRANCH  28  31
ATOM     31  C   LIG d   1       9.458  -4.073  -3.147  0.00  0.00    -0.047 C 
ATOM     32  H   LIG d   1       8.680  -4.760  -2.814  0.00  0.00     0.025 H 
ATOM     33  H   LIG d   1       9.613  -3.305  -2.389  0.00  0.00     0.025 H 
ATOM     34  H   LIG d   1      10.386  -4.622  -3.303  0.00  0.00     0.025 H 
ENDBRANCH  28  31
ENDBRANCH  17  28
BRANCH  23  35
ATOM     35  O   LIG d   1       3.228  -0.659  -2.916  0.00  0.00    -0.495 OA
BRANCH  35  36
ATOM     36  C   LIG d   1       3.407   0.685  -2.463  0.00  0.00     0.079 C 
ATOM     37  H   LIG d   1       4.403   0.793  -2.034  0.00  0.00     0.066 H 
ATOM     38  H   LIG d   1       3.296   1.369  -3.303  0.00  0.00     0.066 H 
ATOM     39  H   LIG d   1       2.658   0.914  -1.705  0.00  0.00     0.066 H 
ENDBRANCH  35  36
ENDBRANCH  23  35
ENDBRANCH   1  15
BRANCH   9  40
ATOM     40  C   LIG d   1       1.515  -6.890 -10.070  0.00  0.00    -0.033 C 
ATOM     41  H   LIG d   1       2.080  -7.577  -9.441  0.00  0.00     0.028 H 
ATOM     42  H   LIG d   1       0.517  -6.753  -9.653  0.00  0.00     0.028 H 
ATOM     43  H   LIG d   1       1.435  -7.300 -11.077  0.00  0.00     0.028 H 
ENDBRANCH   9  40
BRANCH   8  44
ATOM     44  O   LIG d   1       1.327  -5.160 -12.285  0.00  0.00    -0.346 OA
BRANCH  44  45
ATOM     45  S   LIG d   1      -0.022  -4.461 -12.375  0.00  0.00     0.118 S 
ATOM     46  O   LIG d   1      -0.385  -4.198 -11.026  0.00  0.00    -0.137 OA
ATOM     47  O   LIG d   1       0.185  -3.394 -13.291  0.00  0.00    -0.137 OA
BRANCH  45  48
ATOM     48  C   LIG d   1      -1.139  -5.695 -13.094  0.00  0.00     0.092 C 
ATOM     49  H   LIG d   1      -0.719  -6.691 -12.955  0.00  0.00     0.050 H 
ATOM     50  H   LIG d   1      -2.109  -5.639 -12.599  0.00  0.00     0.050 H 
ATOM     51  H   LIG d   1      -1.262  -5.498 -14.159  0.00  0.00     0.050 H 
ENDBRANCH  45  48
ENDBRANCH  44  45
ENDBRANCH   8  44
TORSDOF 9
ENDMDL
