MODEL 1
REMARK VINA RESULT:      -6.8      0.000      0.000
REMARK  12 active torsions:
REMARK  status: ('A' for Active; 'I' for Inactive)
REMARK    1  A    between atoms: C_1  and  C_2 
REMARK    2  A    between atoms: C_2  and  C_3 
REMARK    3  A    between atoms: C_6  and  O_9 
REMARK    4  A    between atoms: O_9  and  C_10 
REMARK    5  A    between atoms: C_10  and  C_12 
REMARK    6  A    between atoms: C_12  and  C_13 
REMARK    7  A    between atoms: C_13  and  C_14 
REMARK    8  A    between atoms: C_14  and  C_15 
REMARK    9  A    between atoms: C_15  and  C_16 
REMARK   10  A    between atoms: C_16  and  C_17 
REMARK   11  A    between atoms: C_17  and  C_18 
REMARK   12  A    between atoms: C_18  and  C_19 
ROOT
ATOM      1  C   LIG d   1       5.777  -5.898  -7.271  0.00  0.00     0.410 C 
ATOM      2  F   LIG d   1       7.148  -6.106  -7.453  0.00  0.00    -0.186 F 
ATOM      3  F   LIG d   1       5.307  -5.008  -8.243  0.00  0.00    -0.186 F 
ENDROOT
BRANCH   1   4
ATOM      4  C   LIG d   1       5.048  -7.211  -7.398  0.00  0.00     0.389 C 
ATOM      5  O   LIG d   1       3.878  -7.226  -7.697  0.00  0.00    -0.243 OA
BRANCH   4   6
ATOM      6  O   LIG d   1       5.701  -8.364  -7.179  0.00  0.00    -0.421 OA
BRANCH   6   7
ATOM      7  C   LIG d   1       5.776  -8.822  -5.902  0.00  0.00     0.132 A 
ATOM      8  C   LIG d   1       4.648  -9.334  -5.279  0.00  0.00    -0.019 A 
ATOM      9  C   LIG d   1       4.728  -9.799  -3.981  0.00  0.00    -0.055 A 
ATOM     10  H   LIG d   1       3.707  -9.369  -5.809  0.00  0.00     0.065 H 
ATOM     11  C   LIG d   1       5.932  -9.756  -3.303  0.00  0.00    -0.047 A 
ATOM     12  H   LIG d   1       3.848 -10.198  -3.496  0.00  0.00     0.062 H 
ATOM     13  C   LIG d   1       7.058  -9.242  -3.919  0.00  0.00    -0.055 A 
ATOM     14  C   LIG d   1       6.983  -8.780  -5.219  0.00  0.00    -0.019 A 
ATOM     15  H   LIG d   1       7.996  -9.205  -3.386  0.00  0.00     0.062 H 
ATOM     16  H   LIG d   1       7.864  -8.383  -5.702  0.00  0.00     0.065 H 
BRANCH  11  17
ATOM     17  C   LIG d   1       6.016 -10.265  -1.887  0.00  0.00    -0.030 C 
ATOM     18  H   LIG d   1       5.818 -11.337  -1.874  0.00  0.00     0.031 H 
ATOM     19  H   LIG d   1       5.278  -9.752  -1.271  0.00  0.00     0.031 H 
BRANCH  17  20
ATOM     20  C   LIG d   1       7.417  -9.999  -1.332  0.00  0.00    -0.061 C 
ATOM     21  H   LIG d   1       7.859  -9.150  -1.854  0.00  0.00     0.023 H 
ATOM     22  H   LIG d   1       7.350  -9.775  -0.267  0.00  0.00     0.023 H 
ATOM     23  H   LIG d   1       8.040 -10.881  -1.479  0.00  0.00     0.023 H 
ENDBRANCH  17  20
ENDBRANCH  11  17
ENDBRANCH   6   7
ENDBRANCH   4   6
ENDBRANCH   1   4
BRANCH   1  24
ATOM     24  C   LIG d   1       5.530  -5.310  -5.880  0.00  0.00     0.389 C 
ATOM     25  F   LIG d   1       4.345  -5.837  -5.355  0.00  0.00    -0.192 F 
ATOM     26  F   LIG d   1       6.598  -5.638  -5.039  0.00  0.00    -0.192 F 
BRANCH  24  27
ATOM     27  C   LIG d   1       5.410  -3.789  -5.983  0.00  0.00     0.384 C 
ATOM     28  F   LIG d   1       6.533  -3.276  -6.642  0.00  0.00    -0.192 F 
ATOM     29  F   LIG d   1       4.256  -3.460  -6.701  0.00  0.00    -0.192 F 
BRANCH  27  30
ATOM     30  C   LIG d   1       5.325  -3.187  -4.578  0.00  0.00     0.384 C 
ATOM     31  F   LIG d   1       4.437  -3.940  -3.802  0.00  0.00    -0.192 F 
ATOM     32  F   LIG d   1       6.592  -3.205  -3.986  0.00  0.00    -0.192 F 
BRANCH  30  33
ATOM     33  C   LIG d   1       4.825  -1.745  -4.671  0.00  0.00     0.384 C 
ATOM     34  F   LIG d   1       5.634  -1.027  -5.560  0.00  0.00    -0.192 F 
ATOM     35  F   LIG d   1       3.505  -1.736  -5.132  0.00  0.00    -0.192 F 
BRANCH  33  36
ATOM     36  C   LIG d   1       4.887  -1.093  -3.287  0.00  0.00     0.387 C 
ATOM     37  F   LIG d   1       4.675  -2.066  -2.305  0.00  0.00    -0.192 F 
ATOM     38  F   LIG d   1       6.146  -0.510  -3.102  0.00  0.00    -0.192 F 
BRANCH  36  39
ATOM     39  C   LIG d   1       3.805  -0.018  -3.181  0.00  0.00     0.409 C 
ATOM     40  F   LIG d   1       3.604   0.567  -4.436  0.00  0.00    -0.189 F 
ATOM     41  F   LIG d   1       2.611  -0.599  -2.741  0.00  0.00    -0.189 F 
BRANCH  39  42
ATOM     42  C   LIG d   1       4.248   1.055  -2.184  0.00  0.00     0.460 C 
ATOM     43  F   LIG d   1       5.282   1.812  -2.743  0.00  0.00    -0.165 F 
ATOM     44  F   LIG d   1       3.166   1.889  -1.885  0.00  0.00    -0.165 F 
ATOM     45  F   LIG d   1       4.701   0.441  -1.011  0.00  0.00    -0.165 F 
ENDBRANCH  39  42
ENDBRANCH  36  39
ENDBRANCH  33  36
ENDBRANCH  30  33
ENDBRANCH  27  30
ENDBRANCH  24  27
ENDBRANCH   1  24
TORSDOF 12
ENDMDL
MODEL 2
REMARK VINA RESULT:      -6.8      5.529      8.291
REMARK  12 active torsions:
REMARK  status: ('A' for Active; 'I' for Inactive)
REMARK    1  A    between atoms: C_1  and  C_2 
REMARK    2  A    between atoms: C_2  and  C_3 
REMARK    3  A    between atoms: C_6  and  O_9 
REMARK    4  A    between atoms: O_9  and  C_10 
REMARK    5  A    between atoms: C_10  and  C_12 
REMARK    6  A    between atoms: C_12  and  C_13 
REMARK    7  A    between atoms: C_13  and  C_14 
REMARK    8  A    between atoms: C_14  and  C_15 
REMARK    9  A    between atoms: C_15  and  C_16 
REMARK   10  A    between atoms: C_16  and  C_17 
REMARK   11  A    between atoms: C_17  and  C_18 
REMARK   12  A    between atoms: C_18  and  C_19 
ROOT
ATOM      1  C   LIG d   1       3.175  -0.680  -3.492  0.00  0.00     0.410 C 
ATOM      2  F   LIG d   1       3.875  -1.800  -3.951  0.00  0.00    -0.186 F 
ATOM      3  F   LIG d   1       1.979  -1.090  -2.893  0.00  0.00    -0.186 F 
ENDROOT
BRANCH   1   4
ATOM      4  C   LIG d   1       4.015   0.059  -2.482  0.00  0.00     0.389 C 
ATOM      5  O   LIG d   1       3.568   1.029  -1.917  0.00  0.00    -0.243 OA
BRANCH   4   6
ATOM      6  O   LIG d   1       5.261  -0.362  -2.209  0.00  0.00    -0.421 OA
BRANCH   6   7
ATOM      7  C   LIG d   1       6.257  -0.002  -3.062  0.00  0.00     0.132 A 
ATOM      8  C   LIG d   1       6.557   1.338  -3.254  0.00  0.00    -0.019 A 
ATOM      9  C   LIG d   1       7.569   1.700  -4.120  0.00  0.00    -0.055 A 
ATOM     10  H   LIG d   1       5.999   2.098  -2.726  0.00  0.00     0.065 H 
ATOM     11  C   LIG d   1       8.285   0.728  -4.794  0.00  0.00    -0.047 A 
ATOM     12  H   LIG d   1       7.803   2.745  -4.270  0.00  0.00     0.062 H 
ATOM     13  C   LIG d   1       7.985  -0.608  -4.609  0.00  0.00    -0.055 A 
ATOM     14  C   LIG d   1       6.976  -0.976  -3.740  0.00  0.00    -0.019 A 
ATOM     15  H   LIG d   1       8.542  -1.365  -5.141  0.00  0.00     0.062 H 
ATOM     16  H   LIG d   1       6.745  -2.021  -3.592  0.00  0.00     0.065 H 
BRANCH  11  17
ATOM     17  C   LIG d   1       9.390   1.127  -5.738  0.00  0.00    -0.030 C 
ATOM     18  H   LIG d   1       9.951   0.241  -6.036  0.00  0.00     0.031 H 
ATOM     19  H   LIG d   1      10.058   1.830  -5.241  0.00  0.00     0.031 H 
BRANCH  17  20
ATOM     20  C   LIG d   1       8.786   1.789  -6.979  0.00  0.00    -0.061 C 
ATOM     21  H   LIG d   1       7.789   1.386  -7.157  0.00  0.00     0.023 H 
ATOM     22  H   LIG d   1       8.720   2.865  -6.821  0.00  0.00     0.023 H 
ATOM     23  H   LIG d   1       9.419   1.587  -7.843  0.00  0.00     0.023 H 
ENDBRANCH  17  20
ENDBRANCH  11  17
ENDBRANCH   6   7
ENDBRANCH   4   6
ENDBRANCH   1   4
BRANCH   1  24
ATOM     24  C   LIG d   1       2.863   0.246  -4.670  0.00  0.00     0.389 C 
ATOM     25  F   LIG d   1       1.497   0.182  -4.964  0.00  0.00    -0.192 F 
ATOM     26  F   LIG d   1       3.207   1.560  -4.334  0.00  0.00    -0.192 F 
BRANCH  24  27
ATOM     27  C   LIG d   1       3.670  -0.195  -5.892  0.00  0.00     0.384 C 
ATOM     28  F   LIG d   1       4.981   0.280  -5.783  0.00  0.00    -0.192 F 
ATOM     29  F   LIG d   1       3.684  -1.592  -5.962  0.00  0.00    -0.192 F 
BRANCH  27  30
ATOM     30  C   LIG d   1       3.026   0.372  -7.160  0.00  0.00     0.384 C 
ATOM     31  F   LIG d   1       1.876  -0.363  -7.468  0.00  0.00    -0.192 F 
ATOM     32  F   LIG d   1       2.681   1.711  -6.949  0.00  0.00    -0.192 F 
BRANCH  30  33
ATOM     33  C   LIG d   1       4.018   0.277  -8.321  0.00  0.00     0.384 C 
ATOM     34  F   LIG d   1       4.698   1.494  -8.454  0.00  0.00    -0.192 F 
ATOM     35  F   LIG d   1       4.937  -0.745  -8.068  0.00  0.00    -0.192 F 
BRANCH  33  36
ATOM     36  C   LIG d   1       3.260  -0.027  -9.615  0.00  0.00     0.387 C 
ATOM     37  F   LIG d   1       2.941  -1.389  -9.659  0.00  0.00    -0.192 F 
ATOM     38  F   LIG d   1       2.083   0.729  -9.655  0.00  0.00    -0.192 F 
BRANCH  36  39
ATOM     39  C   LIG d   1       4.138   0.329 -10.816  0.00  0.00     0.409 C 
ATOM     40  F   LIG d   1       3.974   1.684 -11.127  0.00  0.00    -0.189 F 
ATOM     41  F   LIG d   1       5.479   0.081 -10.504  0.00  0.00    -0.189 F 
BRANCH  39  42
ATOM     42  C   LIG d   1       3.726  -0.522 -12.019  0.00  0.00     0.460 C 
ATOM     43  F   LIG d   1       2.332  -0.579 -12.096  0.00  0.00    -0.165 F 
ATOM     44  F   LIG d   1       4.237   0.047 -13.190  0.00  0.00    -0.165 F 
ATOM     45  F   LIG d   1       4.238  -1.816 -11.869  0.00  0.00    -0.165 F 
ENDBRANCH  39  42
ENDBRANCH  36  39
ENDBRANCH  33  36
ENDBRANCH  30  33
ENDBRANCH  27  30
ENDBRANCH  24  27
ENDBRANCH   1  24
TORSDOF 12
ENDMDL
MODEL 3
REMARK VINA RESULT:      -6.7      1.249      2.055
REMARK  12 active torsions:
REMARK  status: ('A' for Active; 'I' for Inactive)
REMARK    1  A    between atoms: C_1  and  C_2 
REMARK    2  A    between atoms: C_2  and  C_3 
REMARK    3  A    between atoms: C_6  and  O_9 
REMARK    4  A    between atoms: O_9  and  C_10 
REMARK    5  A    between atoms: C_10  and  C_12 
REMARK    6  A    between atoms: C_12  and  C_13 
REMARK    7  A    between atoms: C_13  and  C_14 
REMARK    8  A    between atoms: C_14  and  C_15 
REMARK    9  A    between atoms: C_15  and  C_16 
REMARK   10  A    between atoms: C_16  and  C_17 
REMARK   11  A    between atoms: C_17  and  C_18 
REMARK   12  A    between atoms: C_18  and  C_19 
ROOT
ATOM      1  C   LIG d   1       6.941  -5.072  -7.012  0.00  0.00     0.410 C 
ATOM      2  F   LIG d   1       7.472  -4.213  -7.980  0.00  0.00    -0.186 F 
ATOM      3  F   LIG d   1       5.620  -5.390  -7.344  0.00  0.00    -0.186 F 
ENDROOT
BRANCH   1   4
ATOM      4  C   LIG d   1       7.763  -6.333  -6.954  0.00  0.00     0.389 C 
ATOM      5  O   LIG d   1       8.936  -6.278  -6.669  0.00  0.00    -0.243 OA
BRANCH   4   6
ATOM      6  O   LIG d   1       7.192  -7.519  -7.220  0.00  0.00    -0.421 OA
BRANCH   6   7
ATOM      7  C   LIG d   1       6.616  -8.195  -6.190  0.00  0.00     0.132 A 
ATOM      8  C   LIG d   1       7.392  -8.636  -5.129  0.00  0.00    -0.019 A 
ATOM      9  C   LIG d   1       6.804  -9.322  -4.083  0.00  0.00    -0.055 A 
ATOM     10  H   LIG d   1       8.455  -8.442  -5.118  0.00  0.00     0.065 H 
ATOM     11  C   LIG d   1       5.444  -9.567  -4.094  0.00  0.00    -0.047 A 
ATOM     12  H   LIG d   1       7.409  -9.665  -3.256  0.00  0.00     0.062 H 
ATOM     13  C   LIG d   1       4.669  -9.134  -5.154  0.00  0.00    -0.055 A 
ATOM     14  C   LIG d   1       5.251  -8.443  -6.199  0.00  0.00    -0.019 A 
ATOM     15  H   LIG d   1       3.607  -9.332  -5.162  0.00  0.00     0.062 H 
ATOM     16  H   LIG d   1       4.645  -8.100  -7.024  0.00  0.00     0.065 H 
BRANCH  11  17
ATOM     17  C   LIG d   1       4.805 -10.315  -2.952  0.00  0.00    -0.030 C 
ATOM     18  H   LIG d   1       5.132  -9.883  -2.007  0.00  0.00     0.031 H 
ATOM     19  H   LIG d   1       5.101 -11.363  -2.994  0.00  0.00     0.031 H 
BRANCH  17  20
ATOM     20  C   LIG d   1       3.283 -10.210  -3.062  0.00  0.00    -0.061 C 
ATOM     21  H   LIG d   1       2.819 -10.881  -2.340  0.00  0.00     0.023 H 
ATOM     22  H   LIG d   1       2.974  -9.185  -2.856  0.00  0.00     0.023 H 
ATOM     23  H   LIG d   1       2.971 -10.487  -4.069  0.00  0.00     0.023 H 
ENDBRANCH  17  20
ENDBRANCH  11  17
ENDBRANCH   6   7
ENDBRANCH   4   6
ENDBRANCH   1   4
BRANCH   1  24
ATOM     24  C   LIG d   1       6.970  -4.381  -5.647  0.00  0.00     0.389 C 
ATOM     25  F   LIG d   1       7.130  -5.342  -4.642  0.00  0.00    -0.192 F 
ATOM     26  F   LIG d   1       8.038  -3.479  -5.603  0.00  0.00    -0.192 F 
BRANCH  24  27
ATOM     27  C   LIG d   1       5.657  -3.628  -5.427  0.00  0.00     0.384 C 
ATOM     28  F   LIG d   1       5.249  -3.043  -6.631  0.00  0.00    -0.192 F 
ATOM     29  F   LIG d   1       4.676  -4.521  -4.986  0.00  0.00    -0.192 F 
BRANCH  27  30
ATOM     30  C   LIG d   1       5.864  -2.537  -4.374  0.00  0.00     0.384 C 
ATOM     31  F   LIG d   1       6.810  -2.967  -3.437  0.00  0.00    -0.192 F 
ATOM     32  F   LIG d   1       6.320  -1.370  -4.996  0.00  0.00    -0.192 F 
BRANCH  30  33
ATOM     33  C   LIG d   1       4.538  -2.254  -3.666  0.00  0.00     0.384 C 
ATOM     34  F   LIG d   1       3.554  -1.961  -4.618  0.00  0.00    -0.192 F 
ATOM     35  F   LIG d   1       4.153  -3.378  -2.929  0.00  0.00    -0.192 F 
BRANCH  33  36
ATOM     36  C   LIG d   1       4.707  -1.059  -2.725  0.00  0.00     0.387 C 
ATOM     37  F   LIG d   1       4.293  -1.418  -1.438  0.00  0.00    -0.192 F 
ATOM     38  F   LIG d   1       6.053  -0.678  -2.692  0.00  0.00    -0.192 F 
BRANCH  36  39
ATOM     39  C   LIG d   1       3.857   0.109  -3.226  0.00  0.00     0.409 C 
ATOM     40  F   LIG d   1       3.978   0.211  -4.616  0.00  0.00    -0.189 F 
ATOM     41  F   LIG d   1       2.517  -0.110  -2.889  0.00  0.00    -0.189 F 
BRANCH  39  42
ATOM     42  C   LIG d   1       4.342   1.407  -2.577  0.00  0.00     0.460 C 
ATOM     43  F   LIG d   1       5.614   1.726  -3.063  0.00  0.00    -0.165 F 
ATOM     44  F   LIG d   1       3.452   2.442  -2.883  0.00  0.00    -0.165 F 
ATOM     45  F   LIG d   1       4.402   1.240  -1.189  0.00  0.00    -0.165 F 
ENDBRANCH  39  42
ENDBRANCH  36  39
ENDBRANCH  33  36
ENDBRANCH  30  33
ENDBRANCH  27  30
ENDBRANCH  24  27
ENDBRANCH   1  24
TORSDOF 12
ENDMDL
MODEL 4
REMARK VINA RESULT:      -6.6      3.767      5.899
REMARK  12 active torsions:
REMARK  status: ('A' for Active; 'I' for Inactive)
REMARK    1  A    between atoms: C_1  and  C_2 
REMARK    2  A    between atoms: C_2  and  C_3 
REMARK    3  A    between atoms: C_6  and  O_9 
REMARK    4  A    between atoms: O_9  and  C_10 
REMARK    5  A    between atoms: C_10  and  C_12 
REMARK    6  A    between atoms: C_12  and  C_13 
REMARK    7  A    between atoms: C_13  and  C_14 
REMARK    8  A    between atoms: C_14  and  C_15 
REMARK    9  A    between atoms: C_15  and  C_16 
REMARK   10  A    between atoms: C_16  and  C_17 
REMARK   11  A    between atoms: C_17  and  C_18 
REMARK   12  A    between atoms: C_18  and  C_19 
ROOT
ATOM      1  C   LIG d   1       4.023   0.233 -10.697  0.00  0.00     0.410 C 
ATOM      2  F   LIG d   1       5.337   0.004 -10.275  0.00  0.00    -0.186 F 
ATOM      3  F   LIG d   1       3.968   1.424 -11.428  0.00  0.00    -0.186 F 
ENDROOT
BRANCH   1   4
ATOM      4  C   LIG d   1       3.566  -0.911 -11.564  0.00  0.00     0.389 C 
ATOM      5  O   LIG d   1       2.520  -0.836 -12.163  0.00  0.00    -0.243 OA
BRANCH   4   6
ATOM      6  O   LIG d   1       4.324  -2.015 -11.673  0.00  0.00    -0.421 OA
BRANCH   6   7
ATOM      7  C   LIG d   1       4.266  -2.929 -10.668  0.00  0.00     0.132 A 
ATOM      8  C   LIG d   1       3.051  -3.492 -10.310  0.00  0.00    -0.019 A 
ATOM      9  C   LIG d   1       2.995  -4.421  -9.289  0.00  0.00    -0.055 A 
ATOM     10  H   LIG d   1       2.148  -3.204 -10.828  0.00  0.00     0.065 H 
ATOM     11  C   LIG d   1       4.151  -4.792  -8.627  0.00  0.00    -0.047 A 
ATOM     12  H   LIG d   1       2.048  -4.860  -9.010  0.00  0.00     0.062 H 
ATOM     13  C   LIG d   1       5.363  -4.228  -8.978  0.00  0.00    -0.055 A 
ATOM     14  C   LIG d   1       5.424  -3.302 -10.001  0.00  0.00    -0.019 A 
ATOM     15  H   LIG d   1       6.263  -4.516  -8.455  0.00  0.00     0.062 H 
ATOM     16  H   LIG d   1       6.373  -2.866 -10.279  0.00  0.00     0.065 H 
BRANCH  11  17
ATOM     17  C   LIG d   1       4.087  -5.807  -7.514  0.00  0.00    -0.030 C 
ATOM     18  H   LIG d   1       4.830  -6.584  -7.689  0.00  0.00     0.031 H 
ATOM     19  H   LIG d   1       3.094  -6.253  -7.486  0.00  0.00     0.031 H 
BRANCH  17  20
ATOM     20  C   LIG d   1       4.375  -5.117  -6.179  0.00  0.00    -0.061 C 
ATOM     21  H   LIG d   1       3.638  -4.332  -6.009  0.00  0.00     0.023 H 
ATOM     22  H   LIG d   1       4.318  -5.848  -5.372  0.00  0.00     0.023 H 
ATOM     23  H   LIG d   1       5.373  -4.681  -6.203  0.00  0.00     0.023 H 
ENDBRANCH  17  20
ENDBRANCH  11  17
ENDBRANCH   6   7
ENDBRANCH   4   6
ENDBRANCH   1   4
BRANCH   1  24
ATOM     24  C   LIG d   1       3.107   0.343  -9.476  0.00  0.00     0.389 C 
ATOM     25  F   LIG d   1       2.427   1.565  -9.512  0.00  0.00    -0.192 F 
ATOM     26  F   LIG d   1       2.182  -0.706  -9.490  0.00  0.00    -0.192 F 
BRANCH  24  27
ATOM     27  C   LIG d   1       3.946   0.264  -8.199  0.00  0.00     0.384 C 
ATOM     28  F   LIG d   1       4.610  -0.967  -8.153  0.00  0.00    -0.192 F 
ATOM     29  F   LIG d   1       4.886   1.301  -8.195  0.00  0.00    -0.192 F 
BRANCH  27  30
ATOM     30  C   LIG d   1       3.034   0.398  -6.979  0.00  0.00     0.384 C 
ATOM     31  F   LIG d   1       2.773   1.751  -6.737  0.00  0.00    -0.192 F 
ATOM     32  F   LIG d   1       1.830  -0.273  -7.221  0.00  0.00    -0.192 F 
BRANCH  30  33
ATOM     33  C   LIG d   1       3.723  -0.215  -5.758  0.00  0.00     0.384 C 
ATOM     34  F   LIG d   1       3.704  -1.611  -5.863  0.00  0.00    -0.192 F 
ATOM     35  F   LIG d   1       5.046   0.231  -5.696  0.00  0.00    -0.192 F 
BRANCH  33  36
ATOM     36  C   LIG d   1       2.981   0.209  -4.488  0.00  0.00     0.387 C 
ATOM     37  F   LIG d   1       3.119   1.590  -4.307  0.00  0.00    -0.192 F 
ATOM     38  F   LIG d   1       1.624  -0.112  -4.610  0.00  0.00    -0.192 F 
BRANCH  36  39
ATOM     39  C   LIG d   1       3.573  -0.523  -3.283  0.00  0.00     0.409 C 
ATOM     40  F   LIG d   1       2.567  -1.251  -2.639  0.00  0.00    -0.189 F 
ATOM     41  F   LIG d   1       4.577  -1.396  -3.714  0.00  0.00    -0.189 F 
BRANCH  39  42
ATOM     42  C   LIG d   1       4.167   0.497  -2.308  0.00  0.00     0.460 C 
ATOM     43  F   LIG d   1       4.573  -0.156  -1.140  0.00  0.00    -0.165 F 
ATOM     44  F   LIG d   1       5.269   1.122  -2.902  0.00  0.00    -0.165 F 
ATOM     45  F   LIG d   1       3.200   1.457  -1.993  0.00  0.00    -0.165 F 
ENDBRANCH  39  42
ENDBRANCH  36  39
ENDBRANCH  33  36
ENDBRANCH  30  33
ENDBRANCH  27  30
ENDBRANCH  24  27
ENDBRANCH   1  24
TORSDOF 12
ENDMDL
MODEL 5
REMARK VINA RESULT:      -6.5      3.099      5.793
REMARK  12 active torsions:
REMARK  status: ('A' for Active; 'I' for Inactive)
REMARK    1  A    between atoms: C_1  and  C_2 
REMARK    2  A    between atoms: C_2  and  C_3 
REMARK    3  A    between atoms: C_6  and  O_9 
REMARK    4  A    between atoms: O_9  and  C_10 
REMARK    5  A    between atoms: C_10  and  C_12 
REMARK    6  A    between atoms: C_12  and  C_13 
REMARK    7  A    between atoms: C_13  and  C_14 
REMARK    8  A    between atoms: C_14  and  C_15 
REMARK    9  A    between atoms: C_15  and  C_16 
REMARK   10  A    between atoms: C_16  and  C_17 
REMARK   11  A    between atoms: C_17  and  C_18 
REMARK   12  A    between atoms: C_18  and  C_19 
ROOT
ATOM      1  C   LIG d   1       5.700  -4.634  -7.855  0.00  0.00     0.410 C 
ATOM      2  F   LIG d   1       6.175  -5.949  -7.825  0.00  0.00    -0.186 F 
ATOM      3  F   LIG d   1       6.757  -3.750  -7.610  0.00  0.00    -0.186 F 
ENDROOT
BRANCH   1   4
ATOM      4  C   LIG d   1       5.107  -4.344  -9.209  0.00  0.00     0.389 C 
ATOM      5  O   LIG d   1       4.292  -5.098  -9.686  0.00  0.00    -0.243 OA
BRANCH   4   6
ATOM      6  O   LIG d   1       5.484  -3.247  -9.887  0.00  0.00    -0.421 OA
BRANCH   6   7
ATOM      7  C   LIG d   1       4.883  -2.068  -9.576  0.00  0.00     0.132 A 
ATOM      8  C   LIG d   1       3.555  -1.855  -9.912  0.00  0.00    -0.019 A 
ATOM      9  C   LIG d   1       2.948  -0.655  -9.595  0.00  0.00    -0.055 A 
ATOM     10  H   LIG d   1       2.996  -2.626 -10.421  0.00  0.00     0.065 H 
ATOM     11  C   LIG d   1       3.662   0.331  -8.942  0.00  0.00    -0.047 A 
ATOM     12  H   LIG d   1       1.913  -0.489  -9.857  0.00  0.00     0.062 H 
ATOM     13  C   LIG d   1       4.988   0.124  -8.610  0.00  0.00    -0.055 A 
ATOM     14  C   LIG d   1       5.598  -1.076  -8.921  0.00  0.00    -0.019 A 
ATOM     15  H   LIG d   1       5.546   0.898  -8.104  0.00  0.00     0.062 H 
ATOM     16  H   LIG d   1       6.633  -1.240  -8.657  0.00  0.00     0.065 H 
BRANCH  11  17
ATOM     17  C   LIG d   1       2.997   1.639  -8.596  0.00  0.00    -0.030 C 
ATOM     18  H   LIG d   1       2.954   1.749  -7.513  0.00  0.00     0.031 H 
ATOM     19  H   LIG d   1       1.986   1.651  -9.003  0.00  0.00     0.031 H 
BRANCH  17  20
ATOM     20  C   LIG d   1       3.801   2.794  -9.196  0.00  0.00    -0.061 C 
ATOM     21  H   LIG d   1       3.119   3.524  -9.632  0.00  0.00     0.023 H 
ATOM     22  H   LIG d   1       4.391   3.271  -8.413  0.00  0.00     0.023 H 
ATOM     23  H   LIG d   1       4.467   2.411  -9.968  0.00  0.00     0.023 H 
ENDBRANCH  17  20
ENDBRANCH  11  17
ENDBRANCH   6   7
ENDBRANCH   4   6
ENDBRANCH   1   4
BRANCH   1  24
ATOM     24  C   LIG d   1       4.627  -4.454  -6.779  0.00  0.00     0.389 C 
ATOM     25  F   LIG d   1       3.732  -3.454  -7.175  0.00  0.00    -0.192 F 
ATOM     26  F   LIG d   1       3.934  -5.657  -6.607  0.00  0.00    -0.192 F 
BRANCH  24  27
ATOM     27  C   LIG d   1       5.289  -4.054  -5.460  0.00  0.00     0.384 C 
ATOM     28  F   LIG d   1       4.636  -4.690  -4.398  0.00  0.00    -0.192 F 
ATOM     29  F   LIG d   1       6.633  -4.438  -5.478  0.00  0.00    -0.192 F 
BRANCH  27  30
ATOM     30  C   LIG d   1       5.195  -2.537  -5.281  0.00  0.00     0.384 C 
ATOM     31  F   LIG d   1       6.346  -1.934  -5.800  0.00  0.00    -0.192 F 
ATOM     32  F   LIG d   1       4.070  -2.056  -5.960  0.00  0.00    -0.192 F 
BRANCH  30  33
ATOM     33  C   LIG d   1       5.072  -2.206  -3.793  0.00  0.00     0.384 C 
ATOM     34  F   LIG d   1       3.894  -2.766  -3.286  0.00  0.00    -0.192 F 
ATOM     35  F   LIG d   1       6.171  -2.730  -3.105  0.00  0.00    -0.192 F 
BRANCH  33  36
ATOM     36  C   LIG d   1       5.034  -0.687  -3.610  0.00  0.00     0.387 C 
ATOM     37  F   LIG d   1       6.319  -0.220  -3.315  0.00  0.00    -0.192 F 
ATOM     38  F   LIG d   1       4.579  -0.086  -4.789  0.00  0.00    -0.192 F 
BRANCH  36  39
ATOM     39  C   LIG d   1       4.089  -0.335  -2.460  0.00  0.00     0.409 C 
ATOM     40  F   LIG d   1       2.764  -0.514  -2.874  0.00  0.00    -0.189 F 
ATOM     41  F   LIG d   1       4.353  -1.168  -1.367  0.00  0.00    -0.189 F 
BRANCH  39  42
ATOM     42  C   LIG d   1       4.302   1.124  -2.053  0.00  0.00     0.460 C 
ATOM     43  F   LIG d   1       3.068   1.780  -2.003  0.00  0.00    -0.165 F 
ATOM     44  F   LIG d   1       4.909   1.173  -0.793  0.00  0.00    -0.165 F 
ATOM     45  F   LIG d   1       5.126   1.754  -2.992  0.00  0.00    -0.165 F 
ENDBRANCH  39  42
ENDBRANCH  36  39
ENDBRANCH  33  36
ENDBRANCH  30  33
ENDBRANCH  27  30
ENDBRANCH  24  27
ENDBRANCH   1  24
TORSDOF 12
ENDMDL
MODEL 6
REMARK VINA RESULT:      -6.4      4.361      5.937
REMARK  12 active torsions:
REMARK  status: ('A' for Active; 'I' for Inactive)
REMARK    1  A    between atoms: C_1  and  C_2 
REMARK    2  A    between atoms: C_2  and  C_3 
REMARK    3  A    between atoms: C_6  and  O_9 
REMARK    4  A    between atoms: O_9  and  C_10 
REMARK    5  A    between atoms: C_10  and  C_12 
REMARK    6  A    between atoms: C_12  and  C_13 
REMARK    7  A    between atoms: C_13  and  C_14 
REMARK    8  A    between atoms: C_14  and  C_15 
REMARK    9  A    between atoms: C_15  and  C_16 
REMARK   10  A    between atoms: C_16  and  C_17 
REMARK   11  A    between atoms: C_17  and  C_18 
REMARK   12  A    between atoms: C_18  and  C_19 
ROOT
ATOM      1  C   LIG d   1       3.594   0.584  -9.940  0.00  0.00     0.410 C 
ATOM      2  F   LIG d   1       4.282   1.592 -10.624  0.00  0.00    -0.186 F 
ATOM      3  F   LIG d   1       2.247   0.941  -9.814  0.00  0.00    -0.186 F 
ENDROOT
BRANCH   1   4
ATOM      4  C   LIG d   1       3.703  -0.708 -10.706  0.00  0.00     0.389 C 
ATOM      5  O   LIG d   1       4.701  -0.953 -11.341  0.00  0.00    -0.243 OA
BRANCH   4   6
ATOM      6  O   LIG d   1       2.690  -1.589 -10.682  0.00  0.00    -0.421 OA
BRANCH   6   7
ATOM      7  C   LIG d   1       2.977  -2.884 -10.384  0.00  0.00     0.132 A 
ATOM      8  C   LIG d   1       3.156  -3.270  -9.064  0.00  0.00    -0.019 A 
ATOM      9  C   LIG d   1       3.447  -4.587  -8.764  0.00  0.00    -0.055 A 
ATOM     10  H   LIG d   1       3.067  -2.542  -8.271  0.00  0.00     0.065 H 
ATOM     11  C   LIG d   1       3.559  -5.519  -9.778  0.00  0.00    -0.047 A 
ATOM     12  H   LIG d   1       3.586  -4.887  -7.736  0.00  0.00     0.062 H 
ATOM     13  C   LIG d   1       3.386  -5.137 -11.096  0.00  0.00    -0.055 A 
ATOM     14  C   LIG d   1       3.091  -3.823 -11.400  0.00  0.00    -0.019 A 
ATOM     15  H   LIG d   1       3.479  -5.867 -11.886  0.00  0.00     0.062 H 
ATOM     16  H   LIG d   1       2.951  -3.525 -12.429  0.00  0.00     0.065 H 
BRANCH  11  17
ATOM     17  C   LIG d   1       3.876  -6.956  -9.448  0.00  0.00    -0.030 C 
ATOM     18  H   LIG d   1       4.109  -7.041  -8.387  0.00  0.00     0.031 H 
ATOM     19  H   LIG d   1       4.732  -7.283 -10.036  0.00  0.00     0.031 H 
BRANCH  17  20
ATOM     20  C   LIG d   1       2.665  -7.833  -9.776  0.00  0.00    -0.061 C 
ATOM     21  H   LIG d   1       1.755  -7.334  -9.445  0.00  0.00     0.023 H 
ATOM     22  H   LIG d   1       2.618  -7.998 -10.853  0.00  0.00     0.023 H 
ATOM     23  H   LIG d   1       2.762  -8.791  -9.266  0.00  0.00     0.023 H 
ENDBRANCH  17  20
ENDBRANCH  11  17
ENDBRANCH   6   7
ENDBRANCH   4   6
ENDBRANCH   1   4
BRANCH   1  24
ATOM     24  C   LIG d   1       4.206   0.405  -8.548  0.00  0.00     0.389 C 
ATOM     25  F   LIG d   1       4.883  -0.818  -8.490  0.00  0.00    -0.192 F 
ATOM     26  F   LIG d   1       5.103   1.448  -8.295  0.00  0.00    -0.192 F 
BRANCH  24  27
ATOM     27  C   LIG d   1       3.095   0.423  -7.497  0.00  0.00     0.384 C 
ATOM     28  F   LIG d   1       2.660   1.738  -7.300  0.00  0.00    -0.192 F 
ATOM     29  F   LIG d   1       2.024  -0.362  -7.937  0.00  0.00    -0.192 F 
BRANCH  27  30
ATOM     30  C   LIG d   1       3.630  -0.140  -6.178  0.00  0.00     0.384 C 
ATOM     31  F   LIG d   1       3.649  -1.538  -6.241  0.00  0.00    -0.192 F 
ATOM     32  F   LIG d   1       4.928   0.335  -5.962  0.00  0.00    -0.192 F 
BRANCH  30  33
ATOM     33  C   LIG d   1       2.725   0.306  -5.029  0.00  0.00     0.384 C 
ATOM     34  F   LIG d   1       2.749   1.702  -4.931  0.00  0.00    -0.192 F 
ATOM     35  F   LIG d   1       1.417  -0.123  -5.271  0.00  0.00    -0.192 F 
BRANCH  33  36
ATOM     36  C   LIG d   1       3.228  -0.304  -3.718  0.00  0.00     0.387 C 
ATOM     37  F   LIG d   1       2.163  -0.921  -3.053  0.00  0.00    -0.192 F 
ATOM     38  F   LIG d   1       4.218  -1.253  -3.994  0.00  0.00    -0.192 F 
BRANCH  36  39
ATOM     39  C   LIG d   1       3.810   0.799  -2.832  0.00  0.00     0.409 C 
ATOM     40  F   LIG d   1       4.499   1.721  -3.628  0.00  0.00    -0.189 F 
ATOM     41  F   LIG d   1       2.773   1.450  -2.155  0.00  0.00    -0.189 F 
BRANCH  39  42
ATOM     42  C   LIG d   1       4.775   0.182  -1.818  0.00  0.00     0.460 C 
ATOM     43  F   LIG d   1       4.256  -1.033  -1.359  0.00  0.00    -0.165 F 
ATOM     44  F   LIG d   1       6.014  -0.039  -2.428  0.00  0.00    -0.165 F 
ATOM     45  F   LIG d   1       4.937   1.057  -0.737  0.00  0.00    -0.165 F 
ENDBRANCH  39  42
ENDBRANCH  36  39
ENDBRANCH  33  36
ENDBRANCH  30  33
ENDBRANCH  27  30
ENDBRANCH  24  27
ENDBRANCH   1  24
TORSDOF 12
ENDMDL
MODEL 7
REMARK VINA RESULT:      -6.4      6.881      9.835
REMARK  12 active torsions:
REMARK  status: ('A' for Active; 'I' for Inactive)
REMARK    1  A    between atoms: C_1  and  C_2 
REMARK    2  A    between atoms: C_2  and  C_3 
REMARK    3  A    between atoms: C_6  and  O_9 
REMARK    4  A    between atoms: O_9  and  C_10 
REMARK    5  A    between atoms: C_10  and  C_12 
REMARK    6  A    between atoms: C_12  and  C_13 
REMARK    7  A    between atoms: C_13  and  C_14 
REMARK    8  A    between atoms: C_14  and  C_15 
REMARK    9  A    between atoms: C_15  and  C_16 
REMARK   10  A    between atoms: C_16  and  C_17 
REMARK   11  A    between atoms: C_17  and  C_18 
REMARK   12  A    between atoms: C_18  and  C_19 
ROOT
ATOM      1  C   LIG d   1       9.588   2.510  -5.551  0.00  0.00     0.410 C 
ATOM      2  F   LIG d   1      10.800   1.926  -5.932  0.00  0.00    -0.186 F 
ATOM      3  F   LIG d   1       9.227   3.488  -6.485  0.00  0.00    -0.186 F 
ENDROOT
BRANCH   1   4
ATOM      4  C   LIG d   1       8.516   1.453  -5.491  0.00  0.00     0.389 C 
ATOM      5  O   LIG d   1       7.535   1.546  -6.190  0.00  0.00    -0.243 OA
BRANCH   4   6
ATOM      6  O   LIG d   1       8.652   0.405  -4.662  0.00  0.00    -0.421 OA
BRANCH   6   7
ATOM      7  C   LIG d   1       7.531  -0.101  -4.084  0.00  0.00     0.132 A 
ATOM      8  C   LIG d   1       7.245  -1.454  -4.191  0.00  0.00    -0.019 A 
ATOM      9  C   LIG d   1       6.105  -1.966  -3.603  0.00  0.00    -0.055 A 
ATOM     10  H   LIG d   1       7.913  -2.107  -4.734  0.00  0.00     0.065 H 
ATOM     11  C   LIG d   1       5.250  -1.132  -2.907  0.00  0.00    -0.047 A 
ATOM     12  H   LIG d   1       5.882  -3.020  -3.686  0.00  0.00     0.062 H 
ATOM     13  C   LIG d   1       5.530   0.218  -2.803  0.00  0.00    -0.055 A 
ATOM     14  C   LIG d   1       6.671   0.734  -3.385  0.00  0.00    -0.019 A 
ATOM     15  H   LIG d   1       4.858   0.869  -2.263  0.00  0.00     0.062 H 
ATOM     16  H   LIG d   1       6.892   1.788  -3.300  0.00  0.00     0.065 H 
BRANCH  11  17
ATOM     17  C   LIG d   1       4.007  -1.694  -2.265  0.00  0.00    -0.030 C 
ATOM     18  H   LIG d   1       4.054  -1.539  -1.187  0.00  0.00     0.031 H 
ATOM     19  H   LIG d   1       3.940  -2.760  -2.476  0.00  0.00     0.031 H 
BRANCH  17  20
ATOM     20  C   LIG d   1       2.776  -0.982  -2.830  0.00  0.00    -0.061 C 
ATOM     21  H   LIG d   1       3.073  -0.354  -3.670  0.00  0.00     0.023 H 
ATOM     22  H   LIG d   1       2.052  -1.724  -3.170  0.00  0.00     0.023 H 
ATOM     23  H   LIG d   1       2.325  -0.364  -2.055  0.00  0.00     0.023 H 
ENDBRANCH  17  20
ENDBRANCH  11  17
ENDBRANCH   6   7
ENDBRANCH   4   6
ENDBRANCH   1   4
BRANCH   1  24
ATOM     24  C   LIG d   1       9.744   3.156  -4.172  0.00  0.00     0.389 C 
ATOM     25  F   LIG d   1       8.499   3.204  -3.536  0.00  0.00    -0.192 F 
ATOM     26  F   LIG d   1      10.633   2.399  -3.401  0.00  0.00    -0.192 F 
BRANCH  24  27
ATOM     27  C   LIG d   1      10.289   4.576  -4.332  0.00  0.00     0.384 C 
ATOM     28  F   LIG d   1      11.439   4.547  -5.129  0.00  0.00    -0.192 F 
ATOM     29  F   LIG d   1       9.321   5.381  -4.941  0.00  0.00    -0.192 F 
BRANCH  27  30
ATOM     30  C   LIG d   1      10.637   5.148  -2.956  0.00  0.00     0.384 C 
ATOM     31  F   LIG d   1       9.949   4.435  -1.968  0.00  0.00    -0.192 F 
ATOM     32  F   LIG d   1      12.014   5.036  -2.739  0.00  0.00    -0.192 F 
BRANCH  30  33
ATOM     33  C   LIG d   1      10.229   6.621  -2.899  0.00  0.00     0.384 C 
ATOM     34  F   LIG d   1      10.904   7.331  -3.899  0.00  0.00    -0.192 F 
ATOM     35  F   LIG d   1       8.849   6.732  -3.099  0.00  0.00    -0.192 F 
BRANCH  33  36
ATOM     36  C   LIG d   1      10.594   7.199  -1.529  0.00  0.00     0.387 C 
ATOM     37  F   LIG d   1      10.296   6.261  -0.534  0.00  0.00    -0.192 F 
ATOM     38  F   LIG d   1      11.962   7.493  -1.497  0.00  0.00    -0.192 F 
BRANCH  36  39
ATOM     39  C   LIG d   1       9.790   8.476  -1.283  0.00  0.00     0.409 C 
ATOM     40  F   LIG d   1       9.755   9.237  -2.457  0.00  0.00    -0.189 F 
ATOM     41  F   LIG d   1       8.486   8.141  -0.905  0.00  0.00    -0.189 F 
BRANCH  39  42
ATOM     42  C   LIG d   1      10.453   9.289  -0.169  0.00  0.00     0.460 C 
ATOM     43  F   LIG d   1      10.869   8.428   0.852  0.00  0.00    -0.165 F 
ATOM     44  F   LIG d   1      11.560   9.972  -0.685  0.00  0.00    -0.165 F 
ATOM     45  F   LIG d   1       9.535  10.211   0.344  0.00  0.00    -0.165 F 
ENDBRANCH  39  42
ENDBRANCH  36  39
ENDBRANCH  33  36
ENDBRANCH  30  33
ENDBRANCH  27  30
ENDBRANCH  24  27
ENDBRANCH   1  24
TORSDOF 12
ENDMDL
MODEL 8
REMARK VINA RESULT:      -6.4      7.023     10.301
REMARK  12 active torsions:
REMARK  status: ('A' for Active; 'I' for Inactive)
REMARK    1  A    between atoms: C_1  and  C_2 
REMARK    2  A    between atoms: C_2  and  C_3 
REMARK    3  A    between atoms: C_6  and  O_9 
REMARK    4  A    between atoms: O_9  and  C_10 
REMARK    5  A    between atoms: C_10  and  C_12 
REMARK    6  A    between atoms: C_12  and  C_13 
REMARK    7  A    between atoms: C_13  and  C_14 
REMARK    8  A    between atoms: C_14  and  C_15 
REMARK    9  A    between atoms: C_15  and  C_16 
REMARK   10  A    between atoms: C_16  and  C_17 
REMARK   11  A    between atoms: C_17  and  C_18 
REMARK   12  A    between atoms: C_18  and  C_19 
ROOT
ATOM      1  C   LIG d   1       9.735   2.274  -4.625  0.00  0.00     0.410 C 
ATOM      2  F   LIG d   1      10.166   1.819  -3.375  0.00  0.00    -0.186 F 
ATOM      3  F   LIG d   1      10.350   1.523  -5.633  0.00  0.00    -0.186 F 
ENDROOT
BRANCH   1   4
ATOM      4  C   LIG d   1       8.240   2.124  -4.727  0.00  0.00     0.389 C 
ATOM      5  O   LIG d   1       7.724   1.913  -5.799  0.00  0.00    -0.243 OA
BRANCH   4   6
ATOM      6  O   LIG d   1       7.478   2.224  -3.625  0.00  0.00    -0.421 OA
BRANCH   6   7
ATOM      7  C   LIG d   1       6.648   1.189  -3.327  0.00  0.00     0.132 A 
ATOM      8  C   LIG d   1       7.056  -0.117  -3.555  0.00  0.00    -0.019 A 
ATOM      9  C   LIG d   1       6.211  -1.166  -3.251  0.00  0.00    -0.055 A 
ATOM     10  H   LIG d   1       8.034  -0.313  -3.970  0.00  0.00     0.065 H 
ATOM     11  C   LIG d   1       4.960  -0.915  -2.718  0.00  0.00    -0.047 A 
ATOM     12  H   LIG d   1       6.529  -2.183  -3.428  0.00  0.00     0.062 H 
ATOM     13  C   LIG d   1       4.549   0.385  -2.494  0.00  0.00    -0.055 A 
ATOM     14  C   LIG d   1       5.392   1.437  -2.793  0.00  0.00    -0.019 A 
ATOM     15  H   LIG d   1       3.569   0.578  -2.083  0.00  0.00     0.062 H 
ATOM     16  H   LIG d   1       5.073   2.454  -2.613  0.00  0.00     0.065 H 
BRANCH  11  17
ATOM     17  C   LIG d   1       4.040  -2.063  -2.386  0.00  0.00    -0.030 C 
ATOM     18  H   LIG d   1       3.011  -1.706  -2.356  0.00  0.00     0.031 H 
ATOM     19  H   LIG d   1       4.310  -2.476  -1.414  0.00  0.00     0.031 H 
BRANCH  17  20
ATOM     20  C   LIG d   1       4.173  -3.148  -3.457  0.00  0.00    -0.061 C 
ATOM     21  H   LIG d   1       5.219  -3.244  -3.749  0.00  0.00     0.023 H 
ATOM     22  H   LIG d   1       3.819  -4.098  -3.056  0.00  0.00     0.023 H 
ATOM     23  H   LIG d   1       3.576  -2.876  -4.326  0.00  0.00     0.023 H 
ENDBRANCH  17  20
ENDBRANCH  11  17
ENDBRANCH   6   7
ENDBRANCH   4   6
ENDBRANCH   1   4
BRANCH   1  24
ATOM     24  C   LIG d   1      10.111   3.749  -4.788  0.00  0.00     0.389 C 
ATOM     25  F   LIG d   1      11.224   3.856  -5.630  0.00  0.00    -0.192 F 
ATOM     26  F   LIG d   1       9.035   4.445  -5.348  0.00  0.00    -0.192 F 
BRANCH  24  27
ATOM     27  C   LIG d   1      10.447   4.344  -3.420  0.00  0.00     0.384 C 
ATOM     28  F   LIG d   1       9.592   3.804  -2.454  0.00  0.00    -0.192 F 
ATOM     29  F   LIG d   1      11.773   4.040  -3.092  0.00  0.00    -0.192 F 
BRANCH  27  30
ATOM     30  C   LIG d   1      10.270   5.863  -3.467  0.00  0.00     0.384 C 
ATOM     31  F   LIG d   1      11.081   6.397  -4.474  0.00  0.00    -0.192 F 
ATOM     32  F   LIG d   1       8.931   6.168  -3.736  0.00  0.00    -0.192 F 
BRANCH  30  33
ATOM     33  C   LIG d   1      10.669   6.465  -2.118  0.00  0.00     0.384 C 
ATOM     34  F   LIG d   1      10.429   5.532  -1.102  0.00  0.00    -0.192 F 
ATOM     35  F   LIG d   1      12.028   6.794  -2.137  0.00  0.00    -0.192 F 
BRANCH  33  36
ATOM     36  C   LIG d   1       9.842   7.726  -1.857  0.00  0.00     0.387 C 
ATOM     37  F   LIG d   1       9.796   8.501  -3.020  0.00  0.00    -0.192 F 
ATOM     38  F   LIG d   1       8.542   7.363  -1.486  0.00  0.00    -0.192 F 
BRANCH  36  39
ATOM     39  C   LIG d   1      10.488   8.535  -0.731  0.00  0.00     0.409 C 
ATOM     40  F   LIG d   1      10.522   7.764   0.436  0.00  0.00    -0.189 F 
ATOM     41  F   LIG d   1      11.791   8.886  -1.097  0.00  0.00    -0.189 F 
BRANCH  39  42
ATOM     42  C   LIG d   1       9.668   9.803  -0.480  0.00  0.00     0.460 C 
ATOM     43  F   LIG d   1      10.005  10.337   0.767  0.00  0.00    -0.165 F 
ATOM     44  F   LIG d   1       9.943  10.741  -1.481  0.00  0.00    -0.165 F 
ATOM     45  F   LIG d   1       8.305   9.487  -0.499  0.00  0.00    -0.165 F 
ENDBRANCH  39  42
ENDBRANCH  36  39
ENDBRANCH  33  36
ENDBRANCH  30  33
ENDBRANCH  27  30
ENDBRANCH  24  27
ENDBRANCH   1  24
TORSDOF 12
ENDMDL
MODEL 9
REMARK VINA RESULT:      -6.0      4.981      6.351
REMARK  12 active torsions:
REMARK  status: ('A' for Active; 'I' for Inactive)
REMARK    1  A    between atoms: C_1  and  C_2 
REMARK    2  A    between atoms: C_2  and  C_3 
REMARK    3  A    between atoms: C_6  and  O_9 
REMARK    4  A    between atoms: O_9  and  C_10 
REMARK    5  A    between atoms: C_10  and  C_12 
REMARK    6  A    between atoms: C_12  and  C_13 
REMARK    7  A    between atoms: C_13  and  C_14 
REMARK    8  A    between atoms: C_14  and  C_15 
REMARK    9  A    between atoms: C_15  and  C_16 
REMARK   10  A    between atoms: C_16  and  C_17 
REMARK   11  A    between atoms: C_17  and  C_18 
REMARK   12  A    between atoms: C_18  and  C_19 
ROOT
ATOM      1  C   LIG d   1       4.312  -2.090 -10.354  0.00  0.00     0.410 C 
ATOM      2  F   LIG d   1       4.667  -3.387  -9.966  0.00  0.00    -0.186 F 
ATOM      3  F   LIG d   1       5.462  -1.378 -10.710  0.00  0.00    -0.186 F 
ENDROOT
BRANCH   1   4
ATOM      4  C   LIG d   1       3.377  -2.156 -11.533  0.00  0.00     0.389 C 
ATOM      5  O   LIG d   1       2.968  -1.138 -12.039  0.00  0.00    -0.243 OA
BRANCH   4   6
ATOM      6  O   LIG d   1       2.997  -3.347 -12.023  0.00  0.00    -0.421 OA
BRANCH   6   7
ATOM      7  C   LIG d   1       1.794  -3.845 -11.633  0.00  0.00     0.132 A 
ATOM      8  C   LIG d   1       1.720  -4.725 -10.564  0.00  0.00    -0.019 A 
ATOM      9  C   LIG d   1       0.496  -5.228 -10.169  0.00  0.00    -0.055 A 
ATOM     10  H   LIG d   1       2.619  -5.017 -10.040  0.00  0.00     0.065 H 
ATOM     11  C   LIG d   1      -0.655  -4.854 -10.837  0.00  0.00    -0.047 A 
ATOM     12  H   LIG d   1       0.438  -5.914  -9.336  0.00  0.00     0.062 H 
ATOM     13  C   LIG d   1      -0.584  -3.980 -11.906  0.00  0.00    -0.055 A 
ATOM     14  C   LIG d   1       0.637  -3.471 -12.302  0.00  0.00    -0.019 A 
ATOM     15  H   LIG d   1      -1.484  -3.694 -12.429  0.00  0.00     0.062 H 
ATOM     16  H   LIG d   1       0.692  -2.785 -13.134  0.00  0.00     0.065 H 
BRANCH  11  17
ATOM     17  C   LIG d   1      -1.989  -5.404 -10.403  0.00  0.00    -0.030 C 
ATOM     18  H   LIG d   1      -2.434  -5.968 -11.223  0.00  0.00     0.031 H 
ATOM     19  H   LIG d   1      -2.649  -4.582 -10.127  0.00  0.00     0.031 H 
BRANCH  17  20
ATOM     20  C   LIG d   1      -1.793  -6.326  -9.197  0.00  0.00    -0.061 C 
ATOM     21  H   LIG d   1      -1.165  -5.829  -8.458  0.00  0.00     0.023 H 
ATOM     22  H   LIG d   1      -2.762  -6.557  -8.754  0.00  0.00     0.023 H 
ATOM     23  H   LIG d   1      -1.313  -7.249  -9.521  0.00  0.00     0.023 H 
ENDBRANCH  17  20
ENDBRANCH  11  17
ENDBRANCH   6   7
ENDBRANCH   4   6
ENDBRANCH   1   4
BRANCH   1  24
ATOM     24  C   LIG d   1       3.615  -1.382  -9.190  0.00  0.00     0.389 C 
ATOM     25  F   LIG d   1       3.588  -0.004  -9.430  0.00  0.00    -0.192 F 
ATOM     26  F   LIG d   1       2.306  -1.861  -9.070  0.00  0.00    -0.192 F 
BRANCH  24  27
ATOM     27  C   LIG d   1       4.379  -1.659  -7.894  0.00  0.00     0.384 C 
ATOM     28  F   LIG d   1       3.965  -2.884  -7.361  0.00  0.00    -0.192 F 
ATOM     29  F   LIG d   1       5.751  -1.706  -8.163  0.00  0.00    -0.192 F 
BRANCH  27  30
ATOM     30  C   LIG d   1       4.095  -0.542  -6.886  0.00  0.00     0.384 C 
ATOM     31  F   LIG d   1       4.468   0.689  -7.436  0.00  0.00    -0.192 F 
ATOM     32  F   LIG d   1       2.729  -0.524  -6.583  0.00  0.00    -0.192 F 
BRANCH  30  33
ATOM     33  C   LIG d   1       4.898  -0.794  -5.608  0.00  0.00     0.384 C 
ATOM     34  F   LIG d   1       5.183  -2.160  -5.497  0.00  0.00    -0.192 F 
ATOM     35  F   LIG d   1       6.093  -0.071  -5.658  0.00  0.00    -0.192 F 
BRANCH  33  36
ATOM     36  C   LIG d   1       4.080  -0.344  -4.395  0.00  0.00     0.387 C 
ATOM     37  F   LIG d   1       3.326   0.785  -4.734  0.00  0.00    -0.192 F 
ATOM     38  F   LIG d   1       3.220  -1.377  -4.003  0.00  0.00    -0.192 F 
BRANCH  36  39
ATOM     39  C   LIG d   1       5.024   0.001  -3.243  0.00  0.00     0.409 C 
ATOM     40  F   LIG d   1       6.013  -0.983  -3.140  0.00  0.00    -0.189 F 
ATOM     41  F   LIG d   1       5.623   1.241  -3.486  0.00  0.00    -0.189 F 
BRANCH  39  42
ATOM     42  C   LIG d   1       4.230   0.065  -1.936  0.00  0.00     0.460 C 
ATOM     43  F   LIG d   1       4.763   1.063  -1.114  0.00  0.00    -0.165 F 
ATOM     44  F   LIG d   1       2.891   0.357  -2.217  0.00  0.00    -0.165 F 
ATOM     45  F   LIG d   1       4.310  -1.169  -1.282  0.00  0.00    -0.165 F 
ENDBRANCH  39  42
ENDBRANCH  36  39
ENDBRANCH  33  36
ENDBRANCH  30  33
ENDBRANCH  27  30
ENDBRANCH  24  27
ENDBRANCH   1  24
TORSDOF 12
ENDMDL
