MODEL 1
REMARK VINA RESULT:      -6.4      0.000      0.000
REMARK  10 active torsions:
REMARK  status: ('A' for Active; 'I' for Inactive)
REMARK    1  A    between atoms: C_1  and  C_2 
REMARK    2  A    between atoms: C_3  and  C_32 
REMARK    3  A    between atoms: C_9  and  C_31 
REMARK    4  A    between atoms: C_23  and  C_30 
REMARK    5  A    between atoms: C_26  and  O_29 
REMARK    6  A    between atoms: C_32  and  C_33 
REMARK    7  A    between atoms: C_33  and  C_34 
REMARK    8  A    between atoms: C_34  and  C_36 
REMARK    9  A    between atoms: C_34  and  C_37 
REMARK   10  A    between atoms: C_37  and  O_38 
ROOT
ATOM      1  C   LIG d   1       6.057  -1.944  -4.238  0.00  0.00    -0.028 C 
ATOM      2  C   LIG d   1       5.003  -2.385  -3.533  0.00  0.00     0.098 C 
ATOM      3  O   LIG d   1       4.402  -3.478  -4.143  0.00  0.00    -0.492 OA
ATOM      4  C   LIG d   1       4.634  -3.251  -5.491  0.00  0.00     0.107 C 
ATOM      5  H   LIG d   1       4.132  -2.321  -5.757  0.00  0.00     0.074 H 
ATOM      6  C   LIG d   1       6.165  -2.870  -5.398  0.00  0.00     0.026 C 
ATOM      7  H   LIG d   1       6.795  -3.731  -5.171  0.00  0.00     0.039 H 
ATOM      8  C   LIG d   1       6.351  -2.376  -6.832  0.00  0.00    -0.019 C 
ATOM      9  C   LIG d   1       5.655  -1.038  -6.990  0.00  0.00    -0.046 C 
ATOM     10  C   LIG d   1       5.305  -0.729  -8.438  0.00  0.00    -0.049 C 
ATOM     11  C   LIG d   1       4.373  -1.824  -8.964  0.00  0.00    -0.032 C 
ATOM     12  H   LIG d   1       3.500  -1.905  -8.315  0.00  0.00     0.031 H 
ATOM     13  C   LIG d   1       5.130  -3.146  -8.968  0.00  0.00    -0.034 C 
ATOM     14  H   LIG d   1       5.979  -3.037  -9.644  0.00  0.00     0.031 H 
ATOM     15  C   LIG d   1       5.686  -3.515  -7.626  0.00  0.00    -0.029 C 
ATOM     16  H   LIG d   1       6.436  -4.291  -7.780  0.00  0.00     0.031 H 
ATOM     17  C   LIG d   1       4.616  -4.128  -6.696  0.00  0.00    -0.012 C 
ATOM     18  C   LIG d   1       4.235  -4.256  -9.522  0.00  0.00    -0.049 C 
ATOM     19  C   LIG d   1       3.814  -3.907 -10.950  0.00  0.00    -0.049 C 
ATOM     20  C   LIG d   1       4.423  -2.562 -11.349  0.00  0.00    -0.033 C 
ATOM     21  H   LIG d   1       5.511  -2.627 -11.301  0.00  0.00     0.031 H 
ATOM     22  C   LIG d   1       3.925  -1.469 -10.384  0.00  0.00    -0.026 C 
ATOM     23  C   LIG d   1       4.524  -0.118 -10.782  0.00  0.00    -0.045 C 
ATOM     24  C   LIG d   1       4.084   0.237 -12.204  0.00  0.00    -0.026 C 
ATOM     25  C   LIG d   1       4.574  -0.841 -13.172  0.00  0.00     0.056 C 
ATOM     26  H   LIG d   1       5.662  -0.902 -13.129  0.00  0.00     0.059 H 
ATOM     27  C   LIG d   1       3.997  -2.212 -12.776  0.00  0.00    -0.024 C 
ATOM     28  H   LIG d   1       4.738  -1.045  -6.400  0.00  0.00     0.027 H 
ATOM     29  H   LIG d   1       6.310  -0.253  -6.611  0.00  0.00     0.027 H 
ATOM     30  H   LIG d   1       4.804   0.237  -8.496  0.00  0.00     0.027 H 
ATOM     31  H   LIG d   1       6.216  -0.707  -9.037  0.00  0.00     0.027 H 
ATOM     32  H   LIG d   1       4.875  -5.153  -6.428  0.00  0.00     0.030 H 
ATOM     33  H   LIG d   1       3.641  -4.093  -7.181  0.00  0.00     0.030 H 
ATOM     34  H   LIG d   1       4.785  -5.197  -9.525  0.00  0.00     0.027 H 
ATOM     35  H   LIG d   1       3.349  -4.355  -8.895  0.00  0.00     0.027 H 
ATOM     36  H   LIG d   1       4.164  -4.682 -11.633  0.00  0.00     0.027 H 
ATOM     37  H   LIG d   1       2.727  -3.842 -11.002  0.00  0.00     0.027 H 
ATOM     38  H   LIG d   1       4.176   0.651 -10.092  0.00  0.00     0.027 H 
ATOM     39  H   LIG d   1       5.612  -0.177 -10.741  0.00  0.00     0.027 H 
ATOM     40  H   LIG d   1       2.997   0.295 -12.244  0.00  0.00     0.029 H 
ATOM     41  H   LIG d   1       4.511   1.200 -12.486  0.00  0.00     0.029 H 
ATOM     42  H   LIG d   1       4.347  -2.986 -13.460  0.00  0.00     0.029 H 
ATOM     43  H   LIG d   1       2.910  -2.149 -12.825  0.00  0.00     0.029 H 
ENDROOT
BRANCH   2  44
ATOM     44  C   LIG d   1       4.531  -1.772  -2.240  0.00  0.00     0.005 C 
ATOM     45  H   LIG d   1       4.524  -2.532  -1.459  0.00  0.00     0.034 H 
ATOM     46  H   LIG d   1       5.205  -0.964  -1.955  0.00  0.00     0.034 H 
BRANCH  44  47
ATOM     47  C   LIG d   1       3.119  -1.216  -2.426  0.00  0.00    -0.042 C 
ATOM     48  H   LIG d   1       2.673  -1.647  -3.322  0.00  0.00     0.027 H 
ATOM     49  H   LIG d   1       2.511  -1.471  -1.558  0.00  0.00     0.027 H 
BRANCH  47  50
ATOM     50  C   LIG d   1       3.185   0.306  -2.571  0.00  0.00    -0.020 C 
ATOM     51  H   LIG d   1       2.287   0.751  -2.144  0.00  0.00     0.032 H 
BRANCH  50  52
ATOM     52  C   LIG d   1       4.418   0.836  -1.836  0.00  0.00    -0.060 C 
ATOM     53  H   LIG d   1       4.573   0.258  -0.925  0.00  0.00     0.023 H 
ATOM     54  H   LIG d   1       5.292   0.742  -2.479  0.00  0.00     0.023 H 
ATOM     55  H   LIG d   1       4.265   1.884  -1.581  0.00  0.00     0.023 H 
ENDBRANCH  50  52
BRANCH  50  56
ATOM     56  C   LIG d   1       3.279   0.672  -4.054  0.00  0.00     0.047 C 
ATOM     57  H   LIG d   1       2.944   1.700  -4.196  0.00  0.00     0.056 H 
ATOM     58  H   LIG d   1       4.312   0.578  -4.387  0.00  0.00     0.056 H 
BRANCH  56  59
ATOM     59  O   LIG d   1       2.450  -0.209  -4.816  0.00  0.00    -0.395 OA
ATOM     60  H   LIG d   1       1.511  -0.153  -4.595  0.00  0.00     0.209 HD
ENDBRANCH  56  59
ENDBRANCH  50  56
ENDBRANCH  47  50
ENDBRANCH  44  47
ENDBRANCH   2  44
BRANCH   1  61
ATOM     61  C   LIG d   1       6.937  -0.760  -3.926  0.00  0.00    -0.040 C 
ATOM     62  H   LIG d   1       6.847  -0.510  -2.870  0.00  0.00     0.028 H 
ATOM     63  H   LIG d   1       7.973  -1.008  -4.154  0.00  0.00     0.028 H 
ATOM     64  H   LIG d   1       6.626   0.092  -4.530  0.00  0.00     0.028 H 
ENDBRANCH   1  61
BRANCH   8  65
ATOM     65  C   LIG d   1       7.838  -2.274  -7.179  0.00  0.00    -0.059 C 
ATOM     66  H   LIG d   1       7.999  -1.422  -7.840  0.00  0.00     0.024 H 
ATOM     67  H   LIG d   1       8.416  -2.137  -6.264  0.00  0.00     0.024 H 
ATOM     68  H   LIG d   1       8.159  -3.187  -7.679  0.00  0.00     0.024 H 
ENDBRANCH   8  65
BRANCH  22  69
ATOM     69  C   LIG d   1       2.398  -1.387 -10.433  0.00  0.00    -0.059 C 
ATOM     70  H   LIG d   1       1.979  -1.897  -9.566  0.00  0.00     0.024 H 
ATOM     71  H   LIG d   1       2.090  -0.342 -10.423  0.00  0.00     0.024 H 
ATOM     72  H   LIG d   1       2.038  -1.863 -11.345  0.00  0.00     0.024 H 
ENDBRANCH  22  69
BRANCH  25  73
ATOM     73  O   LIG d   1       4.167  -0.510 -14.501  0.00  0.00    -0.392 OA
ATOM     74  H   LIG d   1       3.287  -0.835 -14.734  0.00  0.00     0.210 HD
ENDBRANCH  25  73
TORSDOF 10
ENDMDL
MODEL 2
REMARK VINA RESULT:      -6.2      5.451      8.257
REMARK  10 active torsions:
REMARK  status: ('A' for Active; 'I' for Inactive)
REMARK    1  A    between atoms: C_1  and  C_2 
REMARK    2  A    between atoms: C_3  and  C_32 
REMARK    3  A    between atoms: C_9  and  C_31 
REMARK    4  A    between atoms: C_23  and  C_30 
REMARK    5  A    between atoms: C_26  and  O_29 
REMARK    6  A    between atoms: C_32  and  C_33 
REMARK    7  A    between atoms: C_33  and  C_34 
REMARK    8  A    between atoms: C_34  and  C_36 
REMARK    9  A    between atoms: C_34  and  C_37 
REMARK   10  A    between atoms: C_37  and  O_38 
ROOT
ATOM      1  C   LIG d   1       6.962  -0.767  -4.798  0.00  0.00    -0.028 C 
ATOM      2  C   LIG d   1       5.767  -0.520  -5.358  0.00  0.00     0.098 C 
ATOM      3  O   LIG d   1       5.891   0.245  -6.509  0.00  0.00    -0.492 OA
ATOM      4  C   LIG d   1       7.013   1.017  -6.253  0.00  0.00     0.107 C 
ATOM      5  H   LIG d   1       6.793   1.638  -5.385  0.00  0.00     0.074 H 
ATOM      6  C   LIG d   1       7.956  -0.126  -5.702  0.00  0.00     0.026 C 
ATOM      7  H   LIG d   1       8.286  -0.807  -6.487  0.00  0.00     0.039 H 
ATOM      8  C   LIG d   1       9.088   0.759  -5.185  0.00  0.00    -0.019 C 
ATOM      9  C   LIG d   1       8.624   1.479  -3.934  0.00  0.00    -0.046 C 
ATOM     10  C   LIG d   1       9.419   2.747  -3.661  0.00  0.00    -0.049 C 
ATOM     11  C   LIG d   1       9.256   3.696  -4.853  0.00  0.00    -0.032 C 
ATOM     12  H   LIG d   1       8.197   3.878  -5.034  0.00  0.00     0.031 H 
ATOM     13  C   LIG d   1       9.879   3.043  -6.080  0.00  0.00    -0.034 C 
ATOM     14  H   LIG d   1      10.940   2.899  -5.874  0.00  0.00     0.031 H 
ATOM     15  C   LIG d   1       9.306   1.693  -6.389  0.00  0.00    -0.029 C 
ATOM     16  H   LIG d   1       9.991   1.192  -7.074  0.00  0.00     0.031 H 
ATOM     17  C   LIG d   1       7.951   1.784  -7.122  0.00  0.00    -0.012 C 
ATOM     18  C   LIG d   1       9.764   3.982  -7.282  0.00  0.00    -0.049 C 
ATOM     19  C   LIG d   1      10.492   5.292  -6.978  0.00  0.00    -0.049 C 
ATOM     20  C   LIG d   1      11.089   5.231  -5.571  0.00  0.00    -0.033 C 
ATOM     21  H   LIG d   1      11.798   4.404  -5.514  0.00  0.00     0.031 H 
ATOM     22  C   LIG d   1       9.960   5.020  -4.545  0.00  0.00    -0.026 C 
ATOM     23  C   LIG d   1      10.549   4.965  -3.134  0.00  0.00    -0.045 C 
ATOM     24  C   LIG d   1      11.260   6.285  -2.826  0.00  0.00    -0.026 C 
ATOM     25  C   LIG d   1      12.385   6.505  -3.838  0.00  0.00     0.056 C 
ATOM     26  H   LIG d   1      13.098   5.683  -3.776  0.00  0.00     0.059 H 
ATOM     27  C   LIG d   1      11.813   6.544  -5.267  0.00  0.00    -0.024 C 
ATOM     28  H   LIG d   1       7.572   1.739  -4.047  0.00  0.00     0.027 H 
ATOM     29  H   LIG d   1       8.730   0.807  -3.081  0.00  0.00     0.027 H 
ATOM     30  H   LIG d   1       9.043   3.228  -2.758  0.00  0.00     0.027 H 
ATOM     31  H   LIG d   1      10.472   2.498  -3.534  0.00  0.00     0.027 H 
ATOM     32  H   LIG d   1       8.013   1.331  -8.112  0.00  0.00     0.030 H 
ATOM     33  H   LIG d   1       7.639   2.826  -7.196  0.00  0.00     0.030 H 
ATOM     34  H   LIG d   1      10.214   3.510  -8.155  0.00  0.00     0.027 H 
ATOM     35  H   LIG d   1       8.713   4.188  -7.483  0.00  0.00     0.027 H 
ATOM     36  H   LIG d   1      11.290   5.443  -7.706  0.00  0.00     0.027 H 
ATOM     37  H   LIG d   1       9.787   6.121  -7.037  0.00  0.00     0.027 H 
ATOM     38  H   LIG d   1       9.748   4.807  -2.412  0.00  0.00     0.027 H 
ATOM     39  H   LIG d   1      11.263   4.144  -3.070  0.00  0.00     0.027 H 
ATOM     40  H   LIG d   1      10.546   7.106  -2.891  0.00  0.00     0.029 H 
ATOM     41  H   LIG d   1      11.679   6.246  -1.820  0.00  0.00     0.029 H 
ATOM     42  H   LIG d   1      12.612   6.696  -5.994  0.00  0.00     0.029 H 
ATOM     43  H   LIG d   1      11.106   7.371  -5.327  0.00  0.00     0.029 H 
ENDROOT
BRANCH   2  44
ATOM     44  C   LIG d   1       4.454  -1.013  -4.806  0.00  0.00     0.005 C 
ATOM     45  H   LIG d   1       3.816  -1.341  -5.626  0.00  0.00     0.034 H 
ATOM     46  H   LIG d   1       4.636  -1.849  -4.130  0.00  0.00     0.034 H 
BRANCH  44  47
ATOM     47  C   LIG d   1       3.764   0.119  -4.044  0.00  0.00    -0.042 C 
ATOM     48  H   LIG d   1       4.388   1.012  -4.076  0.00  0.00     0.027 H 
ATOM     49  H   LIG d   1       2.800   0.332  -4.505  0.00  0.00     0.027 H 
BRANCH  47  50
ATOM     50  C   LIG d   1       3.551  -0.302  -2.588  0.00  0.00    -0.020 C 
ATOM     51  H   LIG d   1       2.548  -0.021  -2.272  0.00  0.00     0.032 H 
BRANCH  50  52
ATOM     52  C   LIG d   1       3.720  -1.818  -2.466  0.00  0.00    -0.060 C 
ATOM     53  H   LIG d   1       4.357  -2.045  -1.612  0.00  0.00     0.023 H 
ATOM     54  H   LIG d   1       2.743  -2.281  -2.324  0.00  0.00     0.023 H 
ATOM     55  H   LIG d   1       4.177  -2.207  -3.375  0.00  0.00     0.023 H 
ENDBRANCH  50  52
BRANCH  50  56
ATOM     56  C   LIG d   1       4.581   0.398  -1.700  0.00  0.00     0.047 C 
ATOM     57  H   LIG d   1       4.076   0.850  -0.845  0.00  0.00     0.056 H 
ATOM     58  H   LIG d   1       5.312  -0.329  -1.347  0.00  0.00     0.056 H 
BRANCH  56  59
ATOM     59  O   LIG d   1       5.245   1.417  -2.452  0.00  0.00    -0.395 OA
ATOM     60  H   LIG d   1       6.176   1.535  -2.216  0.00  0.00     0.209 HD
ENDBRANCH  56  59
ENDBRANCH  50  56
ENDBRANCH  47  50
ENDBRANCH  44  47
ENDBRANCH   2  44
BRANCH   1  61
ATOM     61  C   LIG d   1       7.237  -1.524  -3.524  0.00  0.00    -0.040 C 
ATOM     62  H   LIG d   1       8.257  -1.325  -3.196  0.00  0.00     0.028 H 
ATOM     63  H   LIG d   1       6.538  -1.203  -2.752  0.00  0.00     0.028 H 
ATOM     64  H   LIG d   1       7.115  -2.593  -3.703  0.00  0.00     0.028 H 
ENDBRANCH   1  61
BRANCH   8  65
ATOM     65  C   LIG d   1      10.343  -0.074  -4.914  0.00  0.00    -0.059 C 
ATOM     66  H   LIG d   1      10.983  -0.066  -5.798  0.00  0.00     0.024 H 
ATOM     67  H   LIG d   1      10.886   0.351  -4.070  0.00  0.00     0.024 H 
ATOM     68  H   LIG d   1      10.056  -1.100  -4.683  0.00  0.00     0.024 H 
ENDBRANCH   8  65
BRANCH  22  69
ATOM     69  C   LIG d   1       8.952   6.167  -4.636  0.00  0.00    -0.059 C 
ATOM     70  H   LIG d   1       8.391   6.233  -3.704  0.00  0.00     0.024 H 
ATOM     71  H   LIG d   1       9.482   7.104  -4.807  0.00  0.00     0.024 H 
ATOM     72  H   LIG d   1       8.266   5.983  -5.462  0.00  0.00     0.024 H 
ENDBRANCH  22  69
BRANCH  25  73
ATOM     73  O   LIG d   1      13.051   7.736  -3.551  0.00  0.00    -0.392 OA
ATOM     74  H   LIG d   1      12.698   8.497  -4.032  0.00  0.00     0.210 HD
ENDBRANCH  25  73
TORSDOF 10
ENDMDL
MODEL 3
REMARK VINA RESULT:      -6.0      2.799      4.439
REMARK  10 active torsions:
REMARK  status: ('A' for Active; 'I' for Inactive)
REMARK    1  A    between atoms: C_1  and  C_2 
REMARK    2  A    between atoms: C_3  and  C_32 
REMARK    3  A    between atoms: C_9  and  C_31 
REMARK    4  A    between atoms: C_23  and  C_30 
REMARK    5  A    between atoms: C_26  and  O_29 
REMARK    6  A    between atoms: C_32  and  C_33 
REMARK    7  A    between atoms: C_33  and  C_34 
REMARK    8  A    between atoms: C_34  and  C_36 
REMARK    9  A    between atoms: C_34  and  C_37 
REMARK   10  A    between atoms: C_37  and  O_38 
ROOT
ATOM      1  C   LIG d   1       3.246   0.896  -8.023  0.00  0.00    -0.028 C 
ATOM      2  C   LIG d   1       3.155   0.315  -6.816  0.00  0.00     0.098 C 
ATOM      3  O   LIG d   1       3.611  -0.996  -6.845  0.00  0.00    -0.492 OA
ATOM      4  C   LIG d   1       3.313  -1.403  -8.136  0.00  0.00     0.107 C 
ATOM      5  H   LIG d   1       2.230  -1.356  -8.251  0.00  0.00     0.074 H 
ATOM      6  C   LIG d   1       3.856  -0.135  -8.907  0.00  0.00     0.026 C 
ATOM      7  H   LIG d   1       4.945  -0.079  -8.901  0.00  0.00     0.039 H 
ATOM      8  C   LIG d   1       3.298  -0.468 -10.289  0.00  0.00    -0.019 C 
ATOM      9  C   LIG d   1       1.794  -0.268 -10.279  0.00  0.00    -0.046 C 
ATOM     10  C   LIG d   1       1.093  -1.065 -11.369  0.00  0.00    -0.049 C 
ATOM     11  C   LIG d   1       1.384  -2.553 -11.156  0.00  0.00    -0.032 C 
ATOM     12  H   LIG d   1       1.089  -2.844 -10.148  0.00  0.00     0.031 H 
ATOM     13  C   LIG d   1       2.879  -2.786 -11.337  0.00  0.00    -0.034 C 
ATOM     14  H   LIG d   1       3.134  -2.509 -12.360  0.00  0.00     0.031 H 
ATOM     15  C   LIG d   1       3.724  -1.940 -10.433  0.00  0.00    -0.029 C 
ATOM     16  H   LIG d   1       4.741  -1.952 -10.824  0.00  0.00     0.031 H 
ATOM     17  C   LIG d   1       3.805  -2.513  -9.001  0.00  0.00    -0.012 C 
ATOM     18  C   LIG d   1       3.198  -4.272 -11.165  0.00  0.00    -0.049 C 
ATOM     19  C   LIG d   1       2.427  -5.083 -12.207  0.00  0.00    -0.049 C 
ATOM     20  C   LIG d   1       1.590  -4.141 -13.073  0.00  0.00    -0.033 C 
ATOM     21  H   LIG d   1       2.248  -3.434 -13.581  0.00  0.00     0.031 H 
ATOM     22  C   LIG d   1       0.596  -3.374 -12.180  0.00  0.00    -0.026 C 
ATOM     23  C   LIG d   1      -0.252  -2.435 -13.040  0.00  0.00    -0.045 C 
ATOM     24  C   LIG d   1      -1.036  -3.252 -14.069  0.00  0.00    -0.026 C 
ATOM     25  C   LIG d   1      -0.059  -4.017 -14.962  0.00  0.00     0.056 C 
ATOM     26  H   LIG d   1       0.593  -3.310 -15.477  0.00  0.00     0.059 H 
ATOM     27  C   LIG d   1       0.816  -4.954 -14.112  0.00  0.00    -0.024 C 
ATOM     28  H   LIG d   1       1.404  -0.577  -9.310  0.00  0.00     0.027 H 
ATOM     29  H   LIG d   1       1.579   0.791 -10.423  0.00  0.00     0.027 H 
ATOM     30  H   LIG d   1       0.018  -0.891 -11.315  0.00  0.00     0.027 H 
ATOM     31  H   LIG d   1       1.466  -0.756 -12.346  0.00  0.00     0.027 H 
ATOM     32  H   LIG d   1       4.833  -2.771  -8.744  0.00  0.00     0.030 H 
ATOM     33  H   LIG d   1       3.157  -3.384  -8.913  0.00  0.00     0.030 H 
ATOM     34  H   LIG d   1       4.268  -4.431 -11.299  0.00  0.00     0.027 H 
ATOM     35  H   LIG d   1       2.906  -4.593 -10.165  0.00  0.00     0.027 H 
ATOM     36  H   LIG d   1       3.131  -5.627 -12.838  0.00  0.00     0.027 H 
ATOM     37  H   LIG d   1       1.771  -5.792 -11.703  0.00  0.00     0.027 H 
ATOM     38  H   LIG d   1      -0.948  -1.888 -12.403  0.00  0.00     0.027 H 
ATOM     39  H   LIG d   1       0.399  -1.729 -13.556  0.00  0.00     0.027 H 
ATOM     40  H   LIG d   1      -1.686  -3.958 -13.552  0.00  0.00     0.029 H 
ATOM     41  H   LIG d   1      -1.640  -2.582 -14.680  0.00  0.00     0.029 H 
ATOM     42  H   LIG d   1       1.519  -5.499 -14.744  0.00  0.00     0.029 H 
ATOM     43  H   LIG d   1       0.161  -5.662 -13.605  0.00  0.00     0.029 H 
ENDROOT
BRANCH   2  44
ATOM     44  C   LIG d   1       2.626   1.000  -5.582  0.00  0.00     0.005 C 
ATOM     45  H   LIG d   1       3.360   1.722  -5.225  0.00  0.00     0.034 H 
ATOM     46  H   LIG d   1       1.697   1.516  -5.825  0.00  0.00     0.034 H 
BRANCH  44  47
ATOM     47  C   LIG d   1       2.362  -0.042  -4.495  0.00  0.00    -0.042 C 
ATOM     48  H   LIG d   1       1.522   0.280  -3.879  0.00  0.00     0.027 H 
ATOM     49  H   LIG d   1       2.127  -1.000  -4.958  0.00  0.00     0.027 H 
BRANCH  47  50
ATOM     50  C   LIG d   1       3.608  -0.191  -3.619  0.00  0.00    -0.020 C 
ATOM     51  H   LIG d   1       4.494   0.062  -4.201  0.00  0.00     0.032 H 
BRANCH  50  52
ATOM     52  C   LIG d   1       3.502   0.748  -2.416  0.00  0.00    -0.060 C 
ATOM     53  H   LIG d   1       3.269   1.755  -2.762  0.00  0.00     0.023 H 
ATOM     54  H   LIG d   1       2.712   0.400  -1.752  0.00  0.00     0.023 H 
ATOM     55  H   LIG d   1       4.451   0.759  -1.880  0.00  0.00     0.023 H 
ENDBRANCH  50  52
BRANCH  50  56
ATOM     56  C   LIG d   1       3.716  -1.636  -3.129  0.00  0.00     0.047 C 
ATOM     57  H   LIG d   1       4.625  -1.753  -2.537  0.00  0.00     0.056 H 
ATOM     58  H   LIG d   1       2.849  -1.878  -2.515  0.00  0.00     0.056 H 
BRANCH  56  59
ATOM     59  O   LIG d   1       3.765  -2.519  -4.253  0.00  0.00    -0.395 OA
ATOM     60  H   LIG d   1       4.402  -2.255  -4.931  0.00  0.00     0.209 HD
ENDBRANCH  56  59
ENDBRANCH  50  56
ENDBRANCH  47  50
ENDBRANCH  44  47
ENDBRANCH   2  44
BRANCH   1  61
ATOM     61  C   LIG d   1       2.815   2.290  -8.402  0.00  0.00    -0.040 C 
ATOM     62  H   LIG d   1       1.743   2.395  -8.244  0.00  0.00     0.028 H 
ATOM     63  H   LIG d   1       3.347   3.015  -7.786  0.00  0.00     0.028 H 
ATOM     64  H   LIG d   1       3.047   2.467  -9.453  0.00  0.00     0.028 H 
ENDBRANCH   1  61
BRANCH   8  65
ATOM     65  C   LIG d   1       3.967   0.394 -11.363  0.00  0.00    -0.059 C 
ATOM     66  H   LIG d   1       3.252   1.129 -11.735  0.00  0.00     0.024 H 
ATOM     67  H   LIG d   1       4.825   0.909 -10.932  0.00  0.00     0.024 H 
ATOM     68  H   LIG d   1       4.298  -0.240 -12.185  0.00  0.00     0.024 H 
ENDBRANCH   8  65
BRANCH  22  69
ATOM     69  C   LIG d   1      -0.316  -4.362 -11.448  0.00  0.00    -0.059 C 
ATOM     70  H   LIG d   1      -0.070  -5.379 -11.755  0.00  0.00     0.024 H 
ATOM     71  H   LIG d   1      -0.170  -4.263 -10.373  0.00  0.00     0.024 H 
ATOM     72  H   LIG d   1      -1.355  -4.149 -11.695  0.00  0.00     0.024 H 
ENDBRANCH  22  69
BRANCH  25  73
ATOM     73  O   LIG d   1      -0.789  -4.778 -15.926  0.00  0.00    -0.392 OA
ATOM     74  H   LIG d   1      -0.236  -5.185 -16.607  0.00  0.00     0.210 HD
ENDBRANCH  25  73
TORSDOF 10
ENDMDL
MODEL 4
REMARK VINA RESULT:      -6.0      2.154      3.584
REMARK  10 active torsions:
REMARK  status: ('A' for Active; 'I' for Inactive)
REMARK    1  A    between atoms: C_1  and  C_2 
REMARK    2  A    between atoms: C_3  and  C_32 
REMARK    3  A    between atoms: C_9  and  C_31 
REMARK    4  A    between atoms: C_23  and  C_30 
REMARK    5  A    between atoms: C_26  and  O_29 
REMARK    6  A    between atoms: C_32  and  C_33 
REMARK    7  A    between atoms: C_33  and  C_34 
REMARK    8  A    between atoms: C_34  and  C_36 
REMARK    9  A    between atoms: C_34  and  C_37 
REMARK   10  A    between atoms: C_37  and  O_38 
ROOT
ATOM      1  C   LIG d   1       3.402  -0.052  -5.929  0.00  0.00    -0.028 C 
ATOM      2  C   LIG d   1       4.199  -0.961  -5.345  0.00  0.00     0.098 C 
ATOM      3  O   LIG d   1       5.288  -1.276  -6.146  0.00  0.00    -0.492 OA
ATOM      4  C   LIG d   1       4.790  -1.113  -7.429  0.00  0.00     0.107 C 
ATOM      5  H   LIG d   1       3.981  -1.830  -7.560  0.00  0.00     0.074 H 
ATOM      6  C   LIG d   1       4.068   0.277  -7.219  0.00  0.00     0.026 C 
ATOM      7  H   LIG d   1       4.774   1.101  -7.111  0.00  0.00     0.039 H 
ATOM      8  C   LIG d   1       3.312   0.330  -8.545  0.00  0.00    -0.019 C 
ATOM      9  C   LIG d   1       2.177  -0.677  -8.510  0.00  0.00    -0.046 C 
ATOM     10  C   LIG d   1       1.727  -1.097  -9.901  0.00  0.00    -0.049 C 
ATOM     11  C   LIG d   1       2.913  -1.732 -10.632  0.00  0.00    -0.032 C 
ATOM     12  H   LIG d   1       3.311  -2.555 -10.038  0.00  0.00     0.031 H 
ATOM     13  C   LIG d   1       3.990  -0.672 -10.822  0.00  0.00    -0.034 C 
ATOM     14  H   LIG d   1       3.566   0.121 -11.439  0.00  0.00     0.031 H 
ATOM     15  C   LIG d   1       4.430  -0.037  -9.537  0.00  0.00    -0.029 C 
ATOM     16  H   LIG d   1       4.962   0.881  -9.788  0.00  0.00     0.031 H 
ATOM     17  C   LIG d   1       5.432  -0.919  -8.761  0.00  0.00    -0.012 C 
ATOM     18  C   LIG d   1       5.177  -1.267 -11.582  0.00  0.00    -0.049 C 
ATOM     19  C   LIG d   1       4.708  -1.767 -12.949  0.00  0.00    -0.049 C 
ATOM     20  C   LIG d   1       3.208  -1.510 -13.102  0.00  0.00    -0.033 C 
ATOM     21  H   LIG d   1       3.013  -0.440 -13.024  0.00  0.00     0.031 H 
ATOM     22  C   LIG d   1       2.446  -2.259 -11.991  0.00  0.00    -0.026 C 
ATOM     23  C   LIG d   1       0.943  -2.014 -12.142  0.00  0.00    -0.045 C 
ATOM     24  C   LIG d   1       0.475  -2.533 -13.503  0.00  0.00    -0.026 C 
ATOM     25  C   LIG d   1       1.224  -1.796 -14.614  0.00  0.00     0.056 C 
ATOM     26  H   LIG d   1       1.023  -0.727 -14.541  0.00  0.00     0.059 H 
ATOM     27  C   LIG d   1       2.741  -2.016 -14.468  0.00  0.00    -0.024 C 
ATOM     28  H   LIG d   1       2.507  -1.560  -7.964  0.00  0.00     0.027 H 
ATOM     29  H   LIG d   1       1.330  -0.234  -7.984  0.00  0.00     0.027 H 
ATOM     30  H   LIG d   1       0.917  -1.822  -9.820  0.00  0.00     0.027 H 
ATOM     31  H   LIG d   1       1.383  -0.223 -10.454  0.00  0.00     0.027 H 
ATOM     32  H   LIG d   1       6.392  -0.413  -8.653  0.00  0.00     0.030 H 
ATOM     33  H   LIG d   1       5.556  -1.874  -9.270  0.00  0.00     0.030 H 
ATOM     34  H   LIG d   1       5.941  -0.502 -11.717  0.00  0.00     0.027 H 
ATOM     35  H   LIG d   1       5.592  -2.098 -11.013  0.00  0.00     0.027 H 
ATOM     36  H   LIG d   1       5.249  -1.239 -13.735  0.00  0.00     0.027 H 
ATOM     37  H   LIG d   1       4.904  -2.836 -13.031  0.00  0.00     0.027 H 
ATOM     38  H   LIG d   1       0.409  -2.539 -11.350  0.00  0.00     0.027 H 
ATOM     39  H   LIG d   1       0.741  -0.945 -12.071  0.00  0.00     0.027 H 
ATOM     40  H   LIG d   1       0.679  -3.602 -13.574  0.00  0.00     0.029 H 
ATOM     41  H   LIG d   1      -0.596  -2.359 -13.609  0.00  0.00     0.029 H 
ATOM     42  H   LIG d   1       3.281  -1.488 -15.255  0.00  0.00     0.029 H 
ATOM     43  H   LIG d   1       2.937  -3.084 -14.547  0.00  0.00     0.029 H 
ENDROOT
BRANCH   2  44
ATOM     44  C   LIG d   1       3.943  -1.565  -3.988  0.00  0.00     0.005 C 
ATOM     45  H   LIG d   1       2.961  -1.256  -3.632  0.00  0.00     0.034 H 
ATOM     46  H   LIG d   1       3.978  -2.652  -4.062  0.00  0.00     0.034 H 
BRANCH  44  47
ATOM     47  C   LIG d   1       5.015  -1.087  -3.007  0.00  0.00    -0.042 C 
ATOM     48  H   LIG d   1       4.761  -1.418  -2.001  0.00  0.00     0.027 H 
ATOM     49  H   LIG d   1       5.981  -1.502  -3.294  0.00  0.00     0.027 H 
BRANCH  47  50
ATOM     50  C   LIG d   1       5.088   0.441  -3.038  0.00  0.00    -0.020 C 
ATOM     51  H   LIG d   1       4.461   0.819  -3.844  0.00  0.00     0.032 H 
BRANCH  50  52
ATOM     52  C   LIG d   1       4.595   1.002  -1.703  0.00  0.00    -0.060 C 
ATOM     53  H   LIG d   1       3.521   1.180  -1.757  0.00  0.00     0.023 H 
ATOM     54  H   LIG d   1       4.806   0.286  -0.908  0.00  0.00     0.023 H 
ATOM     55  H   LIG d   1       5.109   1.940  -1.491  0.00  0.00     0.023 H 
ENDBRANCH  50  52
BRANCH  50  56
ATOM     56  C   LIG d   1       6.535   0.878  -3.271  0.00  0.00     0.047 C 
ATOM     57  H   LIG d   1       6.742   1.779  -2.692  0.00  0.00     0.056 H 
ATOM     58  H   LIG d   1       7.210   0.082  -2.958  0.00  0.00     0.056 H 
BRANCH  56  59
ATOM     59  O   LIG d   1       6.733   1.150  -4.661  0.00  0.00    -0.395 OA
ATOM     60  H   LIG d   1       5.963   1.539  -5.098  0.00  0.00     0.209 HD
ENDBRANCH  56  59
ENDBRANCH  50  56
ENDBRANCH  47  50
ENDBRANCH  44  47
ENDBRANCH   2  44
BRANCH   1  61
ATOM     61  C   LIG d   1       2.109   0.510  -5.396  0.00  0.00    -0.040 C 
ATOM     62  H   LIG d   1       1.308  -0.212  -5.551  0.00  0.00     0.028 H 
ATOM     63  H   LIG d   1       2.213   0.714  -4.331  0.00  0.00     0.028 H 
ATOM     64  H   LIG d   1       1.872   1.435  -5.922  0.00  0.00     0.028 H 
ENDBRANCH   1  61
BRANCH   8  65
ATOM     65  C   LIG d   1       2.793   1.744  -8.815  0.00  0.00    -0.059 C 
ATOM     66  H   LIG d   1       1.828   1.687  -9.320  0.00  0.00     0.024 H 
ATOM     67  H   LIG d   1       2.677   2.274  -7.870  0.00  0.00     0.024 H 
ATOM     68  H   LIG d   1       3.503   2.278  -9.447  0.00  0.00     0.024 H 
ENDBRANCH   8  65
BRANCH  22  69
ATOM     69  C   LIG d   1       2.733  -3.759 -12.083  0.00  0.00    -0.059 C 
ATOM     70  H   LIG d   1       3.484  -3.939 -12.852  0.00  0.00     0.024 H 
ATOM     71  H   LIG d   1       3.104  -4.118 -11.123  0.00  0.00     0.024 H 
ATOM     72  H   LIG d   1       1.816  -4.289 -12.339  0.00  0.00     0.024 H 
ENDBRANCH  22  69
BRANCH  25  73
ATOM     73  O   LIG d   1       0.786  -2.277 -15.886  0.00  0.00    -0.392 OA
ATOM     74  H   LIG d   1      -0.169  -2.216 -16.022  0.00  0.00     0.210 HD
ENDBRANCH  25  73
TORSDOF 10
ENDMDL
MODEL 5
REMARK VINA RESULT:      -5.9      2.434      7.450
REMARK  10 active torsions:
REMARK  status: ('A' for Active; 'I' for Inactive)
REMARK    1  A    between atoms: C_1  and  C_2 
REMARK    2  A    between atoms: C_3  and  C_32 
REMARK    3  A    between atoms: C_9  and  C_31 
REMARK    4  A    between atoms: C_23  and  C_30 
REMARK    5  A    between atoms: C_26  and  O_29 
REMARK    6  A    between atoms: C_32  and  C_33 
REMARK    7  A    between atoms: C_33  and  C_34 
REMARK    8  A    between atoms: C_34  and  C_36 
REMARK    9  A    between atoms: C_34  and  C_37 
REMARK   10  A    between atoms: C_37  and  O_38 
ROOT
ATOM      1  C   LIG d   1       2.943  -0.494 -11.119  0.00  0.00    -0.028 C 
ATOM      2  C   LIG d   1       1.656  -0.871 -11.046  0.00  0.00     0.098 C 
ATOM      3  O   LIG d   1       1.090  -0.519  -9.828  0.00  0.00    -0.492 OA
ATOM      4  C   LIG d   1       2.164  -0.580  -8.954  0.00  0.00     0.107 C 
ATOM      5  H   LIG d   1       2.519  -1.610  -8.944  0.00  0.00     0.074 H 
ATOM      6  C   LIG d   1       3.219   0.202  -9.833  0.00  0.00     0.026 C 
ATOM      7  H   LIG d   1       2.999   1.269  -9.895  0.00  0.00     0.039 H 
ATOM      8  C   LIG d   1       4.459  -0.087  -8.989  0.00  0.00    -0.019 C 
ATOM      9  C   LIG d   1       4.850  -1.542  -9.165  0.00  0.00    -0.046 C 
ATOM     10  C   LIG d   1       5.683  -2.067  -8.005  0.00  0.00    -0.049 C 
ATOM     11  C   LIG d   1       4.867  -1.939  -6.715  0.00  0.00    -0.032 C 
ATOM     12  H   LIG d   1       3.913  -2.453  -6.832  0.00  0.00     0.031 H 
ATOM     13  C   LIG d   1       4.619  -0.460  -6.443  0.00  0.00    -0.034 C 
ATOM     14  H   LIG d   1       5.590   0.017  -6.307  0.00  0.00     0.031 H 
ATOM     15  C   LIG d   1       3.941   0.246  -7.579  0.00  0.00    -0.029 C 
ATOM     16  H   LIG d   1       4.069   1.318  -7.425  0.00  0.00     0.031 H 
ATOM     17  C   LIG d   1       2.418  -0.008  -7.601  0.00  0.00    -0.012 C 
ATOM     18  C   LIG d   1       3.835  -0.296  -5.140  0.00  0.00    -0.049 C 
ATOM     19  C   LIG d   1       4.634  -0.899  -3.984  0.00  0.00    -0.049 C 
ATOM     20  C   LIG d   1       5.950  -1.470  -4.515  0.00  0.00    -0.033 C 
ATOM     21  H   LIG d   1       6.533  -0.671  -4.977  0.00  0.00     0.031 H 
ATOM     22  C   LIG d   1       5.649  -2.564  -5.557  0.00  0.00    -0.026 C 
ATOM     23  C   LIG d   1       6.961  -3.146  -6.087  0.00  0.00    -0.045 C 
ATOM     24  C   LIG d   1       7.749  -3.765  -4.931  0.00  0.00    -0.026 C 
ATOM     25  C   LIG d   1       8.055  -2.688  -3.889  0.00  0.00     0.056 C 
ATOM     26  H   LIG d   1       8.644  -1.893  -4.349  0.00  0.00     0.059 H 
ATOM     27  C   LIG d   1       6.746  -2.077  -3.358  0.00  0.00    -0.024 C 
ATOM     28  H   LIG d   1       3.944  -2.143  -9.249  0.00  0.00     0.027 H 
ATOM     29  H   LIG d   1       5.425  -1.644 -10.086  0.00  0.00     0.027 H 
ATOM     30  H   LIG d   1       5.931  -3.114  -8.177  0.00  0.00     0.027 H 
ATOM     31  H   LIG d   1       6.598  -1.482  -7.918  0.00  0.00     0.027 H 
ATOM     32  H   LIG d   1       1.867   0.924  -7.469  0.00  0.00     0.030 H 
ATOM     33  H   LIG d   1       2.151  -0.725  -6.825  0.00  0.00     0.030 H 
ATOM     34  H   LIG d   1       3.665   0.764  -4.951  0.00  0.00     0.027 H 
ATOM     35  H   LIG d   1       2.877  -0.808  -5.226  0.00  0.00     0.027 H 
ATOM     36  H   LIG d   1       4.845  -0.125  -3.245  0.00  0.00     0.027 H 
ATOM     37  H   LIG d   1       4.054  -1.696  -3.519  0.00  0.00     0.027 H 
ATOM     38  H   LIG d   1       6.744  -3.913  -6.831  0.00  0.00     0.027 H 
ATOM     39  H   LIG d   1       7.551  -2.353  -6.546  0.00  0.00     0.027 H 
ATOM     40  H   LIG d   1       7.158  -4.558  -4.472  0.00  0.00     0.029 H 
ATOM     41  H   LIG d   1       8.683  -4.181  -5.309  0.00  0.00     0.029 H 
ATOM     42  H   LIG d   1       6.958  -1.304  -2.618  0.00  0.00     0.029 H 
ATOM     43  H   LIG d   1       6.164  -2.872  -2.895  0.00  0.00     0.029 H 
ENDROOT
BRANCH   2  44
ATOM     44  C   LIG d   1       0.918  -1.585 -12.148  0.00  0.00     0.005 C 
ATOM     45  H   LIG d   1      -0.155  -1.454 -12.011  0.00  0.00     0.034 H 
ATOM     46  H   LIG d   1       1.216  -1.171 -13.111  0.00  0.00     0.034 H 
BRANCH  44  47
ATOM     47  C   LIG d   1       1.259  -3.075 -12.107  0.00  0.00    -0.042 C 
ATOM     48  H   LIG d   1       0.681  -3.602 -12.866  0.00  0.00     0.027 H 
ATOM     49  H   LIG d   1       2.323  -3.210 -12.301  0.00  0.00     0.027 H 
BRANCH  47  50
ATOM     50  C   LIG d   1       0.918  -3.638 -10.725  0.00  0.00    -0.020 C 
ATOM     51  H   LIG d   1       0.689  -2.818 -10.045  0.00  0.00     0.032 H 
BRANCH  50  52
ATOM     52  C   LIG d   1      -0.295  -4.563 -10.836  0.00  0.00    -0.060 C 
ATOM     53  H   LIG d   1      -0.486  -5.030  -9.870  0.00  0.00     0.023 H 
ATOM     54  H   LIG d   1      -1.167  -3.984 -11.138  0.00  0.00     0.023 H 
ATOM     55  H   LIG d   1      -0.096  -5.334 -11.580  0.00  0.00     0.023 H 
ENDBRANCH  50  52
BRANCH  50  56
ATOM     56  C   LIG d   1       2.113  -4.427 -10.187  0.00  0.00     0.047 C 
ATOM     57  H   LIG d   1       2.723  -4.777 -11.021  0.00  0.00     0.056 H 
ATOM     58  H   LIG d   1       2.713  -3.785  -9.542  0.00  0.00     0.056 H 
BRANCH  56  59
ATOM     59  O   LIG d   1       1.644  -5.550  -9.437  0.00  0.00    -0.395 OA
ATOM     60  H   LIG d   1       0.933  -6.042  -9.870  0.00  0.00     0.209 HD
ENDBRANCH  56  59
ENDBRANCH  50  56
ENDBRANCH  47  50
ENDBRANCH  44  47
ENDBRANCH   2  44
BRANCH   1  61
ATOM     61  C   LIG d   1       3.903  -0.732 -12.256  0.00  0.00    -0.040 C 
ATOM     62  H   LIG d   1       4.440   0.190 -12.478  0.00  0.00     0.028 H 
ATOM     63  H   LIG d   1       4.615  -1.508 -11.974  0.00  0.00     0.028 H 
ATOM     64  H   LIG d   1       3.348  -1.051 -13.139  0.00  0.00     0.028 H 
ENDBRANCH   1  61
BRANCH   8  65
ATOM     65  C   LIG d   1       5.606   0.848  -9.377  0.00  0.00    -0.059 C 
ATOM     66  H   LIG d   1       6.491   0.257  -9.619  0.00  0.00     0.024 H 
ATOM     67  H   LIG d   1       5.316   1.437 -10.247  0.00  0.00     0.024 H 
ATOM     68  H   LIG d   1       5.831   1.514  -8.545  0.00  0.00     0.024 H 
ENDBRANCH   8  65
BRANCH  22  69
ATOM     69  C   LIG d   1       4.815  -3.676  -4.919  0.00  0.00    -0.059 C 
ATOM     70  H   LIG d   1       4.368  -4.289  -5.701  0.00  0.00     0.024 H 
ATOM     71  H   LIG d   1       5.456  -4.297  -4.293  0.00  0.00     0.024 H 
ATOM     72  H   LIG d   1       4.029  -3.235  -4.308  0.00  0.00     0.024 H 
ENDBRANCH  22  69
BRANCH  25  73
ATOM     73  O   LIG d   1       8.793  -3.264  -2.810  0.00  0.00    -0.392 OA
ATOM     74  H   LIG d   1       8.591  -4.196  -2.648  0.00  0.00     0.210 HD
ENDBRANCH  25  73
TORSDOF 10
ENDMDL
MODEL 6
REMARK VINA RESULT:      -5.8      4.508      7.254
REMARK  10 active torsions:
REMARK  status: ('A' for Active; 'I' for Inactive)
REMARK    1  A    between atoms: C_1  and  C_2 
REMARK    2  A    between atoms: C_3  and  C_32 
REMARK    3  A    between atoms: C_9  and  C_31 
REMARK    4  A    between atoms: C_23  and  C_30 
REMARK    5  A    between atoms: C_26  and  O_29 
REMARK    6  A    between atoms: C_32  and  C_33 
REMARK    7  A    between atoms: C_33  and  C_34 
REMARK    8  A    between atoms: C_34  and  C_36 
REMARK    9  A    between atoms: C_34  and  C_37 
REMARK   10  A    between atoms: C_37  and  O_38 
ROOT
ATOM      1  C   LIG d   1       6.021  -2.745  -5.472  0.00  0.00    -0.028 C 
ATOM      2  C   LIG d   1       6.587  -2.277  -4.348  0.00  0.00     0.098 C 
ATOM      3  O   LIG d   1       7.772  -2.941  -4.059  0.00  0.00    -0.492 OA
ATOM      4  C   LIG d   1       7.554  -4.209  -4.573  0.00  0.00     0.107 C 
ATOM      5  H   LIG d   1       6.714  -4.642  -4.031  0.00  0.00     0.074 H 
ATOM      6  C   LIG d   1       6.957  -3.788  -5.974  0.00  0.00     0.026 C 
ATOM      7  H   LIG d   1       7.712  -3.367  -6.639  0.00  0.00     0.039 H 
ATOM      8  C   LIG d   1       6.484  -5.167  -6.430  0.00  0.00    -0.019 C 
ATOM      9  C   LIG d   1       5.264  -5.566  -5.622  0.00  0.00    -0.046 C 
ATOM     10  C   LIG d   1       5.051  -7.072  -5.591  0.00  0.00    -0.049 C 
ATOM     11  C   LIG d   1       6.283  -7.730  -4.963  0.00  0.00    -0.032 C 
ATOM     12  H   LIG d   1       6.468  -7.298  -3.979  0.00  0.00     0.031 H 
ATOM     13  C   LIG d   1       7.483  -7.476  -5.867  0.00  0.00    -0.034 C 
ATOM     14  H   LIG d   1       7.275  -7.942  -6.830  0.00  0.00     0.031 H 
ATOM     15  C   LIG d   1       7.729  -6.020  -6.129  0.00  0.00    -0.029 C 
ATOM     16  H   LIG d   1       8.394  -5.948  -6.990  0.00  0.00     0.031 H 
ATOM     17  C   LIG d   1       8.460  -5.329  -4.958  0.00  0.00    -0.012 C 
ATOM     18  C   LIG d   1       8.725  -8.151  -5.283  0.00  0.00    -0.049 C 
ATOM     19  C   LIG d   1       8.482  -9.657  -5.173  0.00  0.00    -0.049 C 
ATOM     20  C   LIG d   1       7.077  -9.988  -5.677  0.00  0.00    -0.033 C 
ATOM     21  H   LIG d   1       6.985  -9.684  -6.721  0.00  0.00     0.031 H 
ATOM     22  C   LIG d   1       6.037  -9.235  -4.825  0.00  0.00    -0.026 C 
ATOM     23  C   LIG d   1       4.627  -9.566  -5.318  0.00  0.00    -0.045 C 
ATOM     24  C   LIG d   1       4.381 -11.071  -5.188  0.00  0.00    -0.026 C 
ATOM     25  C   LIG d   1       5.407 -11.829  -6.031  0.00  0.00     0.056 C 
ATOM     26  H   LIG d   1       5.310 -11.532  -7.076  0.00  0.00     0.059 H 
ATOM     27  C   LIG d   1       6.833 -11.494  -5.561  0.00  0.00    -0.024 C 
ATOM     28  H   LIG d   1       5.384  -5.205  -4.601  0.00  0.00     0.027 H 
ATOM     29  H   LIG d   1       4.383  -5.095  -6.059  0.00  0.00     0.027 H 
ATOM     30  H   LIG d   1       4.169  -7.304  -4.995  0.00  0.00     0.027 H 
ATOM     31  H   LIG d   1       4.917  -7.443  -6.607  0.00  0.00     0.027 H 
ATOM     32  H   LIG d   1       9.429  -4.944  -5.279  0.00  0.00     0.030 H 
ATOM     33  H   LIG d   1       8.580  -6.028  -4.132  0.00  0.00     0.030 H 
ATOM     34  H   LIG d   1       9.578  -7.968  -5.937  0.00  0.00     0.027 H 
ATOM     35  H   LIG d   1       8.931  -7.743  -4.294  0.00  0.00     0.027 H 
ATOM     36  H   LIG d   1       9.219 -10.190  -5.774  0.00  0.00     0.027 H 
ATOM     37  H   LIG d   1       8.575  -9.964  -4.131  0.00  0.00     0.027 H 
ATOM     38  H   LIG d   1       3.896  -9.025  -4.717  0.00  0.00     0.027 H 
ATOM     39  H   LIG d   1       4.530  -9.271  -6.362  0.00  0.00     0.027 H 
ATOM     40  H   LIG d   1       4.480 -11.366  -4.143  0.00  0.00     0.029 H 
ATOM     41  H   LIG d   1       3.376 -11.306  -5.539  0.00  0.00     0.029 H 
ATOM     42  H   LIG d   1       7.570 -12.028  -6.163  0.00  0.00     0.029 H 
ATOM     43  H   LIG d   1       6.927 -11.797  -4.520  0.00  0.00     0.029 H 
ENDROOT
BRANCH   2  44
ATOM     44  C   LIG d   1       6.009  -1.170  -3.504  0.00  0.00     0.005 C 
ATOM     45  H   LIG d   1       6.779  -0.781  -2.838  0.00  0.00     0.034 H 
ATOM     46  H   LIG d   1       5.651  -0.370  -4.153  0.00  0.00     0.034 H 
BRANCH  44  47
ATOM     47  C   LIG d   1       4.845  -1.715  -2.676  0.00  0.00    -0.042 C 
ATOM     48  H   LIG d   1       4.318  -2.479  -3.248  0.00  0.00     0.027 H 
ATOM     49  H   LIG d   1       5.228  -2.151  -1.753  0.00  0.00     0.027 H 
BRANCH  47  50
ATOM     50  C   LIG d   1       3.881  -0.575  -2.340  0.00  0.00    -0.020 C 
ATOM     51  H   LIG d   1       3.092  -0.947  -1.687  0.00  0.00     0.032 H 
BRANCH  50  52
ATOM     52  C   LIG d   1       4.644   0.545  -1.631  0.00  0.00    -0.060 C 
ATOM     53  H   LIG d   1       4.231   1.510  -1.926  0.00  0.00     0.023 H 
ATOM     54  H   LIG d   1       4.549   0.424  -0.552  0.00  0.00     0.023 H 
ATOM     55  H   LIG d   1       5.697   0.500  -1.910  0.00  0.00     0.023 H 
ENDBRANCH  50  52
BRANCH  50  56
ATOM     56  C   LIG d   1       3.262  -0.034  -3.630  0.00  0.00     0.047 C 
ATOM     57  H   LIG d   1       2.918   0.988  -3.467  0.00  0.00     0.056 H 
ATOM     58  H   LIG d   1       4.008  -0.044  -4.424  0.00  0.00     0.056 H 
BRANCH  56  59
ATOM     59  O   LIG d   1       2.153  -0.854  -4.007  0.00  0.00    -0.395 OA
ATOM     60  H   LIG d   1       1.308  -0.567  -3.635  0.00  0.00     0.209 HD
ENDBRANCH  56  59
ENDBRANCH  50  56
ENDBRANCH  47  50
ENDBRANCH  44  47
ENDBRANCH   2  44
BRANCH   1  61
ATOM     61  C   LIG d   1       4.716  -2.311  -6.088  0.00  0.00    -0.040 C 
ATOM     62  H   LIG d   1       4.886  -2.000  -7.118  0.00  0.00     0.028 H 
ATOM     63  H   LIG d   1       4.012  -3.143  -6.071  0.00  0.00     0.028 H 
ATOM     64  H   LIG d   1       4.305  -1.477  -5.519  0.00  0.00     0.028 H 
ENDBRANCH   1  61
BRANCH   8  65
ATOM     65  C   LIG d   1       6.181  -5.165  -7.931  0.00  0.00    -0.059 C 
ATOM     66  H   LIG d   1       6.080  -6.192  -8.282  0.00  0.00     0.024 H 
ATOM     67  H   LIG d   1       5.251  -4.626  -8.112  0.00  0.00     0.024 H 
ATOM     68  H   LIG d   1       6.995  -4.676  -8.465  0.00  0.00     0.024 H 
ENDBRANCH   8  65
BRANCH  22  69
ATOM     69  C   LIG d   1       6.176  -9.642  -3.356  0.00  0.00    -0.059 C 
ATOM     70  H   LIG d   1       5.389  -9.165  -2.771  0.00  0.00     0.024 H 
ATOM     71  H   LIG d   1       6.086 -10.725  -3.269  0.00  0.00     0.024 H 
ATOM     72  H   LIG d   1       7.149  -9.327  -2.982  0.00  0.00     0.024 H 
ENDBRANCH  22  69
BRANCH  25  73
ATOM     73  O   LIG d   1       5.177 -13.234  -5.913  0.00  0.00    -0.392 OA
ATOM     74  H   LIG d   1       4.595 -13.596  -6.596  0.00  0.00     0.210 HD
ENDBRANCH  25  73
TORSDOF 10
ENDMDL
MODEL 7
REMARK VINA RESULT:      -5.7      9.856     13.119
REMARK  10 active torsions:
REMARK  status: ('A' for Active; 'I' for Inactive)
REMARK    1  A    between atoms: C_1  and  C_2 
REMARK    2  A    between atoms: C_3  and  C_32 
REMARK    3  A    between atoms: C_9  and  C_31 
REMARK    4  A    between atoms: C_23  and  C_30 
REMARK    5  A    between atoms: C_26  and  O_29 
REMARK    6  A    between atoms: C_32  and  C_33 
REMARK    7  A    between atoms: C_33  and  C_34 
REMARK    8  A    between atoms: C_34  and  C_36 
REMARK    9  A    between atoms: C_34  and  C_37 
REMARK   10  A    between atoms: C_37  and  O_38 
ROOT
ATOM      1  C   LIG d   1      10.850   9.238   0.228  0.00  0.00    -0.028 C 
ATOM      2  C   LIG d   1      10.280  10.110  -0.619  0.00  0.00     0.098 C 
ATOM      3  O   LIG d   1       9.378   9.483  -1.468  0.00  0.00    -0.492 OA
ATOM      4  C   LIG d   1       9.914   8.212  -1.609  0.00  0.00     0.107 C 
ATOM      5  H   LIG d   1      10.892   8.319  -2.077  0.00  0.00     0.074 H 
ATOM      6  C   LIG d   1      10.224   7.925  -0.086  0.00  0.00     0.026 C 
ATOM      7  H   LIG d   1       9.319   7.759   0.499  0.00  0.00     0.039 H 
ATOM      8  C   LIG d   1      11.040   6.647  -0.270  0.00  0.00    -0.019 C 
ATOM      9  C   LIG d   1      12.394   7.002  -0.854  0.00  0.00    -0.046 C 
ATOM     10  C   LIG d   1      13.047   5.830  -1.570  0.00  0.00    -0.049 C 
ATOM     11  C   LIG d   1      12.132   5.379  -2.713  0.00  0.00    -0.032 C 
ATOM     12  H   LIG d   1      11.920   6.224  -3.368  0.00  0.00     0.031 H 
ATOM     13  C   LIG d   1      10.831   4.858  -2.114  0.00  0.00    -0.034 C 
ATOM     14  H   LIG d   1      11.077   4.001  -1.487  0.00  0.00     0.031 H 
ATOM     15  C   LIG d   1      10.140   5.858  -1.237  0.00  0.00    -0.029 C 
ATOM     16  H   LIG d   1       9.405   5.319  -0.638  0.00  0.00     0.031 H 
ATOM     17  C   LIG d   1       9.349   6.905  -2.051  0.00  0.00    -0.012 C 
ATOM     18  C   LIG d   1       9.907   4.366  -3.230  0.00  0.00    -0.049 C 
ATOM     19  C   LIG d   1      10.596   3.242  -4.005  0.00  0.00    -0.049 C 
ATOM     20  C   LIG d   1      11.982   2.986  -3.411  0.00  0.00    -0.033 C 
ATOM     21  H   LIG d   1      11.881   2.692  -2.366  0.00  0.00     0.031 H 
ATOM     22  C   LIG d   1      12.826   4.271  -3.510  0.00  0.00    -0.026 C 
ATOM     23  C   LIG d   1      14.218   4.021  -2.925  0.00  0.00    -0.045 C 
ATOM     24  C   LIG d   1      14.911   2.909  -3.716  0.00  0.00    -0.026 C 
ATOM     25  C   LIG d   1      14.083   1.627  -3.624  0.00  0.00     0.056 C 
ATOM     26  H   LIG d   1      13.988   1.329  -2.580  0.00  0.00     0.059 H 
ATOM     27  C   LIG d   1      12.672   1.865  -4.191  0.00  0.00    -0.024 C 
ATOM     28  H   LIG d   1      12.269   7.822  -1.561  0.00  0.00     0.027 H 
ATOM     29  H   LIG d   1      13.050   7.332  -0.048  0.00  0.00     0.027 H 
ATOM     30  H   LIG d   1      14.011   6.139  -1.975  0.00  0.00     0.027 H 
ATOM     31  H   LIG d   1      13.190   5.007  -0.870  0.00  0.00     0.027 H 
ATOM     32  H   LIG d   1       8.284   6.851  -1.823  0.00  0.00     0.030 H 
ATOM     33  H   LIG d   1       9.522   6.753  -3.116  0.00  0.00     0.030 H 
ATOM     34  H   LIG d   1       8.980   3.992  -2.794  0.00  0.00     0.027 H 
ATOM     35  H   LIG d   1       9.683   5.191  -3.906  0.00  0.00     0.027 H 
ATOM     36  H   LIG d   1       9.998   2.333  -3.938  0.00  0.00     0.027 H 
ATOM     37  H   LIG d   1      10.697   3.532  -5.051  0.00  0.00     0.027 H 
ATOM     38  H   LIG d   1      14.808   4.935  -2.989  0.00  0.00     0.027 H 
ATOM     39  H   LIG d   1      14.124   3.721  -1.881  0.00  0.00     0.027 H 
ATOM     40  H   LIG d   1      15.003   3.209  -4.759  0.00  0.00     0.029 H 
ATOM     41  H   LIG d   1      15.903   2.732  -3.299  0.00  0.00     0.029 H 
ATOM     42  H   LIG d   1      12.074   0.955  -4.124  0.00  0.00     0.029 H 
ATOM     43  H   LIG d   1      12.771   2.158  -5.236  0.00  0.00     0.029 H 
ENDROOT
BRANCH   2  44
ATOM     44  C   LIG d   1      10.579  11.587  -0.644  0.00  0.00     0.005 C 
ATOM     45  H   LIG d   1       9.753  12.133  -0.189  0.00  0.00     0.034 H 
ATOM     46  H   LIG d   1      11.495  11.781  -0.086  0.00  0.00     0.034 H 
BRANCH  44  47
ATOM     47  C   LIG d   1      10.757  12.046  -2.092  0.00  0.00    -0.042 C 
ATOM     48  H   LIG d   1      11.665  12.644  -2.175  0.00  0.00     0.027 H 
ATOM     49  H   LIG d   1      10.835  11.175  -2.743  0.00  0.00     0.027 H 
BRANCH  47  50
ATOM     50  C   LIG d   1       9.552  12.890  -2.511  0.00  0.00    -0.020 C 
ATOM     51  H   LIG d   1       8.917  13.073  -1.645  0.00  0.00     0.032 H 
BRANCH  50  52
ATOM     52  C   LIG d   1      10.036  14.225  -3.080  0.00  0.00    -0.060 C 
ATOM     53  H   LIG d   1      10.688  14.040  -3.935  0.00  0.00     0.023 H 
ATOM     54  H   LIG d   1       9.179  14.817  -3.398  0.00  0.00     0.023 H 
ATOM     55  H   LIG d   1      10.588  14.768  -2.313  0.00  0.00     0.023 H 
ENDBRANCH  50  52
BRANCH  50  56
ATOM     56  C   LIG d   1       8.752  12.141  -3.579  0.00  0.00     0.047 C 
ATOM     57  H   LIG d   1       8.424  12.843  -4.347  0.00  0.00     0.056 H 
ATOM     58  H   LIG d   1       9.379  11.374  -4.032  0.00  0.00     0.056 H 
BRANCH  56  59
ATOM     59  O   LIG d   1       7.610  11.528  -2.976  0.00  0.00    -0.395 OA
ATOM     60  H   LIG d   1       7.813  11.016  -2.181  0.00  0.00     0.209 HD
ENDBRANCH  56  59
ENDBRANCH  50  56
ENDBRANCH  47  50
ENDBRANCH  44  47
ENDBRANCH   2  44
BRANCH   1  61
ATOM     61  C   LIG d   1      11.903   9.526   1.267  0.00  0.00    -0.040 C 
ATOM     62  H   LIG d   1      12.801   8.950   1.044  0.00  0.00     0.028 H 
ATOM     63  H   LIG d   1      12.142  10.590   1.257  0.00  0.00     0.028 H 
ATOM     64  H   LIG d   1      11.527   9.247   2.251  0.00  0.00     0.028 H 
ENDBRANCH   1  61
BRANCH   8  65
ATOM     65  C   LIG d   1      11.186   5.903   1.060  0.00  0.00    -0.059 C 
ATOM     66  H   LIG d   1      11.179   6.622   1.880  0.00  0.00     0.024 H 
ATOM     67  H   LIG d   1      10.356   5.207   1.179  0.00  0.00     0.024 H 
ATOM     68  H   LIG d   1      12.127   5.353   1.068  0.00  0.00     0.024 H 
ENDBRANCH   8  65
BRANCH  22  69
ATOM     69  C   LIG d   1      12.954   4.700  -4.973  0.00  0.00    -0.059 C 
ATOM     70  H   LIG d   1      12.923   5.787  -5.037  0.00  0.00     0.024 H 
ATOM     71  H   LIG d   1      13.900   4.339  -5.376  0.00  0.00     0.024 H 
ATOM     72  H   LIG d   1      12.131   4.278  -5.548  0.00  0.00     0.024 H 
ENDBRANCH  22  69
BRANCH  25  73
ATOM     73  O   LIG d   1      14.730   0.587  -4.360  0.00  0.00    -0.392 OA
ATOM     74  H   LIG d   1      15.666   0.754  -4.536  0.00  0.00     0.210 HD
ENDBRANCH  25  73
TORSDOF 10
ENDMDL
MODEL 8
REMARK VINA RESULT:      -5.7      5.391      7.687
REMARK  10 active torsions:
REMARK  status: ('A' for Active; 'I' for Inactive)
REMARK    1  A    between atoms: C_1  and  C_2 
REMARK    2  A    between atoms: C_3  and  C_32 
REMARK    3  A    between atoms: C_9  and  C_31 
REMARK    4  A    between atoms: C_23  and  C_30 
REMARK    5  A    between atoms: C_26  and  O_29 
REMARK    6  A    between atoms: C_32  and  C_33 
REMARK    7  A    between atoms: C_33  and  C_34 
REMARK    8  A    between atoms: C_34  and  C_36 
REMARK    9  A    between atoms: C_34  and  C_37 
REMARK   10  A    between atoms: C_37  and  O_38 
ROOT
ATOM      1  C   LIG d   1      10.270   3.327  -6.620  0.00  0.00    -0.028 C 
ATOM      2  C   LIG d   1       9.765   4.491  -6.182  0.00  0.00     0.098 C 
ATOM      3  O   LIG d   1       9.171   4.353  -4.935  0.00  0.00    -0.492 OA
ATOM      4  C   LIG d   1       8.708   3.046  -4.951  0.00  0.00     0.107 C 
ATOM      5  H   LIG d   1       7.973   2.970  -5.752  0.00  0.00     0.074 H 
ATOM      6  C   LIG d   1      10.006   2.352  -5.526  0.00  0.00     0.026 C 
ATOM      7  H   LIG d   1      10.821   2.327  -4.802  0.00  0.00     0.039 H 
ATOM      8  C   LIG d   1       9.414   0.967  -5.783  0.00  0.00    -0.019 C 
ATOM      9  C   LIG d   1       8.482   1.040  -6.978  0.00  0.00    -0.046 C 
ATOM     10  C   LIG d   1       7.454  -0.081  -6.986  0.00  0.00    -0.049 C 
ATOM     11  C   LIG d   1       6.612   0.014  -5.711  0.00  0.00    -0.032 C 
ATOM     12  H   LIG d   1       6.170   1.008  -5.637  0.00  0.00     0.031 H 
ATOM     13  C   LIG d   1       7.518  -0.231  -4.511  0.00  0.00    -0.034 C 
ATOM     14  H   LIG d   1       7.922  -1.239  -4.604  0.00  0.00     0.031 H 
ATOM     15  C   LIG d   1       8.688   0.705  -4.452  0.00  0.00    -0.029 C 
ATOM     16  H   LIG d   1       9.415   0.281  -3.758  0.00  0.00     0.031 H 
ATOM     17  C   LIG d   1       8.305   2.088  -3.883  0.00  0.00    -0.012 C 
ATOM     18  C   LIG d   1       6.699  -0.176  -3.221  0.00  0.00    -0.049 C 
ATOM     19  C   LIG d   1       5.609  -1.249  -3.263  0.00  0.00    -0.049 C 
ATOM     20  C   LIG d   1       5.698  -2.017  -4.582  0.00  0.00    -0.033 C 
ATOM     21  H   LIG d   1       6.676  -2.494  -4.660  0.00  0.00     0.031 H 
ATOM     22  C   LIG d   1       5.503  -1.040  -5.757  0.00  0.00    -0.026 C 
ATOM     23  C   LIG d   1       5.582  -1.802  -7.081  0.00  0.00    -0.045 C 
ATOM     24  C   LIG d   1       4.479  -2.861  -7.127  0.00  0.00    -0.026 C 
ATOM     25  C   LIG d   1       4.663  -3.839  -5.966  0.00  0.00     0.056 C 
ATOM     26  H   LIG d   1       5.638  -4.322  -6.047  0.00  0.00     0.059 H 
ATOM     27  C   LIG d   1       4.605  -3.087  -4.625  0.00  0.00    -0.024 C 
ATOM     28  H   LIG d   1       7.961   1.997  -6.961  0.00  0.00     0.027 H 
ATOM     29  H   LIG d   1       9.076   0.980  -7.891  0.00  0.00     0.027 H 
ATOM     30  H   LIG d   1       6.809   0.020  -7.859  0.00  0.00     0.027 H 
ATOM     31  H   LIG d   1       7.964  -1.044  -7.016  0.00  0.00     0.027 H 
ATOM     32  H   LIG d   1       8.848   2.293  -2.960  0.00  0.00     0.030 H 
ATOM     33  H   LIG d   1       7.229   2.134  -3.713  0.00  0.00     0.030 H 
ATOM     34  H   LIG d   1       7.353  -0.355  -2.368  0.00  0.00     0.027 H 
ATOM     35  H   LIG d   1       6.238   0.807  -3.124  0.00  0.00     0.027 H 
ATOM     36  H   LIG d   1       5.746  -1.939  -2.430  0.00  0.00     0.027 H 
ATOM     37  H   LIG d   1       4.631  -0.776  -3.184  0.00  0.00     0.027 H 
ATOM     38  H   LIG d   1       5.452  -1.105  -7.910  0.00  0.00     0.027 H 
ATOM     39  H   LIG d   1       6.555  -2.286  -7.163  0.00  0.00     0.027 H 
ATOM     40  H   LIG d   1       3.506  -2.377  -7.044  0.00  0.00     0.029 H 
ATOM     41  H   LIG d   1       4.535  -3.404  -8.071  0.00  0.00     0.029 H 
ATOM     42  H   LIG d   1       4.741  -3.778  -3.792  0.00  0.00     0.029 H 
ATOM     43  H   LIG d   1       3.628  -2.611  -4.545  0.00  0.00     0.029 H 
ENDROOT
BRANCH   2  44
ATOM     44  C   LIG d   1       9.834   5.787  -6.948  0.00  0.00     0.005 C 
ATOM     45  H   LIG d   1      10.715   5.783  -7.589  0.00  0.00     0.034 H 
ATOM     46  H   LIG d   1       8.939   5.894  -7.561  0.00  0.00     0.034 H 
BRANCH  44  47
ATOM     47  C   LIG d   1       9.923   6.955  -5.966  0.00  0.00    -0.042 C 
ATOM     48  H   LIG d   1       9.521   6.650  -5.000  0.00  0.00     0.027 H 
ATOM     49  H   LIG d   1      10.965   7.254  -5.848  0.00  0.00     0.027 H 
BRANCH  47  50
ATOM     50  C   LIG d   1       9.112   8.137  -6.504  0.00  0.00    -0.020 C 
ATOM     51  H   LIG d   1       8.050   7.949  -6.350  0.00  0.00     0.032 H 
BRANCH  50  52
ATOM     52  C   LIG d   1       9.518   9.413  -5.764  0.00  0.00    -0.060 C 
ATOM     53  H   LIG d   1       8.686  10.117  -5.772  0.00  0.00     0.023 H 
ATOM     54  H   LIG d   1       9.776   9.168  -4.734  0.00  0.00     0.023 H 
ATOM     55  H   LIG d   1      10.379   9.861  -6.258  0.00  0.00     0.023 H 
ENDBRANCH  50  52
BRANCH  50  56
ATOM     56  C   LIG d   1       9.389   8.305  -7.999  0.00  0.00     0.047 C 
ATOM     57  H   LIG d   1      10.343   8.815  -8.137  0.00  0.00     0.056 H 
ATOM     58  H   LIG d   1       9.429   7.325  -8.474  0.00  0.00     0.056 H 
BRANCH  56  59
ATOM     59  O   LIG d   1       8.345   9.081  -8.593  0.00  0.00    -0.395 OA
ATOM     60  H   LIG d   1       7.579   8.560  -8.871  0.00  0.00     0.209 HD
ENDBRANCH  56  59
ENDBRANCH  50  56
ENDBRANCH  47  50
ENDBRANCH  44  47
ENDBRANCH   2  44
BRANCH   1  61
ATOM     61  C   LIG d   1      10.952   3.063  -7.938  0.00  0.00    -0.040 C 
ATOM     62  H   LIG d   1      10.472   2.219  -8.433  0.00  0.00     0.028 H 
ATOM     63  H   LIG d   1      10.875   3.947  -8.570  0.00  0.00     0.028 H 
ATOM     64  H   LIG d   1      12.003   2.831  -7.763  0.00  0.00     0.028 H 
ENDBRANCH   1  61
BRANCH   8  65
ATOM     65  C   LIG d   1      10.524  -0.062  -6.005  0.00  0.00    -0.059 C 
ATOM     66  H   LIG d   1      10.726  -0.585  -5.070  0.00  0.00     0.024 H 
ATOM     67  H   LIG d   1      10.207  -0.780  -6.762  0.00  0.00     0.024 H 
ATOM     68  H   LIG d   1      11.429   0.445  -6.341  0.00  0.00     0.024 H 
ENDBRANCH   8  65
BRANCH  22  69
ATOM     69  C   LIG d   1       4.140  -0.352  -5.641  0.00  0.00    -0.059 C 
ATOM     70  H   LIG d   1       3.812  -0.369  -4.602  0.00  0.00     0.024 H 
ATOM     71  H   LIG d   1       4.225   0.681  -5.979  0.00  0.00     0.024 H 
ATOM     72  H   LIG d   1       3.415  -0.878  -6.261  0.00  0.00     0.024 H 
ENDBRANCH  22  69
BRANCH  25  73
ATOM     73  O   LIG d   1       3.635  -4.831  -6.009  0.00  0.00    -0.392 OA
ATOM     74  H   LIG d   1       2.795  -4.542  -5.628  0.00  0.00     0.210 HD
ENDBRANCH  25  73
TORSDOF 10
ENDMDL
MODEL 9
REMARK VINA RESULT:      -5.6      4.037      7.782
REMARK  10 active torsions:
REMARK  status: ('A' for Active; 'I' for Inactive)
REMARK    1  A    between atoms: C_1  and  C_2 
REMARK    2  A    between atoms: C_3  and  C_32 
REMARK    3  A    between atoms: C_9  and  C_31 
REMARK    4  A    between atoms: C_23  and  C_30 
REMARK    5  A    between atoms: C_26  and  O_29 
REMARK    6  A    between atoms: C_32  and  C_33 
REMARK    7  A    between atoms: C_33  and  C_34 
REMARK    8  A    between atoms: C_34  and  C_36 
REMARK    9  A    between atoms: C_34  and  C_37 
REMARK   10  A    between atoms: C_37  and  O_38 
ROOT
ATOM      1  C   LIG d   1       0.384  -5.181 -11.807  0.00  0.00    -0.028 C 
ATOM      2  C   LIG d   1      -0.823  -4.649 -12.057  0.00  0.00     0.098 C 
ATOM      3  O   LIG d   1      -0.716  -3.393 -12.640  0.00  0.00    -0.492 OA
ATOM      4  C   LIG d   1       0.464  -2.899 -12.105  0.00  0.00     0.107 C 
ATOM      5  H   LIG d   1       0.329  -2.827 -11.026  0.00  0.00     0.074 H 
ATOM      6  C   LIG d   1       1.364  -4.181 -12.314  0.00  0.00     0.026 C 
ATOM      7  H   LIG d   1       1.609  -4.352 -13.363  0.00  0.00     0.039 H 
ATOM      8  C   LIG d   1       2.575  -3.730 -11.500  0.00  0.00    -0.019 C 
ATOM      9  C   LIG d   1       2.224  -3.770 -10.024  0.00  0.00    -0.046 C 
ATOM     10  C   LIG d   1       3.108  -2.856  -9.189  0.00  0.00    -0.049 C 
ATOM     11  C   LIG d   1       2.938  -1.417  -9.687  0.00  0.00    -0.032 C 
ATOM     12  H   LIG d   1       1.883  -1.143  -9.661  0.00  0.00     0.031 H 
ATOM     13  C   LIG d   1       3.452  -1.336 -11.118  0.00  0.00    -0.034 C 
ATOM     14  H   LIG d   1       4.512  -1.591 -11.103  0.00  0.00     0.031 H 
ATOM     15  C   LIG d   1       2.782  -2.306 -12.045  0.00  0.00    -0.029 C 
ATOM     16  H   LIG d   1       3.397  -2.383 -12.942  0.00  0.00     0.031 H 
ATOM     17  C   LIG d   1       1.396  -1.809 -12.511  0.00  0.00    -0.012 C 
ATOM     18  C   LIG d   1       3.328   0.099 -11.633  0.00  0.00    -0.049 C 
ATOM     19  C   LIG d   1       4.149   1.033 -10.744  0.00  0.00    -0.049 C 
ATOM     20  C   LIG d   1       4.819   0.224  -9.632  0.00  0.00    -0.033 C 
ATOM     21  H   LIG d   1       5.478  -0.524 -10.074  0.00  0.00     0.031 H 
ATOM     22  C   LIG d   1       3.737  -0.473  -8.785  0.00  0.00    -0.026 C 
ATOM     23  C   LIG d   1       4.398  -1.279  -7.665  0.00  0.00    -0.045 C 
ATOM     24  C   LIG d   1       5.203  -0.338  -6.766  0.00  0.00    -0.026 C 
ATOM     25  C   LIG d   1       6.282   0.360  -7.596  0.00  0.00     0.056 C 
ATOM     26  H   LIG d   1       6.946  -0.388  -8.031  0.00  0.00     0.059 H 
ATOM     27  C   LIG d   1       5.636   1.161  -8.740  0.00  0.00    -0.024 C 
ATOM     28  H   LIG d   1       1.185  -3.466  -9.900  0.00  0.00     0.027 H 
ATOM     29  H   LIG d   1       2.336  -4.793  -9.664  0.00  0.00     0.027 H 
ATOM     30  H   LIG d   1       2.812  -2.918  -8.142  0.00  0.00     0.027 H 
ATOM     31  H   LIG d   1       4.150  -3.158  -9.295  0.00  0.00     0.027 H 
ATOM     32  H   LIG d   1       1.377  -1.672 -13.593  0.00  0.00     0.030 H 
ATOM     33  H   LIG d   1       1.145  -0.880 -12.002  0.00  0.00     0.030 H 
ATOM     34  H   LIG d   1       3.700   0.151 -12.656  0.00  0.00     0.027 H 
ATOM     35  H   LIG d   1       2.282   0.404 -11.612  0.00  0.00     0.027 H 
ATOM     36  H   LIG d   1       4.914   1.529 -11.344  0.00  0.00     0.027 H 
ATOM     37  H   LIG d   1       3.494   1.784 -10.302  0.00  0.00     0.027 H 
ATOM     38  H   LIG d   1       3.629  -1.777  -7.073  0.00  0.00     0.027 H 
ATOM     39  H   LIG d   1       5.063  -2.025  -8.099  0.00  0.00     0.027 H 
ATOM     40  H   LIG d   1       4.538   0.409  -6.333  0.00  0.00     0.029 H 
ATOM     41  H   LIG d   1       5.673  -0.912  -5.967  0.00  0.00     0.029 H 
ATOM     42  H   LIG d   1       6.401   1.657  -9.339  0.00  0.00     0.029 H 
ATOM     43  H   LIG d   1       4.978   1.909  -8.300  0.00  0.00     0.029 H 
ENDROOT
BRANCH   2  44
ATOM     44  C   LIG d   1      -2.131  -5.329 -11.746  0.00  0.00     0.005 C 
ATOM     45  H   LIG d   1      -2.883  -5.018 -12.470  0.00  0.00     0.034 H 
ATOM     46  H   LIG d   1      -1.999  -6.410 -11.801  0.00  0.00     0.034 H 
BRANCH  44  47
ATOM     47  C   LIG d   1      -2.585  -4.941 -10.339  0.00  0.00    -0.042 C 
ATOM     48  H   LIG d   1      -1.713  -4.718  -9.724  0.00  0.00     0.027 H 
ATOM     49  H   LIG d   1      -3.226  -4.061 -10.393  0.00  0.00     0.027 H 
BRANCH  47  50
ATOM     50  C   LIG d   1      -3.365  -6.101  -9.717  0.00  0.00    -0.020 C 
ATOM     51  H   LIG d   1      -4.071  -5.713  -8.984  0.00  0.00     0.032 H 
BRANCH  50  52
ATOM     52  C   LIG d   1      -4.127  -6.850 -10.813  0.00  0.00    -0.060 C 
ATOM     53  H   LIG d   1      -3.998  -7.923 -10.676  0.00  0.00     0.023 H 
ATOM     54  H   LIG d   1      -5.186  -6.600 -10.754  0.00  0.00     0.023 H 
ATOM     55  H   LIG d   1      -3.738  -6.558 -11.788  0.00  0.00     0.023 H 
ENDBRANCH  50  52
BRANCH  50  56
ATOM     56  C   LIG d   1      -2.391  -7.059  -9.028  0.00  0.00     0.047 C 
ATOM     57  H   LIG d   1      -2.948  -7.755  -8.399  0.00  0.00     0.056 H 
ATOM     58  H   LIG d   1      -1.835  -7.616  -9.781  0.00  0.00     0.056 H 
BRANCH  56  59
ATOM     59  O   LIG d   1      -1.479  -6.311  -8.219  0.00  0.00    -0.395 OA
ATOM     60  H   LIG d   1      -0.595  -6.226  -8.600  0.00  0.00     0.209 HD
ENDBRANCH  56  59
ENDBRANCH  50  56
ENDBRANCH  47  50
ENDBRANCH  44  47
ENDBRANCH   2  44
BRANCH   1  61
ATOM     61  C   LIG d   1       0.683  -6.504 -11.148  0.00  0.00    -0.040 C 
ATOM     62  H   LIG d   1       0.219  -7.307 -11.719  0.00  0.00     0.028 H 
ATOM     63  H   LIG d   1       1.761  -6.657 -11.114  0.00  0.00     0.028 H 
ATOM     64  H   LIG d   1       0.284  -6.501 -10.133  0.00  0.00     0.028 H 
ENDBRANCH   1  61
BRANCH   8  65
ATOM     65  C   LIG d   1       3.790  -4.608 -11.807  0.00  0.00    -0.059 C 
ATOM     66  H   LIG d   1       4.189  -5.013 -10.877  0.00  0.00     0.024 H 
ATOM     67  H   LIG d   1       3.489  -5.427 -12.460  0.00  0.00     0.024 H 
ATOM     68  H   LIG d   1       4.555  -4.010 -12.301  0.00  0.00     0.024 H 
ENDBRANCH   8  65
BRANCH  22  69
ATOM     69  C   LIG d   1       2.796   0.572  -8.179  0.00  0.00    -0.059 C 
ATOM     70  H   LIG d   1       1.858   0.095  -7.897  0.00  0.00     0.024 H 
ATOM     71  H   LIG d   1       3.261   1.010  -7.296  0.00  0.00     0.024 H 
ATOM     72  H   LIG d   1       2.602   1.353  -8.912  0.00  0.00     0.024 H 
ENDBRANCH  22  69
BRANCH  25  73
ATOM     73  O   LIG d   1       7.036   1.236  -6.757  0.00  0.00    -0.392 OA
ATOM     74  H   LIG d   1       7.357   2.031  -7.206  0.00  0.00     0.210 HD
ENDBRANCH  25  73
TORSDOF 10
ENDMDL
MODEL 10
REMARK VINA RESULT:      -5.5      8.893     11.835
REMARK  10 active torsions:
REMARK  status: ('A' for Active; 'I' for Inactive)
REMARK    1  A    between atoms: C_1  and  C_2 
REMARK    2  A    between atoms: C_3  and  C_32 
REMARK    3  A    between atoms: C_9  and  C_31 
REMARK    4  A    between atoms: C_23  and  C_30 
REMARK    5  A    between atoms: C_26  and  O_29 
REMARK    6  A    between atoms: C_32  and  C_33 
REMARK    7  A    between atoms: C_33  and  C_34 
REMARK    8  A    between atoms: C_34  and  C_36 
REMARK    9  A    between atoms: C_34  and  C_37 
REMARK   10  A    between atoms: C_37  and  O_38 
ROOT
ATOM      1  C   LIG d   1      -2.780  -3.433 -13.158  0.00  0.00    -0.028 C 
ATOM      2  C   LIG d   1      -3.312  -4.005 -12.066  0.00  0.00     0.098 C 
ATOM      3  O   LIG d   1      -4.678  -3.777 -11.984  0.00  0.00    -0.492 OA
ATOM      4  C   LIG d   1      -4.828  -2.541 -12.593  0.00  0.00     0.107 C 
ATOM      5  H   LIG d   1      -4.267  -1.816 -12.003  0.00  0.00     0.074 H 
ATOM      6  C   LIG d   1      -3.930  -2.806 -13.867  0.00  0.00     0.026 C 
ATOM      7  H   LIG d   1      -4.397  -3.496 -14.569  0.00  0.00     0.039 H 
ATOM      8  C   LIG d   1      -3.886  -1.375 -14.400  0.00  0.00    -0.019 C 
ATOM      9  C   LIG d   1      -2.999  -0.536 -13.499  0.00  0.00    -0.046 C 
ATOM     10  C   LIG d   1      -3.310   0.950 -13.594  0.00  0.00    -0.049 C 
ATOM     11  C   LIG d   1      -4.767   1.175 -13.181  0.00  0.00    -0.032 C 
ATOM     12  H   LIG d   1      -4.935   0.759 -12.188  0.00  0.00     0.031 H 
ATOM     13  C   LIG d   1      -5.670   0.474 -14.188  0.00  0.00    -0.034 C 
ATOM     14  H   LIG d   1      -5.495   0.930 -15.163  0.00  0.00     0.031 H 
ATOM     15  C   LIG d   1      -5.374  -0.989 -14.332  0.00  0.00    -0.029 C 
ATOM     16  H   LIG d   1      -5.847  -1.333 -15.252  0.00  0.00     0.031 H 
ATOM     17  C   LIG d   1      -5.991  -1.826 -13.190  0.00  0.00    -0.012 C 
ATOM     18  C   LIG d   1      -7.137   0.710 -13.823  0.00  0.00    -0.049 C 
ATOM     19  C   LIG d   1      -7.431   2.211 -13.836  0.00  0.00    -0.049 C 
ATOM     20  C   LIG d   1      -6.160   2.978 -14.204  0.00  0.00    -0.033 C 
ATOM     21  H   LIG d   1      -5.824   2.669 -15.195  0.00  0.00     0.031 H 
ATOM     22  C   LIG d   1      -5.062   2.677 -13.166  0.00  0.00    -0.026 C 
ATOM     23  C   LIG d   1      -3.789   3.448 -13.524  0.00  0.00    -0.045 C 
ATOM     24  C   LIG d   1      -4.083   4.950 -13.516  0.00  0.00    -0.026 C 
ATOM     25  C   LIG d   1      -5.171   5.261 -14.544  0.00  0.00     0.056 C 
ATOM     26  H   LIG d   1      -4.832   4.959 -15.536  0.00  0.00     0.059 H 
ATOM     27  C   LIG d   1      -6.455   4.479 -14.211  0.00  0.00    -0.024 C 
ATOM     28  H   LIG d   1      -3.136  -0.861 -12.468  0.00  0.00     0.027 H 
ATOM     29  H   LIG d   1      -1.958  -0.697 -13.782  0.00  0.00     0.027 H 
ATOM     30  H   LIG d   1      -2.651   1.505 -12.926  0.00  0.00     0.027 H 
ATOM     31  H   LIG d   1      -3.164   1.290 -14.619  0.00  0.00     0.027 H 
ATOM     32  H   LIG d   1      -6.719  -2.539 -13.581  0.00  0.00     0.030 H 
ATOM     33  H   LIG d   1      -6.455  -1.168 -12.457  0.00  0.00     0.030 H 
ATOM     34  H   LIG d   1      -7.776   0.208 -14.549  0.00  0.00     0.027 H 
ATOM     35  H   LIG d   1      -7.333   0.309 -12.829  0.00  0.00     0.027 H 
ATOM     36  H   LIG d   1      -8.210   2.423 -14.569  0.00  0.00     0.027 H 
ATOM     37  H   LIG d   1      -7.769   2.522 -12.847  0.00  0.00     0.027 H 
ATOM     38  H   LIG d   1      -3.013   3.226 -12.791  0.00  0.00     0.027 H 
ATOM     39  H   LIG d   1      -3.450   3.149 -14.515  0.00  0.00     0.027 H 
ATOM     40  H   LIG d   1      -4.423   5.249 -12.525  0.00  0.00     0.029 H 
ATOM     41  H   LIG d   1      -3.176   5.499 -13.770  0.00  0.00     0.029 H 
ATOM     42  H   LIG d   1      -7.234   4.693 -14.945  0.00  0.00     0.029 H 
ATOM     43  H   LIG d   1      -6.793   4.788 -13.223  0.00  0.00     0.029 H 
ENDROOT
BRANCH   2  44
ATOM     44  C   LIG d   1      -2.523  -4.798 -11.055  0.00  0.00     0.005 C 
ATOM     45  H   LIG d   1      -2.180  -5.727 -11.510  0.00  0.00     0.034 H 
ATOM     46  H   LIG d   1      -1.663  -4.213 -10.728  0.00  0.00     0.034 H 
BRANCH  44  47
ATOM     47  C   LIG d   1      -3.411  -5.116  -9.852  0.00  0.00    -0.042 C 
ATOM     48  H   LIG d   1      -3.047  -4.577  -8.978  0.00  0.00     0.027 H 
ATOM     49  H   LIG d   1      -4.436  -4.812 -10.066  0.00  0.00     0.027 H 
BRANCH  47  50
ATOM     50  C   LIG d   1      -3.374  -6.621  -9.575  0.00  0.00    -0.020 C 
ATOM     51  H   LIG d   1      -4.022  -6.851  -8.730  0.00  0.00     0.032 H 
BRANCH  50  52
ATOM     52  C   LIG d   1      -3.858  -7.379 -10.812  0.00  0.00    -0.060 C 
ATOM     53  H   LIG d   1      -4.027  -6.675 -11.627  0.00  0.00     0.023 H 
ATOM     54  H   LIG d   1      -3.103  -8.107 -11.111  0.00  0.00     0.023 H 
ATOM     55  H   LIG d   1      -4.789  -7.897 -10.579  0.00  0.00     0.023 H 
ENDBRANCH  50  52
BRANCH  50  56
ATOM     56  C   LIG d   1      -1.940  -7.043  -9.247  0.00  0.00     0.047 C 
ATOM     57  H   LIG d   1      -1.915  -8.113  -9.039  0.00  0.00     0.056 H 
ATOM     58  H   LIG d   1      -1.293  -6.823 -10.095  0.00  0.00     0.056 H 
BRANCH  56  59
ATOM     59  O   LIG d   1      -1.483  -6.324  -8.099  0.00  0.00    -0.395 OA
ATOM     60  H   LIG d   1      -1.009  -6.870  -7.457  0.00  0.00     0.209 HD
ENDBRANCH  56  59
ENDBRANCH  50  56
ENDBRANCH  47  50
ENDBRANCH  44  47
ENDBRANCH   2  44
BRANCH   1  61
ATOM     61  C   LIG d   1      -1.332  -3.421 -13.573  0.00  0.00    -0.040 C 
ATOM     62  H   LIG d   1      -0.710  -3.169 -12.715  0.00  0.00     0.028 H 
ATOM     63  H   LIG d   1      -1.053  -4.406 -13.947  0.00  0.00     0.028 H 
ATOM     64  H   LIG d   1      -1.185  -2.680 -14.359  0.00  0.00     0.028 H 
ENDBRANCH   1  61
BRANCH   8  65
ATOM     65  C   LIG d   1      -3.389  -1.353 -15.847  0.00  0.00    -0.059 C 
ATOM     66  H   LIG d   1      -2.356  -1.004 -15.871  0.00  0.00     0.024 H 
ATOM     67  H   LIG d   1      -3.442  -2.359 -16.264  0.00  0.00     0.024 H 
ATOM     68  H   LIG d   1      -4.013  -0.681 -16.436  0.00  0.00     0.024 H 
ENDBRANCH   8  65
BRANCH  22  69
ATOM     69  C   LIG d   1      -5.537   3.090 -11.771  0.00  0.00    -0.059 C 
ATOM     70  H   LIG d   1      -5.912   2.215 -11.242  0.00  0.00     0.024 H 
ATOM     71  H   LIG d   1      -4.704   3.521 -11.216  0.00  0.00     0.024 H 
ATOM     72  H   LIG d   1      -6.333   3.829 -11.863  0.00  0.00     0.024 H 
ENDBRANCH  22  69
BRANCH  25  73
ATOM     73  O   LIG d   1      -5.445   6.663 -14.541  0.00  0.00    -0.392 OA
ATOM     74  H   LIG d   1      -5.313   7.087 -13.682  0.00  0.00     0.210 HD
ENDBRANCH  25  73
TORSDOF 10
ENDMDL
