MODEL 1
REMARK VINA RESULT:      -5.5      0.000      0.000
REMARK  11 active torsions:
REMARK  status: ('A' for Active; 'I' for Inactive)
REMARK    1  A    between atoms: C_1  and  N_2 
REMARK    2  A    between atoms: N_2  and  C_3 
REMARK    3  A    between atoms: N_2  and  C_4 
REMARK    4  A    between atoms: C_4  and  C_5 
REMARK    5  A    between atoms: C_5  and  N_6 
REMARK       I    between atoms: N_6  and  C_7 
REMARK    6  A    between atoms: C_7  and  C_9 
REMARK    7  A    between atoms: C_9  and  C_10 
REMARK    8  A    between atoms: N_12  and  C_19 
REMARK    9  A    between atoms: C_19  and  C_20 
REMARK   10  A    between atoms: C_20  and  O_21 
REMARK   11  A    between atoms: O_21  and  C_22 
ROOT
ATOM      1  C   LIG d   1       6.710  -0.075  -4.829  0.00  0.00    -0.013 A 
ATOM      2  C   LIG d   1       6.159  -0.465  -5.988  0.00  0.00     0.009 A 
ATOM      3  N   LIG d   1       4.799  -0.540  -5.857  0.00  0.00    -0.344 N 
ATOM      4  C   LIG d   1       4.432  -0.192  -4.576  0.00  0.00     0.049 A 
ATOM      5  C   LIG d   1       5.614   0.108  -3.874  0.00  0.00     0.004 A 
ATOM      6  C   LIG d   1       5.549   0.490  -2.533  0.00  0.00    -0.052 A 
ATOM      7  C   LIG d   1       4.336   0.569  -1.908  0.00  0.00    -0.061 A 
ATOM      8  C   LIG d   1       3.168   0.270  -2.596  0.00  0.00    -0.060 A 
ATOM      9  C   LIG d   1       3.209  -0.101  -3.922  0.00  0.00    -0.038 A 
ATOM     10  H   LIG d   1       6.707  -0.685  -6.892  0.00  0.00     0.081 H 
ATOM     11  H   LIG d   1       6.454   0.724  -1.992  0.00  0.00     0.062 H 
ATOM     12  H   LIG d   1       4.287   0.866  -0.870  0.00  0.00     0.062 H 
ATOM     13  H   LIG d   1       2.218   0.335  -2.087  0.00  0.00     0.062 H 
ATOM     14  H   LIG d   1       2.295  -0.333  -4.447  0.00  0.00     0.064 H 
ENDROOT
BRANCH   1  15
ATOM     15  C   LIG d   1       8.178   0.128  -4.557  0.00  0.00     0.051 C 
ATOM     16  H   LIG d   1       8.760  -0.255  -5.394  0.00  0.00     0.041 H 
ATOM     17  H   LIG d   1       8.456  -0.406  -3.648  0.00  0.00     0.041 H 
BRANCH  15  18
ATOM     18  C   LIG d   1       8.458   1.599  -4.381  0.00  0.00     0.218 C 
ATOM     19  N   LIG d   1       9.394   2.007  -3.502  0.00  0.00    -0.310 N 
ATOM     20  H   LIG d   1       9.888   1.353  -2.981  0.00  0.00     0.149 HD
ATOM     21  O   LIG d   1       7.840   2.415  -5.031  0.00  0.00    -0.276 OA
BRANCH  19  22
ATOM     22  C   LIG d   1       9.665   3.435  -3.331  0.00  0.00     0.052 C 
ATOM     23  H   LIG d   1       8.796   3.920  -2.886  0.00  0.00     0.051 H 
ATOM     24  H   LIG d   1       9.875   3.884  -4.302  0.00  0.00     0.051 H 
BRANCH  22  25
ATOM     25  C   LIG d   1      10.875   3.619  -2.413  0.00  0.00    -0.017 C 
ATOM     26  H   LIG d   1      11.760   3.829  -3.016  0.00  0.00     0.083 H 
ATOM     27  H   LIG d   1      11.037   2.707  -1.838  0.00  0.00     0.083 H 
BRANCH  25  28
ATOM     28  N   LIG d   1      10.631   4.740  -1.497  0.00  0.00     0.232 N 
ATOM     29  H   LIG d   1      10.087   4.418  -0.710  0.00  0.00     0.203 HD
BRANCH  28  30
ATOM     30  C   LIG d   1      11.915   5.272  -1.021  0.00  0.00    -0.043 C 
ATOM     31  H   LIG d   1      11.782   6.305  -0.697  0.00  0.00     0.078 H 
ATOM     32  H   LIG d   1      12.269   4.672  -0.183  0.00  0.00     0.078 H 
ATOM     33  H   LIG d   1      12.645   5.235  -1.829  0.00  0.00     0.078 H 
ENDBRANCH  28  30
BRANCH  28  34
ATOM     34  C   LIG d   1       9.892   5.797  -2.201  0.00  0.00    -0.043 C 
ATOM     35  H   LIG d   1       9.896   5.590  -3.272  0.00  0.00     0.078 H 
ATOM     36  H   LIG d   1       8.864   5.825  -1.839  0.00  0.00     0.078 H 
ATOM     37  H   LIG d   1      10.370   6.759  -2.015  0.00  0.00     0.078 H 
ENDBRANCH  28  34
ENDBRANCH  25  28
ENDBRANCH  22  25
ENDBRANCH  19  22
ENDBRANCH  15  18
ENDBRANCH   1  15
BRANCH   3  38
ATOM     38  C   LIG d   1       3.871  -0.932  -6.921  0.00  0.00     0.047 C 
ATOM     39  H   LIG d   1       4.106  -1.943  -7.254  0.00  0.00     0.051 H 
ATOM     40  H   LIG d   1       2.849  -0.903  -6.541  0.00  0.00     0.051 H 
BRANCH  38  41
ATOM     41  C   LIG d   1       4.005   0.037  -8.097  0.00  0.00     0.065 C 
ATOM     42  H   LIG d   1       5.044   0.070  -8.425  0.00  0.00     0.058 H 
ATOM     43  H   LIG d   1       3.374  -0.300  -8.920  0.00  0.00     0.058 H 
BRANCH  41  44
ATOM     44  O   LIG d   1       3.594   1.343  -7.687  0.00  0.00    -0.381 OA
BRANCH  44  45
ATOM     45  C   LIG d   1       2.841   2.052  -8.673  0.00  0.00     0.036 C 
ATOM     46  H   LIG d   1       2.138   1.371  -9.152  0.00  0.00     0.052 H 
ATOM     47  H   LIG d   1       2.292   2.865  -8.196  0.00  0.00     0.052 H 
ATOM     48  H   LIG d   1       3.518   2.461  -9.423  0.00  0.00     0.052 H 
ENDBRANCH  44  45
ENDBRANCH  41  44
ENDBRANCH  38  41
ENDBRANCH   3  38
TORSDOF 11
ENDMDL
MODEL 2
REMARK VINA RESULT:      -5.5      2.273      6.538
REMARK  11 active torsions:
REMARK  status: ('A' for Active; 'I' for Inactive)
REMARK    1  A    between atoms: C_1  and  N_2 
REMARK    2  A    between atoms: N_2  and  C_3 
REMARK    3  A    between atoms: N_2  and  C_4 
REMARK    4  A    between atoms: C_4  and  C_5 
REMARK    5  A    between atoms: C_5  and  N_6 
REMARK       I    between atoms: N_6  and  C_7 
REMARK    6  A    between atoms: C_7  and  C_9 
REMARK    7  A    between atoms: C_9  and  C_10 
REMARK    8  A    between atoms: N_12  and  C_19 
REMARK    9  A    between atoms: C_19  and  C_20 
REMARK   10  A    between atoms: C_20  and  O_21 
REMARK   11  A    between atoms: O_21  and  C_22 
ROOT
ATOM      1  C   LIG d   1       5.289  -1.112  -5.475  0.00  0.00    -0.013 A 
ATOM      2  C   LIG d   1       6.559  -0.686  -5.536  0.00  0.00     0.009 A 
ATOM      3  N   LIG d   1       6.818   0.162  -4.494  0.00  0.00    -0.344 N 
ATOM      4  C   LIG d   1       5.690   0.307  -3.716  0.00  0.00     0.049 A 
ATOM      5  C   LIG d   1       4.681  -0.480  -4.300  0.00  0.00     0.004 A 
ATOM      6  C   LIG d   1       3.410  -0.524  -3.724  0.00  0.00    -0.052 A 
ATOM      7  C   LIG d   1       3.153   0.202  -2.595  0.00  0.00    -0.061 A 
ATOM      8  C   LIG d   1       4.144   0.983  -2.018  0.00  0.00    -0.060 A 
ATOM      9  C   LIG d   1       5.407   1.033  -2.565  0.00  0.00    -0.038 A 
ATOM     10  H   LIG d   1       7.273  -0.971  -6.294  0.00  0.00     0.081 H 
ATOM     11  H   LIG d   1       2.634  -1.129  -4.169  0.00  0.00     0.062 H 
ATOM     12  H   LIG d   1       2.169   0.167  -2.150  0.00  0.00     0.062 H 
ATOM     13  H   LIG d   1       3.924   1.552  -1.127  0.00  0.00     0.062 H 
ATOM     14  H   LIG d   1       6.171   1.645  -2.109  0.00  0.00     0.064 H 
ENDROOT
BRANCH   1  15
ATOM     15  C   LIG d   1       4.612  -2.056  -6.435  0.00  0.00     0.051 C 
ATOM     16  H   LIG d   1       3.751  -2.514  -5.949  0.00  0.00     0.041 H 
ATOM     17  H   LIG d   1       5.315  -2.833  -6.736  0.00  0.00     0.041 H 
BRANCH  15  18
ATOM     18  C   LIG d   1       4.155  -1.292  -7.652  0.00  0.00     0.218 C 
ATOM     19  N   LIG d   1       3.050  -0.523  -7.589  0.00  0.00    -0.310 N 
ATOM     20  H   LIG d   1       2.549  -0.461  -6.760  0.00  0.00     0.149 HD
ATOM     21  O   LIG d   1       4.781  -1.370  -8.687  0.00  0.00    -0.276 OA
BRANCH  19  22
ATOM     22  C   LIG d   1       2.606   0.219  -8.771  0.00  0.00     0.052 C 
ATOM     23  H   LIG d   1       1.531   0.091  -8.897  0.00  0.00     0.051 H 
ATOM     24  H   LIG d   1       3.123  -0.159  -9.653  0.00  0.00     0.051 H 
BRANCH  22  25
ATOM     25  C   LIG d   1       2.925   1.704  -8.591  0.00  0.00    -0.017 C 
ATOM     26  H   LIG d   1       3.387   1.861  -7.616  0.00  0.00     0.083 H 
ATOM     27  H   LIG d   1       2.004   2.285  -8.654  0.00  0.00     0.083 H 
BRANCH  25  28
ATOM     28  N   LIG d   1       3.850   2.138  -9.646  0.00  0.00     0.232 N 
ATOM     29  H   LIG d   1       3.608   3.072  -9.942  0.00  0.00     0.203 HD
BRANCH  28  30
ATOM     30  C   LIG d   1       5.224   2.129  -9.127  0.00  0.00    -0.043 C 
ATOM     31  H   LIG d   1       5.373   1.242  -8.509  0.00  0.00     0.078 H 
ATOM     32  H   LIG d   1       5.928   2.114  -9.959  0.00  0.00     0.078 H 
ATOM     33  H   LIG d   1       5.391   3.023  -8.525  0.00  0.00     0.078 H 
ENDBRANCH  28  30
BRANCH  28  34
ATOM     34  C   LIG d   1       3.753   1.222 -10.791  0.00  0.00    -0.043 C 
ATOM     35  H   LIG d   1       4.747   0.852 -11.045  0.00  0.00     0.078 H 
ATOM     36  H   LIG d   1       3.109   0.382 -10.530  0.00  0.00     0.078 H 
ATOM     37  H   LIG d   1       3.333   1.752 -11.645  0.00  0.00     0.078 H 
ENDBRANCH  28  34
ENDBRANCH  25  28
ENDBRANCH  22  25
ENDBRANCH  19  22
ENDBRANCH  15  18
ENDBRANCH   1  15
BRANCH   3  38
ATOM     38  C   LIG d   1       8.104   0.819  -4.242  0.00  0.00     0.047 C 
ATOM     39  H   LIG d   1       8.210   1.010  -3.174  0.00  0.00     0.051 H 
ATOM     40  H   LIG d   1       8.914   0.172  -4.578  0.00  0.00     0.051 H 
BRANCH  38  41
ATOM     41  C   LIG d   1       8.157   2.143  -5.005  0.00  0.00     0.065 C 
ATOM     42  H   LIG d   1       8.157   1.945  -6.078  0.00  0.00     0.058 H 
ATOM     43  H   LIG d   1       7.288   2.748  -4.746  0.00  0.00     0.058 H 
BRANCH  41  44
ATOM     44  O   LIG d   1       9.349   2.849  -4.653  0.00  0.00    -0.381 OA
BRANCH  44  45
ATOM     45  C   LIG d   1       9.851   2.532  -3.353  0.00  0.00     0.036 C 
ATOM     46  H   LIG d   1      10.925   2.351  -3.412  0.00  0.00     0.052 H 
ATOM     47  H   LIG d   1       9.659   3.365  -2.676  0.00  0.00     0.052 H 
ATOM     48  H   LIG d   1       9.353   1.637  -2.980  0.00  0.00     0.052 H 
ENDBRANCH  44  45
ENDBRANCH  41  44
ENDBRANCH  38  41
ENDBRANCH   3  38
TORSDOF 11
ENDMDL
MODEL 3
REMARK VINA RESULT:      -5.4      4.239      6.729
REMARK  11 active torsions:
REMARK  status: ('A' for Active; 'I' for Inactive)
REMARK    1  A    between atoms: C_1  and  N_2 
REMARK    2  A    between atoms: N_2  and  C_3 
REMARK    3  A    between atoms: N_2  and  C_4 
REMARK    4  A    between atoms: C_4  and  C_5 
REMARK    5  A    between atoms: C_5  and  N_6 
REMARK       I    between atoms: N_6  and  C_7 
REMARK    6  A    between atoms: C_7  and  C_9 
REMARK    7  A    between atoms: C_9  and  C_10 
REMARK    8  A    between atoms: N_12  and  C_19 
REMARK    9  A    between atoms: C_19  and  C_20 
REMARK   10  A    between atoms: C_20  and  O_21 
REMARK   11  A    between atoms: O_21  and  C_22 
ROOT
ATOM      1  C   LIG d   1       6.963  -1.663  -4.286  0.00  0.00    -0.013 A 
ATOM      2  C   LIG d   1       7.732  -0.677  -4.772  0.00  0.00     0.009 A 
ATOM      3  N   LIG d   1       7.348   0.522  -4.236  0.00  0.00    -0.344 N 
ATOM      4  C   LIG d   1       6.294   0.332  -3.371  0.00  0.00     0.049 A 
ATOM      5  C   LIG d   1       6.002  -1.045  -3.368  0.00  0.00     0.004 A 
ATOM      6  C   LIG d   1       4.963  -1.535  -2.577  0.00  0.00    -0.052 A 
ATOM      7  C   LIG d   1       4.230  -0.674  -1.809  0.00  0.00    -0.061 A 
ATOM      8  C   LIG d   1       4.512   0.685  -1.811  0.00  0.00    -0.060 A 
ATOM      9  C   LIG d   1       5.539   1.189  -2.578  0.00  0.00    -0.038 A 
ATOM     10  H   LIG d   1       8.536  -0.809  -5.480  0.00  0.00     0.081 H 
ATOM     11  H   LIG d   1       4.738  -2.592  -2.572  0.00  0.00     0.062 H 
ATOM     12  H   LIG d   1       3.426  -1.055  -1.197  0.00  0.00     0.062 H 
ATOM     13  H   LIG d   1       3.923   1.352  -1.200  0.00  0.00     0.062 H 
ATOM     14  H   LIG d   1       5.748   2.248  -2.573  0.00  0.00     0.064 H 
ENDROOT
BRANCH   1  15
ATOM     15  C   LIG d   1       7.063  -3.128  -4.625  0.00  0.00     0.051 C 
ATOM     16  H   LIG d   1       6.937  -3.263  -5.699  0.00  0.00     0.041 H 
ATOM     17  H   LIG d   1       6.282  -3.676  -4.097  0.00  0.00     0.041 H 
BRANCH  15  18
ATOM     18  C   LIG d   1       8.414  -3.650  -4.207  0.00  0.00     0.218 C 
ATOM     19  N   LIG d   1       8.798  -3.568  -2.918  0.00  0.00    -0.310 N 
ATOM     20  H   LIG d   1       8.205  -3.174  -2.259  0.00  0.00     0.149 HD
ATOM     21  O   LIG d   1       9.155  -4.142  -5.031  0.00  0.00    -0.276 OA
BRANCH  19  22
ATOM     22  C   LIG d   1      10.111  -4.074  -2.511  0.00  0.00     0.052 C 
ATOM     23  H   LIG d   1      10.515  -3.443  -1.720  0.00  0.00     0.051 H 
ATOM     24  H   LIG d   1      10.786  -4.061  -3.367  0.00  0.00     0.051 H 
BRANCH  22  25
ATOM     25  C   LIG d   1       9.968  -5.508  -1.997  0.00  0.00    -0.017 C 
ATOM     26  H   LIG d   1       8.941  -5.678  -1.676  0.00  0.00     0.083 H 
ATOM     27  H   LIG d   1      10.642  -5.661  -1.154  0.00  0.00     0.083 H 
BRANCH  25  28
ATOM     28  N   LIG d   1      10.307  -6.450  -3.072  0.00  0.00     0.232 N 
ATOM     29  H   LIG d   1      10.497  -5.938  -3.920  0.00  0.00     0.203 HD
BRANCH  28  30
ATOM     30  C   LIG d   1      11.497  -7.222  -2.688  0.00  0.00    -0.043 C 
ATOM     31  H   LIG d   1      11.531  -7.322  -1.603  0.00  0.00     0.078 H 
ATOM     32  H   LIG d   1      11.450  -8.212  -3.142  0.00  0.00     0.078 H 
ATOM     33  H   LIG d   1      12.392  -6.705  -3.035  0.00  0.00     0.078 H 
ENDBRANCH  28  30
BRANCH  28  34
ATOM     34  C   LIG d   1       9.180  -7.365  -3.295  0.00  0.00    -0.043 C 
ATOM     35  H   LIG d   1       8.311  -6.796  -3.629  0.00  0.00     0.078 H 
ATOM     36  H   LIG d   1       9.451  -8.096  -4.058  0.00  0.00     0.078 H 
ATOM     37  H   LIG d   1       8.941  -7.881  -2.365  0.00  0.00     0.078 H 
ENDBRANCH  28  34
ENDBRANCH  25  28
ENDBRANCH  22  25
ENDBRANCH  19  22
ENDBRANCH  15  18
ENDBRANCH   1  15
BRANCH   3  38
ATOM     38  C   LIG d   1       7.965   1.816  -4.538  0.00  0.00     0.047 C 
ATOM     39  H   LIG d   1       8.201   1.867  -5.602  0.00  0.00     0.051 H 
ATOM     40  H   LIG d   1       7.272   2.618  -4.281  0.00  0.00     0.051 H 
BRANCH  38  41
ATOM     41  C   LIG d   1       9.250   1.970  -3.723  0.00  0.00     0.065 C 
ATOM     42  H   LIG d   1       9.312   1.170  -2.986  0.00  0.00     0.058 H 
ATOM     43  H   LIG d   1      10.112   1.919  -4.389  0.00  0.00     0.058 H 
BRANCH  41  44
ATOM     44  O   LIG d   1       9.241   3.233  -3.054  0.00  0.00    -0.381 OA
BRANCH  44  45
ATOM     45  C   LIG d   1      10.535   3.691  -2.657  0.00  0.00     0.036 C 
ATOM     46  H   LIG d   1      10.434   4.615  -2.086  0.00  0.00     0.052 H 
ATOM     47  H   LIG d   1      11.015   2.933  -2.038  0.00  0.00     0.052 H 
ATOM     48  H   LIG d   1      11.142   3.877  -3.543  0.00  0.00     0.052 H 
ENDBRANCH  44  45
ENDBRANCH  41  44
ENDBRANCH  38  41
ENDBRANCH   3  38
TORSDOF 11
ENDMDL
MODEL 4
REMARK VINA RESULT:      -5.4      2.744      3.029
REMARK  11 active torsions:
REMARK  status: ('A' for Active; 'I' for Inactive)
REMARK    1  A    between atoms: C_1  and  N_2 
REMARK    2  A    between atoms: N_2  and  C_3 
REMARK    3  A    between atoms: N_2  and  C_4 
REMARK    4  A    between atoms: C_4  and  C_5 
REMARK    5  A    between atoms: C_5  and  N_6 
REMARK       I    between atoms: N_6  and  C_7 
REMARK    6  A    between atoms: C_7  and  C_9 
REMARK    7  A    between atoms: C_9  and  C_10 
REMARK    8  A    between atoms: N_12  and  C_19 
REMARK    9  A    between atoms: C_19  and  C_20 
REMARK   10  A    between atoms: C_20  and  O_21 
REMARK   11  A    between atoms: O_21  and  C_22 
ROOT
ATOM      1  C   LIG d   1       7.401   0.582  -4.335  0.00  0.00    -0.013 A 
ATOM      2  C   LIG d   1       7.810  -0.643  -4.700  0.00  0.00     0.009 A 
ATOM      3  N   LIG d   1       7.040  -1.593  -4.088  0.00  0.00    -0.344 N 
ATOM      4  C   LIG d   1       6.092  -0.988  -3.293  0.00  0.00     0.049 A 
ATOM      5  C   LIG d   1       6.280   0.401  -3.409  0.00  0.00     0.004 A 
ATOM      6  C   LIG d   1       5.456   1.277  -2.700  0.00  0.00    -0.052 A 
ATOM      7  C   LIG d   1       4.471   0.779  -1.895  0.00  0.00    -0.061 A 
ATOM      8  C   LIG d   1       4.284  -0.591  -1.775  0.00  0.00    -0.060 A 
ATOM      9  C   LIG d   1       5.080  -1.473  -2.472  0.00  0.00    -0.038 A 
ATOM     10  H   LIG d   1       8.626  -0.847  -5.376  0.00  0.00     0.081 H 
ATOM     11  H   LIG d   1       5.597   2.345  -2.789  0.00  0.00     0.062 H 
ATOM     12  H   LIG d   1       3.833   1.458  -1.347  0.00  0.00     0.062 H 
ATOM     13  H   LIG d   1       3.502  -0.969  -1.133  0.00  0.00     0.062 H 
ATOM     14  H   LIG d   1       4.928  -2.537  -2.370  0.00  0.00     0.064 H 
ENDROOT
BRANCH   1  15
ATOM     15  C   LIG d   1       7.987   1.895  -4.788  0.00  0.00     0.051 C 
ATOM     16  H   LIG d   1       7.344   2.712  -4.460  0.00  0.00     0.041 H 
ATOM     17  H   LIG d   1       8.059   1.905  -5.875  0.00  0.00     0.041 H 
BRANCH  15  18
ATOM     18  C   LIG d   1       9.360   2.065  -4.191  0.00  0.00     0.218 C 
ATOM     19  N   LIG d   1       9.541   2.887  -3.138  0.00  0.00    -0.310 N 
ATOM     20  H   LIG d   1       8.786   3.370  -2.765  0.00  0.00     0.149 HD
ATOM     21  O   LIG d   1      10.303   1.462  -4.657  0.00  0.00    -0.276 OA
BRANCH  19  22
ATOM     22  C   LIG d   1      10.875   3.052  -2.557  0.00  0.00     0.052 C 
ATOM     23  H   LIG d   1      11.611   2.553  -3.189  0.00  0.00     0.051 H 
ATOM     24  H   LIG d   1      10.894   2.613  -1.560  0.00  0.00     0.051 H 
BRANCH  22  25
ATOM     25  C   LIG d   1      11.210   4.542  -2.464  0.00  0.00    -0.017 C 
ATOM     26  H   LIG d   1      10.790   5.063  -3.324  0.00  0.00     0.083 H 
ATOM     27  H   LIG d   1      12.293   4.671  -2.455  0.00  0.00     0.083 H 
BRANCH  25  28
ATOM     28  N   LIG d   1      10.640   5.096  -1.229  0.00  0.00     0.232 N 
ATOM     29  H   LIG d   1       9.978   4.441  -0.841  0.00  0.00     0.203 HD
BRANCH  28  30
ATOM     30  C   LIG d   1      11.717   5.338  -0.259  0.00  0.00    -0.043 C 
ATOM     31  H   LIG d   1      11.613   6.341   0.156  0.00  0.00     0.078 H 
ATOM     32  H   LIG d   1      11.653   4.605   0.545  0.00  0.00     0.078 H 
ATOM     33  H   LIG d   1      12.681   5.249  -0.758  0.00  0.00     0.078 H 
ENDBRANCH  28  30
BRANCH  28  34
ATOM     34  C   LIG d   1       9.957   6.362  -1.529  0.00  0.00    -0.043 C 
ATOM     35  H   LIG d   1      10.587   6.968  -2.181  0.00  0.00     0.078 H 
ATOM     36  H   LIG d   1       9.011   6.154  -2.029  0.00  0.00     0.078 H 
ATOM     37  H   LIG d   1       9.768   6.901  -0.601  0.00  0.00     0.078 H 
ENDBRANCH  28  34
ENDBRANCH  25  28
ENDBRANCH  22  25
ENDBRANCH  19  22
ENDBRANCH  15  18
ENDBRANCH   1  15
BRANCH   3  38
ATOM     38  C   LIG d   1       7.201  -3.041  -4.253  0.00  0.00     0.047 C 
ATOM     39  H   LIG d   1       8.242  -3.267  -4.481  0.00  0.00     0.051 H 
ATOM     40  H   LIG d   1       6.912  -3.545  -3.330  0.00  0.00     0.051 H 
BRANCH  38  41
ATOM     41  C   LIG d   1       6.310  -3.525  -5.398  0.00  0.00     0.065 C 
ATOM     42  H   LIG d   1       6.015  -2.675  -6.014  0.00  0.00     0.058 H 
ATOM     43  H   LIG d   1       6.859  -4.243  -6.008  0.00  0.00     0.058 H 
BRANCH  41  44
ATOM     44  O   LIG d   1       5.143  -4.151  -4.862  0.00  0.00    -0.381 OA
BRANCH  44  45
ATOM     45  C   LIG d   1       4.618  -5.200  -5.678  0.00  0.00     0.036 C 
ATOM     46  H   LIG d   1       4.774  -4.955  -6.729  0.00  0.00     0.052 H 
ATOM     47  H   LIG d   1       5.130  -6.134  -5.444  0.00  0.00     0.052 H 
ATOM     48  H   LIG d   1       3.552  -5.312  -5.486  0.00  0.00     0.052 H 
ENDBRANCH  44  45
ENDBRANCH  41  44
ENDBRANCH  38  41
ENDBRANCH   3  38
TORSDOF 11
ENDMDL
MODEL 5
REMARK VINA RESULT:      -5.3      3.065      5.662
REMARK  11 active torsions:
REMARK  status: ('A' for Active; 'I' for Inactive)
REMARK    1  A    between atoms: C_1  and  N_2 
REMARK    2  A    between atoms: N_2  and  C_3 
REMARK    3  A    between atoms: N_2  and  C_4 
REMARK    4  A    between atoms: C_4  and  C_5 
REMARK    5  A    between atoms: C_5  and  N_6 
REMARK       I    between atoms: N_6  and  C_7 
REMARK    6  A    between atoms: C_7  and  C_9 
REMARK    7  A    between atoms: C_9  and  C_10 
REMARK    8  A    between atoms: N_12  and  C_19 
REMARK    9  A    between atoms: C_19  and  C_20 
REMARK   10  A    between atoms: C_20  and  O_21 
REMARK   11  A    between atoms: O_21  and  C_22 
ROOT
ATOM      1  C   LIG d   1       3.182   0.060  -6.600  0.00  0.00    -0.013 A 
ATOM      2  C   LIG d   1       3.934  -1.050  -6.644  0.00  0.00     0.009 A 
ATOM      3  N   LIG d   1       4.605  -1.112  -7.835  0.00  0.00    -0.344 N 
ATOM      4  C   LIG d   1       4.292  -0.016  -8.607  0.00  0.00     0.049 A 
ATOM      5  C   LIG d   1       3.381   0.764  -7.870  0.00  0.00     0.004 A 
ATOM      6  C   LIG d   1       2.879   1.948  -8.412  0.00  0.00    -0.052 A 
ATOM      7  C   LIG d   1       3.273   2.343  -9.660  0.00  0.00    -0.061 A 
ATOM      8  C   LIG d   1       4.168   1.576 -10.392  0.00  0.00    -0.060 A 
ATOM      9  C   LIG d   1       4.683   0.408  -9.872  0.00  0.00    -0.038 A 
ATOM     10  H   LIG d   1       4.002  -1.785  -5.856  0.00  0.00     0.081 H 
ATOM     11  H   LIG d   1       2.182   2.549  -7.848  0.00  0.00     0.062 H 
ATOM     12  H   LIG d   1       2.884   3.260 -10.079  0.00  0.00     0.062 H 
ATOM     13  H   LIG d   1       4.469   1.901 -11.377  0.00  0.00     0.062 H 
ATOM     14  H   LIG d   1       5.377  -0.182 -10.451  0.00  0.00     0.064 H 
ENDROOT
BRANCH   1  15
ATOM     15  C   LIG d   1       2.293   0.497  -5.464  0.00  0.00     0.051 C 
ATOM     16  H   LIG d   1       1.396  -0.121  -5.446  0.00  0.00     0.041 H 
ATOM     17  H   LIG d   1       2.013   1.541  -5.604  0.00  0.00     0.041 H 
BRANCH  15  18
ATOM     18  C   LIG d   1       3.034   0.346  -4.160  0.00  0.00     0.218 C 
ATOM     19  N   LIG d   1       4.007   1.219  -3.833  0.00  0.00    -0.310 N 
ATOM     20  H   LIG d   1       4.231   1.945  -4.438  0.00  0.00     0.149 HD
ATOM     21  O   LIG d   1       2.755  -0.561  -3.406  0.00  0.00    -0.276 OA
BRANCH  19  22
ATOM     22  C   LIG d   1       4.728   1.073  -2.567  0.00  0.00     0.052 C 
ATOM     23  H   LIG d   1       4.146   0.451  -1.887  0.00  0.00     0.051 H 
ATOM     24  H   LIG d   1       4.880   2.056  -2.120  0.00  0.00     0.051 H 
BRANCH  22  25
ATOM     25  C   LIG d   1       6.085   0.416  -2.824  0.00  0.00    -0.017 C 
ATOM     26  H   LIG d   1       5.963  -0.667  -2.859  0.00  0.00     0.083 H 
ATOM     27  H   LIG d   1       6.774   0.678  -2.021  0.00  0.00     0.083 H 
BRANCH  25  28
ATOM     28  N   LIG d   1       6.624   0.889  -4.106  0.00  0.00     0.232 N 
ATOM     29  H   LIG d   1       5.906   1.392  -4.607  0.00  0.00     0.203 HD
BRANCH  28  30
ATOM     30  C   LIG d   1       7.765   1.781  -3.858  0.00  0.00    -0.043 C 
ATOM     31  H   LIG d   1       8.691   1.208  -3.913  0.00  0.00     0.078 H 
ATOM     32  H   LIG d   1       7.780   2.570  -4.609  0.00  0.00     0.078 H 
ATOM     33  H   LIG d   1       7.670   2.224  -2.866  0.00  0.00     0.078 H 
ENDBRANCH  28  30
BRANCH  28  34
ATOM     34  C   LIG d   1       7.065  -0.260  -4.907  0.00  0.00    -0.043 C 
ATOM     35  H   LIG d   1       8.137  -0.182  -5.095  0.00  0.00     0.078 H 
ATOM     36  H   LIG d   1       6.858  -1.182  -4.364  0.00  0.00     0.078 H 
ATOM     37  H   LIG d   1       6.530  -0.268  -5.856  0.00  0.00     0.078 H 
ENDBRANCH  28  34
ENDBRANCH  25  28
ENDBRANCH  22  25
ENDBRANCH  19  22
ENDBRANCH  15  18
ENDBRANCH   1  15
BRANCH   3  38
ATOM     38  C   LIG d   1       5.521  -2.186  -8.231  0.00  0.00     0.047 C 
ATOM     39  H   LIG d   1       6.061  -1.889  -9.130  0.00  0.00     0.051 H 
ATOM     40  H   LIG d   1       6.231  -2.372  -7.425  0.00  0.00     0.051 H 
BRANCH  38  41
ATOM     41  C   LIG d   1       4.722  -3.459  -8.511  0.00  0.00     0.065 C 
ATOM     42  H   LIG d   1       3.656  -3.230  -8.503  0.00  0.00     0.058 H 
ATOM     43  H   LIG d   1       5.002  -3.857  -9.487  0.00  0.00     0.058 H 
BRANCH  41  44
ATOM     44  O   LIG d   1       5.006  -4.432  -7.502  0.00  0.00    -0.381 OA
BRANCH  44  45
ATOM     45  C   LIG d   1       3.845  -4.953  -6.852  0.00  0.00     0.036 C 
ATOM     46  H   LIG d   1       3.013  -4.971  -7.556  0.00  0.00     0.052 H 
ATOM     47  H   LIG d   1       4.048  -5.966  -6.503  0.00  0.00     0.052 H 
ATOM     48  H   LIG d   1       3.588  -4.319  -6.004  0.00  0.00     0.052 H 
ENDBRANCH  44  45
ENDBRANCH  41  44
ENDBRANCH  38  41
ENDBRANCH   3  38
TORSDOF 11
ENDMDL
MODEL 6
REMARK VINA RESULT:      -5.3      3.872      6.014
REMARK  11 active torsions:
REMARK  status: ('A' for Active; 'I' for Inactive)
REMARK    1  A    between atoms: C_1  and  N_2 
REMARK    2  A    between atoms: N_2  and  C_3 
REMARK    3  A    between atoms: N_2  and  C_4 
REMARK    4  A    between atoms: C_4  and  C_5 
REMARK    5  A    between atoms: C_5  and  N_6 
REMARK       I    between atoms: N_6  and  C_7 
REMARK    6  A    between atoms: C_7  and  C_9 
REMARK    7  A    between atoms: C_9  and  C_10 
REMARK    8  A    between atoms: N_12  and  C_19 
REMARK    9  A    between atoms: C_19  and  C_20 
REMARK   10  A    between atoms: C_20  and  O_21 
REMARK   11  A    between atoms: O_21  and  C_22 
ROOT
ATOM      1  C   LIG d   1       6.736  -0.569  -5.138  0.00  0.00    -0.013 A 
ATOM      2  C   LIG d   1       6.442  -1.841  -5.448  0.00  0.00     0.009 A 
ATOM      3  N   LIG d   1       5.540  -2.344  -4.551  0.00  0.00    -0.344 N 
ATOM      4  C   LIG d   1       5.223  -1.383  -3.617  0.00  0.00     0.049 A 
ATOM      5  C   LIG d   1       5.963  -0.231  -3.940  0.00  0.00     0.004 A 
ATOM      6  C   LIG d   1       5.846   0.915  -3.152  0.00  0.00    -0.052 A 
ATOM      7  C   LIG d   1       5.014   0.911  -2.068  0.00  0.00    -0.061 A 
ATOM      8  C   LIG d   1       4.285  -0.224  -1.743  0.00  0.00    -0.060 A 
ATOM      9  C   LIG d   1       4.378  -1.363  -2.513  0.00  0.00    -0.038 A 
ATOM     10  H   LIG d   1       6.857  -2.387  -6.282  0.00  0.00     0.081 H 
ATOM     11  H   LIG d   1       6.412   1.802  -3.399  0.00  0.00     0.062 H 
ATOM     12  H   LIG d   1       4.924   1.799  -1.459  0.00  0.00     0.062 H 
ATOM     13  H   LIG d   1       3.633  -0.212  -0.883  0.00  0.00     0.062 H 
ATOM     14  H   LIG d   1       3.808  -2.242  -2.250  0.00  0.00     0.064 H 
ENDROOT
BRANCH   1  15
ATOM     15  C   LIG d   1       7.686   0.338  -5.876  0.00  0.00     0.051 C 
ATOM     16  H   LIG d   1       8.696  -0.066  -5.816  0.00  0.00     0.041 H 
ATOM     17  H   LIG d   1       7.664   1.330  -5.426  0.00  0.00     0.041 H 
BRANCH  15  18
ATOM     18  C   LIG d   1       7.269   0.433  -7.322  0.00  0.00     0.218 C 
ATOM     19  N   LIG d   1       6.209   1.191  -7.668  0.00  0.00    -0.310 N 
ATOM     20  H   LIG d   1       5.716   1.675  -6.987  0.00  0.00     0.149 HD
ATOM     21  O   LIG d   1       7.886  -0.171  -8.172  0.00  0.00    -0.276 OA
BRANCH  19  22
ATOM     22  C   LIG d   1       5.803   1.284  -9.072  0.00  0.00     0.052 C 
ATOM     23  H   LIG d   1       5.248   0.387  -9.350  0.00  0.00     0.051 H 
ATOM     24  H   LIG d   1       6.689   1.372  -9.701  0.00  0.00     0.051 H 
BRANCH  22  25
ATOM     25  C   LIG d   1       4.915   2.514  -9.266  0.00  0.00    -0.017 C 
ATOM     26  H   LIG d   1       5.445   3.253  -9.868  0.00  0.00     0.083 H 
ATOM     27  H   LIG d   1       4.673   2.945  -8.295  0.00  0.00     0.083 H 
BRANCH  25  28
ATOM     28  N   LIG d   1       3.677   2.122  -9.951  0.00  0.00     0.232 N 
ATOM     29  H   LIG d   1       3.283   2.924 -10.419  0.00  0.00     0.203 HD
BRANCH  28  30
ATOM     30  C   LIG d   1       3.974   1.075 -10.938  0.00  0.00    -0.043 C 
ATOM     31  H   LIG d   1       3.125   0.962 -11.614  0.00  0.00     0.078 H 
ATOM     32  H   LIG d   1       4.858   1.355 -11.510  0.00  0.00     0.078 H 
ATOM     33  H   LIG d   1       4.157   0.132 -10.424  0.00  0.00     0.078 H 
ENDBRANCH  28  30
BRANCH  28  34
ATOM     34  C   LIG d   1       2.714   1.608  -8.968  0.00  0.00    -0.043 C 
ATOM     35  H   LIG d   1       3.082   1.808  -7.961  0.00  0.00     0.078 H 
ATOM     36  H   LIG d   1       1.753   2.104  -9.107  0.00  0.00     0.078 H 
ATOM     37  H   LIG d   1       2.593   0.534  -9.104  0.00  0.00     0.078 H 
ENDBRANCH  28  34
ENDBRANCH  25  28
ENDBRANCH  22  25
ENDBRANCH  19  22
ENDBRANCH  15  18
ENDBRANCH   1  15
BRANCH   3  38
ATOM     38  C   LIG d   1       4.992  -3.703  -4.580  0.00  0.00     0.047 C 
ATOM     39  H   LIG d   1       5.759  -4.410  -4.263  0.00  0.00     0.051 H 
ATOM     40  H   LIG d   1       4.138  -3.764  -3.904  0.00  0.00     0.051 H 
BRANCH  38  41
ATOM     41  C   LIG d   1       4.543  -4.041  -6.002  0.00  0.00     0.065 C 
ATOM     42  H   LIG d   1       3.929  -3.229  -6.393  0.00  0.00     0.058 H 
ATOM     43  H   LIG d   1       5.418  -4.174  -6.639  0.00  0.00     0.058 H 
BRANCH  41  44
ATOM     44  O   LIG d   1       3.779  -5.249  -5.986  0.00  0.00    -0.381 OA
BRANCH  44  45
ATOM     45  C   LIG d   1       4.486  -6.390  -6.476  0.00  0.00     0.036 C 
ATOM     46  H   LIG d   1       3.772  -7.137  -6.827  0.00  0.00     0.052 H 
ATOM     47  H   LIG d   1       5.133  -6.091  -7.302  0.00  0.00     0.052 H 
ATOM     48  H   LIG d   1       5.090  -6.815  -5.676  0.00  0.00     0.052 H 
ENDBRANCH  44  45
ENDBRANCH  41  44
ENDBRANCH  38  41
ENDBRANCH   3  38
TORSDOF 11
ENDMDL
MODEL 7
REMARK VINA RESULT:      -5.3      2.665      7.084
REMARK  11 active torsions:
REMARK  status: ('A' for Active; 'I' for Inactive)
REMARK    1  A    between atoms: C_1  and  N_2 
REMARK    2  A    between atoms: N_2  and  C_3 
REMARK    3  A    between atoms: N_2  and  C_4 
REMARK    4  A    between atoms: C_4  and  C_5 
REMARK    5  A    between atoms: C_5  and  N_6 
REMARK       I    between atoms: N_6  and  C_7 
REMARK    6  A    between atoms: C_7  and  C_9 
REMARK    7  A    between atoms: C_9  and  C_10 
REMARK    8  A    between atoms: N_12  and  C_19 
REMARK    9  A    between atoms: C_19  and  C_20 
REMARK   10  A    between atoms: C_20  and  O_21 
REMARK   11  A    between atoms: O_21  and  C_22 
ROOT
ATOM      1  C   LIG d   1       6.726  -1.835  -4.112  0.00  0.00    -0.013 A 
ATOM      2  C   LIG d   1       7.682  -0.971  -4.486  0.00  0.00     0.009 A 
ATOM      3  N   LIG d   1       7.414   0.271  -3.979  0.00  0.00    -0.344 N 
ATOM      4  C   LIG d   1       6.248   0.236  -3.246  0.00  0.00     0.049 A 
ATOM      5  C   LIG d   1       5.763  -1.083  -3.302  0.00  0.00     0.004 A 
ATOM      6  C   LIG d   1       4.576  -1.417  -2.647  0.00  0.00    -0.052 A 
ATOM      7  C   LIG d   1       3.890  -0.459  -1.956  0.00  0.00    -0.061 A 
ATOM      8  C   LIG d   1       4.363   0.845  -1.901  0.00  0.00    -0.060 A 
ATOM      9  C   LIG d   1       5.537   1.194  -2.533  0.00  0.00    -0.038 A 
ATOM     10  H   LIG d   1       8.537  -1.219  -5.097  0.00  0.00     0.081 H 
ATOM     11  H   LIG d   1       4.203  -2.430  -2.687  0.00  0.00     0.062 H 
ATOM     12  H   LIG d   1       2.972  -0.719  -1.449  0.00  0.00     0.062 H 
ATOM     13  H   LIG d   1       3.809   1.591  -1.352  0.00  0.00     0.062 H 
ATOM     14  H   LIG d   1       5.895   2.211  -2.485  0.00  0.00     0.064 H 
ENDROOT
BRANCH   1  15
ATOM     15  C   LIG d   1       6.652  -3.299  -4.462  0.00  0.00     0.051 C 
ATOM     16  H   LIG d   1       6.522  -3.884  -3.552  0.00  0.00     0.041 H 
ATOM     17  H   LIG d   1       7.575  -3.600  -4.958  0.00  0.00     0.041 H 
BRANCH  15  18
ATOM     18  C   LIG d   1       5.485  -3.536  -5.385  0.00  0.00     0.218 C 
ATOM     19  N   LIG d   1       5.483  -2.999  -6.621  0.00  0.00    -0.310 N 
ATOM     20  H   LIG d   1       6.234  -2.459  -6.916  0.00  0.00     0.149 HD
ATOM     21  O   LIG d   1       4.548  -4.211  -5.016  0.00  0.00    -0.276 OA
BRANCH  19  22
ATOM     22  C   LIG d   1       4.349  -3.229  -7.519  0.00  0.00     0.052 C 
ATOM     23  H   LIG d   1       3.443  -3.372  -6.930  0.00  0.00     0.051 H 
ATOM     24  H   LIG d   1       4.536  -4.120  -8.119  0.00  0.00     0.051 H 
BRANCH  22  25
ATOM     25  C   LIG d   1       4.174  -2.021  -8.440  0.00  0.00    -0.017 C 
ATOM     26  H   LIG d   1       4.390  -2.314  -9.468  0.00  0.00     0.083 H 
ATOM     27  H   LIG d   1       4.860  -1.230  -8.137  0.00  0.00     0.083 H 
BRANCH  25  28
ATOM     28  N   LIG d   1       2.792  -1.533  -8.351  0.00  0.00     0.232 N 
ATOM     29  H   LIG d   1       2.285  -2.082  -7.673  0.00  0.00     0.203 HD
BRANCH  28  30
ATOM     30  C   LIG d   1       2.797  -0.124  -7.936  0.00  0.00    -0.043 C 
ATOM     31  H   LIG d   1       2.127   0.447  -8.581  0.00  0.00     0.078 H 
ATOM     32  H   LIG d   1       2.458  -0.048  -6.903  0.00  0.00     0.078 H 
ATOM     33  H   LIG d   1       3.808   0.275  -8.018  0.00  0.00     0.078 H 
ENDBRANCH  28  30
BRANCH  28  34
ATOM     34  C   LIG d   1       2.142  -1.655  -9.663  0.00  0.00    -0.043 C 
ATOM     35  H   LIG d   1       1.103  -1.333  -9.585  0.00  0.00     0.078 H 
ATOM     36  H   LIG d   1       2.664  -1.028 -10.386  0.00  0.00     0.078 H 
ATOM     37  H   LIG d   1       2.177  -2.694  -9.990  0.00  0.00     0.078 H 
ENDBRANCH  28  34
ENDBRANCH  25  28
ENDBRANCH  22  25
ENDBRANCH  19  22
ENDBRANCH  15  18
ENDBRANCH   1  15
BRANCH   3  38
ATOM     38  C   LIG d   1       8.244   1.462  -4.184  0.00  0.00     0.047 C 
ATOM     39  H   LIG d   1       7.724   2.156  -4.844  0.00  0.00     0.051 H 
ATOM     40  H   LIG d   1       8.431   1.943  -3.223  0.00  0.00     0.051 H 
BRANCH  38  41
ATOM     41  C   LIG d   1       9.574   1.052  -4.817  0.00  0.00     0.065 C 
ATOM     42  H   LIG d   1       9.707  -0.026  -4.721  0.00  0.00     0.058 H 
ATOM     43  H   LIG d   1       9.574   1.326  -5.873  0.00  0.00     0.058 H 
BRANCH  41  44
ATOM     44  O   LIG d   1      10.646   1.724  -4.152  0.00  0.00    -0.381 OA
BRANCH  44  45
ATOM     45  C   LIG d   1      10.220   2.643  -3.144  0.00  0.00     0.036 C 
ATOM     46  H   LIG d   1      10.239   2.150  -2.172  0.00  0.00     0.052 H 
ATOM     47  H   LIG d   1      10.891   3.502  -3.129  0.00  0.00     0.052 H 
ATOM     48  H   LIG d   1       9.206   2.977  -3.361  0.00  0.00     0.052 H 
ENDBRANCH  44  45
ENDBRANCH  41  44
ENDBRANCH  38  41
ENDBRANCH   3  38
TORSDOF 11
ENDMDL
MODEL 8
REMARK VINA RESULT:      -5.3      4.827      7.665
REMARK  11 active torsions:
REMARK  status: ('A' for Active; 'I' for Inactive)
REMARK    1  A    between atoms: C_1  and  N_2 
REMARK    2  A    between atoms: N_2  and  C_3 
REMARK    3  A    between atoms: N_2  and  C_4 
REMARK    4  A    between atoms: C_4  and  C_5 
REMARK    5  A    between atoms: C_5  and  N_6 
REMARK       I    between atoms: N_6  and  C_7 
REMARK    6  A    between atoms: C_7  and  C_9 
REMARK    7  A    between atoms: C_9  and  C_10 
REMARK    8  A    between atoms: N_12  and  C_19 
REMARK    9  A    between atoms: C_19  and  C_20 
REMARK   10  A    between atoms: C_20  and  O_21 
REMARK   11  A    between atoms: O_21  and  C_22 
ROOT
ATOM      1  C   LIG d   1       4.686  -2.584  -5.158  0.00  0.00    -0.013 A 
ATOM      2  C   LIG d   1       4.223  -1.937  -6.238  0.00  0.00     0.009 A 
ATOM      3  N   LIG d   1       3.706  -0.725  -5.869  0.00  0.00    -0.344 N 
ATOM      4  C   LIG d   1       3.826  -0.559  -4.508  0.00  0.00     0.049 A 
ATOM      5  C   LIG d   1       4.440  -1.719  -4.001  0.00  0.00     0.004 A 
ATOM      6  C   LIG d   1       4.686  -1.836  -2.632  0.00  0.00    -0.052 A 
ATOM      7  C   LIG d   1       4.326  -0.822  -1.790  0.00  0.00    -0.061 A 
ATOM      8  C   LIG d   1       3.717   0.322  -2.284  0.00  0.00    -0.060 A 
ATOM      9  C   LIG d   1       3.473   0.462  -3.633  0.00  0.00    -0.038 A 
ATOM     10  H   LIG d   1       4.254  -2.315  -7.248  0.00  0.00     0.081 H 
ATOM     11  H   LIG d   1       5.160  -2.725  -2.241  0.00  0.00     0.062 H 
ATOM     12  H   LIG d   1       4.518  -0.914  -0.730  0.00  0.00     0.062 H 
ATOM     13  H   LIG d   1       3.438   1.114  -1.605  0.00  0.00     0.062 H 
ATOM     14  H   LIG d   1       2.997   1.356  -4.006  0.00  0.00     0.064 H 
ENDROOT
BRANCH   1  15
ATOM     15  C   LIG d   1       5.331  -3.947  -5.137  0.00  0.00     0.051 C 
ATOM     16  H   LIG d   1       5.291  -4.352  -4.127  0.00  0.00     0.041 H 
ATOM     17  H   LIG d   1       6.371  -3.860  -5.453  0.00  0.00     0.041 H 
BRANCH  15  18
ATOM     18  C   LIG d   1       4.594  -4.866  -6.077  0.00  0.00     0.218 C 
ATOM     19  N   LIG d   1       5.123  -5.163  -7.281  0.00  0.00    -0.310 N 
ATOM     20  H   LIG d   1       5.978  -4.785  -7.542  0.00  0.00     0.149 HD
ATOM     21  O   LIG d   1       3.527  -5.338  -5.751  0.00  0.00    -0.276 OA
BRANCH  19  22
ATOM     22  C   LIG d   1       4.408  -6.056  -8.195  0.00  0.00     0.052 C 
ATOM     23  H   LIG d   1       3.508  -6.431  -7.707  0.00  0.00     0.051 H 
ATOM     24  H   LIG d   1       5.052  -6.893  -8.463  0.00  0.00     0.051 H 
BRANCH  22  25
ATOM     25  C   LIG d   1       4.020  -5.288  -9.460  0.00  0.00    -0.017 C 
ATOM     26  H   LIG d   1       3.956  -5.980 -10.300  0.00  0.00     0.083 H 
ATOM     27  H   LIG d   1       4.775  -4.530  -9.671  0.00  0.00     0.083 H 
BRANCH  25  28
ATOM     28  N   LIG d   1       2.717  -4.640  -9.260  0.00  0.00     0.232 N 
ATOM     29  H   LIG d   1       2.392  -4.822  -8.322  0.00  0.00     0.203 HD
BRANCH  28  30
ATOM     30  C   LIG d   1       2.857  -3.190  -9.457  0.00  0.00    -0.043 C 
ATOM     31  H   LIG d   1       3.911  -2.916  -9.403  0.00  0.00     0.078 H 
ATOM     32  H   LIG d   1       2.460  -2.917 -10.434  0.00  0.00     0.078 H 
ATOM     33  H   LIG d   1       2.304  -2.664  -8.679  0.00  0.00     0.078 H 
ENDBRANCH  28  30
BRANCH  28  34
ATOM     34  C   LIG d   1       1.749  -5.175 -10.227  0.00  0.00    -0.043 C 
ATOM     35  H   LIG d   1       1.164  -4.356 -10.645  0.00  0.00     0.078 H 
ATOM     36  H   LIG d   1       2.282  -5.687 -11.028  0.00  0.00     0.078 H 
ATOM     37  H   LIG d   1       1.085  -5.877  -9.724  0.00  0.00     0.078 H 
ENDBRANCH  28  34
ENDBRANCH  25  28
ENDBRANCH  22  25
ENDBRANCH  19  22
ENDBRANCH  15  18
ENDBRANCH   1  15
BRANCH   3  38
ATOM     38  C   LIG d   1       3.112   0.252  -6.787  0.00  0.00     0.047 C 
ATOM     39  H   LIG d   1       2.123  -0.091  -7.091  0.00  0.00     0.051 H 
ATOM     40  H   LIG d   1       3.024   1.215  -6.284  0.00  0.00     0.051 H 
BRANCH  38  41
ATOM     41  C   LIG d   1       4.003   0.399  -8.021  0.00  0.00     0.065 C 
ATOM     42  H   LIG d   1       4.964  -0.082  -7.835  0.00  0.00     0.058 H 
ATOM     43  H   LIG d   1       3.520  -0.073  -8.877  0.00  0.00     0.058 H 
BRANCH  41  44
ATOM     44  O   LIG d   1       4.211   1.786  -8.296  0.00  0.00    -0.381 OA
BRANCH  44  45
ATOM     45  C   LIG d   1       5.065   2.036  -9.413  0.00  0.00     0.036 C 
ATOM     46  H   LIG d   1       5.138   3.111  -9.581  0.00  0.00     0.052 H 
ATOM     47  H   LIG d   1       6.057   1.632  -9.210  0.00  0.00     0.052 H 
ATOM     48  H   LIG d   1       4.652   1.558 -10.301  0.00  0.00     0.052 H 
ENDBRANCH  44  45
ENDBRANCH  41  44
ENDBRANCH  38  41
ENDBRANCH   3  38
TORSDOF 11
ENDMDL
MODEL 9
REMARK VINA RESULT:      -5.3      2.956      6.684
REMARK  11 active torsions:
REMARK  status: ('A' for Active; 'I' for Inactive)
REMARK    1  A    between atoms: C_1  and  N_2 
REMARK    2  A    between atoms: N_2  and  C_3 
REMARK    3  A    between atoms: N_2  and  C_4 
REMARK    4  A    between atoms: C_4  and  C_5 
REMARK    5  A    between atoms: C_5  and  N_6 
REMARK       I    between atoms: N_6  and  C_7 
REMARK    6  A    between atoms: C_7  and  C_9 
REMARK    7  A    between atoms: C_9  and  C_10 
REMARK    8  A    between atoms: N_12  and  C_19 
REMARK    9  A    between atoms: C_19  and  C_20 
REMARK   10  A    between atoms: C_20  and  O_21 
REMARK   11  A    between atoms: O_21  and  C_22 
ROOT
ATOM      1  C   LIG d   1       6.436  -1.663  -4.032  0.00  0.00    -0.013 A 
ATOM      2  C   LIG d   1       7.465  -0.824  -4.226  0.00  0.00     0.009 A 
ATOM      3  N   LIG d   1       7.149   0.420  -3.754  0.00  0.00    -0.344 N 
ATOM      4  C   LIG d   1       5.875   0.414  -3.232  0.00  0.00     0.049 A 
ATOM      5  C   LIG d   1       5.369  -0.890  -3.389  0.00  0.00     0.004 A 
ATOM      6  C   LIG d   1       4.080  -1.195  -2.951  0.00  0.00    -0.052 A 
ATOM      7  C   LIG d   1       3.312  -0.222  -2.374  0.00  0.00    -0.061 A 
ATOM      8  C   LIG d   1       3.805   1.065  -2.220  0.00  0.00    -0.060 A 
ATOM      9  C   LIG d   1       5.079   1.385  -2.637  0.00  0.00    -0.038 A 
ATOM     10  H   LIG d   1       8.405  -1.092  -4.685  0.00  0.00     0.081 H 
ATOM     11  H   LIG d   1       3.690  -2.196  -3.069  0.00  0.00     0.062 H 
ATOM     12  H   LIG d   1       2.314  -0.460  -2.035  0.00  0.00     0.062 H 
ATOM     13  H   LIG d   1       3.186   1.823  -1.762  0.00  0.00     0.062 H 
ATOM     14  H   LIG d   1       5.452   2.391  -2.514  0.00  0.00     0.064 H 
ENDROOT
BRANCH   1  15
ATOM     15  C   LIG d   1       6.382  -3.121  -4.411  0.00  0.00     0.051 C 
ATOM     16  H   LIG d   1       6.164  -3.718  -3.527  0.00  0.00     0.041 H 
ATOM     17  H   LIG d   1       7.344  -3.423  -4.825  0.00  0.00     0.041 H 
BRANCH  15  18
ATOM     18  C   LIG d   1       5.303  -3.333  -5.441  0.00  0.00     0.218 C 
ATOM     19  N   LIG d   1       5.397  -2.740  -6.648  0.00  0.00    -0.310 N 
ATOM     20  H   LIG d   1       6.160  -2.177  -6.853  0.00  0.00     0.149 HD
ATOM     21  O   LIG d   1       4.349  -4.036  -5.184  0.00  0.00    -0.276 OA
BRANCH  19  22
ATOM     22  C   LIG d   1       4.348  -2.946  -7.649  0.00  0.00     0.052 C 
ATOM     23  H   LIG d   1       3.425  -3.246  -7.153  0.00  0.00     0.051 H 
ATOM     24  H   LIG d   1       4.657  -3.726  -8.344  0.00  0.00     0.051 H 
BRANCH  22  25
ATOM     25  C   LIG d   1       4.113  -1.644  -8.417  0.00  0.00    -0.017 C 
ATOM     26  H   LIG d   1       4.186  -1.835  -9.488  0.00  0.00     0.083 H 
ATOM     27  H   LIG d   1       4.866  -0.910  -8.128  0.00  0.00     0.083 H 
BRANCH  25  28
ATOM     28  N   LIG d   1       2.776  -1.124  -8.103  0.00  0.00     0.232 N 
ATOM     29  H   LIG d   1       2.280  -1.794  -7.535  0.00  0.00     0.203 HD
BRANCH  28  30
ATOM     30  C   LIG d   1       2.903   0.142  -7.368  0.00  0.00    -0.043 C 
ATOM     31  H   LIG d   1       3.697   0.742  -7.814  0.00  0.00     0.078 H 
ATOM     32  H   LIG d   1       1.962   0.689  -7.420  0.00  0.00     0.078 H 
ATOM     33  H   LIG d   1       3.146  -0.066  -6.326  0.00  0.00     0.078 H 
ENDBRANCH  28  30
BRANCH  28  34
ATOM     34  C   LIG d   1       2.033  -0.894  -9.350  0.00  0.00    -0.043 C 
ATOM     35  H   LIG d   1       2.683  -1.098 -10.202  0.00  0.00     0.078 H 
ATOM     36  H   LIG d   1       1.169  -1.557  -9.385  0.00  0.00     0.078 H 
ATOM     37  H   LIG d   1       1.699   0.143  -9.387  0.00  0.00     0.078 H 
ENDBRANCH  28  34
ENDBRANCH  25  28
ENDBRANCH  22  25
ENDBRANCH  19  22
ENDBRANCH  15  18
ENDBRANCH   1  15
BRANCH   3  38
ATOM     38  C   LIG d   1       8.035   1.587  -3.797  0.00  0.00     0.047 C 
ATOM     39  H   LIG d   1       7.512   2.423  -4.263  0.00  0.00     0.051 H 
ATOM     40  H   LIG d   1       8.325   1.860  -2.781  0.00  0.00     0.051 H 
BRANCH  38  41
ATOM     41  C   LIG d   1       9.284   1.248  -4.611  0.00  0.00     0.065 C 
ATOM     42  H   LIG d   1      10.165   1.316  -3.972  0.00  0.00     0.058 H 
ATOM     43  H   LIG d   1       9.198   0.236  -5.006  0.00  0.00     0.058 H 
BRANCH  41  44
ATOM     44  O   LIG d   1       9.411   2.172  -5.695  0.00  0.00    -0.381 OA
BRANCH  44  45
ATOM     45  C   LIG d   1       8.498   1.939  -6.768  0.00  0.00     0.036 C 
ATOM     46  H   LIG d   1       8.397   0.866  -6.933  0.00  0.00     0.052 H 
ATOM     47  H   LIG d   1       7.524   2.360  -6.515  0.00  0.00     0.052 H 
ATOM     48  H   LIG d   1       8.874   2.411  -7.675  0.00  0.00     0.052 H 
ENDBRANCH  44  45
ENDBRANCH  41  44
ENDBRANCH  38  41
ENDBRANCH   3  38
TORSDOF 11
ENDMDL
MODEL 10
REMARK VINA RESULT:      -5.3      2.583      3.291
REMARK  11 active torsions:
REMARK  status: ('A' for Active; 'I' for Inactive)
REMARK    1  A    between atoms: C_1  and  N_2 
REMARK    2  A    between atoms: N_2  and  C_3 
REMARK    3  A    between atoms: N_2  and  C_4 
REMARK    4  A    between atoms: C_4  and  C_5 
REMARK    5  A    between atoms: C_5  and  N_6 
REMARK       I    between atoms: N_6  and  C_7 
REMARK    6  A    between atoms: C_7  and  C_9 
REMARK    7  A    between atoms: C_9  and  C_10 
REMARK    8  A    between atoms: N_12  and  C_19 
REMARK    9  A    between atoms: C_19  and  C_20 
REMARK   10  A    between atoms: C_20  and  O_21 
REMARK   11  A    between atoms: O_21  and  C_22 
ROOT
ATOM      1  C   LIG d   1       5.079  -1.886  -4.828  0.00  0.00    -0.013 A 
ATOM      2  C   LIG d   1       4.437  -1.498  -5.941  0.00  0.00     0.009 A 
ATOM      3  N   LIG d   1       3.691  -0.380  -5.684  0.00  0.00    -0.344 N 
ATOM      4  C   LIG d   1       3.838  -0.011  -4.366  0.00  0.00     0.049 A 
ATOM      5  C   LIG d   1       4.710  -0.942  -3.770  0.00  0.00     0.004 A 
ATOM      6  C   LIG d   1       5.040  -0.820  -2.419  0.00  0.00    -0.052 A 
ATOM      7  C   LIG d   1       4.513   0.203  -1.681  0.00  0.00    -0.061 A 
ATOM      8  C   LIG d   1       3.651   1.120  -2.264  0.00  0.00    -0.060 A 
ATOM      9  C   LIG d   1       3.319   1.024  -3.598  0.00  0.00    -0.038 A 
ATOM     10  H   LIG d   1       4.500  -1.995  -6.897  0.00  0.00     0.081 H 
ATOM     11  H   LIG d   1       5.711  -1.532  -1.960  0.00  0.00     0.062 H 
ATOM     12  H   LIG d   1       4.771   0.296  -0.636  0.00  0.00     0.062 H 
ATOM     13  H   LIG d   1       3.242   1.922  -1.667  0.00  0.00     0.062 H 
ATOM     14  H   LIG d   1       2.645   1.742  -4.040  0.00  0.00     0.064 H 
ENDROOT
BRANCH   1  15
ATOM     15  C   LIG d   1       6.000  -3.071  -4.690  0.00  0.00     0.051 C 
ATOM     16  H   LIG d   1       5.922  -3.697  -5.578  0.00  0.00     0.041 H 
ATOM     17  H   LIG d   1       5.716  -3.650  -3.811  0.00  0.00     0.041 H 
BRANCH  15  18
ATOM     18  C   LIG d   1       7.420  -2.589  -4.538  0.00  0.00     0.218 C 
ATOM     19  N   LIG d   1       8.026  -1.948  -5.556  0.00  0.00    -0.310 N 
ATOM     20  H   LIG d   1       7.549  -1.797  -6.387  0.00  0.00     0.149 HD
ATOM     21  O   LIG d   1       8.016  -2.777  -3.499  0.00  0.00    -0.276 OA
BRANCH  19  22
ATOM     22  C   LIG d   1       9.406  -1.479  -5.409  0.00  0.00     0.052 C 
ATOM     23  H   LIG d   1      10.034  -1.953  -6.164  0.00  0.00     0.051 H 
ATOM     24  H   LIG d   1       9.774  -1.738  -4.416  0.00  0.00     0.051 H 
BRANCH  22  25
ATOM     25  C   LIG d   1       9.451   0.039  -5.589  0.00  0.00    -0.017 C 
ATOM     26  H   LIG d   1       8.465   0.400  -5.881  0.00  0.00     0.083 H 
ATOM     27  H   LIG d   1      10.174   0.293  -6.365  0.00  0.00     0.083 H 
BRANCH  25  28
ATOM     28  N   LIG d   1       9.849   0.671  -4.324  0.00  0.00     0.232 N 
ATOM     29  H   LIG d   1       9.833  -0.016  -3.586  0.00  0.00     0.203 HD
BRANCH  28  30
ATOM     30  C   LIG d   1      11.206   1.219  -4.456  0.00  0.00    -0.043 C 
ATOM     31  H   LIG d   1      11.798   0.937  -3.585  0.00  0.00     0.078 H 
ATOM     32  H   LIG d   1      11.672   0.820  -5.357  0.00  0.00     0.078 H 
ATOM     33  H   LIG d   1      11.154   2.306  -4.523  0.00  0.00     0.078 H 
ENDBRANCH  28  30
BRANCH  28  34
ATOM     34  C   LIG d   1       8.912   1.756  -4.002  0.00  0.00    -0.043 C 
ATOM     35  H   LIG d   1       7.975   1.331  -3.640  0.00  0.00     0.078 H 
ATOM     36  H   LIG d   1       9.344   2.392  -3.229  0.00  0.00     0.078 H 
ATOM     37  H   LIG d   1       8.721   2.348  -4.896  0.00  0.00     0.078 H 
ENDBRANCH  28  34
ENDBRANCH  25  28
ENDBRANCH  22  25
ENDBRANCH  19  22
ENDBRANCH  15  18
ENDBRANCH   1  15
BRANCH   3  38
ATOM     38  C   LIG d   1       2.860   0.321  -6.667  0.00  0.00     0.047 C 
ATOM     39  H   LIG d   1       1.827   0.343  -6.318  0.00  0.00     0.051 H 
ATOM     40  H   LIG d   1       3.224   1.341  -6.789  0.00  0.00     0.051 H 
BRANCH  38  41
ATOM     41  C   LIG d   1       2.930  -0.411  -8.008  0.00  0.00     0.065 C 
ATOM     42  H   LIG d   1       3.909  -0.877  -8.117  0.00  0.00     0.058 H 
ATOM     43  H   LIG d   1       2.155  -1.177  -8.046  0.00  0.00     0.058 H 
BRANCH  41  44
ATOM     44  O   LIG d   1       2.727   0.523  -9.071  0.00  0.00    -0.381 OA
BRANCH  44  45
ATOM     45  C   LIG d   1       2.834   1.891  -8.673  0.00  0.00     0.036 C 
ATOM     46  H   LIG d   1       3.778   2.301  -9.033  0.00  0.00     0.052 H 
ATOM     47  H   LIG d   1       2.006   2.459  -9.097  0.00  0.00     0.052 H 
ATOM     48  H   LIG d   1       2.802   1.957  -7.586  0.00  0.00     0.052 H 
ENDBRANCH  44  45
ENDBRANCH  41  44
ENDBRANCH  38  41
ENDBRANCH   3  38
TORSDOF 11
ENDMDL
