MODEL 1
REMARK VINA RESULT:      -5.2      0.000      0.000
REMARK  3 active torsions:
REMARK  status: ('A' for Active; 'I' for Inactive)
REMARK    1  A    between atoms: C_3  and  O_14 
REMARK    2  A    between atoms: C_6  and  C_7 
REMARK    3  A    between atoms: C_8  and  C_11 
ROOT
ATOM      1  C   LIG d   1       4.642  -3.514  -4.079  0.00  0.00    -0.035 C 
ATOM      2  C   LIG d   1       4.581  -3.647  -5.453  0.00  0.00     0.075 C 
ATOM      3  C   LIG d   1       4.505  -2.483  -6.283  0.00  0.00     0.101 C 
ATOM      4  N   LIG d   1       4.442  -1.560  -6.941  0.00  0.00    -0.191 NA
ATOM      5  H   LIG d   1       4.577  -4.388  -3.449  0.00  0.00     0.064 H 
ENDROOT
BRANCH   2   6
ATOM      6  C   LIG d   1       4.597  -4.982  -6.061  0.00  0.00     0.082 C 
ATOM      7  O   LIG d   1       3.543  -5.541  -6.337  0.00  0.00    -0.544 OA
ATOM      8  O   LIG d   1       5.663  -5.537  -6.292  0.00  0.00    -0.544 OA
ENDBRANCH   2   6
BRANCH   1   9
ATOM      9  C   LIG d   1       4.794  -2.188  -3.480  0.00  0.00    -0.024 A 
ATOM     10  C   LIG d   1       6.024  -1.517  -3.554  0.00  0.00    -0.051 A 
ATOM     11  C   LIG d   1       6.159  -0.280  -2.993  0.00  0.00    -0.020 A 
ATOM     12  H   LIG d   1       6.861  -1.977  -4.059  0.00  0.00     0.062 H 
ATOM     13  C   LIG d   1       5.080   0.316  -2.347  0.00  0.00     0.117 A 
ATOM     14  H   LIG d   1       7.105   0.238  -3.049  0.00  0.00     0.065 H 
ATOM     15  C   LIG d   1       3.857  -0.345  -2.269  0.00  0.00    -0.020 A 
ATOM     16  C   LIG d   1       3.710  -1.582  -2.827  0.00  0.00    -0.051 A 
ATOM     17  H   LIG d   1       3.024   0.123  -1.766  0.00  0.00     0.065 H 
ATOM     18  H   LIG d   1       2.761  -2.094  -2.766  0.00  0.00     0.062 H 
BRANCH  13  19
ATOM     19  O   LIG d   1       5.220   1.545  -1.791  0.00  0.00    -0.507 OA
ATOM     20  H   LIG d   1       5.984   1.627  -1.206  0.00  0.00     0.292 HD
ENDBRANCH  13  19
ENDBRANCH   1   9
TORSDOF 3
ENDMDL
MODEL 2
REMARK VINA RESULT:      -5.0      2.035      2.452
REMARK  3 active torsions:
REMARK  status: ('A' for Active; 'I' for Inactive)
REMARK    1  A    between atoms: C_3  and  O_14 
REMARK    2  A    between atoms: C_6  and  C_7 
REMARK    3  A    between atoms: C_8  and  C_11 
ROOT
ATOM      1  C   LIG d   1       7.065  -2.368  -3.456  0.00  0.00    -0.035 C 
ATOM      2  C   LIG d   1       6.927  -3.020  -4.666  0.00  0.00     0.075 C 
ATOM      3  C   LIG d   1       5.757  -2.807  -5.464  0.00  0.00     0.101 C 
ATOM      4  N   LIG d   1       4.829  -2.638  -6.097  0.00  0.00    -0.191 NA
ATOM      5  H   LIG d   1       7.884  -2.620  -2.798  0.00  0.00     0.064 H 
ENDROOT
BRANCH   2   6
ATOM      6  C   LIG d   1       7.978  -3.929  -5.134  0.00  0.00     0.082 C 
ATOM      7  O   LIG d   1       8.567  -4.647  -4.336  0.00  0.00    -0.544 OA
ATOM      8  O   LIG d   1       8.268  -3.969  -6.323  0.00  0.00    -0.544 OA
ENDBRANCH   2   6
BRANCH   1   9
ATOM      9  C   LIG d   1       6.101  -1.340  -3.065  0.00  0.00    -0.024 A 
ATOM     10  C   LIG d   1       6.392   0.016  -3.278  0.00  0.00    -0.051 A 
ATOM     11  C   LIG d   1       5.488   0.971  -2.912  0.00  0.00    -0.020 A 
ATOM     12  H   LIG d   1       7.327   0.303  -3.737  0.00  0.00     0.062 H 
ATOM     13  C   LIG d   1       4.280   0.603  -2.326  0.00  0.00     0.117 A 
ATOM     14  H   LIG d   1       5.710   2.015  -3.075  0.00  0.00     0.065 H 
ATOM     15  C   LIG d   1       3.987  -0.741  -2.110  0.00  0.00    -0.020 A 
ATOM     16  C   LIG d   1       4.882  -1.705  -2.474  0.00  0.00    -0.051 A 
ATOM     17  H   LIG d   1       3.048  -1.020  -1.655  0.00  0.00     0.065 H 
ATOM     18  H   LIG d   1       4.653  -2.747  -2.306  0.00  0.00     0.062 H 
BRANCH  13  19
ATOM     19  O   LIG d   1       3.387   1.556  -1.963  0.00  0.00    -0.507 OA
ATOM     20  H   LIG d   1       3.261   1.634  -1.008  0.00  0.00     0.292 HD
ENDBRANCH  13  19
ENDBRANCH   1   9
TORSDOF 3
ENDMDL
MODEL 3
REMARK VINA RESULT:      -5.0      1.760      2.051
REMARK  3 active torsions:
REMARK  status: ('A' for Active; 'I' for Inactive)
REMARK    1  A    between atoms: C_3  and  O_14 
REMARK    2  A    between atoms: C_6  and  C_7 
REMARK    3  A    between atoms: C_8  and  C_11 
ROOT
ATOM      1  C   LIG d   1       4.768  -3.314  -4.282  0.00  0.00    -0.035 C 
ATOM      2  C   LIG d   1       6.012  -3.465  -4.863  0.00  0.00     0.075 C 
ATOM      3  C   LIG d   1       6.869  -2.330  -5.026  0.00  0.00     0.101 C 
ATOM      4  N   LIG d   1       7.548  -1.430  -5.156  0.00  0.00    -0.191 NA
ATOM      5  H   LIG d   1       4.074  -4.140  -4.269  0.00  0.00     0.064 H 
ENDROOT
BRANCH   2   6
ATOM      6  C   LIG d   1       6.455  -4.790  -5.311  0.00  0.00     0.082 C 
ATOM      7  O   LIG d   1       5.652  -5.568  -5.809  0.00  0.00    -0.544 OA
ATOM      8  O   LIG d   1       7.628  -5.116  -5.186  0.00  0.00    -0.544 OA
ENDBRANCH   2   6
BRANCH   1   9
ATOM      9  C   LIG d   1       4.391  -2.032  -3.686  0.00  0.00    -0.024 A 
ATOM     10  C   LIG d   1       3.758  -1.051  -4.465  0.00  0.00    -0.051 A 
ATOM     11  C   LIG d   1       3.409   0.143  -3.903  0.00  0.00    -0.020 A 
ATOM     12  H   LIG d   1       3.543  -1.243  -5.506  0.00  0.00     0.062 H 
ATOM     13  C   LIG d   1       3.680   0.389  -2.560  0.00  0.00     0.117 A 
ATOM     14  H   LIG d   1       2.922   0.899  -4.501  0.00  0.00     0.065 H 
ATOM     15  C   LIG d   1       4.309  -0.579  -1.782  0.00  0.00    -0.020 A 
ATOM     16  C   LIG d   1       4.662  -1.777  -2.333  0.00  0.00    -0.051 A 
ATOM     17  H   LIG d   1       4.517  -0.382  -0.741  0.00  0.00     0.065 H 
ATOM     18  H   LIG d   1       5.150  -2.528  -1.729  0.00  0.00     0.062 H 
BRANCH  13  19
ATOM     19  O   LIG d   1       3.331   1.578  -2.007  0.00  0.00    -0.507 OA
ATOM     20  H   LIG d   1       3.592   1.672  -1.081  0.00  0.00     0.292 HD
ENDBRANCH  13  19
ENDBRANCH   1   9
TORSDOF 3
ENDMDL
MODEL 4
REMARK VINA RESULT:      -5.0      4.389      6.586
REMARK  3 active torsions:
REMARK  status: ('A' for Active; 'I' for Inactive)
REMARK    1  A    between atoms: C_3  and  O_14 
REMARK    2  A    between atoms: C_6  and  C_7 
REMARK    3  A    between atoms: C_8  and  C_11 
ROOT
ATOM      1  C   LIG d   1       2.515   0.683  -6.775  0.00  0.00    -0.035 C 
ATOM      2  C   LIG d   1       3.336   0.153  -5.799  0.00  0.00     0.075 C 
ATOM      3  C   LIG d   1       4.522  -0.559  -6.169  0.00  0.00     0.101 C 
ATOM      4  N   LIG d   1       5.462  -1.124  -6.463  0.00  0.00    -0.191 NA
ATOM      5  H   LIG d   1       1.561   1.111  -6.505  0.00  0.00     0.064 H 
ENDROOT
BRANCH   2   6
ATOM      6  C   LIG d   1       2.992   0.320  -4.383  0.00  0.00     0.082 C 
ATOM      7  O   LIG d   1       2.383  -0.563  -3.792  0.00  0.00    -0.544 OA
ATOM      8  O   LIG d   1       3.315   1.342  -3.792  0.00  0.00    -0.544 OA
ENDBRANCH   2   6
BRANCH   1   9
ATOM      9  C   LIG d   1       2.937   0.662  -8.176  0.00  0.00    -0.024 A 
ATOM     10  C   LIG d   1       2.648  -0.449  -8.983  0.00  0.00    -0.051 A 
ATOM     11  C   LIG d   1       3.045  -0.462 -10.289  0.00  0.00    -0.020 A 
ATOM     12  H   LIG d   1       2.107  -1.289  -8.573  0.00  0.00     0.062 H 
ATOM     13  C   LIG d   1       3.737   0.623 -10.821  0.00  0.00     0.117 A 
ATOM     14  H   LIG d   1       2.823  -1.316 -10.912  0.00  0.00     0.065 H 
ATOM     15  C   LIG d   1       4.028   1.727 -10.024  0.00  0.00    -0.020 A 
ATOM     16  C   LIG d   1       3.636   1.752  -8.717  0.00  0.00    -0.051 A 
ATOM     17  H   LIG d   1       4.566   2.565 -10.442  0.00  0.00     0.065 H 
ATOM     18  H   LIG d   1       3.862   2.609  -8.100  0.00  0.00     0.062 H 
BRANCH  13  19
ATOM     19  O   LIG d   1       4.130   0.604 -12.118  0.00  0.00    -0.507 OA
ATOM     20  H   LIG d   1       3.568   1.125 -12.707  0.00  0.00     0.292 HD
ENDBRANCH  13  19
ENDBRANCH   1   9
TORSDOF 3
ENDMDL
MODEL 5
REMARK VINA RESULT:      -4.9      1.569      5.319
REMARK  3 active torsions:
REMARK  status: ('A' for Active; 'I' for Inactive)
REMARK    1  A    between atoms: C_3  and  O_14 
REMARK    2  A    between atoms: C_6  and  C_7 
REMARK    3  A    between atoms: C_8  and  C_11 
ROOT
ATOM      1  C   LIG d   1       5.371  -1.294  -2.655  0.00  0.00    -0.035 C 
ATOM      2  C   LIG d   1       4.685  -0.171  -3.074  0.00  0.00     0.075 C 
ATOM      3  C   LIG d   1       4.431   0.034  -4.469  0.00  0.00     0.101 C 
ATOM      4  N   LIG d   1       4.230   0.197  -5.574  0.00  0.00    -0.191 NA
ATOM      5  H   LIG d   1       5.670  -1.390  -1.622  0.00  0.00     0.064 H 
ENDROOT
BRANCH   2   6
ATOM      6  C   LIG d   1       4.216   0.811  -2.091  0.00  0.00     0.082 C 
ATOM      7  O   LIG d   1       3.102   1.307  -2.204  0.00  0.00    -0.544 OA
ATOM      8  O   LIG d   1       4.939   1.135  -1.158  0.00  0.00    -0.544 OA
ENDBRANCH   2   6
BRANCH   1   9
ATOM      9  C   LIG d   1       5.694  -2.353  -3.612  0.00  0.00    -0.024 A 
ATOM     10  C   LIG d   1       4.678  -3.173  -4.125  0.00  0.00    -0.051 A 
ATOM     11  C   LIG d   1       4.986  -4.159  -5.017  0.00  0.00    -0.020 A 
ATOM     12  H   LIG d   1       3.654  -3.021  -3.818  0.00  0.00     0.062 H 
ATOM     13  C   LIG d   1       6.305  -4.353  -5.418  0.00  0.00     0.117 A 
ATOM     14  H   LIG d   1       4.206  -4.792  -5.413  0.00  0.00     0.065 H 
ATOM     15  C   LIG d   1       7.318  -3.543  -4.911  0.00  0.00    -0.020 A 
ATOM     16  C   LIG d   1       7.022  -2.553  -4.019  0.00  0.00    -0.051 A 
ATOM     17  H   LIG d   1       8.339  -3.699  -5.225  0.00  0.00     0.065 H 
ATOM     18  H   LIG d   1       7.808  -1.926  -3.626  0.00  0.00     0.062 H 
BRANCH  13  19
ATOM     19  O   LIG d   1       6.605  -5.335  -6.304  0.00  0.00    -0.507 OA
ATOM     20  H   LIG d   1       6.718  -6.206  -5.902  0.00  0.00     0.292 HD
ENDBRANCH  13  19
ENDBRANCH   1   9
TORSDOF 3
ENDMDL
MODEL 6
REMARK VINA RESULT:      -4.7      8.647      9.615
REMARK  3 active torsions:
REMARK  status: ('A' for Active; 'I' for Inactive)
REMARK    1  A    between atoms: C_3  and  O_14 
REMARK    2  A    between atoms: C_6  and  C_7 
REMARK    3  A    between atoms: C_8  and  C_11 
ROOT
ATOM      1  C   LIG d   1       5.192 -10.187  -2.094  0.00  0.00    -0.035 C 
ATOM      2  C   LIG d   1       4.753 -10.828  -3.236  0.00  0.00     0.075 C 
ATOM      3  C   LIG d   1       5.662 -11.625  -4.004  0.00  0.00     0.101 C 
ATOM      4  N   LIG d   1       6.382 -12.257  -4.613  0.00  0.00    -0.191 NA
ATOM      5  H   LIG d   1       4.545  -9.490  -1.584  0.00  0.00     0.064 H 
ENDROOT
BRANCH   2   6
ATOM      6  C   LIG d   1       3.356 -10.691  -3.663  0.00  0.00     0.082 C 
ATOM      7  O   LIG d   1       2.643  -9.833  -3.159  0.00  0.00    -0.544 OA
ATOM      8  O   LIG d   1       2.904 -11.437  -4.522  0.00  0.00    -0.544 OA
ENDBRANCH   2   6
BRANCH   1   9
ATOM      9  C   LIG d   1       6.534 -10.453  -1.577  0.00  0.00    -0.024 A 
ATOM     10  C   LIG d   1       6.805 -11.652  -0.900  0.00  0.00    -0.051 A 
ATOM     11  C   LIG d   1       8.060 -11.894  -0.421  0.00  0.00    -0.020 A 
ATOM     12  H   LIG d   1       6.023 -12.384  -0.765  0.00  0.00     0.062 H 
ATOM     13  C   LIG d   1       9.070 -10.954  -0.600  0.00  0.00     0.117 A 
ATOM     14  H   LIG d   1       8.270 -12.816   0.100  0.00  0.00     0.065 H 
ATOM     15  C   LIG d   1       8.808  -9.761  -1.268  0.00  0.00    -0.020 A 
ATOM     16  C   LIG d   1       7.557  -9.508  -1.754  0.00  0.00    -0.051 A 
ATOM     17  H   LIG d   1       9.596  -9.035  -1.404  0.00  0.00     0.065 H 
ATOM     18  H   LIG d   1       7.355  -8.583  -2.272  0.00  0.00     0.062 H 
BRANCH  13  19
ATOM     19  O   LIG d   1      10.315 -11.199  -0.120  0.00  0.00    -0.507 OA
ATOM     20  H   LIG d   1      11.011 -10.689  -0.554  0.00  0.00     0.292 HD
ENDBRANCH  13  19
ENDBRANCH   1   9
TORSDOF 3
ENDMDL
MODEL 7
REMARK VINA RESULT:      -4.7      2.146      2.678
REMARK  3 active torsions:
REMARK  status: ('A' for Active; 'I' for Inactive)
REMARK    1  A    between atoms: C_3  and  O_14 
REMARK    2  A    between atoms: C_6  and  C_7 
REMARK    3  A    between atoms: C_8  and  C_11 
ROOT
ATOM      1  C   LIG d   1       4.617  -1.889  -5.720  0.00  0.00    -0.035 C 
ATOM      2  C   LIG d   1       4.135  -1.364  -6.904  0.00  0.00     0.075 C 
ATOM      3  C   LIG d   1       3.539  -0.062  -6.920  0.00  0.00     0.101 C 
ATOM      4  N   LIG d   1       3.065   0.969  -6.933  0.00  0.00    -0.191 NA
ATOM      5  H   LIG d   1       4.954  -2.914  -5.682  0.00  0.00     0.064 H 
ENDROOT
BRANCH   2   6
ATOM      6  C   LIG d   1       4.235  -2.141  -8.144  0.00  0.00     0.082 C 
ATOM      7  O   LIG d   1       3.223  -2.427  -8.771  0.00  0.00    -0.544 OA
ATOM      8  O   LIG d   1       5.331  -2.503  -8.552  0.00  0.00    -0.544 OA
ENDBRANCH   2   6
BRANCH   1   9
ATOM      9  C   LIG d   1       4.669  -1.055  -4.519  0.00  0.00    -0.024 A 
ATOM     10  C   LIG d   1       3.608  -1.074  -3.602  0.00  0.00    -0.051 A 
ATOM     11  C   LIG d   1       3.663  -0.294  -2.483  0.00  0.00    -0.020 A 
ATOM     12  H   LIG d   1       2.752  -1.709  -3.777  0.00  0.00     0.062 H 
ATOM     13  C   LIG d   1       4.768   0.521  -2.251  0.00  0.00     0.117 A 
ATOM     14  H   LIG d   1       2.847  -0.307  -1.775  0.00  0.00     0.065 H 
ATOM     15  C   LIG d   1       5.823   0.545  -3.159  0.00  0.00    -0.020 A 
ATOM     16  C   LIG d   1       5.780  -0.231  -4.281  0.00  0.00    -0.051 A 
ATOM     17  H   LIG d   1       6.677   1.180  -2.975  0.00  0.00     0.065 H 
ATOM     18  H   LIG d   1       6.599  -0.212  -4.985  0.00  0.00     0.062 H 
BRANCH  13  19
ATOM     19  O   LIG d   1       4.816   1.294  -1.139  0.00  0.00    -0.507 OA
ATOM     20  H   LIG d   1       4.214   1.014  -0.438  0.00  0.00     0.292 HD
ENDBRANCH  13  19
ENDBRANCH   1   9
TORSDOF 3
ENDMDL
MODEL 8
REMARK VINA RESULT:      -4.6      3.817      5.129
REMARK  3 active torsions:
REMARK  status: ('A' for Active; 'I' for Inactive)
REMARK    1  A    between atoms: C_3  and  O_14 
REMARK    2  A    between atoms: C_6  and  C_7 
REMARK    3  A    between atoms: C_8  and  C_11 
ROOT
ATOM      1  C   LIG d   1       4.396  -1.458  -5.902  0.00  0.00    -0.035 C 
ATOM      2  C   LIG d   1       4.072  -1.148  -4.596  0.00  0.00     0.075 C 
ATOM      3  C   LIG d   1       3.733   0.198  -4.243  0.00  0.00     0.101 C 
ATOM      4  N   LIG d   1       3.466   1.265  -3.962  0.00  0.00    -0.191 NA
ATOM      5  H   LIG d   1       4.769  -2.441  -6.147  0.00  0.00     0.064 H 
ENDROOT
BRANCH   2   6
ATOM      6  C   LIG d   1       4.073  -2.197  -3.571  0.00  0.00     0.082 C 
ATOM      7  O   LIG d   1       3.779  -1.924  -2.415  0.00  0.00    -0.544 OA
ATOM      8  O   LIG d   1       4.369  -3.346  -3.873  0.00  0.00    -0.544 OA
ENDBRANCH   2   6
BRANCH   1   9
ATOM      9  C   LIG d   1       4.236  -0.453  -6.954  0.00  0.00    -0.024 A 
ATOM     10  C   LIG d   1       2.953  -0.056  -7.359  0.00  0.00    -0.051 A 
ATOM     11  C   LIG d   1       2.810   0.883  -8.340  0.00  0.00    -0.020 A 
ATOM     12  H   LIG d   1       2.080  -0.487  -6.892  0.00  0.00     0.062 H 
ATOM     13  C   LIG d   1       3.934   1.444  -8.940  0.00  0.00     0.117 A 
ATOM     14  H   LIG d   1       1.824   1.190  -8.654  0.00  0.00     0.065 H 
ATOM     15  C   LIG d   1       5.210   1.053  -8.543  0.00  0.00    -0.020 A 
ATOM     16  C   LIG d   1       5.366   0.116  -7.562  0.00  0.00    -0.051 A 
ATOM     17  H   LIG d   1       6.078   1.492  -9.012  0.00  0.00     0.065 H 
ATOM     18  H   LIG d   1       6.355  -0.187  -7.255  0.00  0.00     0.062 H 
BRANCH  13  19
ATOM     19  O   LIG d   1       3.786   2.375  -9.915  0.00  0.00    -0.507 OA
ATOM     20  H   LIG d   1       3.792   2.012 -10.810  0.00  0.00     0.292 HD
ENDBRANCH  13  19
ENDBRANCH   1   9
TORSDOF 3
ENDMDL
MODEL 9
REMARK VINA RESULT:      -4.4     10.889     13.385
REMARK  3 active torsions:
REMARK  status: ('A' for Active; 'I' for Inactive)
REMARK    1  A    between atoms: C_3  and  O_14 
REMARK    2  A    between atoms: C_6  and  C_7 
REMARK    3  A    between atoms: C_8  and  C_11 
ROOT
ATOM      1  C   LIG d   1       9.190   9.656  -1.294  0.00  0.00    -0.035 C 
ATOM      2  C   LIG d   1       9.725  10.432  -2.303  0.00  0.00     0.075 C 
ATOM      3  C   LIG d   1      10.949  10.039  -2.936  0.00  0.00     0.101 C 
ATOM      4  N   LIG d   1      11.919   9.728  -3.436  0.00  0.00    -0.191 NA
ATOM      5  H   LIG d   1       8.337  10.011  -0.734  0.00  0.00     0.064 H 
ENDROOT
BRANCH   2   6
ATOM      6  C   LIG d   1       9.040  11.657  -2.728  0.00  0.00     0.082 C 
ATOM      7  O   LIG d   1       8.024  11.586  -3.407  0.00  0.00    -0.544 OA
ATOM      8  O   LIG d   1       9.486  12.750  -2.404  0.00  0.00    -0.544 OA
ENDBRANCH   2   6
BRANCH   1   9
ATOM      9  C   LIG d   1       9.779   8.353  -0.982  0.00  0.00    -0.024 A 
ATOM     10  C   LIG d   1      10.665   8.221   0.097  0.00  0.00    -0.051 A 
ATOM     11  C   LIG d   1      11.211   7.002   0.383  0.00  0.00    -0.020 A 
ATOM     12  H   LIG d   1      10.911   9.080   0.704  0.00  0.00     0.062 H 
ATOM     13  C   LIG d   1      10.892   5.893  -0.395  0.00  0.00     0.117 A 
ATOM     14  H   LIG d   1      11.894   6.898   1.213  0.00  0.00     0.065 H 
ATOM     15  C   LIG d   1      10.014   6.019  -1.468  0.00  0.00    -0.020 A 
ATOM     16  C   LIG d   1       9.461   7.231  -1.763  0.00  0.00    -0.051 A 
ATOM     17  H   LIG d   1       9.770   5.155  -2.069  0.00  0.00     0.065 H 
ATOM     18  H   LIG d   1       8.780   7.328  -2.596  0.00  0.00     0.062 H 
BRANCH  13  19
ATOM     19  O   LIG d   1      11.438   4.686  -0.107  0.00  0.00    -0.507 OA
ATOM     20  H   LIG d   1      11.043   4.248   0.658  0.00  0.00     0.292 HD
ENDBRANCH  13  19
ENDBRANCH   1   9
TORSDOF 3
ENDMDL
MODEL 10
REMARK VINA RESULT:      -4.4      2.283      2.907
REMARK  3 active torsions:
REMARK  status: ('A' for Active; 'I' for Inactive)
REMARK    1  A    between atoms: C_3  and  O_14 
REMARK    2  A    between atoms: C_6  and  C_7 
REMARK    3  A    between atoms: C_8  and  C_11 
ROOT
ATOM      1  C   LIG d   1       6.276  -3.512  -4.698  0.00  0.00    -0.035 C 
ATOM      2  C   LIG d   1       5.990  -4.708  -5.327  0.00  0.00     0.075 C 
ATOM      3  C   LIG d   1       4.649  -5.001  -5.734  0.00  0.00     0.101 C 
ATOM      4  N   LIG d   1       3.585  -5.234  -6.055  0.00  0.00    -0.191 NA
ATOM      5  H   LIG d   1       7.257  -3.341  -4.283  0.00  0.00     0.064 H 
ENDROOT
BRANCH   2   6
ATOM      6  C   LIG d   1       7.062  -5.677  -5.580  0.00  0.00     0.082 C 
ATOM      7  O   LIG d   1       8.207  -5.287  -5.771  0.00  0.00    -0.544 OA
ATOM      8  O   LIG d   1       6.811  -6.875  -5.602  0.00  0.00    -0.544 OA
ENDBRANCH   2   6
BRANCH   1   9
ATOM      9  C   LIG d   1       5.246  -2.478  -4.593  0.00  0.00    -0.024 A 
ATOM     10  C   LIG d   1       4.424  -2.414  -3.458  0.00  0.00    -0.051 A 
ATOM     11  C   LIG d   1       3.465  -1.446  -3.366  0.00  0.00    -0.020 A 
ATOM     12  H   LIG d   1       4.553  -3.126  -2.656  0.00  0.00     0.062 H 
ATOM     13  C   LIG d   1       3.301  -0.525  -4.396  0.00  0.00     0.117 A 
ATOM     14  H   LIG d   1       2.831  -1.396  -2.493  0.00  0.00     0.065 H 
ATOM     15  C   LIG d   1       4.113  -0.583  -5.526  0.00  0.00    -0.020 A 
ATOM     16  C   LIG d   1       5.075  -1.546  -5.629  0.00  0.00    -0.051 A 
ATOM     17  H   LIG d   1       3.980   0.134  -6.322  0.00  0.00     0.065 H 
ATOM     18  H   LIG d   1       5.704  -1.591  -6.505  0.00  0.00     0.062 H 
BRANCH  13  19
ATOM     19  O   LIG d   1       2.347   0.434  -4.300  0.00  0.00    -0.507 OA
ATOM     20  H   LIG d   1       1.467   0.142  -4.573  0.00  0.00     0.292 HD
ENDBRANCH  13  19
ENDBRANCH   1   9
TORSDOF 3
ENDMDL
