MODEL 1
REMARK VINA RESULT:      -7.7      0.000      0.000
REMARK  6 active torsions:
REMARK  status: ('A' for Active; 'I' for Inactive)
REMARK    1  A    between atoms: C_1  and  C_2 
REMARK    2  A    between atoms: C_2  and  C_3 
REMARK    3  A    between atoms: C_2  and  N_4 
REMARK       I    between atoms: N_4  and  C_5 
REMARK       I    between atoms: C_5  and  N_7 
REMARK    4  A    between atoms: C_16  and  C_18 
REMARK    5  A    between atoms: C_20  and  C_23 
REMARK    6  A    between atoms: C_27  and  N_29 
ROOT
ATOM      1  N   LIG d   1      10.794   5.080  -0.866  0.00  0.00    -0.297 N 
ATOM      2  C   LIG d   1      10.214   5.134  -2.082  0.00  0.00     0.303 C 
ATOM      3  O   LIG d   1       9.609   6.131  -2.423  0.00  0.00    -0.253 OA
ATOM      4  N   LIG d   1      10.306   4.082  -2.920  0.00  0.00    -0.266 N 
ATOM      5  C   LIG d   1      10.938   2.823  -2.484  0.00  0.00     0.082 C 
ATOM      6  C   LIG d   1      11.842   2.364  -3.604  0.00  0.00     0.162 A 
ATOM      7  C   LIG d   1      11.835   2.902  -4.842  0.00  0.00     0.148 A 
ATOM      8  N   LIG d   1      12.771   2.234  -5.571  0.00  0.00    -0.247 N 
ATOM      9  H   LIG d   1      12.998   2.392  -6.500  0.00  0.00     0.310 HD
ATOM     10  C   LIG d   1      13.325   1.309  -4.754  0.00  0.00     0.243 A 
ATOM     11  N   LIG d   1      12.760   1.396  -3.577  0.00  0.00    -0.246 N 
ATOM     12  C   LIG d   1      10.943   4.033  -5.283  0.00  0.00     0.041 C 
ATOM     13  C   LIG d   1       9.775   4.161  -4.289  0.00  0.00     0.114 C 
ATOM     14  H   LIG d   1       9.275   5.119  -4.431  0.00  0.00     0.060 H 
ATOM     15  H   LIG d   1      11.213   4.259  -0.565  0.00  0.00     0.150 HD
ATOM     16  H   LIG d   1      11.523   2.995  -1.581  0.00  0.00     0.055 H 
ATOM     17  H   LIG d   1      10.172   2.071  -2.294  0.00  0.00     0.055 H 
ATOM     18  H   LIG d   1      14.104   0.613  -5.027  0.00  0.00     0.158 H 
ATOM     19  H   LIG d   1      11.513   4.962  -5.301  0.00  0.00     0.037 H 
ATOM     20  H   LIG d   1      10.552   3.823  -6.279  0.00  0.00     0.037 H 
ATOM     21  H   LIG d   1      12.976   0.845  -2.807  0.00  0.00     0.310 HD
ENDROOT
BRANCH  13  22
ATOM     22  C   LIG d   1       8.793   3.040  -4.513  0.00  0.00     0.249 A 
ATOM     23  O   LIG d   1       8.611   2.378  -5.663  0.00  0.00    -0.336 OA
ATOM     24  N   LIG d   1       7.598   1.415  -5.414  0.00  0.00    -0.056 NA
ATOM     25  C   LIG d   1       7.243   1.564  -4.162  0.00  0.00     0.202 A 
ATOM     26  N   LIG d   1       7.976   2.555  -3.623  0.00  0.00    -0.190 NA
BRANCH  25  27
ATOM     27  C   LIG d   1       6.206   0.772  -3.455  0.00  0.00     0.029 A 
ATOM     28  C   LIG d   1       5.983  -0.558  -3.806  0.00  0.00     0.026 A 
ATOM     29  C   LIG d   1       5.021  -1.292  -3.141  0.00  0.00     0.274 A 
ATOM     30  H   LIG d   1       6.564  -1.015  -4.592  0.00  0.00     0.069 H 
ATOM     31  C   LIG d   1       4.271  -0.706  -2.138  0.00  0.00     0.016 A 
ATOM     32  C   LIG d   1       4.485   0.616  -1.789  0.00  0.00    -0.055 A 
ATOM     33  H   LIG d   1       3.516  -1.283  -1.623  0.00  0.00     0.069 H 
ATOM     34  C   LIG d   1       5.448   1.357  -2.443  0.00  0.00    -0.051 A 
ATOM     35  H   LIG d   1       3.896   1.068  -1.004  0.00  0.00     0.062 H 
ATOM     36  H   LIG d   1       5.615   2.389  -2.169  0.00  0.00     0.062 H 
BRANCH  29  37
ATOM     37  N   LIG d   1       4.787  -2.707  -3.508  0.00  0.00     0.080 N 
ATOM     38  O   LIG d   1       5.502  -3.247  -4.319  0.00  0.00     0.041 OA
ATOM     39  O   LIG d   1       3.879  -3.321  -2.997  0.00  0.00    -0.576 OA
ENDBRANCH  29  37
ENDBRANCH  25  27
ENDBRANCH  13  22
BRANCH   1  40
ATOM     40  C   LIG d   1      10.790   6.261   0.000  0.00  0.00     0.019 C 
ATOM     41  H   LIG d   1       9.850   6.799  -0.122  0.00  0.00     0.049 H 
BRANCH  40  42
ATOM     42  C   LIG d   1      10.941   5.824   1.459  0.00  0.00    -0.047 C 
ATOM     43  H   LIG d   1       9.962   5.809   1.936  0.00  0.00     0.025 H 
ATOM     44  H   LIG d   1      11.379   4.827   1.496  0.00  0.00     0.025 H 
ATOM     45  H   LIG d   1      11.590   6.526   1.983  0.00  0.00     0.025 H 
ENDBRANCH  40  42
BRANCH  40  46
ATOM     46  C   LIG d   1      11.955   7.177  -0.381  0.00  0.00    -0.047 C 
ATOM     47  H   LIG d   1      11.829   7.518  -1.408  0.00  0.00     0.025 H 
ATOM     48  H   LIG d   1      11.974   8.037   0.288  0.00  0.00     0.025 H 
ATOM     49  H   LIG d   1      12.893   6.628  -0.292  0.00  0.00     0.025 H 
ENDBRANCH  40  46
ENDBRANCH   1  40
TORSDOF 6
ENDMDL
MODEL 2
REMARK VINA RESULT:      -6.6      4.864      7.267
REMARK  6 active torsions:
REMARK  status: ('A' for Active; 'I' for Inactive)
REMARK    1  A    between atoms: C_1  and  C_2 
REMARK    2  A    between atoms: C_2  and  C_3 
REMARK    3  A    between atoms: C_2  and  N_4 
REMARK       I    between atoms: N_4  and  C_5 
REMARK       I    between atoms: C_5  and  N_7 
REMARK    4  A    between atoms: C_16  and  C_18 
REMARK    5  A    between atoms: C_20  and  C_23 
REMARK    6  A    between atoms: C_27  and  N_29 
ROOT
ATOM      1  N   LIG d   1      11.535  -2.158  -3.984  0.00  0.00    -0.297 N 
ATOM      2  C   LIG d   1      10.769  -2.788  -4.897  0.00  0.00     0.303 C 
ATOM      3  O   LIG d   1      10.901  -2.538  -6.079  0.00  0.00    -0.253 OA
ATOM      4  N   LIG d   1       9.854  -3.695  -4.498  0.00  0.00    -0.266 N 
ATOM      5  C   LIG d   1       9.599  -3.930  -3.065  0.00  0.00     0.082 C 
ATOM      6  C   LIG d   1       9.526  -5.425  -2.862  0.00  0.00     0.162 A 
ATOM      7  C   LIG d   1       9.455  -6.317  -3.873  0.00  0.00     0.148 A 
ATOM      8  N   LIG d   1       9.399  -7.555  -3.308  0.00  0.00    -0.247 N 
ATOM      9  H   LIG d   1       9.340  -8.400  -3.778  0.00  0.00     0.310 HD
ATOM     10  C   LIG d   1       9.440  -7.381  -1.967  0.00  0.00     0.243 A 
ATOM     11  N   LIG d   1       9.516  -6.100  -1.711  0.00  0.00    -0.246 N 
ATOM     12  C   LIG d   1       9.449  -5.960  -5.336  0.00  0.00     0.041 C 
ATOM     13  C   LIG d   1       9.084  -4.471  -5.482  0.00  0.00     0.114 C 
ATOM     14  H   LIG d   1       9.330  -4.129  -6.487  0.00  0.00     0.060 H 
ATOM     15  H   LIG d   1      11.380  -2.302  -3.038  0.00  0.00     0.150 HD
ATOM     16  H   LIG d   1      10.413  -3.514  -2.470  0.00  0.00     0.055 H 
ATOM     17  H   LIG d   1       8.654  -3.469  -2.777  0.00  0.00     0.055 H 
ATOM     18  H   LIG d   1       9.414  -8.169  -1.229  0.00  0.00     0.158 H 
ATOM     19  H   LIG d   1      10.438  -6.138  -5.760  0.00  0.00     0.037 H 
ATOM     20  H   LIG d   1       8.710  -6.567  -5.858  0.00  0.00     0.037 H 
ATOM     21  H   LIG d   1       9.560  -5.706  -0.825  0.00  0.00     0.310 HD
ENDROOT
BRANCH  13  22
ATOM     22  C   LIG d   1       7.611  -4.283  -5.229  0.00  0.00     0.249 A 
ATOM     23  O   LIG d   1       6.657  -5.198  -5.442  0.00  0.00    -0.336 OA
ATOM     24  N   LIG d   1       5.430  -4.593  -5.067  0.00  0.00    -0.056 NA
ATOM     25  C   LIG d   1       5.720  -3.379  -4.668  0.00  0.00     0.202 A 
ATOM     26  N   LIG d   1       7.049  -3.201  -4.771  0.00  0.00    -0.190 NA
BRANCH  25  27
ATOM     27  C   LIG d   1       4.747  -2.370  -4.184  0.00  0.00     0.029 A 
ATOM     28  C   LIG d   1       4.346  -1.329  -5.020  0.00  0.00     0.026 A 
ATOM     29  C   LIG d   1       3.435  -0.395  -4.567  0.00  0.00     0.274 A 
ATOM     30  H   LIG d   1       4.742  -1.256  -6.021  0.00  0.00     0.069 H 
ATOM     31  C   LIG d   1       2.931  -0.485  -3.282  0.00  0.00     0.016 A 
ATOM     32  C   LIG d   1       3.330  -1.513  -2.447  0.00  0.00    -0.055 A 
ATOM     33  H   LIG d   1       2.222   0.250  -2.930  0.00  0.00     0.069 H 
ATOM     34  C   LIG d   1       4.234  -2.455  -2.891  0.00  0.00    -0.051 A 
ATOM     35  H   LIG d   1       2.932  -1.577  -1.444  0.00  0.00     0.062 H 
ATOM     36  H   LIG d   1       4.544  -3.258  -2.238  0.00  0.00     0.062 H 
BRANCH  29  37
ATOM     37  N   LIG d   1       3.003   0.707  -5.455  0.00  0.00     0.080 N 
ATOM     38  O   LIG d   1       3.134   0.605  -6.652  0.00  0.00     0.041 OA
ATOM     39  O   LIG d   1       2.519   1.709  -4.982  0.00  0.00    -0.576 OA
ENDBRANCH  29  37
ENDBRANCH  25  27
ENDBRANCH  13  22
BRANCH   1  40
ATOM     40  C   LIG d   1      12.604  -1.257  -4.422  0.00  0.00     0.019 C 
ATOM     41  H   LIG d   1      12.770  -1.383  -5.492  0.00  0.00     0.049 H 
BRANCH  40  42
ATOM     42  C   LIG d   1      12.198   0.191  -4.137  0.00  0.00    -0.047 C 
ATOM     43  H   LIG d   1      12.605   0.841  -4.911  0.00  0.00     0.025 H 
ATOM     44  H   LIG d   1      11.111   0.269  -4.131  0.00  0.00     0.025 H 
ATOM     45  H   LIG d   1      12.590   0.493  -3.165  0.00  0.00     0.025 H 
ENDBRANCH  40  42
BRANCH  40  46
ATOM     46  C   LIG d   1      13.891  -1.584  -3.664  0.00  0.00    -0.047 C 
ATOM     47  H   LIG d   1      14.554  -2.165  -4.306  0.00  0.00     0.025 H 
ATOM     48  H   LIG d   1      14.387  -0.658  -3.373  0.00  0.00     0.025 H 
ATOM     49  H   LIG d   1      13.650  -2.162  -2.772  0.00  0.00     0.025 H 
ENDBRANCH  40  46
ENDBRANCH   1  40
TORSDOF 6
ENDMDL
MODEL 3
REMARK VINA RESULT:      -6.5      5.895     10.839
REMARK  6 active torsions:
REMARK  status: ('A' for Active; 'I' for Inactive)
REMARK    1  A    between atoms: C_1  and  C_2 
REMARK    2  A    between atoms: C_2  and  C_3 
REMARK    3  A    between atoms: C_2  and  N_4 
REMARK       I    between atoms: N_4  and  C_5 
REMARK       I    between atoms: C_5  and  N_7 
REMARK    4  A    between atoms: C_16  and  C_18 
REMARK    5  A    between atoms: C_20  and  C_23 
REMARK    6  A    between atoms: C_27  and  N_29 
ROOT
ATOM      1  N   LIG d   1       4.648  -9.020  -4.955  0.00  0.00    -0.297 N 
ATOM      2  C   LIG d   1       5.765  -8.280  -5.104  0.00  0.00     0.303 C 
ATOM      3  O   LIG d   1       6.766  -8.556  -4.472  0.00  0.00    -0.253 OA
ATOM      4  N   LIG d   1       5.772  -7.234  -5.954  0.00  0.00    -0.266 N 
ATOM      5  C   LIG d   1       4.539  -6.813  -6.644  0.00  0.00     0.082 C 
ATOM      6  C   LIG d   1       4.900  -6.550  -8.087  0.00  0.00     0.162 A 
ATOM      7  C   LIG d   1       6.169  -6.478  -8.541  0.00  0.00     0.148 A 
ATOM      8  N   LIG d   1       6.099  -6.226  -9.878  0.00  0.00    -0.247 N 
ATOM      9  H   LIG d   1       6.847  -6.118 -10.484  0.00  0.00     0.310 HD
ATOM     10  C   LIG d   1       4.786  -6.154 -10.200  0.00  0.00     0.243 A 
ATOM     11  N   LIG d   1       4.077  -6.350  -9.118  0.00  0.00    -0.246 N 
ATOM     12  C   LIG d   1       7.399  -6.658  -7.691  0.00  0.00     0.041 C 
ATOM     13  C   LIG d   1       7.009  -6.481  -6.212  0.00  0.00     0.114 C 
ATOM     14  H   LIG d   1       7.807  -6.862  -5.574  0.00  0.00     0.060 H 
ATOM     15  H   LIG d   1       3.829  -8.756  -5.402  0.00  0.00     0.150 HD
ATOM     16  H   LIG d   1       3.793  -7.606  -6.586  0.00  0.00     0.055 H 
ATOM     17  H   LIG d   1       4.151  -5.903  -6.186  0.00  0.00     0.055 H 
ATOM     18  H   LIG d   1       4.389  -5.965 -11.186  0.00  0.00     0.158 H 
ATOM     19  H   LIG d   1       7.808  -7.656  -7.846  0.00  0.00     0.037 H 
ATOM     20  H   LIG d   1       8.143  -5.909  -7.962  0.00  0.00     0.037 H 
ATOM     21  H   LIG d   1       3.107  -6.351  -9.074  0.00  0.00     0.310 HD
ENDROOT
BRANCH  13  22
ATOM     22  C   LIG d   1       6.781  -5.021  -5.919  0.00  0.00     0.249 A 
ATOM     23  O   LIG d   1       7.310  -3.994  -6.595  0.00  0.00    -0.336 OA
ATOM     24  N   LIG d   1       6.824  -2.813  -5.977  0.00  0.00    -0.056 NA
ATOM     25  C   LIG d   1       6.058  -3.200  -4.988  0.00  0.00     0.202 A 
ATOM     26  N   LIG d   1       6.038  -4.545  -4.961  0.00  0.00    -0.190 NA
BRANCH  25  27
ATOM     27  C   LIG d   1       5.332  -2.305  -4.053  0.00  0.00     0.029 A 
ATOM     28  C   LIG d   1       5.604  -0.939  -4.040  0.00  0.00     0.026 A 
ATOM     29  C   LIG d   1       4.922  -0.109  -3.172  0.00  0.00     0.274 A 
ATOM     30  H   LIG d   1       6.343  -0.529  -4.711  0.00  0.00     0.069 H 
ATOM     31  C   LIG d   1       3.979  -0.635  -2.308  0.00  0.00     0.016 A 
ATOM     32  C   LIG d   1       3.708  -1.992  -2.312  0.00  0.00    -0.055 A 
ATOM     33  H   LIG d   1       3.450   0.017  -1.627  0.00  0.00     0.069 H 
ATOM     34  C   LIG d   1       4.380  -2.829  -3.180  0.00  0.00    -0.051 A 
ATOM     35  H   LIG d   1       2.970  -2.396  -1.635  0.00  0.00     0.062 H 
ATOM     36  H   LIG d   1       4.167  -3.888  -3.183  0.00  0.00     0.062 H 
BRANCH  29  37
ATOM     37  N   LIG d   1       5.205   1.343  -3.162  0.00  0.00     0.080 N 
ATOM     38  O   LIG d   1       6.348   1.736  -3.177  0.00  0.00     0.041 OA
ATOM     39  O   LIG d   1       4.292   2.136  -3.138  0.00  0.00    -0.576 OA
ENDBRANCH  29  37
ENDBRANCH  25  27
ENDBRANCH  13  22
BRANCH   1  40
ATOM     40  C   LIG d   1       4.672 -10.222  -4.118  0.00  0.00     0.019 C 
ATOM     41  H   LIG d   1       5.586 -10.233  -3.525  0.00  0.00     0.049 H 
BRANCH  40  42
ATOM     42  C   LIG d   1       3.459 -10.219  -3.186  0.00  0.00    -0.047 C 
ATOM     43  H   LIG d   1       2.548 -10.325  -3.776  0.00  0.00     0.025 H 
ATOM     44  H   LIG d   1       3.537 -11.050  -2.485  0.00  0.00     0.025 H 
ATOM     45  H   LIG d   1       3.427  -9.279  -2.635  0.00  0.00     0.025 H 
ENDBRANCH  40  42
BRANCH  40  46
ATOM     46  C   LIG d   1       4.627 -11.465  -5.009  0.00  0.00    -0.047 C 
ATOM     47  H   LIG d   1       3.600 -11.822  -5.083  0.00  0.00     0.025 H 
ATOM     48  H   LIG d   1       4.997 -11.212  -6.003  0.00  0.00     0.025 H 
ATOM     49  H   LIG d   1       5.254 -12.245  -4.576  0.00  0.00     0.025 H 
ENDBRANCH  40  46
ENDBRANCH   1  40
TORSDOF 6
ENDMDL
MODEL 4
REMARK VINA RESULT:      -6.4      5.584      8.311
REMARK  6 active torsions:
REMARK  status: ('A' for Active; 'I' for Inactive)
REMARK    1  A    between atoms: C_1  and  C_2 
REMARK    2  A    between atoms: C_2  and  C_3 
REMARK    3  A    between atoms: C_2  and  N_4 
REMARK       I    between atoms: N_4  and  C_5 
REMARK       I    between atoms: C_5  and  N_7 
REMARK    4  A    between atoms: C_16  and  C_18 
REMARK    5  A    between atoms: C_20  and  C_23 
REMARK    6  A    between atoms: C_27  and  N_29 
ROOT
ATOM      1  N   LIG d   1       4.379   0.338  -8.005  0.00  0.00    -0.297 N 
ATOM      2  C   LIG d   1       5.527   0.360  -7.298  0.00  0.00     0.303 C 
ATOM      3  O   LIG d   1       6.402   1.155  -7.582  0.00  0.00    -0.253 OA
ATOM      4  N   LIG d   1       5.705  -0.502  -6.276  0.00  0.00    -0.266 N 
ATOM      5  C   LIG d   1       4.707  -1.548  -5.988  0.00  0.00     0.082 C 
ATOM      6  C   LIG d   1       4.494  -1.565  -4.492  0.00  0.00     0.162 A 
ATOM      7  C   LIG d   1       5.283  -0.908  -3.616  0.00  0.00     0.148 A 
ATOM      8  N   LIG d   1       4.790  -1.159  -2.372  0.00  0.00    -0.247 N 
ATOM      9  H   LIG d   1       5.144  -0.827  -1.533  0.00  0.00     0.310 HD
ATOM     10  C   LIG d   1       3.711  -1.961  -2.527  0.00  0.00     0.243 A 
ATOM     11  N   LIG d   1       3.543  -2.197  -3.803  0.00  0.00    -0.246 N 
ATOM     12  C   LIG d   1       6.471  -0.062  -3.993  0.00  0.00     0.041 C 
ATOM     13  C   LIG d   1       6.903  -0.424  -5.426  0.00  0.00     0.114 C 
ATOM     14  H   LIG d   1       7.574   0.342  -5.812  0.00  0.00     0.060 H 
ATOM     15  H   LIG d   1       3.713  -0.343  -7.827  0.00  0.00     0.150 HD
ATOM     16  H   LIG d   1       3.770  -1.315  -6.494  0.00  0.00     0.055 H 
ATOM     17  H   LIG d   1       5.079  -2.517  -6.321  0.00  0.00     0.055 H 
ATOM     18  H   LIG d   1       3.091  -2.343  -1.730  0.00  0.00     0.158 H 
ATOM     19  H   LIG d   1       6.199   0.992  -3.947  0.00  0.00     0.037 H 
ATOM     20  H   LIG d   1       7.294  -0.260  -3.305  0.00  0.00     0.037 H 
ATOM     21  H   LIG d   1       2.839  -2.744  -4.186  0.00  0.00     0.310 HD
ENDROOT
BRANCH  13  22
ATOM     22  C   LIG d   1       7.605  -1.757  -5.422  0.00  0.00     0.249 A 
ATOM     23  O   LIG d   1       8.075  -2.397  -6.501  0.00  0.00    -0.336 OA
ATOM     24  N   LIG d   1       8.656  -3.603  -6.029  0.00  0.00    -0.056 NA
ATOM     25  C   LIG d   1       8.493  -3.611  -4.730  0.00  0.00     0.202 A 
ATOM     26  N   LIG d   1       7.853  -2.484  -4.371  0.00  0.00    -0.190 NA
BRANCH  25  27
ATOM     27  C   LIG d   1       8.941  -4.683  -3.807  0.00  0.00     0.029 A 
ATOM     28  C   LIG d   1       8.791  -6.022  -4.166  0.00  0.00     0.026 A 
ATOM     29  C   LIG d   1       9.214  -7.016  -3.306  0.00  0.00     0.274 A 
ATOM     30  H   LIG d   1       8.350  -6.280  -5.116  0.00  0.00     0.069 H 
ATOM     31  C   LIG d   1       9.774  -6.685  -2.086  0.00  0.00     0.016 A 
ATOM     32  C   LIG d   1       9.920  -5.358  -1.722  0.00  0.00    -0.055 A 
ATOM     33  H   LIG d   1      10.100  -7.466  -1.414  0.00  0.00     0.069 H 
ATOM     34  C   LIG d   1       9.506  -4.356  -2.576  0.00  0.00    -0.051 A 
ATOM     35  H   LIG d   1      10.358  -5.107  -0.767  0.00  0.00     0.062 H 
ATOM     36  H   LIG d   1       9.621  -3.321  -2.291  0.00  0.00     0.062 H 
BRANCH  29  37
ATOM     37  N   LIG d   1       9.062  -8.437  -3.689  0.00  0.00     0.080 N 
ATOM     38  O   LIG d   1       8.089  -9.059  -3.330  0.00  0.00     0.041 OA
ATOM     39  O   LIG d   1       9.912  -8.977  -4.358  0.00  0.00    -0.576 OA
ENDBRANCH  29  37
ENDBRANCH  25  27
ENDBRANCH  13  22
BRANCH   1  40
ATOM     40  C   LIG d   1       4.139   1.346  -9.041  0.00  0.00     0.019 C 
ATOM     41  H   LIG d   1       5.000   2.011  -9.108  0.00  0.00     0.049 H 
BRANCH  40  42
ATOM     42  C   LIG d   1       3.924   0.652 -10.387  0.00  0.00    -0.047 C 
ATOM     43  H   LIG d   1       3.538   1.371 -11.109  0.00  0.00     0.025 H 
ATOM     44  H   LIG d   1       4.873   0.251 -10.745  0.00  0.00     0.025 H 
ATOM     45  H   LIG d   1       3.209  -0.162 -10.266  0.00  0.00     0.025 H 
ENDBRANCH  40  42
BRANCH  40  46
ATOM     46  C   LIG d   1       2.894   2.160  -8.683  0.00  0.00    -0.047 C 
ATOM     47  H   LIG d   1       2.309   2.346  -9.584  0.00  0.00     0.025 H 
ATOM     48  H   LIG d   1       2.290   1.602  -7.967  0.00  0.00     0.025 H 
ATOM     49  H   LIG d   1       3.195   3.109  -8.241  0.00  0.00     0.025 H 
ENDBRANCH  40  46
ENDBRANCH   1  40
TORSDOF 6
ENDMDL
MODEL 5
REMARK VINA RESULT:      -6.4      1.943      4.345
REMARK  6 active torsions:
REMARK  status: ('A' for Active; 'I' for Inactive)
REMARK    1  A    between atoms: C_1  and  C_2 
REMARK    2  A    between atoms: C_2  and  C_3 
REMARK    3  A    between atoms: C_2  and  N_4 
REMARK       I    between atoms: N_4  and  C_5 
REMARK       I    between atoms: C_5  and  N_7 
REMARK    4  A    between atoms: C_16  and  C_18 
REMARK    5  A    between atoms: C_20  and  C_23 
REMARK    6  A    between atoms: C_27  and  N_29 
ROOT
ATOM      1  N   LIG d   1      12.725   3.825  -7.176  0.00  0.00    -0.297 N 
ATOM      2  C   LIG d   1      12.307   2.827  -6.374  0.00  0.00     0.303 C 
ATOM      3  O   LIG d   1      12.843   1.737  -6.428  0.00  0.00    -0.253 OA
ATOM      4  N   LIG d   1      11.292   3.036  -5.511  0.00  0.00    -0.266 N 
ATOM      5  C   LIG d   1      10.554   4.312  -5.509  0.00  0.00     0.082 C 
ATOM      6  C   LIG d   1      10.383   4.729  -4.067  0.00  0.00     0.162 A 
ATOM      7  C   LIG d   1      10.646   3.922  -3.017  0.00  0.00     0.148 A 
ATOM      8  N   LIG d   1      10.372   4.635  -1.890  0.00  0.00    -0.247 N 
ATOM      9  H   LIG d   1      10.461   4.324  -0.976  0.00  0.00     0.310 HD
ATOM     10  C   LIG d   1       9.953   5.859  -2.286  0.00  0.00     0.243 A 
ATOM     11  N   LIG d   1       9.964   5.904  -3.594  0.00  0.00    -0.246 N 
ATOM     12  C   LIG d   1      11.152   2.507  -3.125  0.00  0.00     0.041 C 
ATOM     13  C   LIG d   1      10.891   1.995  -4.553  0.00  0.00     0.114 C 
ATOM     14  H   LIG d   1      11.475   1.092  -4.731  0.00  0.00     0.060 H 
ATOM     15  H   LIG d   1      12.251   4.670  -7.187  0.00  0.00     0.150 HD
ATOM     16  H   LIG d   1      11.122   5.069  -6.050  0.00  0.00     0.055 H 
ATOM     17  H   LIG d   1       9.578   4.176  -5.974  0.00  0.00     0.055 H 
ATOM     18  H   LIG d   1       9.658   6.666  -1.632  0.00  0.00     0.158 H 
ATOM     19  H   LIG d   1      12.222   2.485  -2.916  0.00  0.00     0.037 H 
ATOM     20  H   LIG d   1      10.624   1.875  -2.410  0.00  0.00     0.037 H 
ATOM     21  H   LIG d   1       9.709   6.670  -4.132  0.00  0.00     0.310 HD
ENDROOT
BRANCH  13  22
ATOM     22  C   LIG d   1       9.425   1.691  -4.723  0.00  0.00     0.249 A 
ATOM     23  O   LIG d   1       8.725   1.825  -5.856  0.00  0.00    -0.336 OA
ATOM     24  N   LIG d   1       7.396   1.426  -5.555  0.00  0.00    -0.056 NA
ATOM     25  C   LIG d   1       7.385   1.094  -4.288  0.00  0.00     0.202 A 
ATOM     26  N   LIG d   1       8.625   1.258  -3.792  0.00  0.00    -0.190 NA
BRANCH  25  27
ATOM     27  C   LIG d   1       6.205   0.615  -3.528  0.00  0.00     0.029 A 
ATOM     28  C   LIG d   1       5.732  -0.682  -3.715  0.00  0.00     0.026 A 
ATOM     29  C   LIG d   1       4.637  -1.125  -3.000  0.00  0.00     0.274 A 
ATOM     30  H   LIG d   1       6.225  -1.342  -4.412  0.00  0.00     0.069 H 
ATOM     31  C   LIG d   1       4.001  -0.279  -2.110  0.00  0.00     0.016 A 
ATOM     32  C   LIG d   1       4.463   1.012  -1.924  0.00  0.00    -0.055 A 
ATOM     33  H   LIG d   1       3.142  -0.627  -1.556  0.00  0.00     0.069 H 
ATOM     34  C   LIG d   1       5.561   1.464  -2.628  0.00  0.00    -0.051 A 
ATOM     35  H   LIG d   1       3.962   1.669  -1.227  0.00  0.00     0.062 H 
ATOM     36  H   LIG d   1       5.921   2.471  -2.483  0.00  0.00     0.062 H 
BRANCH  29  37
ATOM     37  N   LIG d   1       4.138  -2.505  -3.192  0.00  0.00     0.080 N 
ATOM     38  O   LIG d   1       4.317  -3.071  -4.245  0.00  0.00     0.041 OA
ATOM     39  O   LIG d   1       3.550  -3.065  -2.296  0.00  0.00    -0.576 OA
ENDBRANCH  29  37
ENDBRANCH  25  27
ENDBRANCH  13  22
BRANCH   1  40
ATOM     40  C   LIG d   1      13.898   3.633  -8.033  0.00  0.00     0.019 C 
ATOM     41  H   LIG d   1      14.350   2.665  -7.819  0.00  0.00     0.049 H 
BRANCH  40  42
ATOM     42  C   LIG d   1      13.471   3.682  -9.501  0.00  0.00    -0.047 C 
ATOM     43  H   LIG d   1      14.337   3.503 -10.138  0.00  0.00     0.025 H 
ATOM     44  H   LIG d   1      12.719   2.915  -9.687  0.00  0.00     0.025 H 
ATOM     45  H   LIG d   1      13.052   4.663  -9.725  0.00  0.00     0.025 H 
ENDBRANCH  40  42
BRANCH  40  46
ATOM     46  C   LIG d   1      14.916   4.742  -7.761  0.00  0.00    -0.047 C 
ATOM     47  H   LIG d   1      14.400   5.700  -7.691  0.00  0.00     0.025 H 
ATOM     48  H   LIG d   1      15.433   4.538  -6.823  0.00  0.00     0.025 H 
ATOM     49  H   LIG d   1      15.641   4.777  -8.574  0.00  0.00     0.025 H 
ENDBRANCH  40  46
ENDBRANCH   1  40
TORSDOF 6
ENDMDL
MODEL 6
REMARK VINA RESULT:      -6.3      1.878      2.372
REMARK  6 active torsions:
REMARK  status: ('A' for Active; 'I' for Inactive)
REMARK    1  A    between atoms: C_1  and  C_2 
REMARK    2  A    between atoms: C_2  and  C_3 
REMARK    3  A    between atoms: C_2  and  N_4 
REMARK       I    between atoms: N_4  and  C_5 
REMARK       I    between atoms: C_5  and  N_7 
REMARK    4  A    between atoms: C_16  and  C_18 
REMARK    5  A    between atoms: C_20  and  C_23 
REMARK    6  A    between atoms: C_27  and  N_29 
ROOT
ATOM      1  N   LIG d   1      11.210   5.831  -1.019  0.00  0.00    -0.297 N 
ATOM      2  C   LIG d   1      10.381   5.918  -2.078  0.00  0.00     0.303 C 
ATOM      3  O   LIG d   1       9.383   6.610  -2.015  0.00  0.00    -0.253 OA
ATOM      4  N   LIG d   1      10.658   5.236  -3.208  0.00  0.00    -0.266 N 
ATOM      5  C   LIG d   1      11.799   4.305  -3.267  0.00  0.00     0.082 C 
ATOM      6  C   LIG d   1      12.514   4.554  -4.574  0.00  0.00     0.162 A 
ATOM      7  C   LIG d   1      12.011   5.313  -5.571  0.00  0.00     0.148 A 
ATOM      8  N   LIG d   1      12.927   5.302  -6.579  0.00  0.00    -0.247 N 
ATOM      9  H   LIG d   1      12.851   5.756  -7.432  0.00  0.00     0.310 HD
ATOM     10  C   LIG d   1      13.964   4.538  -6.164  0.00  0.00     0.243 A 
ATOM     11  N   LIG d   1      13.706   4.095  -4.961  0.00  0.00    -0.246 N 
ATOM     12  C   LIG d   1      10.684   6.023  -5.526  0.00  0.00     0.041 C 
ATOM     13  C   LIG d   1       9.826   5.401  -4.410  0.00  0.00     0.114 C 
ATOM     14  H   LIG d   1       8.986   6.057  -4.184  0.00  0.00     0.060 H 
ATOM     15  H   LIG d   1      11.964   5.223  -1.042  0.00  0.00     0.150 HD
ATOM     16  H   LIG d   1      12.474   4.492  -2.432  0.00  0.00     0.055 H 
ATOM     17  H   LIG d   1      11.439   3.276  -3.231  0.00  0.00     0.055 H 
ATOM     18  H   LIG d   1      14.858   4.328  -6.732  0.00  0.00     0.158 H 
ATOM     19  H   LIG d   1      10.843   7.082  -5.320  0.00  0.00     0.037 H 
ATOM     20  H   LIG d   1      10.175   5.907  -6.483  0.00  0.00     0.037 H 
ATOM     21  H   LIG d   1      14.289   3.525  -4.434  0.00  0.00     0.310 HD
ENDROOT
BRANCH  13  22
ATOM     22  C   LIG d   1       9.313   4.056  -4.854  0.00  0.00     0.249 A 
ATOM     23  O   LIG d   1       9.395   3.558  -6.095  0.00  0.00    -0.336 OA
ATOM     24  N   LIG d   1       8.790   2.275  -6.052  0.00  0.00    -0.056 NA
ATOM     25  C   LIG d   1       8.387   2.094  -4.819  0.00  0.00     0.202 A 
ATOM     26  N   LIG d   1       8.710   3.184  -4.099  0.00  0.00    -0.190 NA
BRANCH  25  27
ATOM     27  C   LIG d   1       7.691   0.890  -4.302  0.00  0.00     0.029 A 
ATOM     28  C   LIG d   1       6.632   1.026  -3.405  0.00  0.00     0.026 A 
ATOM     29  C   LIG d   1       5.984  -0.097  -2.932  0.00  0.00     0.274 A 
ATOM     30  H   LIG d   1       6.317   2.007  -3.086  0.00  0.00     0.069 H 
ATOM     31  C   LIG d   1       6.392  -1.356  -3.335  0.00  0.00     0.016 A 
ATOM     32  C   LIG d   1       7.445  -1.496  -4.221  0.00  0.00    -0.055 A 
ATOM     33  H   LIG d   1       5.885  -2.232  -2.959  0.00  0.00     0.069 H 
ATOM     34  C   LIG d   1       8.097  -0.381  -4.706  0.00  0.00    -0.051 A 
ATOM     35  H   LIG d   1       7.759  -2.482  -4.533  0.00  0.00     0.062 H 
ATOM     36  H   LIG d   1       8.918  -0.491  -5.398  0.00  0.00     0.062 H 
BRANCH  29  37
ATOM     37  N   LIG d   1       4.856   0.045  -1.985  0.00  0.00     0.080 N 
ATOM     38  O   LIG d   1       4.521   1.143  -1.604  0.00  0.00     0.041 OA
ATOM     39  O   LIG d   1       4.269  -0.937  -1.592  0.00  0.00    -0.576 OA
ENDBRANCH  29  37
ENDBRANCH  25  27
ENDBRANCH  13  22
BRANCH   1  40
ATOM     40  C   LIG d   1      10.970   6.657   0.168  0.00  0.00     0.019 C 
ATOM     41  H   LIG d   1       9.977   7.102   0.106  0.00  0.00     0.049 H 
BRANCH  40  42
ATOM     42  C   LIG d   1      11.062   5.786   1.422  0.00  0.00    -0.047 C 
ATOM     43  H   LIG d   1      10.230   5.082   1.437  0.00  0.00     0.025 H 
ATOM     44  H   LIG d   1      12.004   5.236   1.414  0.00  0.00     0.025 H 
ATOM     45  H   LIG d   1      11.019   6.419   2.308  0.00  0.00     0.025 H 
ENDBRANCH  40  42
BRANCH  40  46
ATOM     46  C   LIG d   1      12.023   7.766   0.239  0.00  0.00    -0.047 C 
ATOM     47  H   LIG d   1      11.912   8.312   1.175  0.00  0.00     0.025 H 
ATOM     48  H   LIG d   1      13.018   7.324   0.190  0.00  0.00     0.025 H 
ATOM     49  H   LIG d   1      11.887   8.449  -0.600  0.00  0.00     0.025 H 
ENDBRANCH  40  46
ENDBRANCH   1  40
TORSDOF 6
ENDMDL
MODEL 7
REMARK VINA RESULT:      -6.3      7.386      9.849
REMARK  6 active torsions:
REMARK  status: ('A' for Active; 'I' for Inactive)
REMARK    1  A    between atoms: C_1  and  C_2 
REMARK    2  A    between atoms: C_2  and  C_3 
REMARK    3  A    between atoms: C_2  and  N_4 
REMARK       I    between atoms: N_4  and  C_5 
REMARK       I    between atoms: C_5  and  N_7 
REMARK    4  A    between atoms: C_16  and  C_18 
REMARK    5  A    between atoms: C_20  and  C_23 
REMARK    6  A    between atoms: C_27  and  N_29 
ROOT
ATOM      1  N   LIG d   1       4.050  -0.415  -4.307  0.00  0.00    -0.297 N 
ATOM      2  C   LIG d   1       3.194  -0.096  -5.298  0.00  0.00     0.303 C 
ATOM      3  O   LIG d   1       2.040   0.185  -5.039  0.00  0.00    -0.253 OA
ATOM      4  N   LIG d   1       3.618  -0.088  -6.578  0.00  0.00    -0.266 N 
ATOM      5  C   LIG d   1       4.980  -0.534  -6.924  0.00  0.00     0.082 C 
ATOM      6  C   LIG d   1       5.543   0.465  -7.908  0.00  0.00     0.162 A 
ATOM      7  C   LIG d   1       4.803   1.417  -8.515  0.00  0.00     0.148 A 
ATOM      8  N   LIG d   1       5.645   2.117  -9.325  0.00  0.00    -0.247 N 
ATOM      9  H   LIG d   1       5.407   2.865  -9.895  0.00  0.00     0.310 HD
ATOM     10  C   LIG d   1       6.875   1.571  -9.186  0.00  0.00     0.243 A 
ATOM     11  N   LIG d   1       6.802   0.582  -8.333  0.00  0.00    -0.246 N 
ATOM     12  C   LIG d   1       3.328   1.630  -8.297  0.00  0.00     0.041 C 
ATOM     13  C   LIG d   1       2.732   0.360  -7.662  0.00  0.00     0.114 C 
ATOM     14  H   LIG d   1       1.745   0.581  -7.258  0.00  0.00     0.060 H 
ATOM     15  H   LIG d   1       4.948  -0.710  -4.518  0.00  0.00     0.150 HD
ATOM     16  H   LIG d   1       5.600  -0.563  -6.028  0.00  0.00     0.055 H 
ATOM     17  H   LIG d   1       4.941  -1.523  -7.381  0.00  0.00     0.055 H 
ATOM     18  H   LIG d   1       7.770   1.898  -9.694  0.00  0.00     0.158 H 
ATOM     19  H   LIG d   1       3.176   2.480  -7.632  0.00  0.00     0.037 H 
ATOM     20  H   LIG d   1       2.842   1.820  -9.254  0.00  0.00     0.037 H 
ATOM     21  H   LIG d   1       7.546   0.024  -8.055  0.00  0.00     0.310 HD
ENDROOT
BRANCH  13  22
ATOM     22  C   LIG d   1       2.622  -0.723  -8.703  0.00  0.00     0.249 A 
ATOM     23  O   LIG d   1       2.937  -2.013  -8.527  0.00  0.00    -0.336 OA
ATOM     24  N   LIG d   1       2.675  -2.662  -9.762  0.00  0.00    -0.056 NA
ATOM     25  C   LIG d   1       2.238  -1.739 -10.582  0.00  0.00     0.202 A 
ATOM     26  N   LIG d   1       2.209  -0.563  -9.928  0.00  0.00    -0.190 NA
BRANCH  25  27
ATOM     27  C   LIG d   1       1.839  -1.952 -11.995  0.00  0.00     0.029 A 
ATOM     28  C   LIG d   1       0.506  -2.203 -12.314  0.00  0.00     0.026 A 
ATOM     29  C   LIG d   1       0.139  -2.395 -13.632  0.00  0.00     0.274 A 
ATOM     30  H   LIG d   1      -0.239  -2.241 -11.535  0.00  0.00     0.069 H 
ATOM     31  C   LIG d   1       1.094  -2.352 -14.631  0.00  0.00     0.016 A 
ATOM     32  C   LIG d   1       2.420  -2.109 -14.318  0.00  0.00    -0.055 A 
ATOM     33  H   LIG d   1       0.804  -2.508 -15.660  0.00  0.00     0.069 H 
ATOM     34  C   LIG d   1       2.797  -1.910 -13.006  0.00  0.00    -0.051 A 
ATOM     35  H   LIG d   1       3.161  -2.077 -15.104  0.00  0.00     0.062 H 
ATOM     36  H   LIG d   1       3.832  -1.719 -12.764  0.00  0.00     0.062 H 
BRANCH  29  37
ATOM     37  N   LIG d   1      -1.277  -2.655 -13.974  0.00  0.00     0.080 N 
ATOM     38  O   LIG d   1      -2.109  -2.717 -13.098  0.00  0.00     0.041 OA
ATOM     39  O   LIG d   1      -1.602  -2.805 -15.129  0.00  0.00    -0.576 OA
ENDBRANCH  29  37
ENDBRANCH  25  27
ENDBRANCH  13  22
BRANCH   1  40
ATOM     40  C   LIG d   1       3.621  -0.315  -2.909  0.00  0.00     0.019 C 
ATOM     41  H   LIG d   1       2.546  -0.135  -2.871  0.00  0.00     0.049 H 
BRANCH  40  42
ATOM     42  C   LIG d   1       3.945  -1.622  -2.182  0.00  0.00    -0.047 C 
ATOM     43  H   LIG d   1       3.059  -1.972  -1.653  0.00  0.00     0.025 H 
ATOM     44  H   LIG d   1       4.257  -2.374  -2.907  0.00  0.00     0.025 H 
ATOM     45  H   LIG d   1       4.751  -1.449  -1.468  0.00  0.00     0.025 H 
ENDBRANCH  40  42
BRANCH  40  46
ATOM     46  C   LIG d   1       4.356   0.842  -2.231  0.00  0.00    -0.047 C 
ATOM     47  H   LIG d   1       3.651   1.644  -2.014  0.00  0.00     0.025 H 
ATOM     48  H   LIG d   1       4.806   0.491  -1.302  0.00  0.00     0.025 H 
ATOM     49  H   LIG d   1       5.138   1.214  -2.894  0.00  0.00     0.025 H 
ENDBRANCH  40  46
ENDBRANCH   1  40
TORSDOF 6
ENDMDL
MODEL 8
REMARK VINA RESULT:      -6.2      4.534      8.520
REMARK  6 active torsions:
REMARK  status: ('A' for Active; 'I' for Inactive)
REMARK    1  A    between atoms: C_1  and  C_2 
REMARK    2  A    between atoms: C_2  and  C_3 
REMARK    3  A    between atoms: C_2  and  N_4 
REMARK       I    between atoms: N_4  and  C_5 
REMARK       I    between atoms: C_5  and  N_7 
REMARK    4  A    between atoms: C_16  and  C_18 
REMARK    5  A    between atoms: C_20  and  C_23 
REMARK    6  A    between atoms: C_27  and  N_29 
ROOT
ATOM      1  N   LIG d   1       8.770  -3.630  -3.170  0.00  0.00    -0.297 N 
ATOM      2  C   LIG d   1       8.146  -3.523  -4.360  0.00  0.00     0.303 C 
ATOM      3  O   LIG d   1       8.468  -4.246  -5.283  0.00  0.00    -0.253 OA
ATOM      4  N   LIG d   1       7.164  -2.614  -4.527  0.00  0.00    -0.266 N 
ATOM      5  C   LIG d   1       6.836  -1.653  -3.459  0.00  0.00     0.082 C 
ATOM      6  C   LIG d   1       5.330  -1.603  -3.347  0.00  0.00     0.162 A 
ATOM      7  C   LIG d   1       4.493  -2.156  -4.251  0.00  0.00     0.148 A 
ATOM      8  N   LIG d   1       3.225  -1.907  -3.822  0.00  0.00    -0.247 N 
ATOM      9  H   LIG d   1       2.404  -2.177  -4.261  0.00  0.00     0.310 HD
ATOM     10  C   LIG d   1       3.327  -1.211  -2.665  0.00  0.00     0.243 A 
ATOM     11  N   LIG d   1       4.594  -1.035  -2.391  0.00  0.00    -0.246 N 
ATOM     12  C   LIG d   1       4.929  -2.904  -5.483  0.00  0.00     0.041 C 
ATOM     13  C   LIG d   1       6.398  -2.555  -5.781  0.00  0.00     0.114 C 
ATOM     14  H   LIG d   1       6.809  -3.271  -6.493  0.00  0.00     0.060 H 
ATOM     15  H   LIG d   1       8.565  -3.005  -2.458  0.00  0.00     0.150 HD
ATOM     16  H   LIG d   1       7.268  -1.986  -2.515  0.00  0.00     0.055 H 
ATOM     17  H   LIG d   1       7.222  -0.667  -3.716  0.00  0.00     0.055 H 
ATOM     18  H   LIG d   1       2.499  -0.859  -2.068  0.00  0.00     0.158 H 
ATOM     19  H   LIG d   1       4.834  -3.977  -5.312  0.00  0.00     0.037 H 
ATOM     20  H   LIG d   1       4.307  -2.610  -6.329  0.00  0.00     0.037 H 
ATOM     21  H   LIG d   1       4.941  -0.567  -1.615  0.00  0.00     0.310 HD
ENDROOT
BRANCH  13  22
ATOM     22  C   LIG d   1       6.483  -1.165  -6.357  0.00  0.00     0.249 A 
ATOM     23  O   LIG d   1       5.503  -0.528  -7.011  0.00  0.00    -0.336 OA
ATOM     24  N   LIG d   1       6.020   0.745  -7.366  0.00  0.00    -0.056 NA
ATOM     25  C   LIG d   1       7.250   0.785  -6.918  0.00  0.00     0.202 A 
ATOM     26  N   LIG d   1       7.522  -0.382  -6.305  0.00  0.00    -0.190 NA
BRANCH  25  27
ATOM     27  C   LIG d   1       8.189   1.926  -7.061  0.00  0.00     0.029 A 
ATOM     28  C   LIG d   1       8.322   2.571  -8.289  0.00  0.00     0.026 A 
ATOM     29  C   LIG d   1       9.192   3.636  -8.415  0.00  0.00     0.274 A 
ATOM     30  H   LIG d   1       7.742   2.243  -9.138  0.00  0.00     0.069 H 
ATOM     31  C   LIG d   1       9.939   4.054  -7.329  0.00  0.00     0.016 A 
ATOM     32  C   LIG d   1       9.815   3.413  -6.109  0.00  0.00    -0.055 A 
ATOM     33  H   LIG d   1      10.622   4.884  -7.433  0.00  0.00     0.069 H 
ATOM     34  C   LIG d   1       8.944   2.352  -5.970  0.00  0.00    -0.051 A 
ATOM     35  H   LIG d   1      10.401   3.744  -5.265  0.00  0.00     0.062 H 
ATOM     36  H   LIG d   1       8.847   1.853  -5.017  0.00  0.00     0.062 H 
BRANCH  29  37
ATOM     37  N   LIG d   1       9.329   4.327  -9.716  0.00  0.00     0.080 N 
ATOM     38  O   LIG d   1       8.418   4.997 -10.145  0.00  0.00     0.041 OA
ATOM     39  O   LIG d   1      10.353   4.221 -10.352  0.00  0.00    -0.576 OA
ENDBRANCH  29  37
ENDBRANCH  25  27
ENDBRANCH  13  22
BRANCH   1  40
ATOM     40  C   LIG d   1       9.757  -4.691  -2.954  0.00  0.00     0.019 C 
ATOM     41  H   LIG d   1       9.628  -5.467  -3.708  0.00  0.00     0.049 H 
BRANCH  40  42
ATOM     42  C   LIG d   1      11.167  -4.104  -3.062  0.00  0.00    -0.047 C 
ATOM     43  H   LIG d   1      11.893  -4.842  -2.721  0.00  0.00     0.025 H 
ATOM     44  H   LIG d   1      11.373  -3.843  -4.100  0.00  0.00     0.025 H 
ATOM     45  H   LIG d   1      11.237  -3.211  -2.441  0.00  0.00     0.025 H 
ENDBRANCH  40  42
BRANCH  40  46
ATOM     46  C   LIG d   1       9.562  -5.294  -1.562  0.00  0.00    -0.047 C 
ATOM     47  H   LIG d   1       8.512  -5.551  -1.421  0.00  0.00     0.025 H 
ATOM     48  H   LIG d   1      10.172  -6.193  -1.467  0.00  0.00     0.025 H 
ATOM     49  H   LIG d   1       9.864  -4.569  -0.806  0.00  0.00     0.025 H 
ENDBRANCH  40  46
ENDBRANCH   1  40
TORSDOF 6
ENDMDL
MODEL 9
REMARK VINA RESULT:      -6.2      3.086      3.774
REMARK  6 active torsions:
REMARK  status: ('A' for Active; 'I' for Inactive)
REMARK    1  A    between atoms: C_1  and  C_2 
REMARK    2  A    between atoms: C_2  and  C_3 
REMARK    3  A    between atoms: C_2  and  N_4 
REMARK       I    between atoms: N_4  and  C_5 
REMARK       I    between atoms: C_5  and  N_7 
REMARK    4  A    between atoms: C_16  and  C_18 
REMARK    5  A    between atoms: C_20  and  C_23 
REMARK    6  A    between atoms: C_27  and  N_29 
ROOT
ATOM      1  N   LIG d   1      10.194   4.480  -5.293  0.00  0.00    -0.297 N 
ATOM      2  C   LIG d   1      10.077   3.366  -6.042  0.00  0.00     0.303 C 
ATOM      3  O   LIG d   1       9.612   3.432  -7.164  0.00  0.00    -0.253 OA
ATOM      4  N   LIG d   1      10.474   2.176  -5.547  0.00  0.00    -0.266 N 
ATOM      5  C   LIG d   1      10.934   2.055  -4.152  0.00  0.00     0.082 C 
ATOM      6  C   LIG d   1      12.180   1.201  -4.163  0.00  0.00     0.162 A 
ATOM      7  C   LIG d   1      12.598   0.499  -5.237  0.00  0.00     0.148 A 
ATOM      8  N   LIG d   1      13.742  -0.144  -4.871  0.00  0.00    -0.247 N 
ATOM      9  H   LIG d   1      14.277  -0.729  -5.428  0.00  0.00     0.310 HD
ATOM     10  C   LIG d   1      13.989   0.190  -3.583  0.00  0.00     0.243 A 
ATOM     11  N   LIG d   1      13.047   0.997  -3.169  0.00  0.00    -0.246 N 
ATOM     12  C   LIG d   1      11.899   0.469  -6.571  0.00  0.00     0.041 C 
ATOM     13  C   LIG d   1      10.454   0.967  -6.385  0.00  0.00     0.114 C 
ATOM     14  H   LIG d   1      10.020   1.204  -7.356  0.00  0.00     0.060 H 
ATOM     15  H   LIG d   1      10.495   4.417  -4.374  0.00  0.00     0.150 HD
ATOM     16  H   LIG d   1      11.162   3.042  -3.750  0.00  0.00     0.055 H 
ATOM     17  H   LIG d   1      10.162   1.577  -3.548  0.00  0.00     0.055 H 
ATOM     18  H   LIG d   1      14.826  -0.154  -2.994  0.00  0.00     0.158 H 
ATOM     19  H   LIG d   1      12.423   1.117  -7.273  0.00  0.00     0.037 H 
ATOM     20  H   LIG d   1      11.884  -0.552  -6.953  0.00  0.00     0.037 H 
ATOM     21  H   LIG d   1      12.989   1.385  -2.281  0.00  0.00     0.310 HD
ENDROOT
BRANCH  13  22
ATOM     22  C   LIG d   1       9.633  -0.100  -5.710  0.00  0.00     0.249 A 
ATOM     23  O   LIG d   1      10.008  -1.370  -5.514  0.00  0.00    -0.336 OA
ATOM     24  N   LIG d   1       8.931  -2.008  -4.844  0.00  0.00    -0.056 NA
ATOM     25  C   LIG d   1       7.998  -1.100  -4.693  0.00  0.00     0.202 A 
ATOM     26  N   LIG d   1       8.435   0.056  -5.222  0.00  0.00    -0.190 NA
BRANCH  25  27
ATOM     27  C   LIG d   1       6.680  -1.312  -4.045  0.00  0.00     0.029 A 
ATOM     28  C   LIG d   1       6.090  -0.285  -3.311  0.00  0.00     0.026 A 
ATOM     29  C   LIG d   1       4.861  -0.485  -2.714  0.00  0.00     0.274 A 
ATOM     30  H   LIG d   1       6.590   0.666  -3.213  0.00  0.00     0.069 H 
ATOM     31  C   LIG d   1       4.222  -1.706  -2.834  0.00  0.00     0.016 A 
ATOM     32  C   LIG d   1       4.806  -2.730  -3.557  0.00  0.00    -0.055 A 
ATOM     33  H   LIG d   1       3.262  -1.860  -2.363  0.00  0.00     0.069 H 
ATOM     34  C   LIG d   1       6.031  -2.540  -4.163  0.00  0.00    -0.051 A 
ATOM     35  H   LIG d   1       4.302  -3.682  -3.647  0.00  0.00     0.062 H 
ATOM     36  H   LIG d   1       6.486  -3.340  -4.727  0.00  0.00     0.062 H 
BRANCH  29  37
ATOM     37  N   LIG d   1       4.229   0.606  -1.940  0.00  0.00     0.080 N 
ATOM     38  O   LIG d   1       3.070   0.892  -2.133  0.00  0.00     0.041 OA
ATOM     39  O   LIG d   1       4.872   1.213  -1.116  0.00  0.00    -0.576 OA
ENDBRANCH  29  37
ENDBRANCH  25  27
ENDBRANCH  13  22
BRANCH   1  40
ATOM     40  C   LIG d   1       9.868   5.787  -5.870  0.00  0.00     0.019 C 
ATOM     41  H   LIG d   1       9.220   5.651  -6.735  0.00  0.00     0.049 H 
BRANCH  40  42
ATOM     42  C   LIG d   1       9.148   6.640  -4.823  0.00  0.00    -0.047 C 
ATOM     43  H   LIG d   1       9.859   6.951  -4.058  0.00  0.00     0.025 H 
ATOM     44  H   LIG d   1       8.721   7.521  -5.303  0.00  0.00     0.025 H 
ATOM     45  H   LIG d   1       8.351   6.055  -4.363  0.00  0.00     0.025 H 
ENDBRANCH  40  42
BRANCH  40  46
ATOM     46  C   LIG d   1      11.156   6.490  -6.302  0.00  0.00    -0.047 C 
ATOM     47  H   LIG d   1      12.015   5.951  -5.905  0.00  0.00     0.025 H 
ATOM     48  H   LIG d   1      11.210   6.510  -7.391  0.00  0.00     0.025 H 
ATOM     49  H   LIG d   1      11.158   7.511  -5.920  0.00  0.00     0.025 H 
ENDBRANCH  40  46
ENDBRANCH   1  40
TORSDOF 6
ENDMDL
