MODEL 1
REMARK VINA RESULT:      -6.0      0.000      0.000
REMARK  12 active torsions:
REMARK  status: ('A' for Active; 'I' for Inactive)
REMARK    1  A    between atoms: C_1  and  C_2 
REMARK    2  A    between atoms: C_2  and  C_3 
REMARK    3  A    between atoms: C_3  and  C_4 
REMARK    4  A    between atoms: C_4  and  C_5 
REMARK    5  A    between atoms: C_5  and  C_6 
REMARK    6  A    between atoms: C_6  and  C_8 
REMARK    7  A    between atoms: C_6  and  C_23 
REMARK    8  A    between atoms: C_8  and  C_10 
REMARK    9  A    between atoms: C_8  and  C_11 
REMARK   10  A    between atoms: C_11  and  C_12 
REMARK       I    between atoms: C_12  and  N_14 
REMARK   11  A    between atoms: N_14  and  C_15 
REMARK   12  A    between atoms: C_18  and  C_21 
ROOT
ATOM      1  C   LIG d   1       6.108  -0.600  -4.102  0.00  0.00    -0.028 C 
ATOM      2  H   LIG d   1       5.618   0.262  -3.647  0.00  0.00     0.031 H 
ENDROOT
BRANCH   1   3
ATOM      3  C   LIG d   1       5.788  -1.856  -3.290  0.00  0.00     0.002 C 
ATOM      4  H   LIG d   1       6.644  -2.113  -2.667  0.00  0.00     0.036 H 
BRANCH   3   5
ATOM      5  C   LIG d   1       4.571  -1.592  -2.402  0.00  0.00    -0.045 C 
ATOM      6  H   LIG d   1       4.605  -2.250  -1.534  0.00  0.00     0.027 H 
ATOM      7  H   LIG d   1       3.659  -1.785  -2.968  0.00  0.00     0.027 H 
BRANCH   5   8
ATOM      8  C   LIG d   1       4.585  -0.134  -1.937  0.00  0.00    -0.052 C 
ATOM      9  H   LIG d   1       5.466   0.367  -2.338  0.00  0.00     0.026 H 
ATOM     10  H   LIG d   1       4.612  -0.101  -0.848  0.00  0.00     0.026 H 
BRANCH   8  11
ATOM     11  C   LIG d   1       3.324   0.572  -2.438  0.00  0.00    -0.053 C 
ATOM     12  H   LIG d   1       2.725   0.894  -1.587  0.00  0.00     0.026 H 
ATOM     13  H   LIG d   1       3.606   1.441  -3.033  0.00  0.00     0.026 H 
BRANCH  11  14
ATOM     14  C   LIG d   1       2.508  -0.393  -3.301  0.00  0.00    -0.056 C 
ATOM     15  H   LIG d   1       3.066  -1.319  -3.436  0.00  0.00     0.026 H 
ATOM     16  H   LIG d   1       1.560  -0.609  -2.808  0.00  0.00     0.026 H 
BRANCH  14  17
ATOM     17  C   LIG d   1       2.240   0.244  -4.666  0.00  0.00    -0.065 C 
ATOM     18  H   LIG d   1       2.370   1.323  -4.595  0.00  0.00     0.023 H 
ATOM     19  H   LIG d   1       2.940  -0.159  -5.398  0.00  0.00     0.023 H 
ATOM     20  H   LIG d   1       1.219   0.021  -4.978  0.00  0.00     0.023 H 
ENDBRANCH  14  17
ENDBRANCH  11  14
ENDBRANCH   8  11
ENDBRANCH   5   8
ENDBRANCH   3   5
BRANCH   3  21
ATOM     21  C   LIG d   1       5.488  -2.997  -4.227  0.00  0.00     0.045 C 
ATOM     22  O   LIG d   1       4.343  -3.311  -4.450  0.00  0.00    -0.549 OA
ATOM     23  O   LIG d   1       6.493  -3.667  -4.814  0.00  0.00    -0.549 OA
ENDBRANCH   3  21
ENDBRANCH   1   3
BRANCH   1  24
ATOM     24  C   LIG d   1       5.602  -0.776  -5.535  0.00  0.00    -0.061 C 
ATOM     25  H   LIG d   1       6.080  -0.040  -6.182  0.00  0.00     0.023 H 
ATOM     26  H   LIG d   1       5.844  -1.779  -5.885  0.00  0.00     0.023 H 
ATOM     27  H   LIG d   1       4.522  -0.633  -5.560  0.00  0.00     0.023 H 
ENDBRANCH   1  24
BRANCH   1  28
ATOM     28  C   LIG d   1       7.621  -0.375  -4.120  0.00  0.00     0.027 C 
ATOM     29  H   LIG d   1       8.087  -0.976  -3.340  0.00  0.00     0.036 H 
ATOM     30  H   LIG d   1       8.020  -0.668  -5.091  0.00  0.00     0.036 H 
BRANCH  28  31
ATOM     31  C   LIG d   1       7.916   1.083  -3.875  0.00  0.00     0.217 C 
ATOM     32  O   LIG d   1       7.027   1.831  -3.529  0.00  0.00    -0.276 OA
ATOM     33  N   LIG d   1       9.168   1.555  -4.040  0.00  0.00    -0.285 N 
ATOM     34  H   LIG d   1       9.893   0.943  -4.242  0.00  0.00     0.155 HD
BRANCH  33  35
ATOM     35  C   LIG d   1       9.419   2.920  -3.921  0.00  0.00     0.033 A 
ATOM     36  C   LIG d   1       9.976   3.423  -2.749  0.00  0.00    -0.040 A 
ATOM     37  C   LIG d   1      10.225   4.772  -2.627  0.00  0.00    -0.051 A 
ATOM     38  H   LIG d   1      10.211   2.756  -1.933  0.00  0.00     0.064 H 
ATOM     39  C   LIG d   1       9.919   5.636  -3.683  0.00  0.00    -0.003 A 
ATOM     40  H   LIG d   1      10.657   5.162  -1.717  0.00  0.00     0.062 H 
ATOM     41  C   LIG d   1       9.361   5.127  -4.859  0.00  0.00    -0.051 A 
ATOM     42  C   LIG d   1       9.119   3.776  -4.975  0.00  0.00    -0.040 A 
ATOM     43  H   LIG d   1       9.123   5.791  -5.677  0.00  0.00     0.062 H 
ATOM     44  H   LIG d   1       8.691   3.382  -5.886  0.00  0.00     0.064 H 
BRANCH  39  45
ATOM     45  C   LIG d   1      10.186   7.081  -3.557  0.00  0.00     0.072 C 
ATOM     46  O   LIG d   1      10.624   7.529  -2.516  0.00  0.00    -0.545 OA
ATOM     47  O   LIG d   1       9.942   7.904  -4.596  0.00  0.00    -0.545 OA
ENDBRANCH  39  45
ENDBRANCH  33  35
ENDBRANCH  28  31
ENDBRANCH   1  28
TORSDOF 12
ENDMDL
MODEL 2
REMARK VINA RESULT:      -5.9      0.939      1.726
REMARK  12 active torsions:
REMARK  status: ('A' for Active; 'I' for Inactive)
REMARK    1  A    between atoms: C_1  and  C_2 
REMARK    2  A    between atoms: C_2  and  C_3 
REMARK    3  A    between atoms: C_3  and  C_4 
REMARK    4  A    between atoms: C_4  and  C_5 
REMARK    5  A    between atoms: C_5  and  C_6 
REMARK    6  A    between atoms: C_6  and  C_8 
REMARK    7  A    between atoms: C_6  and  C_23 
REMARK    8  A    between atoms: C_8  and  C_10 
REMARK    9  A    between atoms: C_8  and  C_11 
REMARK   10  A    between atoms: C_11  and  C_12 
REMARK       I    between atoms: C_12  and  N_14 
REMARK   11  A    between atoms: N_14  and  C_15 
REMARK   12  A    between atoms: C_18  and  C_21 
ROOT
ATOM      1  C   LIG d   1       6.347  -0.588  -4.334  0.00  0.00    -0.028 C 
ATOM      2  H   LIG d   1       5.877   0.238  -3.799  0.00  0.00     0.031 H 
ENDROOT
BRANCH   1   3
ATOM      3  C   LIG d   1       6.263  -1.858  -3.486  0.00  0.00     0.002 C 
ATOM      4  H   LIG d   1       6.615  -1.645  -2.478  0.00  0.00     0.036 H 
BRANCH   3   5
ATOM      5  C   LIG d   1       4.811  -2.338  -3.429  0.00  0.00    -0.045 C 
ATOM      6  H   LIG d   1       4.790  -3.421  -3.309  0.00  0.00     0.027 H 
ATOM      7  H   LIG d   1       4.302  -2.065  -4.354  0.00  0.00     0.027 H 
BRANCH   5   8
ATOM      8  C   LIG d   1       4.103  -1.679  -2.243  0.00  0.00    -0.052 C 
ATOM      9  H   LIG d   1       4.813  -1.061  -1.694  0.00  0.00     0.026 H 
ATOM     10  H   LIG d   1       3.706  -2.451  -1.584  0.00  0.00     0.026 H 
BRANCH   8  11
ATOM     11  C   LIG d   1       2.956  -0.806  -2.756  0.00  0.00    -0.053 C 
ATOM     12  H   LIG d   1       2.756  -1.044  -3.800  0.00  0.00     0.026 H 
ATOM     13  H   LIG d   1       2.062  -0.995  -2.162  0.00  0.00     0.026 H 
BRANCH  11  14
ATOM     14  C   LIG d   1       3.346   0.669  -2.635  0.00  0.00    -0.056 C 
ATOM     15  H   LIG d   1       3.699   1.031  -3.600  0.00  0.00     0.026 H 
ATOM     16  H   LIG d   1       2.479   1.250  -2.323  0.00  0.00     0.026 H 
BRANCH  14  17
ATOM     17  C   LIG d   1       4.460   0.819  -1.596  0.00  0.00    -0.065 C 
ATOM     18  H   LIG d   1       4.157   0.337  -0.667  0.00  0.00     0.023 H 
ATOM     19  H   LIG d   1       5.370   0.350  -1.969  0.00  0.00     0.023 H 
ATOM     20  H   LIG d   1       4.645   1.878  -1.412  0.00  0.00     0.023 H 
ENDBRANCH  14  17
ENDBRANCH  11  14
ENDBRANCH   8  11
ENDBRANCH   5   8
ENDBRANCH   3   5
BRANCH   3  21
ATOM     21  C   LIG d   1       7.122  -2.931  -4.103  0.00  0.00     0.045 C 
ATOM     22  O   LIG d   1       6.689  -3.607  -5.007  0.00  0.00    -0.549 OA
ATOM     23  O   LIG d   1       8.368  -3.139  -3.648  0.00  0.00    -0.549 OA
ENDBRANCH   3  21
ENDBRANCH   1   3
BRANCH   1  24
ATOM     24  C   LIG d   1       5.622  -0.812  -5.663  0.00  0.00    -0.061 C 
ATOM     25  H   LIG d   1       6.047  -0.156  -6.424  0.00  0.00     0.023 H 
ATOM     26  H   LIG d   1       5.742  -1.851  -5.971  0.00  0.00     0.023 H 
ATOM     27  H   LIG d   1       4.563  -0.590  -5.542  0.00  0.00     0.023 H 
ENDBRANCH   1  24
BRANCH   1  28
ATOM     28  C   LIG d   1       7.814  -0.251  -4.604  0.00  0.00     0.027 C 
ATOM     29  H   LIG d   1       8.453  -0.974  -4.098  0.00  0.00     0.036 H 
ATOM     30  H   LIG d   1       8.004  -0.287  -5.677  0.00  0.00     0.036 H 
BRANCH  28  31
ATOM     31  C   LIG d   1       8.115   1.133  -4.089  0.00  0.00     0.217 C 
ATOM     32  O   LIG d   1       7.282   1.735  -3.445  0.00  0.00    -0.276 OA
ATOM     33  N   LIG d   1       9.311   1.702  -4.342  0.00  0.00    -0.285 N 
ATOM     34  H   LIG d   1      10.005   1.193  -4.790  0.00  0.00     0.155 HD
BRANCH  33  35
ATOM     35  C   LIG d   1       9.549   3.021  -3.961  0.00  0.00     0.033 A 
ATOM     36  C   LIG d   1       9.162   4.065  -4.797  0.00  0.00    -0.040 A 
ATOM     37  C   LIG d   1       9.396   5.369  -4.425  0.00  0.00    -0.051 A 
ATOM     38  H   LIG d   1       8.679   3.851  -5.739  0.00  0.00     0.064 H 
ATOM     39  C   LIG d   1      10.022   5.646  -3.205  0.00  0.00    -0.003 A 
ATOM     40  H   LIG d   1       9.095   6.179  -5.073  0.00  0.00     0.062 H 
ATOM     41  C   LIG d   1      10.409   4.595  -2.368  0.00  0.00    -0.051 A 
ATOM     42  C   LIG d   1      10.167   3.292  -2.745  0.00  0.00    -0.040 A 
ATOM     43  H   LIG d   1      10.893   4.803  -1.425  0.00  0.00     0.062 H 
ATOM     44  H   LIG d   1      10.463   2.480  -2.097  0.00  0.00     0.064 H 
BRANCH  39  45
ATOM     45  C   LIG d   1      10.274   7.041  -2.802  0.00  0.00     0.072 C 
ATOM     46  O   LIG d   1      11.140   7.687  -3.358  0.00  0.00    -0.545 OA
ATOM     47  O   LIG d   1       9.544   7.601  -1.817  0.00  0.00    -0.545 OA
ENDBRANCH  39  45
ENDBRANCH  33  35
ENDBRANCH  28  31
ENDBRANCH   1  28
TORSDOF 12
ENDMDL
MODEL 3
REMARK VINA RESULT:      -5.9      4.926      8.419
REMARK  12 active torsions:
REMARK  status: ('A' for Active; 'I' for Inactive)
REMARK    1  A    between atoms: C_1  and  C_2 
REMARK    2  A    between atoms: C_2  and  C_3 
REMARK    3  A    between atoms: C_3  and  C_4 
REMARK    4  A    between atoms: C_4  and  C_5 
REMARK    5  A    between atoms: C_5  and  C_6 
REMARK    6  A    between atoms: C_6  and  C_8 
REMARK    7  A    between atoms: C_6  and  C_23 
REMARK    8  A    between atoms: C_8  and  C_10 
REMARK    9  A    between atoms: C_8  and  C_11 
REMARK   10  A    between atoms: C_11  and  C_12 
REMARK       I    between atoms: C_12  and  N_14 
REMARK   11  A    between atoms: N_14  and  C_15 
REMARK   12  A    between atoms: C_18  and  C_21 
ROOT
ATOM      1  C   LIG d   1       5.937  -1.406  -5.275  0.00  0.00    -0.028 C 
ATOM      2  H   LIG d   1       6.319  -1.862  -6.189  0.00  0.00     0.031 H 
ENDROOT
BRANCH   1   3
ATOM      3  C   LIG d   1       5.393  -2.496  -4.351  0.00  0.00     0.002 C 
ATOM      4  H   LIG d   1       6.064  -2.620  -3.501  0.00  0.00     0.036 H 
BRANCH   3   5
ATOM      5  C   LIG d   1       4.005  -2.093  -3.850  0.00  0.00    -0.045 C 
ATOM      6  H   LIG d   1       3.260  -2.779  -4.251  0.00  0.00     0.027 H 
ATOM      7  H   LIG d   1       3.779  -1.078  -4.180  0.00  0.00     0.027 H 
BRANCH   5   8
ATOM      8  C   LIG d   1       3.979  -2.149  -2.321  0.00  0.00    -0.052 C 
ATOM      9  H   LIG d   1       4.622  -2.957  -1.975  0.00  0.00     0.026 H 
ATOM     10  H   LIG d   1       2.958  -2.325  -1.981  0.00  0.00     0.026 H 
BRANCH   8  11
ATOM     11  C   LIG d   1       4.482  -0.819  -1.754  0.00  0.00    -0.053 C 
ATOM     12  H   LIG d   1       4.426  -0.843  -0.666  0.00  0.00     0.026 H 
ATOM     13  H   LIG d   1       5.515  -0.661  -2.061  0.00  0.00     0.026 H 
BRANCH  11  14
ATOM     14  C   LIG d   1       3.611   0.322  -2.284  0.00  0.00    -0.056 C 
ATOM     15  H   LIG d   1       3.124   0.008  -3.207  0.00  0.00     0.026 H 
ATOM     16  H   LIG d   1       2.855   0.578  -1.542  0.00  0.00     0.026 H 
BRANCH  14  17
ATOM     17  C   LIG d   1       4.488   1.546  -2.562  0.00  0.00    -0.065 C 
ATOM     18  H   LIG d   1       5.039   1.810  -1.660  0.00  0.00     0.023 H 
ATOM     19  H   LIG d   1       5.190   1.315  -3.362  0.00  0.00     0.023 H 
ATOM     20  H   LIG d   1       3.858   2.384  -2.861  0.00  0.00     0.023 H 
ENDBRANCH  14  17
ENDBRANCH  11  14
ENDBRANCH   8  11
ENDBRANCH   5   8
ENDBRANCH   3   5
BRANCH   3  21
ATOM     21  C   LIG d   1       5.295  -3.794  -5.108  0.00  0.00     0.045 C 
ATOM     22  O   LIG d   1       6.117  -4.065  -5.952  0.00  0.00    -0.549 OA
ATOM     23  O   LIG d   1       4.295  -4.651  -4.848  0.00  0.00    -0.549 OA
ENDBRANCH   3  21
ENDBRANCH   1   3
BRANCH   1  24
ATOM     24  C   LIG d   1       7.067  -0.654  -4.569  0.00  0.00    -0.061 C 
ATOM     25  H   LIG d   1       7.831  -0.380  -5.297  0.00  0.00     0.023 H 
ATOM     26  H   LIG d   1       6.668   0.248  -4.104  0.00  0.00     0.023 H 
ATOM     27  H   LIG d   1       7.507  -1.293  -3.804  0.00  0.00     0.023 H 
ENDBRANCH   1  24
BRANCH   1  28
ATOM     28  C   LIG d   1       4.814  -0.427  -5.626  0.00  0.00     0.027 C 
ATOM     29  H   LIG d   1       3.949  -0.625  -4.995  0.00  0.00     0.036 H 
ATOM     30  H   LIG d   1       5.159   0.594  -5.462  0.00  0.00     0.036 H 
BRANCH  28  31
ATOM     31  C   LIG d   1       4.431  -0.599  -7.073  0.00  0.00     0.217 C 
ATOM     32  O   LIG d   1       4.991   0.052  -7.930  0.00  0.00    -0.276 OA
ATOM     33  N   LIG d   1       3.467  -1.477  -7.417  0.00  0.00    -0.285 N 
ATOM     34  H   LIG d   1       3.074  -2.052  -6.742  0.00  0.00     0.155 HD
BRANCH  33  35
ATOM     35  C   LIG d   1       3.037  -1.557  -8.739  0.00  0.00     0.033 A 
ATOM     36  C   LIG d   1       2.032  -0.708  -9.194  0.00  0.00    -0.040 A 
ATOM     37  C   LIG d   1       1.604  -0.784 -10.500  0.00  0.00    -0.051 A 
ATOM     38  H   LIG d   1       1.587   0.011  -8.522  0.00  0.00     0.064 H 
ATOM     39  C   LIG d   1       2.180  -1.715 -11.370  0.00  0.00    -0.003 A 
ATOM     40  H   LIG d   1       0.824  -0.125 -10.853  0.00  0.00     0.062 H 
ATOM     41  C   LIG d   1       3.188  -2.566 -10.910  0.00  0.00    -0.051 A 
ATOM     42  C   LIG d   1       3.615  -2.481  -9.603  0.00  0.00    -0.040 A 
ATOM     43  H   LIG d   1       3.636  -3.287 -11.579  0.00  0.00     0.062 H 
ATOM     44  H   LIG d   1       4.398  -3.136  -9.248  0.00  0.00     0.064 H 
BRANCH  39  45
ATOM     45  C   LIG d   1       1.724  -1.799 -12.770  0.00  0.00     0.072 C 
ATOM     46  O   LIG d   1       2.530  -1.727 -13.676  0.00  0.00    -0.545 OA
ATOM     47  O   LIG d   1       0.414  -1.956 -13.044  0.00  0.00    -0.545 OA
ENDBRANCH  39  45
ENDBRANCH  33  35
ENDBRANCH  28  31
ENDBRANCH   1  28
TORSDOF 12
ENDMDL
MODEL 4
REMARK VINA RESULT:      -5.6      1.332      1.930
REMARK  12 active torsions:
REMARK  status: ('A' for Active; 'I' for Inactive)
REMARK    1  A    between atoms: C_1  and  C_2 
REMARK    2  A    between atoms: C_2  and  C_3 
REMARK    3  A    between atoms: C_3  and  C_4 
REMARK    4  A    between atoms: C_4  and  C_5 
REMARK    5  A    between atoms: C_5  and  C_6 
REMARK    6  A    between atoms: C_6  and  C_8 
REMARK    7  A    between atoms: C_6  and  C_23 
REMARK    8  A    between atoms: C_8  and  C_10 
REMARK    9  A    between atoms: C_8  and  C_11 
REMARK   10  A    between atoms: C_11  and  C_12 
REMARK       I    between atoms: C_12  and  N_14 
REMARK   11  A    between atoms: N_14  and  C_15 
REMARK   12  A    between atoms: C_18  and  C_21 
ROOT
ATOM      1  C   LIG d   1       7.094   0.067  -5.521  0.00  0.00    -0.028 C 
ATOM      2  H   LIG d   1       6.512   0.983  -5.413  0.00  0.00     0.031 H 
ENDROOT
BRANCH   1   3
ATOM      3  C   LIG d   1       6.254  -1.128  -5.068  0.00  0.00     0.002 C 
ATOM      4  H   LIG d   1       6.740  -2.052  -5.380  0.00  0.00     0.036 H 
BRANCH   3   5
ATOM      5  C   LIG d   1       6.121  -1.110  -3.545  0.00  0.00    -0.045 C 
ATOM      6  H   LIG d   1       6.032  -0.080  -3.199  0.00  0.00     0.027 H 
ATOM      7  H   LIG d   1       7.004  -1.568  -3.097  0.00  0.00     0.027 H 
BRANCH   5   8
ATOM      8  C   LIG d   1       4.874  -1.895  -3.132  0.00  0.00    -0.052 C 
ATOM      9  H   LIG d   1       5.157  -2.913  -2.867  0.00  0.00     0.026 H 
ATOM     10  H   LIG d   1       4.168  -1.917  -3.962  0.00  0.00     0.026 H 
BRANCH   8  11
ATOM     11  C   LIG d   1       4.222  -1.217  -1.925  0.00  0.00    -0.053 C 
ATOM     12  H   LIG d   1       3.138  -1.244  -2.035  0.00  0.00     0.026 H 
ATOM     13  H   LIG d   1       4.507  -1.743  -1.015  0.00  0.00     0.026 H 
BRANCH  11  14
ATOM     14  C   LIG d   1       4.690   0.237  -1.843  0.00  0.00    -0.056 C 
ATOM     15  H   LIG d   1       4.889   0.496  -0.803  0.00  0.00     0.026 H 
ATOM     16  H   LIG d   1       5.601   0.360  -2.429  0.00  0.00     0.026 H 
BRANCH  14  17
ATOM     17  C   LIG d   1       3.600   1.157  -2.398  0.00  0.00    -0.065 C 
ATOM     18  H   LIG d   1       3.957   2.187  -2.393  0.00  0.00     0.023 H 
ATOM     19  H   LIG d   1       3.360   0.861  -3.419  0.00  0.00     0.023 H 
ATOM     20  H   LIG d   1       2.708   1.079  -1.777  0.00  0.00     0.023 H 
ENDBRANCH  14  17
ENDBRANCH  11  14
ENDBRANCH   8  11
ENDBRANCH   5   8
ENDBRANCH   3   5
BRANCH   3  21
ATOM     21  C   LIG d   1       4.885  -1.045  -5.693  0.00  0.00     0.045 C 
ATOM     22  O   LIG d   1       4.257  -0.014  -5.636  0.00  0.00    -0.549 OA
ATOM     23  O   LIG d   1       4.362  -2.116  -6.310  0.00  0.00    -0.549 OA
ENDBRANCH   3  21
ENDBRANCH   1   3
BRANCH   1  24
ATOM     24  C   LIG d   1       7.491  -0.113  -6.988  0.00  0.00    -0.061 C 
ATOM     25  H   LIG d   1       8.357   0.512  -7.209  0.00  0.00     0.023 H 
ATOM     26  H   LIG d   1       7.741  -1.158  -7.170  0.00  0.00     0.023 H 
ATOM     27  H   LIG d   1       6.659   0.178  -7.628  0.00  0.00     0.023 H 
ENDBRANCH   1  24
BRANCH   1  28
ATOM     28  C   LIG d   1       8.355   0.161  -4.659  0.00  0.00     0.027 C 
ATOM     29  H   LIG d   1       8.284  -0.547  -3.834  0.00  0.00     0.036 H 
ATOM     30  H   LIG d   1       9.228  -0.076  -5.268  0.00  0.00     0.036 H 
BRANCH  28  31
ATOM     31  C   LIG d   1       8.489   1.559  -4.113  0.00  0.00     0.217 C 
ATOM     32  O   LIG d   1       7.578   2.053  -3.483  0.00  0.00    -0.276 OA
ATOM     33  N   LIG d   1       9.620   2.261  -4.324  0.00  0.00    -0.285 N 
ATOM     34  H   LIG d   1      10.377   1.839  -4.761  0.00  0.00     0.155 HD
BRANCH  33  35
ATOM     35  C   LIG d   1       9.702   3.590  -3.915  0.00  0.00     0.033 A 
ATOM     36  C   LIG d   1      10.200   3.897  -2.652  0.00  0.00    -0.040 A 
ATOM     37  C   LIG d   1      10.283   5.209  -2.243  0.00  0.00    -0.051 A 
ATOM     38  H   LIG d   1      10.520   3.105  -1.990  0.00  0.00     0.064 H 
ATOM     39  C   LIG d   1       9.867   6.234  -3.100  0.00  0.00    -0.003 A 
ATOM     40  H   LIG d   1      10.669   5.447  -1.263  0.00  0.00     0.062 H 
ATOM     41  C   LIG d   1       9.369   5.921  -4.368  0.00  0.00    -0.051 A 
ATOM     42  C   LIG d   1       9.293   4.607  -4.771  0.00  0.00    -0.040 A 
ATOM     43  H   LIG d   1       9.047   6.710  -5.032  0.00  0.00     0.062 H 
ATOM     44  H   LIG d   1       8.912   4.365  -5.752  0.00  0.00     0.064 H 
BRANCH  39  45
ATOM     45  C   LIG d   1       9.955   7.640  -2.667  0.00  0.00     0.072 C 
ATOM     46  O   LIG d   1      10.104   8.521  -3.490  0.00  0.00    -0.545 OA
ATOM     47  O   LIG d   1       9.870   7.949  -1.357  0.00  0.00    -0.545 OA
ENDBRANCH  39  45
ENDBRANCH  33  35
ENDBRANCH  28  31
ENDBRANCH   1  28
TORSDOF 12
ENDMDL
MODEL 5
REMARK VINA RESULT:      -5.5      4.802      7.411
REMARK  12 active torsions:
REMARK  status: ('A' for Active; 'I' for Inactive)
REMARK    1  A    between atoms: C_1  and  C_2 
REMARK    2  A    between atoms: C_2  and  C_3 
REMARK    3  A    between atoms: C_3  and  C_4 
REMARK    4  A    between atoms: C_4  and  C_5 
REMARK    5  A    between atoms: C_5  and  C_6 
REMARK    6  A    between atoms: C_6  and  C_8 
REMARK    7  A    between atoms: C_6  and  C_23 
REMARK    8  A    between atoms: C_8  and  C_10 
REMARK    9  A    between atoms: C_8  and  C_11 
REMARK   10  A    between atoms: C_11  and  C_12 
REMARK       I    between atoms: C_12  and  N_14 
REMARK   11  A    between atoms: N_14  and  C_15 
REMARK   12  A    between atoms: C_18  and  C_21 
ROOT
ATOM      1  C   LIG d   1       6.365  -5.724  -6.850  0.00  0.00    -0.028 C 
ATOM      2  H   LIG d   1       5.976  -4.755  -7.165  0.00  0.00     0.031 H 
ENDROOT
BRANCH   1   3
ATOM      3  C   LIG d   1       5.220  -6.735  -6.777  0.00  0.00     0.002 C 
ATOM      4  H   LIG d   1       5.402  -7.541  -7.487  0.00  0.00     0.036 H 
BRANCH   3   5
ATOM      5  C   LIG d   1       5.138  -7.310  -5.362  0.00  0.00    -0.045 C 
ATOM      6  H   LIG d   1       4.398  -6.755  -4.786  0.00  0.00     0.027 H 
ATOM      7  H   LIG d   1       6.112  -7.228  -4.878  0.00  0.00     0.027 H 
BRANCH   5   8
ATOM      8  C   LIG d   1       4.726  -8.783  -5.434  0.00  0.00    -0.052 C 
ATOM      9  H   LIG d   1       5.160  -9.238  -6.323  0.00  0.00     0.026 H 
ATOM     10  H   LIG d   1       3.640  -8.854  -5.480  0.00  0.00     0.026 H 
BRANCH   8  11
ATOM     11  C   LIG d   1       5.233  -9.514  -4.189  0.00  0.00    -0.053 C 
ATOM     12  H   LIG d   1       5.998 -10.235  -4.476  0.00  0.00     0.026 H 
ATOM     13  H   LIG d   1       5.658  -8.793  -3.491  0.00  0.00     0.026 H 
BRANCH  11  14
ATOM     14  C   LIG d   1       4.068 -10.246  -3.519  0.00  0.00    -0.056 C 
ATOM     15  H   LIG d   1       4.412 -10.703  -2.591  0.00  0.00     0.026 H 
ATOM     16  H   LIG d   1       3.270  -9.537  -3.301  0.00  0.00     0.026 H 
BRANCH  14  17
ATOM     17  C   LIG d   1       3.541 -11.334  -4.458  0.00  0.00    -0.065 C 
ATOM     18  H   LIG d   1       3.826 -12.313  -4.074  0.00  0.00     0.023 H 
ATOM     19  H   LIG d   1       2.455 -11.268  -4.516  0.00  0.00     0.023 H 
ATOM     20  H   LIG d   1       3.968 -11.195  -5.451  0.00  0.00     0.023 H 
ENDBRANCH  14  17
ENDBRANCH  11  14
ENDBRANCH   8  11
ENDBRANCH   5   8
ENDBRANCH   3   5
BRANCH   3  21
ATOM     21  C   LIG d   1       3.922  -6.049  -7.116  0.00  0.00     0.045 C 
ATOM     22  O   LIG d   1       3.385  -5.335  -6.303  0.00  0.00    -0.549 OA
ATOM     23  O   LIG d   1       3.361  -6.231  -8.322  0.00  0.00    -0.549 OA
ENDBRANCH   3  21
ENDBRANCH   1   3
BRANCH   1  24
ATOM     24  C   LIG d   1       7.409  -6.206  -7.860  0.00  0.00    -0.061 C 
ATOM     25  H   LIG d   1       7.912  -7.091  -7.468  0.00  0.00     0.023 H 
ATOM     26  H   LIG d   1       6.917  -6.454  -8.800  0.00  0.00     0.023 H 
ATOM     27  H   LIG d   1       8.142  -5.418  -8.030  0.00  0.00     0.023 H 
ENDBRANCH   1  24
BRANCH   1  28
ATOM     28  C   LIG d   1       7.014  -5.588  -5.471  0.00  0.00     0.027 C 
ATOM     29  H   LIG d   1       6.607  -6.344  -4.801  0.00  0.00     0.036 H 
ATOM     30  H   LIG d   1       8.092  -5.724  -5.563  0.00  0.00     0.036 H 
BRANCH  28  31
ATOM     31  C   LIG d   1       6.729  -4.217  -4.914  0.00  0.00     0.217 C 
ATOM     32  O   LIG d   1       7.631  -3.550  -4.453  0.00  0.00    -0.276 OA
ATOM     33  N   LIG d   1       5.472  -3.729  -4.930  0.00  0.00    -0.285 N 
ATOM     34  H   LIG d   1       4.765  -4.229  -5.368  0.00  0.00     0.155 HD
BRANCH  33  35
ATOM     35  C   LIG d   1       5.189  -2.510  -4.318  0.00  0.00     0.033 A 
ATOM     36  C   LIG d   1       4.529  -2.487  -3.093  0.00  0.00    -0.040 A 
ATOM     37  C   LIG d   1       4.248  -1.284  -2.484  0.00  0.00    -0.051 A 
ATOM     38  H   LIG d   1       4.236  -3.412  -2.619  0.00  0.00     0.064 H 
ATOM     39  C   LIG d   1       4.627  -0.086  -3.097  0.00  0.00    -0.003 A 
ATOM     40  H   LIG d   1       3.736  -1.266  -1.533  0.00  0.00     0.062 H 
ATOM     41  C   LIG d   1       5.290  -0.114  -4.328  0.00  0.00    -0.051 A 
ATOM     42  C   LIG d   1       5.573  -1.321  -4.928  0.00  0.00    -0.040 A 
ATOM     43  H   LIG d   1       5.585   0.809  -4.805  0.00  0.00     0.062 H 
ATOM     44  H   LIG d   1       6.089  -1.343  -5.877  0.00  0.00     0.064 H 
BRANCH  39  45
ATOM     45  C   LIG d   1       4.328   1.204  -2.449  0.00  0.00     0.072 C 
ATOM     46  O   LIG d   1       4.668   1.398  -1.299  0.00  0.00    -0.545 OA
ATOM     47  O   LIG d   1       3.678   2.167  -3.131  0.00  0.00    -0.545 OA
ENDBRANCH  39  45
ENDBRANCH  33  35
ENDBRANCH  28  31
ENDBRANCH   1  28
TORSDOF 12
ENDMDL
MODEL 6
REMARK VINA RESULT:      -5.5      4.468      7.727
REMARK  12 active torsions:
REMARK  status: ('A' for Active; 'I' for Inactive)
REMARK    1  A    between atoms: C_1  and  C_2 
REMARK    2  A    between atoms: C_2  and  C_3 
REMARK    3  A    between atoms: C_3  and  C_4 
REMARK    4  A    between atoms: C_4  and  C_5 
REMARK    5  A    between atoms: C_5  and  C_6 
REMARK    6  A    between atoms: C_6  and  C_8 
REMARK    7  A    between atoms: C_6  and  C_23 
REMARK    8  A    between atoms: C_8  and  C_10 
REMARK    9  A    between atoms: C_8  and  C_11 
REMARK   10  A    between atoms: C_11  and  C_12 
REMARK       I    between atoms: C_12  and  N_14 
REMARK   11  A    between atoms: N_14  and  C_15 
REMARK   12  A    between atoms: C_18  and  C_21 
ROOT
ATOM      1  C   LIG d   1       6.634  -1.472  -5.093  0.00  0.00    -0.028 C 
ATOM      2  H   LIG d   1       7.504  -1.637  -5.729  0.00  0.00     0.031 H 
ENDROOT
BRANCH   1   3
ATOM      3  C   LIG d   1       6.522   0.016  -4.758  0.00  0.00     0.002 C 
ATOM      4  H   LIG d   1       5.616   0.422  -5.206  0.00  0.00     0.036 H 
BRANCH   3   5
ATOM      5  C   LIG d   1       6.464   0.193  -3.239  0.00  0.00    -0.045 C 
ATOM      6  H   LIG d   1       7.425   0.557  -2.878  0.00  0.00     0.027 H 
ATOM      7  H   LIG d   1       6.239  -0.765  -2.770  0.00  0.00     0.027 H 
BRANCH   5   8
ATOM      8  C   LIG d   1       5.371   1.204  -2.885  0.00  0.00    -0.052 C 
ATOM      9  H   LIG d   1       4.726   1.361  -3.750  0.00  0.00     0.026 H 
ATOM     10  H   LIG d   1       5.830   2.149  -2.598  0.00  0.00     0.026 H 
BRANCH   8  11
ATOM     11  C   LIG d   1       4.537   0.666  -1.720  0.00  0.00    -0.053 C 
ATOM     12  H   LIG d   1       5.136   0.675  -0.810  0.00  0.00     0.026 H 
ATOM     13  H   LIG d   1       3.657   1.293  -1.583  0.00  0.00     0.026 H 
BRANCH  11  14
ATOM     14  C   LIG d   1       4.099  -0.768  -2.027  0.00  0.00    -0.056 C 
ATOM     15  H   LIG d   1       4.915  -1.300  -2.516  0.00  0.00     0.026 H 
ATOM     16  H   LIG d   1       3.837  -1.275  -1.099  0.00  0.00     0.026 H 
BRANCH  14  17
ATOM     17  C   LIG d   1       2.881  -0.742  -2.954  0.00  0.00    -0.065 C 
ATOM     18  H   LIG d   1       3.071  -1.373  -3.822  0.00  0.00     0.023 H 
ATOM     19  H   LIG d   1       2.009  -1.115  -2.418  0.00  0.00     0.023 H 
ATOM     20  H   LIG d   1       2.696   0.281  -3.283  0.00  0.00     0.023 H 
ENDBRANCH  14  17
ENDBRANCH  11  14
ENDBRANCH   8  11
ENDBRANCH   5   8
ENDBRANCH   3   5
BRANCH   3  21
ATOM     21  C   LIG d   1       7.722   0.745  -5.302  0.00  0.00     0.045 C 
ATOM     22  O   LIG d   1       7.588   1.550  -6.193  0.00  0.00    -0.549 OA
ATOM     23  O   LIG d   1       8.943   0.500  -4.800  0.00  0.00    -0.549 OA
ENDBRANCH   3  21
ENDBRANCH   1   3
BRANCH   1  24
ATOM     24  C   LIG d   1       5.372  -1.926  -5.829  0.00  0.00    -0.061 C 
ATOM     25  H   LIG d   1       4.669  -2.357  -5.115  0.00  0.00     0.023 H 
ATOM     26  H   LIG d   1       4.911  -1.070  -6.321  0.00  0.00     0.023 H 
ATOM     27  H   LIG d   1       5.635  -2.675  -6.576  0.00  0.00     0.023 H 
ENDBRANCH   1  24
BRANCH   1  28
ATOM     28  C   LIG d   1       6.788  -2.276  -3.801  0.00  0.00     0.027 C 
ATOM     29  H   LIG d   1       6.902  -1.594  -2.959  0.00  0.00     0.036 H 
ATOM     30  H   LIG d   1       5.902  -2.894  -3.650  0.00  0.00     0.036 H 
BRANCH  28  31
ATOM     31  C   LIG d   1       8.004  -3.161  -3.900  0.00  0.00     0.217 C 
ATOM     32  O   LIG d   1       8.180  -3.839  -4.890  0.00  0.00    -0.276 OA
ATOM     33  N   LIG d   1       8.896  -3.198  -2.891  0.00  0.00    -0.285 N 
ATOM     34  H   LIG d   1       8.796  -2.599  -2.134  0.00  0.00     0.155 HD
BRANCH  33  35
ATOM     35  C   LIG d   1       9.961  -4.095  -2.935  0.00  0.00     0.033 A 
ATOM     36  C   LIG d   1      11.182  -3.697  -3.473  0.00  0.00    -0.040 A 
ATOM     37  C   LIG d   1      12.236  -4.581  -3.518  0.00  0.00    -0.051 A 
ATOM     38  H   LIG d   1      11.301  -2.695  -3.857  0.00  0.00     0.064 H 
ATOM     39  C   LIG d   1      12.081  -5.879  -3.021  0.00  0.00    -0.003 A 
ATOM     40  H   LIG d   1      13.183  -4.272  -3.936  0.00  0.00     0.062 H 
ATOM     41  C   LIG d   1      10.854  -6.274  -2.481  0.00  0.00    -0.051 A 
ATOM     42  C   LIG d   1       9.805  -5.383  -2.434  0.00  0.00    -0.040 A 
ATOM     43  H   LIG d   1      10.730  -7.276  -2.095  0.00  0.00     0.062 H 
ATOM     44  H   LIG d   1       8.858  -5.688  -2.013  0.00  0.00     0.064 H 
BRANCH  39  45
ATOM     45  C   LIG d   1      13.208  -6.828  -3.067  0.00  0.00     0.072 C 
ATOM     46  O   LIG d   1      14.227  -6.591  -2.450  0.00  0.00    -0.545 OA
ATOM     47  O   LIG d   1      13.108  -7.959  -3.794  0.00  0.00    -0.545 OA
ENDBRANCH  39  45
ENDBRANCH  33  35
ENDBRANCH  28  31
ENDBRANCH   1  28
TORSDOF 12
ENDMDL
MODEL 7
REMARK VINA RESULT:      -5.4      3.907      7.608
REMARK  12 active torsions:
REMARK  status: ('A' for Active; 'I' for Inactive)
REMARK    1  A    between atoms: C_1  and  C_2 
REMARK    2  A    between atoms: C_2  and  C_3 
REMARK    3  A    between atoms: C_3  and  C_4 
REMARK    4  A    between atoms: C_4  and  C_5 
REMARK    5  A    between atoms: C_5  and  C_6 
REMARK    6  A    between atoms: C_6  and  C_8 
REMARK    7  A    between atoms: C_6  and  C_23 
REMARK    8  A    between atoms: C_8  and  C_10 
REMARK    9  A    between atoms: C_8  and  C_11 
REMARK   10  A    between atoms: C_11  and  C_12 
REMARK       I    between atoms: C_12  and  N_14 
REMARK   11  A    between atoms: N_14  and  C_15 
REMARK   12  A    between atoms: C_18  and  C_21 
ROOT
ATOM      1  C   LIG d   1       4.064  -1.564  -3.213  0.00  0.00    -0.028 C 
ATOM      2  H   LIG d   1       3.197  -1.283  -3.812  0.00  0.00     0.031 H 
ENDROOT
BRANCH   1   3
ATOM      3  C   LIG d   1       4.631  -0.322  -2.523  0.00  0.00     0.002 C 
ATOM      4  H   LIG d   1       4.618  -0.468  -1.443  0.00  0.00     0.036 H 
BRANCH   3   5
ATOM      5  C   LIG d   1       6.070  -0.092  -2.989  0.00  0.00    -0.045 C 
ATOM      6  H   LIG d   1       6.228  -0.596  -3.942  0.00  0.00     0.027 H 
ATOM      7  H   LIG d   1       6.761  -0.493  -2.247  0.00  0.00     0.027 H 
BRANCH   5   8
ATOM      8  C   LIG d   1       6.317   1.408  -3.159  0.00  0.00    -0.052 C 
ATOM      9  H   LIG d   1       6.449   1.868  -2.180  0.00  0.00     0.026 H 
ATOM     10  H   LIG d   1       5.464   1.862  -3.662  0.00  0.00     0.026 H 
BRANCH   8  11
ATOM     11  C   LIG d   1       7.579   1.625  -3.997  0.00  0.00    -0.053 C 
ATOM     12  H   LIG d   1       7.542   2.610  -4.462  0.00  0.00     0.026 H 
ATOM     13  H   LIG d   1       8.457   1.558  -3.356  0.00  0.00     0.026 H 
BRANCH  11  14
ATOM     14  C   LIG d   1       7.659   0.551  -5.084  0.00  0.00    -0.056 C 
ATOM     15  H   LIG d   1       8.476  -0.134  -4.858  0.00  0.00     0.026 H 
ATOM     16  H   LIG d   1       6.720  -0.002  -5.119  0.00  0.00     0.026 H 
BRANCH  14  17
ATOM     17  C   LIG d   1       7.910   1.215  -6.440  0.00  0.00    -0.065 C 
ATOM     18  H   LIG d   1       8.983   1.308  -6.605  0.00  0.00     0.023 H 
ATOM     19  H   LIG d   1       7.474   0.604  -7.230  0.00  0.00     0.023 H 
ATOM     20  H   LIG d   1       7.454   2.204  -6.451  0.00  0.00     0.023 H 
ENDBRANCH  14  17
ENDBRANCH  11  14
ENDBRANCH   8  11
ENDBRANCH   5   8
ENDBRANCH   3   5
BRANCH   3  21
ATOM     21  C   LIG d   1       3.791   0.877  -2.878  0.00  0.00     0.045 C 
ATOM     22  O   LIG d   1       3.389   1.613  -2.008  0.00  0.00    -0.549 OA
ATOM     23  O   LIG d   1       3.487   1.128  -4.162  0.00  0.00    -0.549 OA
ENDBRANCH   3  21
ENDBRANCH   1   3
BRANCH   1  24
ATOM     24  C   LIG d   1       3.643  -2.587  -2.156  0.00  0.00    -0.061 C 
ATOM     25  H   LIG d   1       3.271  -3.486  -2.649  0.00  0.00     0.023 H 
ATOM     26  H   LIG d   1       4.501  -2.842  -1.535  0.00  0.00     0.023 H 
ATOM     27  H   LIG d   1       2.856  -2.164  -1.533  0.00  0.00     0.023 H 
ENDBRANCH   1  24
BRANCH   1  28
ATOM     28  C   LIG d   1       5.133  -2.177  -4.119  0.00  0.00     0.027 C 
ATOM     29  H   LIG d   1       6.075  -1.648  -3.980  0.00  0.00     0.036 H 
ATOM     30  H   LIG d   1       5.266  -3.229  -3.863  0.00  0.00     0.036 H 
BRANCH  28  31
ATOM     31  C   LIG d   1       4.699  -2.063  -5.558  0.00  0.00     0.217 C 
ATOM     32  O   LIG d   1       4.521  -3.064  -6.218  0.00  0.00    -0.276 OA
ATOM     33  N   LIG d   1       4.507  -0.849  -6.110  0.00  0.00    -0.285 N 
ATOM     34  H   LIG d   1       4.574  -0.051  -5.562  0.00  0.00     0.155 HD
BRANCH  33  35
ATOM     35  C   LIG d   1       4.212  -0.739  -7.468  0.00  0.00     0.033 A 
ATOM     36  C   LIG d   1       2.893  -0.579  -7.880  0.00  0.00    -0.040 A 
ATOM     37  C   LIG d   1       2.598  -0.471  -9.221  0.00  0.00    -0.051 A 
ATOM     38  H   LIG d   1       2.099  -0.542  -7.149  0.00  0.00     0.064 H 
ATOM     39  C   LIG d   1       3.625  -0.521 -10.168  0.00  0.00    -0.003 A 
ATOM     40  H   LIG d   1       1.573  -0.347  -9.541  0.00  0.00     0.062 H 
ATOM     41  C   LIG d   1       4.949  -0.681  -9.749  0.00  0.00    -0.051 A 
ATOM     42  C   LIG d   1       5.238  -0.784  -8.406  0.00  0.00    -0.040 A 
ATOM     43  H   LIG d   1       5.746  -0.720 -10.477  0.00  0.00     0.062 H 
ATOM     44  H   LIG d   1       6.261  -0.904  -8.083  0.00  0.00     0.064 H 
BRANCH  39  45
ATOM     45  C   LIG d   1       3.314  -0.405 -11.604  0.00  0.00     0.072 C 
ATOM     46  O   LIG d   1       4.122   0.091 -12.363  0.00  0.00    -0.545 OA
ATOM     47  O   LIG d   1       2.131  -0.849 -12.075  0.00  0.00    -0.545 OA
ENDBRANCH  39  45
ENDBRANCH  33  35
ENDBRANCH  28  31
ENDBRANCH   1  28
TORSDOF 12
ENDMDL
MODEL 8
REMARK VINA RESULT:      -5.4      1.946      8.490
REMARK  12 active torsions:
REMARK  status: ('A' for Active; 'I' for Inactive)
REMARK    1  A    between atoms: C_1  and  C_2 
REMARK    2  A    between atoms: C_2  and  C_3 
REMARK    3  A    between atoms: C_3  and  C_4 
REMARK    4  A    between atoms: C_4  and  C_5 
REMARK    5  A    between atoms: C_5  and  C_6 
REMARK    6  A    between atoms: C_6  and  C_8 
REMARK    7  A    between atoms: C_6  and  C_23 
REMARK    8  A    between atoms: C_8  and  C_10 
REMARK    9  A    between atoms: C_8  and  C_11 
REMARK   10  A    between atoms: C_11  and  C_12 
REMARK       I    between atoms: C_12  and  N_14 
REMARK   11  A    between atoms: N_14  and  C_15 
REMARK   12  A    between atoms: C_18  and  C_21 
ROOT
ATOM      1  C   LIG d   1       9.824   3.865  -3.577  0.00  0.00    -0.028 C 
ATOM      2  H   LIG d   1       8.872   3.902  -3.046  0.00  0.00     0.031 H 
ENDROOT
BRANCH   1   3
ATOM      3  C   LIG d   1      10.219   5.277  -4.013  0.00  0.00     0.002 C 
ATOM      4  H   LIG d   1      11.173   5.241  -4.538  0.00  0.00     0.036 H 
BRANCH   3   5
ATOM      5  C   LIG d   1       9.145   5.842  -4.945  0.00  0.00    -0.045 C 
ATOM      6  H   LIG d   1       8.374   6.336  -4.353  0.00  0.00     0.027 H 
ATOM      7  H   LIG d   1       8.698   5.030  -5.519  0.00  0.00     0.027 H 
BRANCH   5   8
ATOM      8  C   LIG d   1       9.781   6.854  -5.900  0.00  0.00    -0.052 C 
ATOM      9  H   LIG d   1      10.740   7.180  -5.500  0.00  0.00     0.026 H 
ATOM     10  H   LIG d   1       9.120   7.714  -6.010  0.00  0.00     0.026 H 
BRANCH   8  11
ATOM     11  C   LIG d   1       9.996   6.199  -7.266  0.00  0.00    -0.053 C 
ATOM     12  H   LIG d   1      11.062   6.052  -7.436  0.00  0.00     0.026 H 
ATOM     13  H   LIG d   1       9.489   5.234  -7.291  0.00  0.00     0.026 H 
BRANCH  11  14
ATOM     14  C   LIG d   1       9.424   7.103  -8.361  0.00  0.00    -0.056 C 
ATOM     15  H   LIG d   1      10.171   7.244  -9.142  0.00  0.00     0.026 H 
ATOM     16  H   LIG d   1       8.535   6.641  -8.787  0.00  0.00     0.026 H 
BRANCH  14  17
ATOM     17  C   LIG d   1       9.055   8.461  -7.759  0.00  0.00    -0.065 C 
ATOM     18  H   LIG d   1       9.924   8.884  -7.256  0.00  0.00     0.023 H 
ATOM     19  H   LIG d   1       8.733   9.134  -8.553  0.00  0.00     0.023 H 
ATOM     20  H   LIG d   1       8.246   8.332  -7.040  0.00  0.00     0.023 H 
ENDBRANCH  14  17
ENDBRANCH  11  14
ENDBRANCH   8  11
ENDBRANCH   5   8
ENDBRANCH   3   5
BRANCH   3  21
ATOM     21  C   LIG d   1      10.346   6.160  -2.799  0.00  0.00     0.045 C 
ATOM     22  O   LIG d   1       9.371   6.416  -2.133  0.00  0.00    -0.549 OA
ATOM     23  O   LIG d   1      11.543   6.664  -2.457  0.00  0.00    -0.549 OA
ENDBRANCH   3  21
ENDBRANCH   1   3
BRANCH   1  24
ATOM     24  C   LIG d   1      10.902   3.295  -2.653  0.00  0.00    -0.061 C 
ATOM     25  H   LIG d   1      11.239   2.332  -3.039  0.00  0.00     0.023 H 
ATOM     26  H   LIG d   1      11.745   3.985  -2.610  0.00  0.00     0.023 H 
ATOM     27  H   LIG d   1      10.490   3.162  -1.653  0.00  0.00     0.023 H 
ENDBRANCH   1  24
BRANCH   1  28
ATOM     28  C   LIG d   1       9.685   2.970  -4.811  0.00  0.00     0.027 C 
ATOM     29  H   LIG d   1       9.587   3.591  -5.701  0.00  0.00     0.036 H 
ATOM     30  H   LIG d   1      10.569   2.339  -4.903  0.00  0.00     0.036 H 
BRANCH  28  31
ATOM     31  C   LIG d   1       8.462   2.101  -4.666  0.00  0.00     0.217 C 
ATOM     32  O   LIG d   1       7.643   2.054  -5.560  0.00  0.00    -0.276 OA
ATOM     33  N   LIG d   1       8.279   1.374  -3.546  0.00  0.00    -0.285 N 
ATOM     34  H   LIG d   1       8.969   1.352  -2.865  0.00  0.00     0.155 HD
BRANCH  33  35
ATOM     35  C   LIG d   1       7.098   0.657  -3.365  0.00  0.00     0.033 A 
ATOM     36  C   LIG d   1       7.078  -0.716  -3.595  0.00  0.00    -0.040 A 
ATOM     37  C   LIG d   1       5.914  -1.428  -3.418  0.00  0.00    -0.051 A 
ATOM     38  H   LIG d   1       7.977  -1.222  -3.914  0.00  0.00     0.064 H 
ATOM     39  C   LIG d   1       4.750  -0.771  -3.007  0.00  0.00    -0.003 A 
ATOM     40  H   LIG d   1       5.899  -2.493  -3.596  0.00  0.00     0.062 H 
ATOM     41  C   LIG d   1       4.773   0.608  -2.777  0.00  0.00    -0.051 A 
ATOM     42  C   LIG d   1       5.944   1.313  -2.951  0.00  0.00    -0.040 A 
ATOM     43  H   LIG d   1       3.877   1.119  -2.458  0.00  0.00     0.062 H 
ATOM     44  H   LIG d   1       5.963   2.377  -2.769  0.00  0.00     0.064 H 
BRANCH  39  45
ATOM     45  C   LIG d   1       3.500  -1.530  -2.816  0.00  0.00     0.072 C 
ATOM     46  O   LIG d   1       2.427  -0.987  -2.986  0.00  0.00    -0.545 OA
ATOM     47  O   LIG d   1       3.549  -2.827  -2.451  0.00  0.00    -0.545 OA
ENDBRANCH  39  45
ENDBRANCH  33  35
ENDBRANCH  28  31
ENDBRANCH   1  28
TORSDOF 12
ENDMDL
MODEL 9
REMARK VINA RESULT:      -5.4      5.636      8.665
REMARK  12 active torsions:
REMARK  status: ('A' for Active; 'I' for Inactive)
REMARK    1  A    between atoms: C_1  and  C_2 
REMARK    2  A    between atoms: C_2  and  C_3 
REMARK    3  A    between atoms: C_3  and  C_4 
REMARK    4  A    between atoms: C_4  and  C_5 
REMARK    5  A    between atoms: C_5  and  C_6 
REMARK    6  A    between atoms: C_6  and  C_8 
REMARK    7  A    between atoms: C_6  and  C_23 
REMARK    8  A    between atoms: C_8  and  C_10 
REMARK    9  A    between atoms: C_8  and  C_11 
REMARK   10  A    between atoms: C_11  and  C_12 
REMARK       I    between atoms: C_12  and  N_14 
REMARK   11  A    between atoms: N_14  and  C_15 
REMARK   12  A    between atoms: C_18  and  C_21 
ROOT
ATOM      1  C   LIG d   1       4.720  -7.704  -6.178  0.00  0.00    -0.028 C 
ATOM      2  H   LIG d   1       3.812  -7.434  -5.638  0.00  0.00     0.031 H 
ENDROOT
BRANCH   1   3
ATOM      3  C   LIG d   1       5.319  -8.971  -5.567  0.00  0.00     0.002 C 
ATOM      4  H   LIG d   1       5.816  -9.550  -6.345  0.00  0.00     0.036 H 
BRANCH   3   5
ATOM      5  C   LIG d   1       6.335  -8.587  -4.490  0.00  0.00    -0.045 C 
ATOM      6  H   LIG d   1       5.818  -8.120  -3.652  0.00  0.00     0.027 H 
ATOM      7  H   LIG d   1       7.059  -7.885  -4.906  0.00  0.00     0.027 H 
BRANCH   5   8
ATOM      8  C   LIG d   1       7.062  -9.842  -4.004  0.00  0.00    -0.052 C 
ATOM      9  H   LIG d   1       8.131  -9.736  -4.185  0.00  0.00     0.026 H 
ATOM     10  H   LIG d   1       6.686 -10.711  -4.543  0.00  0.00     0.026 H 
BRANCH   8  11
ATOM     11  C   LIG d   1       6.815 -10.026  -2.505  0.00  0.00    -0.053 C 
ATOM     12  H   LIG d   1       5.817  -9.668  -2.254  0.00  0.00     0.026 H 
ATOM     13  H   LIG d   1       6.897 -11.082  -2.250  0.00  0.00     0.026 H 
BRANCH  11  14
ATOM     14  C   LIG d   1       7.856  -9.229  -1.716  0.00  0.00    -0.056 C 
ATOM     15  H   LIG d   1       8.552  -8.755  -2.408  0.00  0.00     0.026 H 
ATOM     16  H   LIG d   1       7.356  -8.465  -1.122  0.00  0.00     0.026 H 
BRANCH  14  17
ATOM     17  C   LIG d   1       8.626 -10.173  -0.788  0.00  0.00    -0.065 C 
ATOM     18  H   LIG d   1       7.991 -10.452   0.053  0.00  0.00     0.023 H 
ATOM     19  H   LIG d   1       8.914 -11.068  -1.339  0.00  0.00     0.023 H 
ATOM     20  H   LIG d   1       9.519  -9.670  -0.417  0.00  0.00     0.023 H 
ENDBRANCH  14  17
ENDBRANCH  11  14
ENDBRANCH   8  11
ENDBRANCH   5   8
ENDBRANCH   3   5
BRANCH   3  21
ATOM     21  C   LIG d   1       4.221  -9.798  -4.950  0.00  0.00     0.045 C 
ATOM     22  O   LIG d   1       3.891 -10.842  -5.460  0.00  0.00    -0.549 OA
ATOM     23  O   LIG d   1       3.608  -9.374  -3.833  0.00  0.00    -0.549 OA
ENDBRANCH   3  21
ENDBRANCH   1   3
BRANCH   1  24
ATOM     24  C   LIG d   1       4.382  -7.956  -7.649  0.00  0.00    -0.061 C 
ATOM     25  H   LIG d   1       4.114  -9.005  -7.785  0.00  0.00     0.023 H 
ATOM     26  H   LIG d   1       3.543  -7.325  -7.942  0.00  0.00     0.023 H 
ATOM     27  H   LIG d   1       5.248  -7.720  -8.267  0.00  0.00     0.023 H 
ENDBRANCH   1  24
BRANCH   1  28
ATOM     28  C   LIG d   1       5.732  -6.561  -6.077  0.00  0.00     0.027 C 
ATOM     29  H   LIG d   1       6.529  -6.841  -5.388  0.00  0.00     0.036 H 
ATOM     30  H   LIG d   1       6.155  -6.362  -7.062  0.00  0.00     0.036 H 
BRANCH  28  31
ATOM     31  C   LIG d   1       5.042  -5.321  -5.569  0.00  0.00     0.217 C 
ATOM     32  O   LIG d   1       3.830  -5.273  -5.536  0.00  0.00    -0.276 OA
ATOM     33  N   LIG d   1       5.769  -4.267  -5.149  0.00  0.00    -0.285 N 
ATOM     34  H   LIG d   1       6.736  -4.334  -5.103  0.00  0.00     0.155 HD
BRANCH  33  35
ATOM     35  C   LIG d   1       5.133  -3.082  -4.783  0.00  0.00     0.033 A 
ATOM     36  C   LIG d   1       4.977  -2.063  -5.717  0.00  0.00    -0.040 A 
ATOM     37  C   LIG d   1       4.349  -0.891  -5.360  0.00  0.00    -0.051 A 
ATOM     38  H   LIG d   1       5.349  -2.190  -6.723  0.00  0.00     0.064 H 
ATOM     39  C   LIG d   1       3.867  -0.726  -4.057  0.00  0.00    -0.003 A 
ATOM     40  H   LIG d   1       4.228  -0.099  -6.085  0.00  0.00     0.062 H 
ATOM     41  C   LIG d   1       4.026  -1.753  -3.122  0.00  0.00    -0.051 A 
ATOM     42  C   LIG d   1       4.651  -2.925  -3.489  0.00  0.00    -0.040 A 
ATOM     43  H   LIG d   1       3.655  -1.630  -2.115  0.00  0.00     0.062 H 
ATOM     44  H   LIG d   1       4.770  -3.720  -2.767  0.00  0.00     0.064 H 
BRANCH  39  45
ATOM     45  C   LIG d   1       3.194   0.527  -3.671  0.00  0.00     0.072 C 
ATOM     46  O   LIG d   1       2.720   1.250  -4.524  0.00  0.00    -0.545 OA
ATOM     47  O   LIG d   1       3.105   0.871  -2.371  0.00  0.00    -0.545 OA
ENDBRANCH  39  45
ENDBRANCH  33  35
ENDBRANCH  28  31
ENDBRANCH   1  28
TORSDOF 12
ENDMDL
MODEL 10
REMARK VINA RESULT:      -5.3      5.333      9.300
REMARK  12 active torsions:
REMARK  status: ('A' for Active; 'I' for Inactive)
REMARK    1  A    between atoms: C_1  and  C_2 
REMARK    2  A    between atoms: C_2  and  C_3 
REMARK    3  A    between atoms: C_3  and  C_4 
REMARK    4  A    between atoms: C_4  and  C_5 
REMARK    5  A    between atoms: C_5  and  C_6 
REMARK    6  A    between atoms: C_6  and  C_8 
REMARK    7  A    between atoms: C_6  and  C_23 
REMARK    8  A    between atoms: C_8  and  C_10 
REMARK    9  A    between atoms: C_8  and  C_11 
REMARK   10  A    between atoms: C_11  and  C_12 
REMARK       I    between atoms: C_12  and  N_14 
REMARK   11  A    between atoms: N_14  and  C_15 
REMARK   12  A    between atoms: C_18  and  C_21 
ROOT
ATOM      1  C   LIG d   1       4.662  -2.781  -5.960  0.00  0.00    -0.028 C 
ATOM      2  H   LIG d   1       3.661  -3.052  -6.298  0.00  0.00     0.031 H 
ENDROOT
BRANCH   1   3
ATOM      3  C   LIG d   1       4.561  -1.690  -4.893  0.00  0.00     0.002 C 
ATOM      4  H   LIG d   1       3.704  -1.051  -5.106  0.00  0.00     0.036 H 
BRANCH   3   5
ATOM      5  C   LIG d   1       4.385  -2.337  -3.518  0.00  0.00    -0.045 C 
ATOM      6  H   LIG d   1       5.364  -2.536  -3.082  0.00  0.00     0.027 H 
ATOM      7  H   LIG d   1       3.838  -3.274  -3.624  0.00  0.00     0.027 H 
BRANCH   5   8
ATOM      8  C   LIG d   1       3.603  -1.390  -2.605  0.00  0.00    -0.052 C 
ATOM      9  H   LIG d   1       2.803  -1.940  -2.111  0.00  0.00     0.026 H 
ATOM     10  H   LIG d   1       3.177  -0.583  -3.200  0.00  0.00     0.026 H 
BRANCH   8  11
ATOM     11  C   LIG d   1       4.545  -0.805  -1.551  0.00  0.00    -0.053 C 
ATOM     12  H   LIG d   1       4.164  -1.033  -0.556  0.00  0.00     0.026 H 
ATOM     13  H   LIG d   1       5.537  -1.240  -1.668  0.00  0.00     0.026 H 
BRANCH  11  14
ATOM     14  C   LIG d   1       4.629   0.712  -1.729  0.00  0.00    -0.056 C 
ATOM     15  H   LIG d   1       4.611   1.194  -0.752  0.00  0.00     0.026 H 
ATOM     16  H   LIG d   1       5.555   0.968  -2.243  0.00  0.00     0.026 H 
BRANCH  14  17
ATOM     17  C   LIG d   1       3.436   1.196  -2.557  0.00  0.00    -0.065 C 
ATOM     18  H   LIG d   1       3.546   0.853  -3.586  0.00  0.00     0.023 H 
ATOM     19  H   LIG d   1       2.516   0.794  -2.136  0.00  0.00     0.023 H 
ATOM     20  H   LIG d   1       3.399   2.285  -2.540  0.00  0.00     0.023 H 
ENDBRANCH  14  17
ENDBRANCH  11  14
ENDBRANCH   8  11
ENDBRANCH   5   8
ENDBRANCH   3   5
BRANCH   3  21
ATOM     21  C   LIG d   1       5.820  -0.862  -4.901  0.00  0.00     0.045 C 
ATOM     22  O   LIG d   1       6.820  -1.277  -4.365  0.00  0.00    -0.549 OA
ATOM     23  O   LIG d   1       5.831   0.338  -5.502  0.00  0.00    -0.549 OA
ENDBRANCH   3  21
ENDBRANCH   1   3
BRANCH   1  24
ATOM     24  C   LIG d   1       5.351  -4.012  -5.369  0.00  0.00    -0.061 C 
ATOM     25  H   LIG d   1       6.428  -3.936  -5.527  0.00  0.00     0.023 H 
ATOM     26  H   LIG d   1       5.144  -4.066  -4.300  0.00  0.00     0.023 H 
ATOM     27  H   LIG d   1       4.975  -4.910  -5.858  0.00  0.00     0.023 H 
ENDBRANCH   1  24
BRANCH   1  28
ATOM     28  C   LIG d   1       5.476  -2.260  -7.146  0.00  0.00     0.027 C 
ATOM     29  H   LIG d   1       5.773  -1.229  -6.959  0.00  0.00     0.036 H 
ATOM     30  H   LIG d   1       6.365  -2.878  -7.275  0.00  0.00     0.036 H 
BRANCH  28  31
ATOM     31  C   LIG d   1       4.638  -2.322  -8.398  0.00  0.00     0.217 C 
ATOM     32  O   LIG d   1       5.173  -2.439  -9.480  0.00  0.00    -0.276 OA
ATOM     33  N   LIG d   1       3.294  -2.251  -8.315  0.00  0.00    -0.285 N 
ATOM     34  H   LIG d   1       2.863  -2.235  -7.446  0.00  0.00     0.155 HD
BRANCH  33  35
ATOM     35  C   LIG d   1       2.526  -2.198  -9.476  0.00  0.00     0.033 A 
ATOM     36  C   LIG d   1       2.103  -3.378 -10.082  0.00  0.00    -0.040 A 
ATOM     37  C   LIG d   1       1.345  -3.330 -11.229  0.00  0.00    -0.051 A 
ATOM     38  H   LIG d   1       2.372  -4.332  -9.652  0.00  0.00     0.064 H 
ATOM     39  C   LIG d   1       0.998  -2.095 -11.786  0.00  0.00    -0.003 A 
ATOM     40  H   LIG d   1       1.016  -4.246 -11.699  0.00  0.00     0.062 H 
ATOM     41  C   LIG d   1       1.424  -0.912 -11.174  0.00  0.00    -0.051 A 
ATOM     42  C   LIG d   1       2.179  -0.968 -10.024  0.00  0.00    -0.040 A 
ATOM     43  H   LIG d   1       1.159   0.044 -11.601  0.00  0.00     0.062 H 
ATOM     44  H   LIG d   1       2.505  -0.054  -9.549  0.00  0.00     0.064 H 
BRANCH  39  45
ATOM     45  C   LIG d   1       0.185  -2.039 -13.014  0.00  0.00     0.072 C 
ATOM     46  O   LIG d   1      -0.914  -1.522 -12.993  0.00  0.00    -0.545 OA
ATOM     47  O   LIG d   1       0.661  -2.563 -14.162  0.00  0.00    -0.545 OA
ENDBRANCH  39  45
ENDBRANCH  33  35
ENDBRANCH  28  31
ENDBRANCH   1  28
TORSDOF 12
ENDMDL
