MODEL 1
REMARK VINA RESULT:      -5.9      0.000      0.000
REMARK  5 active torsions:
REMARK  status: ('A' for Active; 'I' for Inactive)
REMARK    1  A    between atoms: C_1  and  C_2 
REMARK    2  A    between atoms: C_2  and  O_3 
REMARK    3  A    between atoms: O_3  and  C_4 
REMARK    4  A    between atoms: C_7  and  C_13 
REMARK    5  A    between atoms: C_9  and  N_10 
ROOT
ATOM      1  C   LIG d   1       3.231  -0.291  -4.221  0.00  0.00     0.198 A 
ATOM      2  C   LIG d   1       2.539   0.591  -5.041  0.00  0.00    -0.013 A 
ATOM      3  C   LIG d   1       2.667   0.506  -6.411  0.00  0.00    -0.050 A 
ATOM      4  C   LIG d   1       3.493  -0.468  -6.974  0.00  0.00    -0.010 A 
ATOM      5  C   LIG d   1       4.181  -1.356  -6.148  0.00  0.00     0.027 A 
ATOM      6  C   LIG d   1       4.053  -1.261  -4.778  0.00  0.00     0.315 A 
ATOM      7  H   LIG d   1       1.901   1.345  -4.606  0.00  0.00     0.066 H 
ATOM      8  H   LIG d   1       2.129   1.192  -7.049  0.00  0.00     0.062 H 
ATOM      9  H   LIG d   1       4.817  -2.113  -6.581  0.00  0.00     0.069 H 
ENDROOT
BRANCH   4  10
ATOM     10  C   LIG d   1       3.632  -0.562  -8.447  0.00  0.00     0.001 A 
ATOM     11  C   LIG d   1       4.805  -0.352  -9.176  0.00  0.00     0.018 A 
ATOM     12  N   LIG d   1       4.554  -0.522 -10.523  0.00  0.00    -0.322 N 
ATOM     13  H   LIG d   1       5.763  -0.089  -8.750  0.00  0.00     0.082 H 
ATOM     14  C   LIG d   1       3.235  -0.850 -10.685  0.00  0.00     0.047 A 
ATOM     15  C   LIG d   1       5.372  -0.421 -11.603  0.00  0.00     0.010 A 
ATOM     16  C   LIG d   1       2.623  -0.879  -9.345  0.00  0.00    -0.029 A 
ATOM     17  C   LIG d   1       2.717  -1.081 -11.940  0.00  0.00    -0.038 A 
ATOM     18  H   LIG d   1       1.593  -1.103  -9.108  0.00  0.00     0.065 H 
ATOM     19  C   LIG d   1       3.562  -0.979 -13.071  0.00  0.00    -0.058 A 
ATOM     20  H   LIG d   1       1.676  -1.339 -12.062  0.00  0.00     0.064 H 
ATOM     21  C   LIG d   1       4.888  -0.649 -12.887  0.00  0.00    -0.045 A 
ATOM     22  H   LIG d   1       3.175  -1.157 -14.063  0.00  0.00     0.062 H 
ATOM     23  H   LIG d   1       5.548  -0.565 -13.737  0.00  0.00     0.063 H 
ATOM     24  H   LIG d   1       6.412  -0.162 -11.463  0.00  0.00     0.081 H 
ENDBRANCH   4  10
BRANCH   6  25
ATOM     25  N   LIG d   1       4.787  -2.200  -3.901  0.00  0.00     0.083 N 
ATOM     26  O   LIG d   1       4.219  -3.325  -3.517  0.00  0.00     0.042 OA
ATOM     27  O   LIG d   1       6.010  -1.912  -3.503  0.00  0.00    -0.576 OA
ENDBRANCH   6  25
BRANCH   1  28
ATOM     28  O   LIG d   1       3.101  -0.205  -2.871  0.00  0.00    -0.486 OA
BRANCH  28  29
ATOM     29  C   LIG d   1       3.446   1.042  -2.265  0.00  0.00     0.087 C 
ATOM     30  H   LIG d   1       3.383   1.838  -3.008  0.00  0.00     0.069 H 
ATOM     31  H   LIG d   1       2.756   1.252  -1.448  0.00  0.00     0.069 H 
BRANCH  29  32
ATOM     32  C   LIG d   1       4.873   0.967  -1.720  0.00  0.00    -0.031 C 
ATOM     33  H   LIG d   1       5.051  -0.024  -1.301  0.00  0.00     0.026 H 
ATOM     34  H   LIG d   1       5.581   1.151  -2.529  0.00  0.00     0.026 H 
ATOM     35  H   LIG d   1       5.006   1.719  -0.943  0.00  0.00     0.026 H 
ENDBRANCH  29  32
ENDBRANCH  28  29
ENDBRANCH   1  28
TORSDOF 5
ENDMDL
MODEL 2
REMARK VINA RESULT:      -5.9      6.141      8.152
REMARK  5 active torsions:
REMARK  status: ('A' for Active; 'I' for Inactive)
REMARK    1  A    between atoms: C_1  and  C_2 
REMARK    2  A    between atoms: C_2  and  O_3 
REMARK    3  A    between atoms: O_3  and  C_4 
REMARK    4  A    between atoms: C_7  and  C_13 
REMARK    5  A    between atoms: C_9  and  N_10 
ROOT
ATOM      1  C   LIG d   1       9.960   3.775  -5.291  0.00  0.00     0.198 A 
ATOM      2  C   LIG d   1       9.278   3.017  -6.235  0.00  0.00    -0.013 A 
ATOM      3  C   LIG d   1       8.349   2.082  -5.829  0.00  0.00    -0.050 A 
ATOM      4  C   LIG d   1       8.095   1.897  -4.470  0.00  0.00    -0.010 A 
ATOM      5  C   LIG d   1       8.777   2.664  -3.525  0.00  0.00     0.027 A 
ATOM      6  C   LIG d   1       9.709   3.594  -3.938  0.00  0.00     0.315 A 
ATOM      7  H   LIG d   1       9.475   3.159  -7.286  0.00  0.00     0.066 H 
ATOM      8  H   LIG d   1       7.818   1.493  -6.562  0.00  0.00     0.062 H 
ATOM      9  H   LIG d   1       8.580   2.526  -2.473  0.00  0.00     0.069 H 
ENDROOT
BRANCH   4  10
ATOM     10  C   LIG d   1       7.097   0.893  -4.030  0.00  0.00     0.001 A 
ATOM     11  C   LIG d   1       6.967  -0.407  -4.524  0.00  0.00     0.018 A 
ATOM     12  N   LIG d   1       5.926  -1.048  -3.882  0.00  0.00    -0.322 N 
ATOM     13  H   LIG d   1       7.583  -0.842  -5.297  0.00  0.00     0.082 H 
ATOM     14  C   LIG d   1       5.379  -0.189  -2.968  0.00  0.00     0.047 A 
ATOM     15  C   LIG d   1       5.429  -2.305  -4.025  0.00  0.00     0.010 A 
ATOM     16  C   LIG d   1       6.129   1.076  -3.053  0.00  0.00    -0.029 A 
ATOM     17  C   LIG d   1       4.319  -0.583  -2.181  0.00  0.00    -0.038 A 
ATOM     18  H   LIG d   1       5.959   1.970  -2.470  0.00  0.00     0.065 H 
ATOM     19  C   LIG d   1       3.795  -1.889  -2.321  0.00  0.00    -0.058 A 
ATOM     20  H   LIG d   1       3.892   0.100  -1.461  0.00  0.00     0.064 H 
ATOM     21  C   LIG d   1       4.361  -2.740  -3.248  0.00  0.00    -0.045 A 
ATOM     22  H   LIG d   1       2.965  -2.216  -1.714  0.00  0.00     0.062 H 
ATOM     23  H   LIG d   1       3.974  -3.741  -3.371  0.00  0.00     0.063 H 
ATOM     24  H   LIG d   1       5.869  -2.975  -4.749  0.00  0.00     0.081 H 
ENDBRANCH   4  10
BRANCH   6  25
ATOM     25  N   LIG d   1      10.438   4.404  -2.936  0.00  0.00     0.083 N 
ATOM     26  O   LIG d   1      11.641   4.041  -2.544  0.00  0.00     0.042 OA
ATOM     27  O   LIG d   1       9.882   5.489  -2.436  0.00  0.00    -0.576 OA
ENDBRANCH   6  25
BRANCH   1  28
ATOM     28  O   LIG d   1      10.874   4.696  -5.694  0.00  0.00    -0.486 OA
BRANCH  28  29
ATOM     29  C   LIG d   1      10.414   5.727  -6.569  0.00  0.00     0.087 C 
ATOM     30  H   LIG d   1      11.268   6.207  -7.048  0.00  0.00     0.069 H 
ATOM     31  H   LIG d   1       9.765   5.295  -7.331  0.00  0.00     0.069 H 
BRANCH  29  32
ATOM     32  C   LIG d   1       9.632   6.767  -5.764  0.00  0.00    -0.031 C 
ATOM     33  H   LIG d   1       9.503   7.669  -6.364  0.00  0.00     0.026 H 
ATOM     34  H   LIG d   1       8.653   6.363  -5.503  0.00  0.00     0.026 H 
ATOM     35  H   LIG d   1      10.179   7.011  -4.855  0.00  0.00     0.026 H 
ENDBRANCH  29  32
ENDBRANCH  28  29
ENDBRANCH   1  28
TORSDOF 5
ENDMDL
MODEL 3
REMARK VINA RESULT:      -5.5      5.991      8.056
REMARK  5 active torsions:
REMARK  status: ('A' for Active; 'I' for Inactive)
REMARK    1  A    between atoms: C_1  and  C_2 
REMARK    2  A    between atoms: C_2  and  O_3 
REMARK    3  A    between atoms: O_3  and  C_4 
REMARK    4  A    between atoms: C_7  and  C_13 
REMARK    5  A    between atoms: C_9  and  N_10 
ROOT
ATOM      1  C   LIG d   1       9.935   3.601  -5.609  0.00  0.00     0.198 A 
ATOM      2  C   LIG d   1       9.698   3.497  -4.244  0.00  0.00    -0.013 A 
ATOM      3  C   LIG d   1       8.776   2.589  -3.770  0.00  0.00    -0.050 A 
ATOM      4  C   LIG d   1       8.079   1.774  -4.663  0.00  0.00    -0.010 A 
ATOM      5  C   LIG d   1       8.323   1.876  -6.032  0.00  0.00     0.027 A 
ATOM      6  C   LIG d   1       9.244   2.790  -6.500  0.00  0.00     0.315 A 
ATOM      7  H   LIG d   1      10.237   4.128  -3.554  0.00  0.00     0.066 H 
ATOM      8  H   LIG d   1       8.592   2.509  -2.709  0.00  0.00     0.062 H 
ATOM      9  H   LIG d   1       7.790   1.243  -6.724  0.00  0.00     0.069 H 
ENDROOT
BRANCH   4  10
ATOM     10  C   LIG d   1       7.087   0.796  -4.156  0.00  0.00     0.001 A 
ATOM     11  C   LIG d   1       6.887  -0.498  -4.642  0.00  0.00     0.018 A 
ATOM     12  N   LIG d   1       5.876  -1.113  -3.929  0.00  0.00    -0.322 N 
ATOM     13  H   LIG d   1       7.435  -0.948  -5.457  0.00  0.00     0.082 H 
ATOM     14  C   LIG d   1       5.418  -0.242  -2.977  0.00  0.00     0.047 A 
ATOM     15  C   LIG d   1       5.336  -2.355  -4.038  0.00  0.00     0.010 A 
ATOM     16  C   LIG d   1       6.195   1.002  -3.113  0.00  0.00    -0.029 A 
ATOM     17  C   LIG d   1       4.406  -0.609  -2.118  0.00  0.00    -0.038 A 
ATOM     18  H   LIG d   1       6.091   1.898  -2.518  0.00  0.00     0.065 H 
ATOM     19  C   LIG d   1       3.837  -1.900  -2.224  0.00  0.00    -0.058 A 
ATOM     20  H   LIG d   1       4.049   0.083  -1.370  0.00  0.00     0.064 H 
ATOM     21  C   LIG d   1       4.313  -2.763  -3.189  0.00  0.00    -0.045 A 
ATOM     22  H   LIG d   1       3.042  -2.205  -1.560  0.00  0.00     0.062 H 
ATOM     23  H   LIG d   1       3.891  -3.752  -3.286  0.00  0.00     0.063 H 
ATOM     24  H   LIG d   1       5.705  -3.034  -4.793  0.00  0.00     0.081 H 
ENDBRANCH   4  10
BRANCH   6  25
ATOM     25  N   LIG d   1       9.500   2.903  -7.953  0.00  0.00     0.083 N 
ATOM     26  O   LIG d   1       8.735   3.672  -8.699  0.00  0.00     0.042 OA
ATOM     27  O   LIG d   1      10.494   2.233  -8.501  0.00  0.00    -0.576 OA
ENDBRANCH   6  25
BRANCH   1  28
ATOM     28  O   LIG d   1      10.846   4.496  -6.073  0.00  0.00    -0.486 OA
BRANCH  28  29
ATOM     29  C   LIG d   1      10.616   5.872  -5.767  0.00  0.00     0.087 C 
ATOM     30  H   LIG d   1       9.987   5.948  -4.880  0.00  0.00     0.069 H 
ATOM     31  H   LIG d   1      11.569   6.367  -5.579  0.00  0.00     0.069 H 
BRANCH  29  32
ATOM     32  C   LIG d   1       9.916   6.548  -6.947  0.00  0.00    -0.031 C 
ATOM     33  H   LIG d   1      10.606   6.617  -7.789  0.00  0.00     0.026 H 
ATOM     34  H   LIG d   1       9.047   5.957  -7.240  0.00  0.00     0.026 H 
ATOM     35  H   LIG d   1       9.595   7.547  -6.657  0.00  0.00     0.026 H 
ENDBRANCH  29  32
ENDBRANCH  28  29
ENDBRANCH   1  28
TORSDOF 5
ENDMDL
MODEL 4
REMARK VINA RESULT:      -5.4      4.910      7.290
REMARK  5 active torsions:
REMARK  status: ('A' for Active; 'I' for Inactive)
REMARK    1  A    between atoms: C_1  and  C_2 
REMARK    2  A    between atoms: C_2  and  O_3 
REMARK    3  A    between atoms: O_3  and  C_4 
REMARK    4  A    between atoms: C_7  and  C_13 
REMARK    5  A    between atoms: C_9  and  N_10 
ROOT
ATOM      1  C   LIG d   1       4.880  -0.508  -4.710  0.00  0.00     0.198 A 
ATOM      2  C   LIG d   1       4.779  -1.701  -5.416  0.00  0.00    -0.013 A 
ATOM      3  C   LIG d   1       5.727  -2.687  -5.245  0.00  0.00    -0.050 A 
ATOM      4  C   LIG d   1       6.789  -2.487  -4.363  0.00  0.00    -0.010 A 
ATOM      5  C   LIG d   1       6.885  -1.292  -3.651  0.00  0.00     0.027 A 
ATOM      6  C   LIG d   1       5.936  -0.307  -3.831  0.00  0.00     0.315 A 
ATOM      7  H   LIG d   1       3.958  -1.855  -6.098  0.00  0.00     0.066 H 
ATOM      8  H   LIG d   1       5.648  -3.614  -5.793  0.00  0.00     0.062 H 
ATOM      9  H   LIG d   1       7.703  -1.135  -2.965  0.00  0.00     0.069 H 
ENDROOT
BRANCH   4  10
ATOM     10  C   LIG d   1       7.810  -3.546  -4.177  0.00  0.00     0.001 A 
ATOM     11  C   LIG d   1       7.902  -4.735  -4.904  0.00  0.00     0.018 A 
ATOM     12  N   LIG d   1       8.974  -5.478  -4.450  0.00  0.00    -0.322 N 
ATOM     13  H   LIG d   1       7.231  -5.033  -5.696  0.00  0.00     0.082 H 
ATOM     14  C   LIG d   1       9.592  -4.786  -3.442  0.00  0.00     0.047 A 
ATOM     15  C   LIG d   1       9.452  -6.687  -4.843  0.00  0.00     0.010 A 
ATOM     16  C   LIG d   1       8.846  -3.529  -3.254  0.00  0.00    -0.029 A 
ATOM     17  C   LIG d   1      10.702  -5.304  -2.813  0.00  0.00    -0.038 A 
ATOM     18  H   LIG d   1       9.063  -2.749  -2.538  0.00  0.00     0.065 H 
ATOM     19  C   LIG d   1      11.207  -6.562  -3.216  0.00  0.00    -0.058 A 
ATOM     20  H   LIG d   1      11.184  -4.753  -2.019  0.00  0.00     0.064 H 
ATOM     21  C   LIG d   1      10.572  -7.243  -4.234  0.00  0.00    -0.045 A 
ATOM     22  H   LIG d   1      12.077  -6.984  -2.735  0.00  0.00     0.062 H 
ATOM     23  H   LIG d   1      10.942  -8.205  -4.555  0.00  0.00     0.063 H 
ATOM     24  H   LIG d   1       8.957  -7.224  -5.640  0.00  0.00     0.081 H 
ENDBRANCH   4  10
BRANCH   6  25
ATOM     25  N   LIG d   1       6.040   0.965  -3.080  0.00  0.00     0.083 N 
ATOM     26  O   LIG d   1       5.295   1.161  -2.011  0.00  0.00     0.042 OA
ATOM     27  O   LIG d   1       6.876   1.900  -3.480  0.00  0.00    -0.576 OA
ENDBRANCH   6  25
BRANCH   1  28
ATOM     28  O   LIG d   1       3.944   0.461  -4.880  0.00  0.00    -0.486 OA
BRANCH  28  29
ATOM     29  C   LIG d   1       2.588   0.109  -4.601  0.00  0.00     0.087 C 
ATOM     30  H   LIG d   1       1.962   1.001  -4.654  0.00  0.00     0.069 H 
ATOM     31  H   LIG d   1       2.243  -0.620  -5.334  0.00  0.00     0.069 H 
BRANCH  29  32
ATOM     32  C   LIG d   1       2.495  -0.494  -3.198  0.00  0.00    -0.031 C 
ATOM     33  H   LIG d   1       3.493  -0.555  -2.762  0.00  0.00     0.026 H 
ATOM     34  H   LIG d   1       1.864   0.137  -2.572  0.00  0.00     0.026 H 
ATOM     35  H   LIG d   1       2.065  -1.493  -3.260  0.00  0.00     0.026 H 
ENDBRANCH  29  32
ENDBRANCH  28  29
ENDBRANCH   1  28
TORSDOF 5
ENDMDL
MODEL 5
REMARK VINA RESULT:      -4.9      6.019      8.124
REMARK  5 active torsions:
REMARK  status: ('A' for Active; 'I' for Inactive)
REMARK    1  A    between atoms: C_1  and  C_2 
REMARK    2  A    between atoms: C_2  and  O_3 
REMARK    3  A    between atoms: O_3  and  C_4 
REMARK    4  A    between atoms: C_7  and  C_13 
REMARK    5  A    between atoms: C_9  and  N_10 
ROOT
ATOM      1  C   LIG d   1      10.473  -4.119  -5.000  0.00  0.00     0.198 A 
ATOM      2  C   LIG d   1      10.195  -2.900  -5.607  0.00  0.00    -0.013 A 
ATOM      3  C   LIG d   1       9.093  -2.169  -5.216  0.00  0.00    -0.050 A 
ATOM      4  C   LIG d   1       8.255  -2.655  -4.212  0.00  0.00    -0.010 A 
ATOM      5  C   LIG d   1       8.540  -3.875  -3.600  0.00  0.00     0.027 A 
ATOM      6  C   LIG d   1       9.641  -4.604  -3.999  0.00  0.00     0.315 A 
ATOM      7  H   LIG d   1      10.842  -2.525  -6.384  0.00  0.00     0.066 H 
ATOM      8  H   LIG d   1       8.877  -1.222  -5.688  0.00  0.00     0.062 H 
ATOM      9  H   LIG d   1       7.897  -4.252  -2.820  0.00  0.00     0.069 H 
ENDROOT
BRANCH   4  10
ATOM     10  C   LIG d   1       7.069  -1.871  -3.790  0.00  0.00     0.001 A 
ATOM     11  C   LIG d   1       7.060  -0.518  -3.445  0.00  0.00     0.018 A 
ATOM     12  N   LIG d   1       5.779  -0.133  -3.101  0.00  0.00    -0.322 N 
ATOM     13  H   LIG d   1       7.925   0.129  -3.440  0.00  0.00     0.082 H 
ATOM     14  C   LIG d   1       4.948  -1.214  -3.226  0.00  0.00     0.047 A 
ATOM     15  C   LIG d   1       5.285   1.068  -2.700  0.00  0.00     0.010 A 
ATOM     16  C   LIG d   1       5.773  -2.351  -3.673  0.00  0.00    -0.029 A 
ATOM     17  C   LIG d   1       3.604  -1.103  -2.948  0.00  0.00    -0.038 A 
ATOM     18  H   LIG d   1       5.435  -3.358  -3.870  0.00  0.00     0.065 H 
ATOM     19  C   LIG d   1       3.080   0.143  -2.531  0.00  0.00    -0.058 A 
ATOM     20  H   LIG d   1       2.954  -1.960  -3.049  0.00  0.00     0.064 H 
ATOM     21  C   LIG d   1       3.933   1.221  -2.411  0.00  0.00    -0.045 A 
ATOM     22  H   LIG d   1       2.029   0.250  -2.308  0.00  0.00     0.062 H 
ATOM     23  H   LIG d   1       3.553   2.180  -2.093  0.00  0.00     0.063 H 
ATOM     24  H   LIG d   1       5.950   1.914  -2.606  0.00  0.00     0.081 H 
ENDBRANCH   4  10
BRANCH   6  25
ATOM     25  N   LIG d   1       9.941  -5.902  -3.354  0.00  0.00     0.083 N 
ATOM     26  O   LIG d   1      10.631  -5.937  -2.233  0.00  0.00     0.042 OA
ATOM     27  O   LIG d   1       9.518  -7.023  -3.902  0.00  0.00    -0.576 OA
ENDBRANCH   6  25
BRANCH   1  28
ATOM     28  O   LIG d   1      11.560  -4.836  -5.386  0.00  0.00    -0.486 OA
BRANCH  28  29
ATOM     29  C   LIG d   1      12.837  -4.217  -5.221  0.00  0.00     0.087 C 
ATOM     30  H   LIG d   1      13.467  -4.449  -6.081  0.00  0.00     0.069 H 
ATOM     31  H   LIG d   1      12.710  -3.137  -5.146  0.00  0.00     0.069 H 
BRANCH  29  32
ATOM     32  C   LIG d   1      13.499  -4.743  -3.947  0.00  0.00    -0.031 C 
ATOM     33  H   LIG d   1      14.101  -3.953  -3.497  0.00  0.00     0.026 H 
ATOM     34  H   LIG d   1      12.730  -5.059  -3.242  0.00  0.00     0.026 H 
ATOM     35  H   LIG d   1      14.138  -5.591  -4.193  0.00  0.00     0.026 H 
ENDBRANCH  29  32
ENDBRANCH  28  29
ENDBRANCH   1  28
TORSDOF 5
ENDMDL
MODEL 6
REMARK VINA RESULT:      -4.9      3.503      7.638
REMARK  5 active torsions:
REMARK  status: ('A' for Active; 'I' for Inactive)
REMARK    1  A    between atoms: C_1  and  C_2 
REMARK    2  A    between atoms: C_2  and  O_3 
REMARK    3  A    between atoms: O_3  and  C_4 
REMARK    4  A    between atoms: C_7  and  C_13 
REMARK    5  A    between atoms: C_9  and  N_10 
ROOT
ATOM      1  C   LIG d   1       4.021  -1.625 -10.814  0.00  0.00     0.198 A 
ATOM      2  C   LIG d   1       5.228  -1.411 -10.160  0.00  0.00    -0.013 A 
ATOM      3  C   LIG d   1       5.253  -1.255  -8.791  0.00  0.00    -0.050 A 
ATOM      4  C   LIG d   1       4.065  -1.310  -8.062  0.00  0.00    -0.010 A 
ATOM      5  C   LIG d   1       2.855  -1.530  -8.720  0.00  0.00     0.027 A 
ATOM      6  C   LIG d   1       2.837  -1.681 -10.091  0.00  0.00     0.315 A 
ATOM      7  H   LIG d   1       6.147  -1.368 -10.724  0.00  0.00     0.066 H 
ATOM      8  H   LIG d   1       6.191  -1.089  -8.282  0.00  0.00     0.062 H 
ATOM      9  H   LIG d   1       1.935  -1.578  -8.159  0.00  0.00     0.069 H 
ENDROOT
BRANCH   4  10
ATOM     10  C   LIG d   1       4.088  -1.142  -6.589  0.00  0.00     0.001 A 
ATOM     11  C   LIG d   1       3.571  -0.057  -5.877  0.00  0.00     0.018 A 
ATOM     12  N   LIG d   1       3.778  -0.244  -4.525  0.00  0.00    -0.322 N 
ATOM     13  H   LIG d   1       3.088   0.802  -6.319  0.00  0.00     0.082 H 
ATOM     14  C   LIG d   1       4.415  -1.442  -4.340  0.00  0.00     0.047 A 
ATOM     15  C   LIG d   1       3.454   0.531  -3.457  0.00  0.00     0.010 A 
ATOM     16  C   LIG d   1       4.624  -2.036  -5.673  0.00  0.00    -0.029 A 
ATOM     17  C   LIG d   1       4.739  -1.878  -3.075  0.00  0.00    -0.038 A 
ATOM     18  H   LIG d   1       5.100  -2.981  -5.893  0.00  0.00     0.065 H 
ATOM     19  C   LIG d   1       4.406  -1.078  -1.957  0.00  0.00    -0.058 A 
ATOM     20  H   LIG d   1       5.242  -2.823  -2.936  0.00  0.00     0.064 H 
ATOM     21  C   LIG d   1       3.763   0.125  -2.163  0.00  0.00    -0.045 A 
ATOM     22  H   LIG d   1       4.651  -1.403  -0.957  0.00  0.00     0.062 H 
ATOM     23  H   LIG d   1       3.501   0.750  -1.323  0.00  0.00     0.063 H 
ATOM     24  H   LIG d   1       2.951   1.474  -3.614  0.00  0.00     0.081 H 
ENDBRANCH   4  10
BRANCH   6  25
ATOM     25  N   LIG d   1       1.553  -1.910 -10.792  0.00  0.00     0.083 N 
ATOM     26  O   LIG d   1       0.973  -0.922 -11.442  0.00  0.00     0.042 OA
ATOM     27  O   LIG d   1       0.991  -3.101 -10.766  0.00  0.00    -0.576 OA
ENDBRANCH   6  25
BRANCH   1  28
ATOM     28  O   LIG d   1       4.000  -1.780 -12.164  0.00  0.00    -0.486 OA
BRANCH  28  29
ATOM     29  C   LIG d   1       4.243  -0.615 -12.955  0.00  0.00     0.087 C 
ATOM     30  H   LIG d   1       3.344  -0.365 -13.520  0.00  0.00     0.069 H 
ATOM     31  H   LIG d   1       4.505   0.218 -12.303  0.00  0.00     0.069 H 
BRANCH  29  32
ATOM     32  C   LIG d   1       5.394  -0.887 -13.924  0.00  0.00    -0.031 C 
ATOM     33  H   LIG d   1       6.331  -0.948 -13.368  0.00  0.00     0.026 H 
ATOM     34  H   LIG d   1       5.218  -1.830 -14.442  0.00  0.00     0.026 H 
ATOM     35  H   LIG d   1       5.456  -0.079 -14.651  0.00  0.00     0.026 H 
ENDBRANCH  29  32
ENDBRANCH  28  29
ENDBRANCH   1  28
TORSDOF 5
ENDMDL
MODEL 7
REMARK VINA RESULT:      -4.9      3.515      7.478
REMARK  5 active torsions:
REMARK  status: ('A' for Active; 'I' for Inactive)
REMARK    1  A    between atoms: C_1  and  C_2 
REMARK    2  A    between atoms: C_2  and  O_3 
REMARK    3  A    between atoms: O_3  and  C_4 
REMARK    4  A    between atoms: C_7  and  C_13 
REMARK    5  A    between atoms: C_9  and  N_10 
ROOT
ATOM      1  C   LIG d   1       4.161  -2.165 -10.356  0.00  0.00     0.198 A 
ATOM      2  C   LIG d   1       5.373  -2.056  -9.686  0.00  0.00    -0.013 A 
ATOM      3  C   LIG d   1       5.408  -1.573  -8.395  0.00  0.00    -0.050 A 
ATOM      4  C   LIG d   1       4.225  -1.193  -7.761  0.00  0.00    -0.010 A 
ATOM      5  C   LIG d   1       3.009  -1.309  -8.434  0.00  0.00     0.027 A 
ATOM      6  C   LIG d   1       2.981  -1.788  -9.727  0.00  0.00     0.315 A 
ATOM      7  H   LIG d   1       6.288  -2.350 -10.176  0.00  0.00     0.066 H 
ATOM      8  H   LIG d   1       6.351  -1.489  -7.875  0.00  0.00     0.062 H 
ATOM      9  H   LIG d   1       2.091  -1.019  -7.945  0.00  0.00     0.069 H 
ENDROOT
BRANCH   4  10
ATOM     10  C   LIG d   1       4.260  -0.673  -6.373  0.00  0.00     0.001 A 
ATOM     11  C   LIG d   1       5.363  -0.691  -5.517  0.00  0.00     0.018 A 
ATOM     12  N   LIG d   1       5.021  -0.126  -4.304  0.00  0.00    -0.322 N 
ATOM     13  H   LIG d   1       6.335  -1.093  -5.763  0.00  0.00     0.082 H 
ATOM     14  C   LIG d   1       3.712   0.271  -4.358  0.00  0.00     0.047 A 
ATOM     15  C   LIG d   1       5.751   0.074  -3.175  0.00  0.00     0.010 A 
ATOM     16  C   LIG d   1       3.204  -0.079  -5.697  0.00  0.00    -0.029 A 
ATOM     17  C   LIG d   1       3.116   0.875  -3.274  0.00  0.00    -0.038 A 
ATOM     18  H   LIG d   1       2.207   0.094  -6.076  0.00  0.00     0.065 H 
ATOM     19  C   LIG d   1       3.867   1.088  -2.095  0.00  0.00    -0.058 A 
ATOM     20  H   LIG d   1       2.082   1.186  -3.323  0.00  0.00     0.064 H 
ATOM     21  C   LIG d   1       5.185   0.681  -2.060  0.00  0.00    -0.045 A 
ATOM     22  H   LIG d   1       3.417   1.560  -1.234  0.00  0.00     0.062 H 
ATOM     23  H   LIG d   1       5.775   0.834  -1.169  0.00  0.00     0.063 H 
ATOM     24  H   LIG d   1       6.784  -0.243  -3.144  0.00  0.00     0.081 H 
ENDBRANCH   4  10
BRANCH   6  25
ATOM     25  N   LIG d   1       1.692  -1.907 -10.444  0.00  0.00     0.083 N 
ATOM     26  O   LIG d   1       0.947  -2.982 -10.287  0.00  0.00     0.042 OA
ATOM     27  O   LIG d   1       1.288  -0.937 -11.239  0.00  0.00    -0.576 OA
ENDBRANCH   6  25
BRANCH   1  28
ATOM     28  O   LIG d   1       4.129  -2.643 -11.627  0.00  0.00    -0.486 OA
BRANCH  28  29
ATOM     29  C   LIG d   1       4.544  -3.996 -11.822  0.00  0.00     0.087 C 
ATOM     30  H   LIG d   1       5.221  -4.050 -12.676  0.00  0.00     0.069 H 
ATOM     31  H   LIG d   1       5.058  -4.351 -10.929  0.00  0.00     0.069 H 
BRANCH  29  32
ATOM     32  C   LIG d   1       3.319  -4.872 -12.088  0.00  0.00    -0.031 C 
ATOM     33  H   LIG d   1       3.583  -5.663 -12.791  0.00  0.00     0.026 H 
ATOM     34  H   LIG d   1       2.980  -5.317 -11.152  0.00  0.00     0.026 H 
ATOM     35  H   LIG d   1       2.520  -4.263 -12.511  0.00  0.00     0.026 H 
ENDBRANCH  29  32
ENDBRANCH  28  29
ENDBRANCH   1  28
TORSDOF 5
ENDMDL
MODEL 8
REMARK VINA RESULT:      -4.9      6.630     10.371
REMARK  5 active torsions:
REMARK  status: ('A' for Active; 'I' for Inactive)
REMARK    1  A    between atoms: C_1  and  C_2 
REMARK    2  A    between atoms: C_2  and  O_3 
REMARK    3  A    between atoms: O_3  and  C_4 
REMARK    4  A    between atoms: C_7  and  C_13 
REMARK    5  A    between atoms: C_9  and  N_10 
ROOT
ATOM      1  C   LIG d   1       8.914   2.454  -6.680  0.00  0.00     0.198 A 
ATOM      2  C   LIG d   1       9.598   3.653  -6.837  0.00  0.00    -0.013 A 
ATOM      3  C   LIG d   1       9.915   4.417  -5.734  0.00  0.00    -0.050 A 
ATOM      4  C   LIG d   1       9.549   3.986  -4.459  0.00  0.00    -0.010 A 
ATOM      5  C   LIG d   1       8.868   2.779  -4.304  0.00  0.00     0.027 A 
ATOM      6  C   LIG d   1       8.549   2.021  -5.412  0.00  0.00     0.315 A 
ATOM      7  H   LIG d   1       9.881   3.987  -7.823  0.00  0.00     0.066 H 
ATOM      8  H   LIG d   1      10.447   5.349  -5.857  0.00  0.00     0.062 H 
ATOM      9  H   LIG d   1       8.587   2.440  -3.318  0.00  0.00     0.069 H 
ENDROOT
BRANCH   4  10
ATOM     10  C   LIG d   1       9.889   4.805  -3.271  0.00  0.00     0.001 A 
ATOM     11  C   LIG d   1      10.669   4.396  -2.188  0.00  0.00     0.018 A 
ATOM     12  N   LIG d   1      10.767   5.423  -1.269  0.00  0.00    -0.322 N 
ATOM     13  H   LIG d   1      11.123   3.421  -2.081  0.00  0.00     0.082 H 
ATOM     14  C   LIG d   1      10.068   6.502  -1.741  0.00  0.00     0.047 A 
ATOM     15  C   LIG d   1      11.411   5.494  -0.075  0.00  0.00     0.010 A 
ATOM     16  C   LIG d   1       9.492   6.115  -3.041  0.00  0.00    -0.029 A 
ATOM     17  C   LIG d   1      10.007   7.671  -1.017  0.00  0.00    -0.038 A 
ATOM     18  H   LIG d   1       8.882   6.729  -3.687  0.00  0.00     0.065 H 
ATOM     19  C   LIG d   1      10.675   7.754   0.228  0.00  0.00    -0.058 A 
ATOM     20  H   LIG d   1       9.454   8.518  -1.394  0.00  0.00     0.064 H 
ATOM     21  C   LIG d   1      11.374   6.657   0.686  0.00  0.00    -0.045 A 
ATOM     22  H   LIG d   1      10.638   8.662   0.810  0.00  0.00     0.062 H 
ATOM     23  H   LIG d   1      11.889   6.701   1.634  0.00  0.00     0.063 H 
ATOM     24  H   LIG d   1      11.960   4.636   0.288  0.00  0.00     0.081 H 
ENDBRANCH   4  10
BRANCH   6  25
ATOM     25  N   LIG d   1       7.822   0.742  -5.248  0.00  0.00     0.083 N 
ATOM     26  O   LIG d   1       6.507   0.719  -5.314  0.00  0.00     0.042 OA
ATOM     27  O   LIG d   1       8.490  -0.373  -5.037  0.00  0.00    -0.576 OA
ENDBRANCH   6  25
BRANCH   1  28
ATOM     28  O   LIG d   1       8.604   1.702  -7.768  0.00  0.00    -0.486 OA
BRANCH  28  29
ATOM     29  C   LIG d   1       7.910   2.357  -8.832  0.00  0.00     0.087 C 
ATOM     30  H   LIG d   1       7.955   3.437  -8.685  0.00  0.00     0.069 H 
ATOM     31  H   LIG d   1       8.377   2.100  -9.783  0.00  0.00     0.069 H 
BRANCH  29  32
ATOM     32  C   LIG d   1       6.449   1.905  -8.843  0.00  0.00    -0.031 C 
ATOM     33  H   LIG d   1       6.237   1.383  -9.777  0.00  0.00     0.026 H 
ATOM     34  H   LIG d   1       6.271   1.231  -8.004  0.00  0.00     0.026 H 
ATOM     35  H   LIG d   1       5.798   2.774  -8.757  0.00  0.00     0.026 H 
ENDBRANCH  29  32
ENDBRANCH  28  29
ENDBRANCH   1  28
TORSDOF 5
ENDMDL
MODEL 9
REMARK VINA RESULT:      -4.7      8.384     10.483
REMARK  5 active torsions:
REMARK  status: ('A' for Active; 'I' for Inactive)
REMARK    1  A    between atoms: C_1  and  C_2 
REMARK    2  A    between atoms: C_2  and  O_3 
REMARK    3  A    between atoms: O_3  and  C_4 
REMARK    4  A    between atoms: C_7  and  C_13 
REMARK    5  A    between atoms: C_9  and  N_10 
ROOT
ATOM      1  C   LIG d   1       9.983   7.371  -1.091  0.00  0.00     0.198 A 
ATOM      2  C   LIG d   1       9.414   7.209  -2.348  0.00  0.00    -0.013 A 
ATOM      3  C   LIG d   1       9.514   5.998  -3.000  0.00  0.00    -0.050 A 
ATOM      4  C   LIG d   1      10.187   4.935  -2.397  0.00  0.00    -0.010 A 
ATOM      5  C   LIG d   1      10.751   5.099  -1.133  0.00  0.00     0.027 A 
ATOM      6  C   LIG d   1      10.652   6.314  -0.488  0.00  0.00     0.315 A 
ATOM      7  H   LIG d   1       8.895   8.031  -2.815  0.00  0.00     0.066 H 
ATOM      8  H   LIG d   1       9.072   5.873  -3.978  0.00  0.00     0.062 H 
ATOM      9  H   LIG d   1      11.268   4.278  -0.661  0.00  0.00     0.069 H 
ENDROOT
BRANCH   4  10
ATOM     10  C   LIG d   1      10.296   3.632  -3.096  0.00  0.00     0.001 A 
ATOM     11  C   LIG d   1      11.457   2.867  -3.231  0.00  0.00     0.018 A 
ATOM     12  N   LIG d   1      11.178   1.719  -3.947  0.00  0.00    -0.322 N 
ATOM     13  H   LIG d   1      12.428   3.136  -2.841  0.00  0.00     0.082 H 
ATOM     14  C   LIG d   1       9.849   1.718  -4.274  0.00  0.00     0.047 A 
ATOM     15  C   LIG d   1      11.978   0.688  -4.325  0.00  0.00     0.010 A 
ATOM     16  C   LIG d   1       9.263   2.955  -3.728  0.00  0.00    -0.029 A 
ATOM     17  C   LIG d   1       9.302   0.676  -4.989  0.00  0.00    -0.038 A 
ATOM     18  H   LIG d   1       8.233   3.272  -3.805  0.00  0.00     0.065 H 
ATOM     19  C   LIG d   1      10.126  -0.403  -5.387  0.00  0.00    -0.058 A 
ATOM     20  H   LIG d   1       8.253   0.681  -5.244  0.00  0.00     0.064 H 
ATOM     21  C   LIG d   1      11.463  -0.384  -5.047  0.00  0.00    -0.045 A 
ATOM     22  H   LIG d   1       9.716  -1.229  -5.948  0.00  0.00     0.062 H 
ATOM     23  H   LIG d   1      12.109  -1.197  -5.342  0.00  0.00     0.063 H 
ATOM     24  H   LIG d   1      13.025   0.699  -4.061  0.00  0.00     0.081 H 
ENDBRANCH   4  10
BRANCH   6  25
ATOM     25  N   LIG d   1      11.255   6.491   0.853  0.00  0.00     0.083 N 
ATOM     26  O   LIG d   1      12.311   7.263   1.004  0.00  0.00     0.042 OA
ATOM     27  O   LIG d   1      10.735   5.876   1.895  0.00  0.00    -0.576 OA
ENDBRANCH   6  25
BRANCH   1  28
ATOM     28  O   LIG d   1       9.882   8.565  -0.450  0.00  0.00    -0.486 OA
BRANCH  28  29
ATOM     29  C   LIG d   1      10.195   9.735  -1.206  0.00  0.00     0.087 C 
ATOM     30  H   LIG d   1       9.799   9.633  -2.217  0.00  0.00     0.069 H 
ATOM     31  H   LIG d   1       9.749  10.607  -0.728  0.00  0.00     0.069 H 
BRANCH  29  32
ATOM     32  C   LIG d   1      11.713   9.910  -1.271  0.00  0.00    -0.031 C 
ATOM     33  H   LIG d   1      12.013  10.107  -2.301  0.00  0.00     0.026 H 
ATOM     34  H   LIG d   1      12.009  10.750  -0.641  0.00  0.00     0.026 H 
ATOM     35  H   LIG d   1      12.200   9.002  -0.918  0.00  0.00     0.026 H 
ENDBRANCH  29  32
ENDBRANCH  28  29
ENDBRANCH   1  28
TORSDOF 5
ENDMDL
MODEL 10
REMARK VINA RESULT:      -4.7     10.124     11.676
REMARK  5 active torsions:
REMARK  status: ('A' for Active; 'I' for Inactive)
REMARK    1  A    between atoms: C_1  and  C_2 
REMARK    2  A    between atoms: C_2  and  O_3 
REMARK    3  A    between atoms: O_3  and  C_4 
REMARK    4  A    between atoms: C_7  and  C_13 
REMARK    5  A    between atoms: C_9  and  N_10 
ROOT
ATOM      1  C   LIG d   1      10.769   8.897  -0.212  0.00  0.00     0.198 A 
ATOM      2  C   LIG d   1      10.331   9.889  -1.081  0.00  0.00    -0.013 A 
ATOM      3  C   LIG d   1      10.091   9.591  -2.405  0.00  0.00    -0.050 A 
ATOM      4  C   LIG d   1      10.289   8.292  -2.874  0.00  0.00    -0.010 A 
ATOM      5  C   LIG d   1      10.723   7.297  -1.999  0.00  0.00     0.027 A 
ATOM      6  C   LIG d   1      10.966   7.603  -0.676  0.00  0.00     0.315 A 
ATOM      7  H   LIG d   1      10.179  10.894  -0.718  0.00  0.00     0.066 H 
ATOM      8  H   LIG d   1       9.751  10.363  -3.080  0.00  0.00     0.062 H 
ATOM      9  H   LIG d   1      10.873   6.290  -2.357  0.00  0.00     0.069 H 
ENDROOT
BRANCH   4  10
ATOM     10  C   LIG d   1      10.032   7.969  -4.298  0.00  0.00     0.001 A 
ATOM     11  C   LIG d   1      10.220   6.725  -4.904  0.00  0.00     0.018 A 
ATOM     12  N   LIG d   1       9.881   6.802  -6.241  0.00  0.00    -0.322 N 
ATOM     13  H   LIG d   1      10.582   5.838  -4.405  0.00  0.00     0.082 H 
ATOM     14  C   LIG d   1       9.466   8.077  -6.516  0.00  0.00     0.047 A 
ATOM     15  C   LIG d   1       9.900   5.861  -7.222  0.00  0.00     0.010 A 
ATOM     16  C   LIG d   1       9.559   8.847  -5.263  0.00  0.00    -0.029 A 
ATOM     17  C   LIG d   1       9.062   8.426  -7.785  0.00  0.00    -0.038 A 
ATOM     18  H   LIG d   1       9.308   9.888  -5.123  0.00  0.00     0.065 H 
ATOM     19  C   LIG d   1       9.078   7.454  -8.813  0.00  0.00    -0.058 A 
ATOM     20  H   LIG d   1       8.736   9.434  -7.995  0.00  0.00     0.064 H 
ATOM     21  C   LIG d   1       9.499   6.174  -8.516  0.00  0.00    -0.045 A 
ATOM     22  H   LIG d   1       8.766   7.709  -9.814  0.00  0.00     0.062 H 
ATOM     23  H   LIG d   1       9.519   5.419  -9.287  0.00  0.00     0.063 H 
ATOM     24  H   LIG d   1      10.230   4.858  -6.993  0.00  0.00     0.081 H 
ENDBRANCH   4  10
BRANCH   6  25
ATOM     25  N   LIG d   1      11.431   6.548   0.253  0.00  0.00     0.083 N 
ATOM     26  O   LIG d   1      10.565   5.909   1.011  0.00  0.00     0.042 OA
ATOM     27  O   LIG d   1      12.713   6.248   0.321  0.00  0.00    -0.576 OA
ENDBRANCH   6  25
BRANCH   1  28
ATOM     28  O   LIG d   1      11.003   9.193   1.093  0.00  0.00    -0.486 OA
BRANCH  28  29
ATOM     29  C   LIG d   1      12.286   9.734   1.415  0.00  0.00     0.087 C 
ATOM     30  H   LIG d   1      12.800   9.064   2.105  0.00  0.00     0.069 H 
ATOM     31  H   LIG d   1      12.875   9.839   0.504  0.00  0.00     0.069 H 
BRANCH  29  32
ATOM     32  C   LIG d   1      12.112  11.104   2.071  0.00  0.00    -0.031 C 
ATOM     33  H   LIG d   1      12.889  11.780   1.712  0.00  0.00     0.026 H 
ATOM     34  H   LIG d   1      11.133  11.509   1.814  0.00  0.00     0.026 H 
ATOM     35  H   LIG d   1      12.191  11.002   3.153  0.00  0.00     0.026 H 
ENDBRANCH  29  32
ENDBRANCH  28  29
ENDBRANCH   1  28
TORSDOF 5
ENDMDL
