MODEL 1
REMARK VINA RESULT:      -5.3      0.000      0.000
REMARK  18 active torsions:
REMARK  status: ('A' for Active; 'I' for Inactive)
REMARK    1  A    between atoms: C_1  and  C_2 
REMARK    2  A    between atoms: C_2  and  C_3 
REMARK    3  A    between atoms: C_2  and  C_4 
REMARK    4  A    between atoms: C_4  and  C_5 
REMARK    5  A    between atoms: C_5  and  C_6 
REMARK    6  A    between atoms: C_6  and  O_37 
REMARK    7  A    between atoms: C_7  and  O_36 
REMARK    8  A    between atoms: C_9  and  C_34 
REMARK    9  A    between atoms: C_9  and  C_35 
REMARK   10  A    between atoms: C_10  and  O_17 
REMARK   11  A    between atoms: C_12  and  C_15 
REMARK   12  A    between atoms: C_12  and  C_16 
REMARK   13  A    between atoms: O_17  and  C_18 
REMARK   14  A    between atoms: C_20  and  O_33 
REMARK   15  A    between atoms: C_22  and  O_32 
REMARK   16  A    between atoms: C_24  and  O_31 
REMARK   17  A    between atoms: C_26  and  C_29 
REMARK   18  A    between atoms: C_29  and  O_30 
ROOT
ATOM      1  C   LIG d   1       4.881  -0.535  -6.142  0.00  0.00     0.150 C 
ATOM      2  C   LIG d   1       5.093  -1.907  -6.775  0.00  0.00     0.098 C 
ATOM      3  H   LIG d   1       5.979  -2.373  -6.322  0.00  0.00     0.063 H 
ATOM      4  C   LIG d   1       5.295  -1.828  -8.282  0.00  0.00     0.021 C 
ATOM      5  C   LIG d   1       4.175  -1.090  -8.994  0.00  0.00     0.081 C 
ATOM      6  H   LIG d   1       3.283  -1.742  -9.003  0.00  0.00     0.061 H 
ATOM      7  C   LIG d   1       3.783   0.245  -8.382  0.00  0.00     0.053 C 
ATOM      8  C   LIG d   1       3.779   0.185  -6.876  0.00  0.00     0.175 C 
ATOM      9  O   LIG d   1       2.884   0.717  -6.251  0.00  0.00    -0.294 OA
ENDROOT
BRANCH   5  10
ATOM     10  O   LIG d   1       4.552  -0.883 -10.366  0.00  0.00    -0.344 OA
BRANCH  10  11
ATOM     11  C   LIG d   1       3.498  -1.120 -11.301  0.00  0.00     0.188 C 
ATOM     12  H   LIG d   1       2.812  -0.272 -11.298  0.00  0.00     0.094 H 
ATOM     13  O   LIG d   1       2.790  -2.306 -10.931  0.00  0.00    -0.341 OA
ATOM     14  C   LIG d   1       1.693  -2.623 -11.791  0.00  0.00     0.113 C 
ATOM     15  C   LIG d   1       2.211  -2.857 -13.212  0.00  0.00     0.112 C 
ATOM     16  H   LIG d   1       0.985  -1.795 -11.795  0.00  0.00     0.065 H 
ATOM     17  C   LIG d   1       2.958  -1.608 -13.688  0.00  0.00     0.114 C 
ATOM     18  H   LIG d   1       2.890  -3.711 -13.216  0.00  0.00     0.065 H 
ATOM     19  C   LIG d   1       4.088  -1.294 -12.703  0.00  0.00     0.134 C 
ATOM     20  H   LIG d   1       2.267  -0.765 -13.731  0.00  0.00     0.065 H 
ATOM     21  H   LIG d   1       4.804  -2.116 -12.696  0.00  0.00     0.067 H 
BRANCH  14  22
ATOM     22  C   LIG d   1       0.998  -3.888 -11.285  0.00  0.00     0.073 C 
ATOM     23  H   LIG d   1       0.396  -4.317 -12.086  0.00  0.00     0.058 H 
ATOM     24  H   LIG d   1       1.748  -4.613 -10.967  0.00  0.00     0.058 H 
BRANCH  22  25
ATOM     25  O   LIG d   1       0.155  -3.559 -10.180  0.00  0.00    -0.392 OA
ATOM     26  H   LIG d   1       0.024  -2.610 -10.052  0.00  0.00     0.209 HD
ENDBRANCH  22  25
ENDBRANCH  14  22
BRANCH  15  27
ATOM     27  O   LIG d   1       1.110  -3.118 -14.085  0.00  0.00    -0.387 OA
ATOM     28  H   LIG d   1       0.263  -3.220 -13.629  0.00  0.00     0.210 HD
ENDBRANCH  15  27
BRANCH  17  29
ATOM     29  O   LIG d   1       3.507  -1.843 -14.986  0.00  0.00    -0.386 OA
ATOM     30  H   LIG d   1       4.456  -2.035 -14.983  0.00  0.00     0.210 HD
ENDBRANCH  17  29
BRANCH  19  31
ATOM     31  O   LIG d   1       4.747  -0.089 -13.096  0.00  0.00    -0.384 OA
ATOM     32  H   LIG d   1       5.627   0.021 -12.710  0.00  0.00     0.210 HD
ENDBRANCH  19  31
ENDBRANCH  10  11
ENDBRANCH   5  10
BRANCH   4  33
ATOM     33  C   LIG d   1       5.303  -3.281  -8.818  0.00  0.00    -0.055 C 
ATOM     34  H   LIG d   1       5.685  -3.950  -8.047  0.00  0.00     0.024 H 
ATOM     35  H   LIG d   1       4.288  -3.575  -9.084  0.00  0.00     0.024 H 
ATOM     36  H   LIG d   1       5.943  -3.339  -9.699  0.00  0.00     0.024 H 
ENDBRANCH   4  33
BRANCH   4  37
ATOM     37  C   LIG d   1       6.660  -1.225  -8.616  0.00  0.00    -0.055 C 
ATOM     38  H   LIG d   1       6.666  -0.169  -8.349  0.00  0.00     0.024 H 
ATOM     39  H   LIG d   1       7.436  -1.747  -8.055  0.00  0.00     0.024 H 
ATOM     40  H   LIG d   1       6.852  -1.331  -9.685  0.00  0.00     0.024 H 
ENDBRANCH   4  37
BRANCH   7  41
ATOM     41  C   LIG d   1       4.707   1.368  -8.863  0.00  0.00    -0.051 C 
ATOM     42  H   LIG d   1       4.237   1.891  -9.698  0.00  0.00     0.024 H 
ATOM     43  H   LIG d   1       4.882   2.069  -8.047  0.00  0.00     0.024 H 
ATOM     44  H   LIG d   1       5.656   0.943  -9.189  0.00  0.00     0.024 H 
ENDBRANCH   7  41
BRANCH   7  45
ATOM     45  C   LIG d   1       2.351   0.588  -8.848  0.00  0.00    -0.051 C 
ATOM     46  H   LIG d   1       2.273   0.433  -9.924  0.00  0.00     0.024 H 
ATOM     47  H   LIG d   1       1.637  -0.057  -8.335  0.00  0.00     0.024 H 
ATOM     48  H   LIG d   1       2.134   1.630  -8.613  0.00  0.00     0.024 H 
ENDBRANCH   7  45
BRANCH   2  49
ATOM     49  O   LIG d   1       3.961  -2.739  -6.491  0.00  0.00    -0.388 OA
ATOM     50  H   LIG d   1       4.182  -3.561  -6.032  0.00  0.00     0.210 HD
ENDBRANCH   2  49
BRANCH   1  51
ATOM     51  C   LIG d   1       4.453  -0.727  -4.677  0.00  0.00    -0.014 C 
ATOM     52  H   LIG d   1       4.379  -1.792  -4.457  0.00  0.00     0.030 H 
ATOM     53  H   LIG d   1       3.484  -0.255  -4.516  0.00  0.00     0.030 H 
BRANCH  51  54
ATOM     54  C   LIG d   1       5.491  -0.086  -3.753  0.00  0.00    -0.048 C 
ATOM     55  H   LIG d   1       5.688   0.935  -4.080  0.00  0.00     0.027 H 
ATOM     56  H   LIG d   1       6.416  -0.663  -3.791  0.00  0.00     0.027 H 
BRANCH  54  57
ATOM     57  C   LIG d   1       4.957  -0.069  -2.320  0.00  0.00    -0.047 C 
ATOM     58  H   LIG d   1       5.778   0.118  -1.628  0.00  0.00     0.029 H 
BRANCH  57  59
ATOM     59  C   LIG d   1       3.912   1.040  -2.179  0.00  0.00    -0.063 C 
ATOM     60  H   LIG d   1       3.387   1.168  -3.126  0.00  0.00     0.023 H 
ATOM     61  H   LIG d   1       3.198   0.771  -1.402  0.00  0.00     0.023 H 
ATOM     62  H   LIG d   1       4.407   1.973  -1.910  0.00  0.00     0.023 H 
ENDBRANCH  57  59
BRANCH  57  63
ATOM     63  C   LIG d   1       4.316  -1.419  -1.998  0.00  0.00    -0.063 C 
ATOM     64  H   LIG d   1       3.245  -1.287  -1.850  0.00  0.00     0.023 H 
ATOM     65  H   LIG d   1       4.486  -2.109  -2.825  0.00  0.00     0.023 H 
ATOM     66  H   LIG d   1       4.762  -1.825  -1.090  0.00  0.00     0.023 H 
ENDBRANCH  57  63
ENDBRANCH  54  57
ENDBRANCH  51  54
ENDBRANCH   1  51
BRANCH   1  67
ATOM     67  O   LIG d   1       6.082   0.235  -6.164  0.00  0.00    -0.378 OA
ATOM     68  H   LIG d   1       6.434   0.441  -5.287  0.00  0.00     0.211 HD
ENDBRANCH   1  67
TORSDOF 18
ENDMDL
MODEL 2
REMARK VINA RESULT:      -5.1      1.652      1.989
REMARK  18 active torsions:
REMARK  status: ('A' for Active; 'I' for Inactive)
REMARK    1  A    between atoms: C_1  and  C_2 
REMARK    2  A    between atoms: C_2  and  C_3 
REMARK    3  A    between atoms: C_2  and  C_4 
REMARK    4  A    between atoms: C_4  and  C_5 
REMARK    5  A    between atoms: C_5  and  C_6 
REMARK    6  A    between atoms: C_6  and  O_37 
REMARK    7  A    between atoms: C_7  and  O_36 
REMARK    8  A    between atoms: C_9  and  C_34 
REMARK    9  A    between atoms: C_9  and  C_35 
REMARK   10  A    between atoms: C_10  and  O_17 
REMARK   11  A    between atoms: C_12  and  C_15 
REMARK   12  A    between atoms: C_12  and  C_16 
REMARK   13  A    between atoms: O_17  and  C_18 
REMARK   14  A    between atoms: C_20  and  O_33 
REMARK   15  A    between atoms: C_22  and  O_32 
REMARK   16  A    between atoms: C_24  and  O_31 
REMARK   17  A    between atoms: C_26  and  C_29 
REMARK   18  A    between atoms: C_29  and  O_30 
ROOT
ATOM      1  C   LIG d   1       4.717  -0.460  -5.952  0.00  0.00     0.150 C 
ATOM      2  C   LIG d   1       4.797  -1.984  -5.898  0.00  0.00     0.098 C 
ATOM      3  H   LIG d   1       5.688  -2.271  -5.324  0.00  0.00     0.063 H 
ATOM      4  C   LIG d   1       4.878  -2.612  -7.282  0.00  0.00     0.021 C 
ATOM      5  C   LIG d   1       3.748  -2.179  -8.200  0.00  0.00     0.081 C 
ATOM      6  H   LIG d   1       2.822  -2.682  -7.868  0.00  0.00     0.061 H 
ATOM      7  C   LIG d   1       3.486  -0.682  -8.247  0.00  0.00     0.053 C 
ATOM      8  C   LIG d   1       3.602  -0.055  -6.882  0.00  0.00     0.175 C 
ATOM      9  O   LIG d   1       2.794   0.780  -6.528  0.00  0.00    -0.294 OA
ENDROOT
BRANCH   5  10
ATOM     10  O   LIG d   1       4.022  -2.648  -9.530  0.00  0.00    -0.344 OA
BRANCH  10  11
ATOM     11  C   LIG d   1       2.914  -3.296 -10.158  0.00  0.00     0.188 C 
ATOM     12  H   LIG d   1       1.983  -2.891  -9.759  0.00  0.00     0.094 H 
ATOM     13  O   LIG d   1       2.973  -4.700  -9.899  0.00  0.00    -0.341 OA
ATOM     14  C   LIG d   1       1.891  -5.444 -10.464  0.00  0.00     0.113 C 
ATOM     15  C   LIG d   1       1.906  -5.287 -11.986  0.00  0.00     0.112 C 
ATOM     16  H   LIG d   1       0.948  -5.068 -10.070  0.00  0.00     0.065 H 
ATOM     17  C   LIG d   1       1.813  -3.800 -12.341  0.00  0.00     0.114 C 
ATOM     18  H   LIG d   1       2.833  -5.699 -12.386  0.00  0.00     0.065 H 
ATOM     19  C   LIG d   1       2.970  -3.053 -11.669  0.00  0.00     0.134 C 
ATOM     20  H   LIG d   1       0.864  -3.399 -11.984  0.00  0.00     0.065 H 
ATOM     21  H   LIG d   1       3.918  -3.420 -12.061  0.00  0.00     0.067 H 
BRANCH  14  22
ATOM     22  C   LIG d   1       2.043  -6.922 -10.101  0.00  0.00     0.073 C 
ATOM     23  H   LIG d   1       2.490  -7.458 -10.938  0.00  0.00     0.058 H 
ATOM     24  H   LIG d   1       2.685  -7.016  -9.224  0.00  0.00     0.058 H 
BRANCH  22  25
ATOM     25  O   LIG d   1       0.759  -7.476  -9.812  0.00  0.00    -0.392 OA
ATOM     26  H   LIG d   1       0.358  -7.950 -10.554  0.00  0.00     0.209 HD
ENDBRANCH  22  25
ENDBRANCH  14  22
BRANCH  15  27
ATOM     27  O   LIG d   1       0.791  -5.983 -12.550  0.00  0.00    -0.387 OA
ATOM     28  H   LIG d   1       0.996  -6.883 -12.838  0.00  0.00     0.210 HD
ENDBRANCH  15  27
BRANCH  17  29
ATOM     29  O   LIG d   1       1.899  -3.638 -13.758  0.00  0.00    -0.386 OA
ATOM     30  H   LIG d   1       2.795  -3.467 -14.081  0.00  0.00     0.210 HD
ENDBRANCH  17  29
BRANCH  19  31
ATOM     31  O   LIG d   1       2.854  -1.653 -11.932  0.00  0.00    -0.384 OA
ATOM     32  H   LIG d   1       3.003  -1.414 -12.857  0.00  0.00     0.210 HD
ENDBRANCH  19  31
ENDBRANCH  10  11
ENDBRANCH   5  10
BRANCH   4  33
ATOM     33  C   LIG d   1       4.758  -4.144  -7.095  0.00  0.00    -0.055 C 
ATOM     34  H   LIG d   1       5.543  -4.642  -7.662  0.00  0.00     0.024 H 
ATOM     35  H   LIG d   1       4.862  -4.390  -6.038  0.00  0.00     0.024 H 
ATOM     36  H   LIG d   1       3.784  -4.478  -7.452  0.00  0.00     0.024 H 
ENDBRANCH   4  33
BRANCH   4  37
ATOM     37  C   LIG d   1       6.244  -2.350  -7.918  0.00  0.00    -0.055 C 
ATOM     38  H   LIG d   1       6.721  -3.299  -8.159  0.00  0.00     0.024 H 
ATOM     39  H   LIG d   1       6.114  -1.766  -8.831  0.00  0.00     0.024 H 
ATOM     40  H   LIG d   1       6.871  -1.795  -7.219  0.00  0.00     0.024 H 
ENDBRANCH   4  37
BRANCH   7  41
ATOM     41  C   LIG d   1       4.431   0.015  -9.231  0.00  0.00    -0.051 C 
ATOM     42  H   LIG d   1       4.595  -0.630 -10.095  0.00  0.00     0.024 H 
ATOM     43  H   LIG d   1       3.986   0.955  -9.558  0.00  0.00     0.024 H 
ATOM     44  H   LIG d   1       5.383   0.214  -8.740  0.00  0.00     0.024 H 
ENDBRANCH   7  41
BRANCH   7  45
ATOM     45  C   LIG d   1       2.043  -0.460  -8.751  0.00  0.00    -0.051 C 
ATOM     46  H   LIG d   1       1.394  -0.239  -7.903  0.00  0.00     0.024 H 
ATOM     47  H   LIG d   1       2.026   0.376  -9.450  0.00  0.00     0.024 H 
ATOM     48  H   LIG d   1       1.692  -1.361  -9.252  0.00  0.00     0.024 H 
ENDBRANCH   7  45
BRANCH   2  49
ATOM     49  O   LIG d   1       3.646  -2.492  -5.213  0.00  0.00    -0.388 OA
ATOM     50  H   LIG d   1       3.642  -3.454  -5.109  0.00  0.00     0.210 HD
ENDBRANCH   2  49
BRANCH   1  51
ATOM     51  C   LIG d   1       4.401   0.070  -4.543  0.00  0.00    -0.014 C 
ATOM     52  H   LIG d   1       3.532  -0.454  -4.145  0.00  0.00     0.030 H 
ATOM     53  H   LIG d   1       4.189   1.137  -4.596  0.00  0.00     0.030 H 
BRANCH  51  54
ATOM     54  C   LIG d   1       5.603  -0.167  -3.627  0.00  0.00    -0.048 C 
ATOM     55  H   LIG d   1       6.324   0.640  -3.756  0.00  0.00     0.027 H 
ATOM     56  H   LIG d   1       6.073  -1.118  -3.882  0.00  0.00     0.027 H 
BRANCH  54  57
ATOM     57  C   LIG d   1       5.135  -0.204  -2.171  0.00  0.00    -0.047 C 
ATOM     58  H   LIG d   1       6.002  -0.219  -1.510  0.00  0.00     0.029 H 
BRANCH  57  59
ATOM     59  C   LIG d   1       4.293   1.040  -1.875  0.00  0.00    -0.063 C 
ATOM     60  H   LIG d   1       3.332   0.738  -1.458  0.00  0.00     0.023 H 
ATOM     61  H   LIG d   1       4.817   1.672  -1.160  0.00  0.00     0.023 H 
ATOM     62  H   LIG d   1       4.128   1.594  -2.799  0.00  0.00     0.023 H 
ENDBRANCH  57  59
BRANCH  57  63
ATOM     63  C   LIG d   1       4.293  -1.458  -1.937  0.00  0.00    -0.063 C 
ATOM     64  H   LIG d   1       4.916  -2.343  -2.064  0.00  0.00     0.023 H 
ATOM     65  H   LIG d   1       3.888  -1.441  -0.925  0.00  0.00     0.023 H 
ATOM     66  H   LIG d   1       3.474  -1.484  -2.655  0.00  0.00     0.023 H 
ENDBRANCH  57  63
ENDBRANCH  54  57
ENDBRANCH  51  54
ENDBRANCH   1  51
BRANCH   1  67
ATOM     67  O   LIG d   1       5.955   0.106  -6.380  0.00  0.00    -0.378 OA
ATOM     68  H   LIG d   1       6.575  -0.538  -6.751  0.00  0.00     0.211 HD
ENDBRANCH   1  67
TORSDOF 18
ENDMDL
MODEL 3
REMARK VINA RESULT:      -5.0      1.981      7.940
REMARK  18 active torsions:
REMARK  status: ('A' for Active; 'I' for Inactive)
REMARK    1  A    between atoms: C_1  and  C_2 
REMARK    2  A    between atoms: C_2  and  C_3 
REMARK    3  A    between atoms: C_2  and  C_4 
REMARK    4  A    between atoms: C_4  and  C_5 
REMARK    5  A    between atoms: C_5  and  C_6 
REMARK    6  A    between atoms: C_6  and  O_37 
REMARK    7  A    between atoms: C_7  and  O_36 
REMARK    8  A    between atoms: C_9  and  C_34 
REMARK    9  A    between atoms: C_9  and  C_35 
REMARK   10  A    between atoms: C_10  and  O_17 
REMARK   11  A    between atoms: C_12  and  C_15 
REMARK   12  A    between atoms: C_12  and  C_16 
REMARK   13  A    between atoms: O_17  and  C_18 
REMARK   14  A    between atoms: C_20  and  O_33 
REMARK   15  A    between atoms: C_22  and  O_32 
REMARK   16  A    between atoms: C_24  and  O_31 
REMARK   17  A    between atoms: C_26  and  C_29 
REMARK   18  A    between atoms: C_29  and  O_30 
ROOT
ATOM      1  C   LIG d   1       3.952  -0.304 -11.140  0.00  0.00     0.150 C 
ATOM      2  C   LIG d   1       3.100   0.559 -10.212  0.00  0.00     0.098 C 
ATOM      3  H   LIG d   1       2.812   1.474 -10.746  0.00  0.00     0.063 H 
ATOM      4  C   LIG d   1       3.836   0.944  -8.937  0.00  0.00     0.021 C 
ATOM      5  C   LIG d   1       4.384  -0.255  -8.181  0.00  0.00     0.081 C 
ATOM      6  H   LIG d   1       3.537  -0.779  -7.705  0.00  0.00     0.061 H 
ATOM      7  C   LIG d   1       5.153  -1.259  -9.024  0.00  0.00     0.053 C 
ATOM      8  C   LIG d   1       4.499  -1.475 -10.364  0.00  0.00     0.175 C 
ATOM      9  O   LIG d   1       4.410  -2.596 -10.822  0.00  0.00    -0.294 OA
ENDROOT
BRANCH   5  10
ATOM     10  O   LIG d   1       5.233   0.212  -7.120  0.00  0.00    -0.344 OA
BRANCH  10  11
ATOM     11  C   LIG d   1       5.096  -0.520  -5.900  0.00  0.00     0.188 C 
ATOM     12  H   LIG d   1       4.791  -1.543  -6.123  0.00  0.00     0.094 H 
ATOM     13  O   LIG d   1       4.106   0.104  -5.079  0.00  0.00    -0.341 OA
ATOM     14  C   LIG d   1       3.871  -0.567  -3.838  0.00  0.00     0.113 C 
ATOM     15  C   LIG d   1       5.161  -0.586  -3.017  0.00  0.00     0.112 C 
ATOM     16  H   LIG d   1       3.550  -1.590  -4.034  0.00  0.00     0.065 H 
ATOM     17  C   LIG d   1       6.265  -1.271  -3.827  0.00  0.00     0.114 C 
ATOM     18  H   LIG d   1       5.462   0.437  -2.786  0.00  0.00     0.065 H 
ATOM     19  C   LIG d   1       6.436  -0.537  -5.161  0.00  0.00     0.134 C 
ATOM     20  H   LIG d   1       5.987  -2.309  -4.016  0.00  0.00     0.065 H 
ATOM     21  H   LIG d   1       6.761   0.487  -4.974  0.00  0.00     0.067 H 
BRANCH  14  22
ATOM     22  C   LIG d   1       2.780   0.169  -3.060  0.00  0.00     0.073 C 
ATOM     23  H   LIG d   1       2.124   0.691  -3.756  0.00  0.00     0.058 H 
ATOM     24  H   LIG d   1       2.197  -0.550  -2.482  0.00  0.00     0.058 H 
BRANCH  22  25
ATOM     25  O   LIG d   1       3.381   1.115  -2.173  0.00  0.00    -0.392 OA
ATOM     26  H   LIG d   1       3.826   0.715  -1.413  0.00  0.00     0.209 HD
ENDBRANCH  22  25
ENDBRANCH  14  22
BRANCH  15  27
ATOM     27  O   LIG d   1       4.944  -1.305  -1.801  0.00  0.00    -0.387 OA
ATOM     28  H   LIG d   1       4.065  -1.702  -1.731  0.00  0.00     0.210 HD
ENDBRANCH  15  27
BRANCH  17  29
ATOM     29  O   LIG d   1       7.493  -1.230  -3.098  0.00  0.00    -0.386 OA
ATOM     30  H   LIG d   1       7.872  -0.343  -3.015  0.00  0.00     0.210 HD
ENDBRANCH  17  29
BRANCH  19  31
ATOM     31  O   LIG d   1       7.412  -1.210  -5.957  0.00  0.00    -0.384 OA
ATOM     32  H   LIG d   1       8.241  -1.394  -5.492  0.00  0.00     0.210 HD
ENDBRANCH  19  31
ENDBRANCH  10  11
ENDBRANCH   5  10
BRANCH   4  33
ATOM     33  C   LIG d   1       2.810   1.642  -8.011  0.00  0.00    -0.055 C 
ATOM     34  H   LIG d   1       2.284   2.416  -8.570  0.00  0.00     0.024 H 
ATOM     35  H   LIG d   1       2.093   0.907  -7.645  0.00  0.00     0.024 H 
ATOM     36  H   LIG d   1       3.330   2.094  -7.167  0.00  0.00     0.024 H 
ENDBRANCH   4  33
BRANCH   4  37
ATOM     37  C   LIG d   1       4.935   1.967  -9.231  0.00  0.00    -0.055 C 
ATOM     38  H   LIG d   1       5.804   1.457  -9.644  0.00  0.00     0.024 H 
ATOM     39  H   LIG d   1       4.566   2.699  -9.949  0.00  0.00     0.024 H 
ATOM     40  H   LIG d   1       5.216   2.474  -8.307  0.00  0.00     0.024 H 
ENDBRANCH   4  37
BRANCH   7  41
ATOM     41  C   LIG d   1       6.610  -0.825  -9.212  0.00  0.00    -0.051 C 
ATOM     42  H   LIG d   1       7.244  -1.710  -9.285  0.00  0.00     0.024 H 
ATOM     43  H   LIG d   1       6.700  -0.236 -10.125  0.00  0.00     0.024 H 
ATOM     44  H   LIG d   1       6.923  -0.224  -8.358  0.00  0.00     0.024 H 
ENDBRANCH   7  41
BRANCH   7  45
ATOM     45  C   LIG d   1       5.162  -2.610  -8.277  0.00  0.00    -0.051 C 
ATOM     46  H   LIG d   1       6.192  -2.919  -8.099  0.00  0.00     0.024 H 
ATOM     47  H   LIG d   1       4.645  -2.502  -7.323  0.00  0.00     0.024 H 
ATOM     48  H   LIG d   1       4.656  -3.362  -8.882  0.00  0.00     0.024 H 
ENDBRANCH   7  45
BRANCH   2  49
ATOM     49  O   LIG d   1       1.903  -0.152  -9.873  0.00  0.00    -0.388 OA
ATOM     50  H   LIG d   1       1.849  -0.411  -8.942  0.00  0.00     0.210 HD
ENDBRANCH   2  49
BRANCH   1  51
ATOM     51  C   LIG d   1       3.062  -0.837 -12.275  0.00  0.00    -0.014 C 
ATOM     52  H   LIG d   1       2.158  -0.230 -12.345  0.00  0.00     0.030 H 
ATOM     53  H   LIG d   1       2.789  -1.872 -12.068  0.00  0.00     0.030 H 
BRANCH  51  54
ATOM     54  C   LIG d   1       3.826  -0.767 -13.599  0.00  0.00    -0.048 C 
ATOM     55  H   LIG d   1       4.893  -0.885 -13.410  0.00  0.00     0.027 H 
ATOM     56  H   LIG d   1       3.645   0.199 -14.072  0.00  0.00     0.027 H 
BRANCH  54  57
ATOM     57  C   LIG d   1       3.345  -1.886 -14.525  0.00  0.00    -0.047 C 
ATOM     58  H   LIG d   1       3.312  -1.521 -15.551  0.00  0.00     0.029 H 
BRANCH  57  59
ATOM     59  C   LIG d   1       4.312  -3.070 -14.438  0.00  0.00    -0.063 C 
ATOM     60  H   LIG d   1       3.790  -3.937 -14.034  0.00  0.00     0.023 H 
ATOM     61  H   LIG d   1       4.691  -3.304 -15.432  0.00  0.00     0.023 H 
ATOM     62  H   LIG d   1       5.145  -2.810 -13.784  0.00  0.00     0.023 H 
ENDBRANCH  57  59
BRANCH  57  63
ATOM     63  C   LIG d   1       1.948  -2.337 -14.098  0.00  0.00    -0.063 C 
ATOM     64  H   LIG d   1       1.817  -2.155 -13.032  0.00  0.00     0.023 H 
ATOM     65  H   LIG d   1       1.199  -1.776 -14.658  0.00  0.00     0.023 H 
ATOM     66  H   LIG d   1       1.832  -3.401 -14.303  0.00  0.00     0.023 H 
ENDBRANCH  57  63
ENDBRANCH  54  57
ENDBRANCH  51  54
ENDBRANCH   1  51
BRANCH   1  67
ATOM     67  O   LIG d   1       5.014   0.453 -11.717  0.00  0.00    -0.378 OA
ATOM     68  H   LIG d   1       5.126   0.314 -12.668  0.00  0.00     0.211 HD
ENDBRANCH   1  67
TORSDOF 18
ENDMDL
MODEL 4
REMARK VINA RESULT:      -4.9      8.794     11.232
REMARK  18 active torsions:
REMARK  status: ('A' for Active; 'I' for Inactive)
REMARK    1  A    between atoms: C_1  and  C_2 
REMARK    2  A    between atoms: C_2  and  C_3 
REMARK    3  A    between atoms: C_2  and  C_4 
REMARK    4  A    between atoms: C_4  and  C_5 
REMARK    5  A    between atoms: C_5  and  C_6 
REMARK    6  A    between atoms: C_6  and  O_37 
REMARK    7  A    between atoms: C_7  and  O_36 
REMARK    8  A    between atoms: C_9  and  C_34 
REMARK    9  A    between atoms: C_9  and  C_35 
REMARK   10  A    between atoms: C_10  and  O_17 
REMARK   11  A    between atoms: C_12  and  C_15 
REMARK   12  A    between atoms: C_12  and  C_16 
REMARK   13  A    between atoms: O_17  and  C_18 
REMARK   14  A    between atoms: C_20  and  O_33 
REMARK   15  A    between atoms: C_22  and  O_32 
REMARK   16  A    between atoms: C_24  and  O_31 
REMARK   17  A    between atoms: C_26  and  C_29 
REMARK   18  A    between atoms: C_29  and  O_30 
ROOT
ATOM      1  C   LIG d   1      11.831   4.993  -2.585  0.00  0.00     0.150 C 
ATOM      2  C   LIG d   1      10.580   5.756  -3.014  0.00  0.00     0.098 C 
ATOM      3  H   LIG d   1       9.789   5.582  -2.272  0.00  0.00     0.063 H 
ATOM      4  C   LIG d   1      10.076   5.325  -4.383  0.00  0.00     0.021 C 
ATOM      5  C   LIG d   1      11.140   5.414  -5.464  0.00  0.00     0.081 C 
ATOM      6  H   LIG d   1      11.303   6.480  -5.701  0.00  0.00     0.061 H 
ATOM      7  C   LIG d   1      12.481   4.793  -5.109  0.00  0.00     0.053 C 
ATOM      8  C   LIG d   1      12.864   5.080  -3.680  0.00  0.00     0.175 C 
ATOM      9  O   LIG d   1      14.008   5.382  -3.408  0.00  0.00    -0.294 OA
ENDROOT
BRANCH   5  10
ATOM     10  O   LIG d   1      10.640   4.794  -6.661  0.00  0.00    -0.344 OA
BRANCH  10  11
ATOM     11  C   LIG d   1      10.670   5.642  -7.811  0.00  0.00     0.188 C 
ATOM     12  H   LIG d   1      11.574   5.443  -8.386  0.00  0.00     0.094 H 
ATOM     13  O   LIG d   1      10.661   7.009  -7.395  0.00  0.00    -0.341 OA
ATOM     14  C   LIG d   1      10.714   7.947  -8.472  0.00  0.00     0.113 C 
ATOM     15  C   LIG d   1       9.487   7.763  -9.368  0.00  0.00     0.112 C 
ATOM     16  H   LIG d   1      11.618   7.778  -9.056  0.00  0.00     0.065 H 
ATOM     17  C   LIG d   1       9.448   6.320  -9.879  0.00  0.00     0.114 C 
ATOM     18  H   LIG d   1       8.582   7.971  -8.795  0.00  0.00     0.065 H 
ATOM     19  C   LIG d   1       9.440   5.365  -8.681  0.00  0.00     0.134 C 
ATOM     20  H   LIG d   1      10.328   6.127 -10.493  0.00  0.00     0.065 H 
ATOM     21  H   LIG d   1       8.536   5.525  -8.093  0.00  0.00     0.067 H 
BRANCH  14  22
ATOM     22  C   LIG d   1      10.727   9.370  -7.910  0.00  0.00     0.073 C 
ATOM     23  H   LIG d   1      11.083   9.351  -6.881  0.00  0.00     0.058 H 
ATOM     24  H   LIG d   1      11.390   9.992  -8.513  0.00  0.00     0.058 H 
BRANCH  22  25
ATOM     25  O   LIG d   1       9.405   9.910  -7.947  0.00  0.00    -0.392 OA
ATOM     26  H   LIG d   1       8.958   9.917  -7.089  0.00  0.00     0.209 HD
ENDBRANCH  22  25
ENDBRANCH  14  22
BRANCH  15  27
ATOM     27  O   LIG d   1       9.566   8.661 -10.478  0.00  0.00    -0.387 OA
ATOM     28  H   LIG d   1       9.159   9.523 -10.315  0.00  0.00     0.210 HD
ENDBRANCH  15  27
BRANCH  17  29
ATOM     29  O   LIG d   1       8.267   6.118 -10.658  0.00  0.00    -0.386 OA
ATOM     30  H   LIG d   1       7.495   5.850 -10.140  0.00  0.00     0.210 HD
ENDBRANCH  17  29
BRANCH  19  31
ATOM     31  O   LIG d   1       9.477   4.014  -9.143  0.00  0.00    -0.384 OA
ATOM     32  H   LIG d   1       9.139   3.897 -10.042  0.00  0.00     0.210 HD
ENDBRANCH  19  31
ENDBRANCH  10  11
ENDBRANCH   5  10
BRANCH   4  33
ATOM     33  C   LIG d   1       8.937   6.298  -4.777  0.00  0.00    -0.055 C 
ATOM     34  H   LIG d   1       7.980   5.781  -4.711  0.00  0.00     0.024 H 
ATOM     35  H   LIG d   1       8.938   7.150  -4.098  0.00  0.00     0.024 H 
ATOM     36  H   LIG d   1       9.093   6.645  -5.798  0.00  0.00     0.024 H 
ENDBRANCH   4  33
BRANCH   4  37
ATOM     37  C   LIG d   1       9.461   3.926  -4.320  0.00  0.00    -0.055 C 
ATOM     38  H   LIG d   1      10.253   3.186  -4.205  0.00  0.00     0.024 H 
ATOM     39  H   LIG d   1       8.780   3.866  -3.471  0.00  0.00     0.024 H 
ATOM     40  H   LIG d   1       8.912   3.728  -5.241  0.00  0.00     0.024 H 
ENDBRANCH   4  37
BRANCH   7  41
ATOM     41  C   LIG d   1      12.478   3.283  -5.362  0.00  0.00    -0.051 C 
ATOM     42  H   LIG d   1      12.358   2.757  -4.414  0.00  0.00     0.024 H 
ATOM     43  H   LIG d   1      11.654   3.027  -6.028  0.00  0.00     0.024 H 
ATOM     44  H   LIG d   1      13.422   2.990  -5.821  0.00  0.00     0.024 H 
ENDBRANCH   7  41
BRANCH   7  45
ATOM     45  C   LIG d   1      13.559   5.417  -6.023  0.00  0.00    -0.051 C 
ATOM     46  H   LIG d   1      13.667   4.809  -6.922  0.00  0.00     0.024 H 
ATOM     47  H   LIG d   1      13.260   6.427  -6.301  0.00  0.00     0.024 H 
ATOM     48  H   LIG d   1      14.509   5.452  -5.491  0.00  0.00     0.024 H 
ENDBRANCH   7  45
BRANCH   2  49
ATOM     49  O   LIG d   1      10.868   7.160  -3.035  0.00  0.00    -0.388 OA
ATOM     50  H   LIG d   1      10.434   7.662  -2.330  0.00  0.00     0.210 HD
ENDBRANCH   2  49
BRANCH   1  51
ATOM     51  C   LIG d   1      12.402   5.650  -1.317  0.00  0.00    -0.014 C 
ATOM     52  H   LIG d   1      12.282   6.732  -1.383  0.00  0.00     0.030 H 
ATOM     53  H   LIG d   1      13.460   5.408  -1.226  0.00  0.00     0.030 H 
BRANCH  51  54
ATOM     54  C   LIG d   1      11.652   5.128  -0.089  0.00  0.00    -0.048 C 
ATOM     55  H   LIG d   1      12.351   4.618   0.574  0.00  0.00     0.027 H 
ATOM     56  H   LIG d   1      10.878   4.429  -0.408  0.00  0.00     0.027 H 
BRANCH  54  57
ATOM     57  C   LIG d   1      11.008   6.300   0.652  0.00  0.00    -0.047 C 
ATOM     58  H   LIG d   1       9.991   6.446   0.290  0.00  0.00     0.029 H 
BRANCH  57  59
ATOM     59  C   LIG d   1      10.975   5.998   2.152  0.00  0.00    -0.063 C 
ATOM     60  H   LIG d   1      11.000   6.933   2.713  0.00  0.00     0.023 H 
ATOM     61  H   LIG d   1      10.062   5.455   2.393  0.00  0.00     0.023 H 
ATOM     62  H   LIG d   1      11.840   5.392   2.419  0.00  0.00     0.023 H 
ENDBRANCH  57  59
BRANCH  57  63
ATOM     63  C   LIG d   1      11.824   7.570   0.405  0.00  0.00    -0.063 C 
ATOM     64  H   LIG d   1      11.190   8.444   0.552  0.00  0.00     0.023 H 
ATOM     65  H   LIG d   1      12.660   7.607   1.104  0.00  0.00     0.023 H 
ATOM     66  H   LIG d   1      12.204   7.564  -0.616  0.00  0.00     0.023 H 
ENDBRANCH  57  63
ENDBRANCH  54  57
ENDBRANCH  51  54
ENDBRANCH   1  51
BRANCH   1  67
ATOM     67  O   LIG d   1      11.528   3.631  -2.291  0.00  0.00    -0.378 OA
ATOM     68  H   LIG d   1      10.586   3.457  -2.155  0.00  0.00     0.211 HD
ENDBRANCH   1  67
TORSDOF 18
ENDMDL
MODEL 5
REMARK VINA RESULT:      -4.8      3.262      4.403
REMARK  18 active torsions:
REMARK  status: ('A' for Active; 'I' for Inactive)
REMARK    1  A    between atoms: C_1  and  C_2 
REMARK    2  A    between atoms: C_2  and  C_3 
REMARK    3  A    between atoms: C_2  and  C_4 
REMARK    4  A    between atoms: C_4  and  C_5 
REMARK    5  A    between atoms: C_5  and  C_6 
REMARK    6  A    between atoms: C_6  and  O_37 
REMARK    7  A    between atoms: C_7  and  O_36 
REMARK    8  A    between atoms: C_9  and  C_34 
REMARK    9  A    between atoms: C_9  and  C_35 
REMARK   10  A    between atoms: C_10  and  O_17 
REMARK   11  A    between atoms: C_12  and  C_15 
REMARK   12  A    between atoms: C_12  and  C_16 
REMARK   13  A    between atoms: O_17  and  C_18 
REMARK   14  A    between atoms: C_20  and  O_33 
REMARK   15  A    between atoms: C_22  and  O_32 
REMARK   16  A    between atoms: C_24  and  O_31 
REMARK   17  A    between atoms: C_26  and  C_29 
REMARK   18  A    between atoms: C_29  and  O_30 
ROOT
ATOM      1  C   LIG d   1       5.968  -1.190  -4.985  0.00  0.00     0.150 C 
ATOM      2  C   LIG d   1       5.258  -2.527  -4.785  0.00  0.00     0.098 C 
ATOM      3  H   LIG d   1       5.276  -2.780  -3.717  0.00  0.00     0.063 H 
ATOM      4  C   LIG d   1       5.911  -3.655  -5.571  0.00  0.00     0.021 C 
ATOM      5  C   LIG d   1       6.044  -3.350  -7.053  0.00  0.00     0.081 C 
ATOM      6  H   LIG d   1       5.041  -3.417  -7.510  0.00  0.00     0.061 H 
ATOM      7  C   LIG d   1       6.629  -1.987  -7.385  0.00  0.00     0.053 C 
ATOM      8  C   LIG d   1       6.105  -0.917  -6.461  0.00  0.00     0.175 C 
ATOM      9  O   LIG d   1       5.792   0.168  -6.906  0.00  0.00    -0.294 OA
ENDROOT
BRANCH   5  10
ATOM     10  O   LIG d   1       6.851  -4.367  -7.668  0.00  0.00    -0.344 OA
BRANCH  10  11
ATOM     11  C   LIG d   1       6.208  -5.046  -8.748  0.00  0.00     0.188 C 
ATOM     12  H   LIG d   1       6.696  -4.779  -9.686  0.00  0.00     0.094 H 
ATOM     13  O   LIG d   1       4.832  -4.661  -8.801  0.00  0.00    -0.341 OA
ATOM     14  C   LIG d   1       4.098  -5.266  -9.868  0.00  0.00     0.113 C 
ATOM     15  C   LIG d   1       4.112  -6.787  -9.698  0.00  0.00     0.112 C 
ATOM     16  H   LIG d   1       4.558  -5.003 -10.820  0.00  0.00     0.065 H 
ATOM     17  C   LIG d   1       5.563  -7.277  -9.663  0.00  0.00     0.114 C 
ATOM     18  H   LIG d   1       3.616  -7.054  -8.764  0.00  0.00     0.065 H 
ATOM     19  C   LIG d   1       6.307  -6.558  -8.533  0.00  0.00     0.134 C 
ATOM     20  H   LIG d   1       6.045  -7.054 -10.616  0.00  0.00     0.065 H 
ATOM     21  H   LIG d   1       5.855  -6.820  -7.576  0.00  0.00     0.067 H 
BRANCH  14  22
ATOM     22  C   LIG d   1       2.654  -4.763  -9.843  0.00  0.00     0.073 C 
ATOM     23  H   LIG d   1       2.615  -3.793  -9.349  0.00  0.00     0.058 H 
ATOM     24  H   LIG d   1       2.285  -4.665 -10.865  0.00  0.00     0.058 H 
BRANCH  22  25
ATOM     25  O   LIG d   1       1.837  -5.693  -9.130  0.00  0.00    -0.392 OA
ATOM     26  H   LIG d   1       1.632  -5.424  -8.224  0.00  0.00     0.209 HD
ENDBRANCH  22  25
ENDBRANCH  14  22
BRANCH  15  27
ATOM     27  O   LIG d   1       3.427  -7.398 -10.793  0.00  0.00    -0.387 OA
ATOM     28  H   LIG d   1       3.899  -8.147 -11.182  0.00  0.00     0.210 HD
ENDBRANCH  15  27
BRANCH  17  29
ATOM     29  O   LIG d   1       5.589  -8.686  -9.432  0.00  0.00    -0.386 OA
ATOM     30  H   LIG d   1       5.661  -8.931  -8.499  0.00  0.00     0.210 HD
ENDBRANCH  17  29
BRANCH  19  31
ATOM     31  O   LIG d   1       7.680  -6.952  -8.536  0.00  0.00    -0.384 OA
ATOM     32  H   LIG d   1       8.262  -6.354  -8.046  0.00  0.00     0.210 HD
ENDBRANCH  19  31
ENDBRANCH  10  11
ENDBRANCH   5  10
BRANCH   4  33
ATOM     33  C   LIG d   1       4.991  -4.894  -5.437  0.00  0.00    -0.055 C 
ATOM     34  H   LIG d   1       5.597  -5.799  -5.456  0.00  0.00     0.024 H 
ATOM     35  H   LIG d   1       4.446  -4.841  -4.495  0.00  0.00     0.024 H 
ATOM     36  H   LIG d   1       4.284  -4.913  -6.266  0.00  0.00     0.024 H 
ENDBRANCH   4  33
BRANCH   4  37
ATOM     37  C   LIG d   1       7.259  -4.036  -4.957  0.00  0.00    -0.055 C 
ATOM     38  H   LIG d   1       7.884  -4.505  -5.716  0.00  0.00     0.024 H 
ATOM     39  H   LIG d   1       7.753  -3.140  -4.581  0.00  0.00     0.024 H 
ATOM     40  H   LIG d   1       7.100  -4.735  -4.135  0.00  0.00     0.024 H 
ENDBRANCH   4  37
BRANCH   7  41
ATOM     41  C   LIG d   1       8.160  -2.015  -7.346  0.00  0.00    -0.051 C 
ATOM     42  H   LIG d   1       8.535  -1.015  -7.127  0.00  0.00     0.024 H 
ATOM     43  H   LIG d   1       8.491  -2.706  -6.570  0.00  0.00     0.024 H 
ATOM     44  H   LIG d   1       8.542  -2.342  -8.313  0.00  0.00     0.024 H 
ENDBRANCH   7  41
BRANCH   7  45
ATOM     45  C   LIG d   1       6.207  -1.618  -8.824  0.00  0.00    -0.051 C 
ATOM     46  H   LIG d   1       6.158  -2.523  -9.430  0.00  0.00     0.024 H 
ATOM     47  H   LIG d   1       5.228  -1.139  -8.806  0.00  0.00     0.024 H 
ATOM     48  H   LIG d   1       6.939  -0.934  -9.252  0.00  0.00     0.024 H 
ENDBRANCH   7  45
BRANCH   2  49
ATOM     49  O   LIG d   1       3.889  -2.398  -5.187  0.00  0.00    -0.388 OA
ATOM     50  H   LIG d   1       3.648  -2.948  -5.946  0.00  0.00     0.210 HD
ENDBRANCH   2  49
BRANCH   1  51
ATOM     51  C   LIG d   1       5.114  -0.077  -4.355  0.00  0.00    -0.014 C 
ATOM     52  H   LIG d   1       4.133  -0.475  -4.095  0.00  0.00     0.030 H 
ATOM     53  H   LIG d   1       4.996   0.738  -5.069  0.00  0.00     0.030 H 
BRANCH  51  54
ATOM     54  C   LIG d   1       5.804   0.446  -3.094  0.00  0.00    -0.048 C 
ATOM     55  H   LIG d   1       6.154   1.464  -3.266  0.00  0.00     0.027 H 
ATOM     56  H   LIG d   1       6.654  -0.194  -2.854  0.00  0.00     0.027 H 
BRANCH  54  57
ATOM     57  C   LIG d   1       4.813   0.437  -1.929  0.00  0.00    -0.047 C 
ATOM     58  H   LIG d   1       5.302   0.816  -1.032  0.00  0.00     0.029 H 
BRANCH  57  59
ATOM     59  C   LIG d   1       3.617   1.328  -2.272  0.00  0.00    -0.063 C 
ATOM     60  H   LIG d   1       2.703   0.734  -2.254  0.00  0.00     0.023 H 
ATOM     61  H   LIG d   1       3.541   2.132  -1.541  0.00  0.00     0.023 H 
ATOM     62  H   LIG d   1       3.754   1.753  -3.266  0.00  0.00     0.023 H 
ENDBRANCH  57  59
BRANCH  57  63
ATOM     63  C   LIG d   1       4.330  -0.993  -1.681  0.00  0.00    -0.063 C 
ATOM     64  H   LIG d   1       5.186  -1.636  -1.480  0.00  0.00     0.023 H 
ATOM     65  H   LIG d   1       3.656  -1.005  -0.824  0.00  0.00     0.023 H 
ATOM     66  H   LIG d   1       3.802  -1.355  -2.563  0.00  0.00     0.023 H 
ENDBRANCH  57  63
ENDBRANCH  54  57
ENDBRANCH  51  54
ENDBRANCH   1  51
BRANCH   1  67
ATOM     67  O   LIG d   1       7.248  -1.187  -4.355  0.00  0.00    -0.378 OA
ATOM     68  H   LIG d   1       7.988  -1.068  -4.968  0.00  0.00     0.211 HD
ENDBRANCH   1  67
TORSDOF 18
ENDMDL
MODEL 6
REMARK VINA RESULT:      -4.8      2.671      7.741
REMARK  18 active torsions:
REMARK  status: ('A' for Active; 'I' for Inactive)
REMARK    1  A    between atoms: C_1  and  C_2 
REMARK    2  A    between atoms: C_2  and  C_3 
REMARK    3  A    between atoms: C_2  and  C_4 
REMARK    4  A    between atoms: C_4  and  C_5 
REMARK    5  A    between atoms: C_5  and  C_6 
REMARK    6  A    between atoms: C_6  and  O_37 
REMARK    7  A    between atoms: C_7  and  O_36 
REMARK    8  A    between atoms: C_9  and  C_34 
REMARK    9  A    between atoms: C_9  and  C_35 
REMARK   10  A    between atoms: C_10  and  O_17 
REMARK   11  A    between atoms: C_12  and  C_15 
REMARK   12  A    between atoms: C_12  and  C_16 
REMARK   13  A    between atoms: O_17  and  C_18 
REMARK   14  A    between atoms: C_20  and  O_33 
REMARK   15  A    between atoms: C_22  and  O_32 
REMARK   16  A    between atoms: C_24  and  O_31 
REMARK   17  A    between atoms: C_26  and  C_29 
REMARK   18  A    between atoms: C_29  and  O_30 
ROOT
ATOM      1  C   LIG d   1       4.165  -3.762  -8.947  0.00  0.00     0.150 C 
ATOM      2  C   LIG d   1       4.214  -2.254  -8.719  0.00  0.00     0.098 C 
ATOM      3  H   LIG d   1       4.332  -1.753  -9.689  0.00  0.00     0.063 H 
ATOM      4  C   LIG d   1       5.361  -1.840  -7.807  0.00  0.00     0.021 C 
ATOM      5  C   LIG d   1       5.357  -2.572  -6.476  0.00  0.00     0.081 C 
ATOM      6  H   LIG d   1       4.533  -2.167  -5.863  0.00  0.00     0.061 H 
ATOM      7  C   LIG d   1       5.189  -4.080  -6.564  0.00  0.00     0.053 C 
ATOM      8  C   LIG d   1       4.180  -4.466  -7.614  0.00  0.00     0.175 C 
ATOM      9  O   LIG d   1       3.376  -5.347  -7.387  0.00  0.00    -0.294 OA
ENDROOT
BRANCH   5  10
ATOM     10  O   LIG d   1       6.579  -2.277  -5.779  0.00  0.00    -0.344 OA
BRANCH  10  11
ATOM     11  C   LIG d   1       6.389  -1.596  -4.537  0.00  0.00     0.188 C 
ATOM     12  H   LIG d   1       6.790  -2.203  -3.725  0.00  0.00     0.094 H 
ATOM     13  O   LIG d   1       4.994  -1.374  -4.323  0.00  0.00    -0.341 OA
ATOM     14  C   LIG d   1       4.690  -0.717  -3.090  0.00  0.00     0.113 C 
ATOM     15  C   LIG d   1       5.352   0.662  -3.071  0.00  0.00     0.112 C 
ATOM     16  H   LIG d   1       5.068  -1.313  -2.259  0.00  0.00     0.065 H 
ATOM     17  C   LIG d   1       6.862   0.500  -3.266  0.00  0.00     0.114 C 
ATOM     18  H   LIG d   1       4.945   1.273  -3.878  0.00  0.00     0.065 H 
ATOM     19  C   LIG d   1       7.120  -0.250  -4.576  0.00  0.00     0.134 C 
ATOM     20  H   LIG d   1       7.277  -0.069  -2.433  0.00  0.00     0.065 H 
ATOM     21  H   LIG d   1       6.748   0.341  -5.413  0.00  0.00     0.067 H 
BRANCH  14  22
ATOM     22  C   LIG d   1       3.175  -0.559  -2.956  0.00  0.00     0.073 C 
ATOM     23  H   LIG d   1       2.803  -1.243  -2.193  0.00  0.00     0.058 H 
ATOM     24  H   LIG d   1       2.940   0.467  -2.670  0.00  0.00     0.058 H 
BRANCH  22  25
ATOM     25  O   LIG d   1       2.551  -0.858  -4.206  0.00  0.00    -0.392 OA
ATOM     26  H   LIG d   1       2.896  -0.346  -4.951  0.00  0.00     0.209 HD
ENDBRANCH  22  25
ENDBRANCH  14  22
BRANCH  15  27
ATOM     27  O   LIG d   1       5.097   1.298  -1.816  0.00  0.00    -0.387 OA
ATOM     28  H   LIG d   1       5.886   1.420  -1.271  0.00  0.00     0.210 HD
ENDBRANCH  15  27
BRANCH  17  29
ATOM     29  O   LIG d   1       7.481   1.786  -3.322  0.00  0.00    -0.386 OA
ATOM     30  H   LIG d   1       8.413   1.786  -3.062  0.00  0.00     0.210 HD
ENDBRANCH  17  29
BRANCH  19  31
ATOM     31  O   LIG d   1       8.522  -0.473  -4.734  0.00  0.00    -0.384 OA
ATOM     32  H   LIG d   1       8.778  -1.406  -4.705  0.00  0.00     0.210 HD
ENDBRANCH  19  31
ENDBRANCH  10  11
ENDBRANCH   5  10
BRANCH   4  33
ATOM     33  C   LIG d   1       5.182  -0.332  -7.505  0.00  0.00    -0.055 C 
ATOM     34  H   LIG d   1       6.046   0.217  -7.875  0.00  0.00     0.024 H 
ATOM     35  H   LIG d   1       4.281   0.032  -7.998  0.00  0.00     0.024 H 
ATOM     36  H   LIG d   1       5.092  -0.186  -6.428  0.00  0.00     0.024 H 
ENDBRANCH   4  33
BRANCH   4  37
ATOM     37  C   LIG d   1       6.705  -1.992  -8.522  0.00  0.00    -0.055 C 
ATOM     38  H   LIG d   1       7.291  -2.768  -8.032  0.00  0.00     0.024 H 
ATOM     39  H   LIG d   1       6.534  -2.268  -9.563  0.00  0.00     0.024 H 
ATOM     40  H   LIG d   1       7.247  -1.046  -8.481  0.00  0.00     0.024 H 
ENDBRANCH   4  37
BRANCH   7  41
ATOM     41  C   LIG d   1       6.528  -4.772  -6.837  0.00  0.00    -0.051 C 
ATOM     42  H   LIG d   1       6.449  -5.365  -7.749  0.00  0.00     0.024 H 
ATOM     43  H   LIG d   1       7.308  -4.021  -6.957  0.00  0.00     0.024 H 
ATOM     44  H   LIG d   1       6.776  -5.425  -6.000  0.00  0.00     0.024 H 
ENDBRANCH   7  41
BRANCH   7  45
ATOM     45  C   LIG d   1       4.672  -4.588  -5.200  0.00  0.00    -0.051 C 
ATOM     46  H   LIG d   1       5.082  -3.967  -4.403  0.00  0.00     0.024 H 
ATOM     47  H   LIG d   1       3.584  -4.534  -5.180  0.00  0.00     0.024 H 
ATOM     48  H   LIG d   1       4.988  -5.621  -5.055  0.00  0.00     0.024 H 
ENDBRANCH   7  45
BRANCH   2  49
ATOM     49  O   LIG d   1       2.974  -1.822  -8.145  0.00  0.00    -0.388 OA
ATOM     50  H   LIG d   1       2.553  -2.481  -7.575  0.00  0.00     0.210 HD
ENDBRANCH   2  49
BRANCH   1  51
ATOM     51  C   LIG d   1       2.854  -4.111  -9.673  0.00  0.00    -0.014 C 
ATOM     52  H   LIG d   1       2.016  -3.651  -9.149  0.00  0.00     0.030 H 
ATOM     53  H   LIG d   1       2.724  -5.193  -9.688  0.00  0.00     0.030 H 
BRANCH  51  54
ATOM     54  C   LIG d   1       2.909  -3.583 -11.108  0.00  0.00    -0.048 C 
ATOM     55  H   LIG d   1       3.250  -4.375 -11.774  0.00  0.00     0.027 H 
ATOM     56  H   LIG d   1       3.601  -2.742 -11.159  0.00  0.00     0.027 H 
BRANCH  54  57
ATOM     57  C   LIG d   1       1.514  -3.123 -11.536  0.00  0.00    -0.047 C 
ATOM     58  H   LIG d   1       1.351  -3.381 -12.582  0.00  0.00     0.029 H 
BRANCH  57  59
ATOM     59  C   LIG d   1       0.461  -3.818 -10.670  0.00  0.00    -0.063 C 
ATOM     60  H   LIG d   1       0.814  -3.873  -9.640  0.00  0.00     0.023 H 
ATOM     61  H   LIG d   1      -0.470  -3.253 -10.705  0.00  0.00     0.023 H 
ATOM     62  H   LIG d   1       0.289  -4.826 -11.049  0.00  0.00     0.023 H 
ENDBRANCH  57  59
BRANCH  57  63
ATOM     63  C   LIG d   1       1.400  -1.608 -11.361  0.00  0.00    -0.063 C 
ATOM     64  H   LIG d   1       0.694  -1.210 -12.089  0.00  0.00     0.023 H 
ATOM     65  H   LIG d   1       1.049  -1.384 -10.353  0.00  0.00     0.023 H 
ATOM     66  H   LIG d   1       2.378  -1.151 -11.514  0.00  0.00     0.023 H 
ENDBRANCH  57  63
ENDBRANCH  54  57
ENDBRANCH  51  54
ENDBRANCH   1  51
BRANCH   1  67
ATOM     67  O   LIG d   1       5.257  -4.197  -9.755  0.00  0.00    -0.378 OA
ATOM     68  H   LIG d   1       6.121  -3.886  -9.449  0.00  0.00     0.211 HD
ENDBRANCH   1  67
TORSDOF 18
ENDMDL
MODEL 7
REMARK VINA RESULT:      -4.8      5.367      8.078
REMARK  18 active torsions:
REMARK  status: ('A' for Active; 'I' for Inactive)
REMARK    1  A    between atoms: C_1  and  C_2 
REMARK    2  A    between atoms: C_2  and  C_3 
REMARK    3  A    between atoms: C_2  and  C_4 
REMARK    4  A    between atoms: C_4  and  C_5 
REMARK    5  A    between atoms: C_5  and  C_6 
REMARK    6  A    between atoms: C_6  and  O_37 
REMARK    7  A    between atoms: C_7  and  O_36 
REMARK    8  A    between atoms: C_9  and  C_34 
REMARK    9  A    between atoms: C_9  and  C_35 
REMARK   10  A    between atoms: C_10  and  O_17 
REMARK   11  A    between atoms: C_12  and  C_15 
REMARK   12  A    between atoms: C_12  and  C_16 
REMARK   13  A    between atoms: O_17  and  C_18 
REMARK   14  A    between atoms: C_20  and  O_33 
REMARK   15  A    between atoms: C_22  and  O_32 
REMARK   16  A    between atoms: C_24  and  O_31 
REMARK   17  A    between atoms: C_26  and  C_29 
REMARK   18  A    between atoms: C_29  and  O_30 
ROOT
ATOM      1  C   LIG d   1       7.224   0.020  -4.626  0.00  0.00     0.150 C 
ATOM      2  C   LIG d   1       7.202  -0.146  -6.143  0.00  0.00     0.098 C 
ATOM      3  H   LIG d   1       6.989  -1.196  -6.381  0.00  0.00     0.063 H 
ATOM      4  C   LIG d   1       8.523   0.248  -6.790  0.00  0.00     0.021 C 
ATOM      5  C   LIG d   1       8.970   1.653  -6.422  0.00  0.00     0.081 C 
ATOM      6  H   LIG d   1       8.327   2.371  -6.960  0.00  0.00     0.061 H 
ATOM      7  C   LIG d   1       8.919   1.984  -4.940  0.00  0.00     0.053 C 
ATOM      8  C   LIG d   1       7.688   1.413  -4.285  0.00  0.00     0.175 C 
ATOM      9  O   LIG d   1       7.066   2.077  -3.481  0.00  0.00    -0.294 OA
ENDROOT
BRANCH   5  10
ATOM     10  O   LIG d   1      10.310   1.855  -6.901  0.00  0.00    -0.344 OA
BRANCH  10  11
ATOM     11  C   LIG d   1      10.494   3.078  -7.615  0.00  0.00     0.188 C 
ATOM     12  H   LIG d   1       9.767   3.814  -7.269  0.00  0.00     0.094 H 
ATOM     13  O   LIG d   1      10.308   2.847  -9.013  0.00  0.00    -0.341 OA
ATOM     14  C   LIG d   1      10.445   4.017  -9.822  0.00  0.00     0.113 C 
ATOM     15  C   LIG d   1      11.859   4.582  -9.665  0.00  0.00     0.112 C 
ATOM     16  H   LIG d   1       9.718   4.765  -9.505  0.00  0.00     0.065 H 
ATOM     17  C   LIG d   1      12.119   4.885  -8.187  0.00  0.00     0.114 C 
ATOM     18  H   LIG d   1      12.585   3.850 -10.020  0.00  0.00     0.065 H 
ATOM     19  C   LIG d   1      11.910   3.606  -7.370  0.00  0.00     0.134 C 
ATOM     20  H   LIG d   1      11.425   5.653  -7.845  0.00  0.00     0.065 H 
ATOM     21  H   LIG d   1      12.637   2.854  -7.678  0.00  0.00     0.067 H 
BRANCH  14  22
ATOM     22  C   LIG d   1      10.199   3.657 -11.288  0.00  0.00     0.073 C 
ATOM     23  H   LIG d   1      11.150   3.448 -11.776  0.00  0.00     0.058 H 
ATOM     24  H   LIG d   1       9.561   2.773 -11.343  0.00  0.00     0.058 H 
BRANCH  22  25
ATOM     25  O   LIG d   1       9.555   4.749 -11.947  0.00  0.00    -0.392 OA
ATOM     26  H   LIG d   1       8.840   5.151 -11.436  0.00  0.00     0.209 HD
ENDBRANCH  22  25
ENDBRANCH  14  22
BRANCH  15  27
ATOM     27  O   LIG d   1      11.981   5.784 -10.428  0.00  0.00    -0.387 OA
ATOM     28  H   LIG d   1      12.600   6.426 -10.053  0.00  0.00     0.210 HD
ENDBRANCH  15  27
BRANCH  17  29
ATOM     29  O   LIG d   1      13.461   5.345  -8.020  0.00  0.00    -0.386 OA
ATOM     30  H   LIG d   1      14.117   4.833  -8.515  0.00  0.00     0.210 HD
ENDBRANCH  17  29
BRANCH  19  31
ATOM     31  O   LIG d   1      12.079   3.891  -5.980  0.00  0.00    -0.384 OA
ATOM     32  H   LIG d   1      12.935   4.286  -5.761  0.00  0.00     0.210 HD
ENDBRANCH  19  31
ENDBRANCH  10  11
ENDBRANCH   5  10
BRANCH   4  33
ATOM     33  C   LIG d   1       8.305   0.221  -8.323  0.00  0.00    -0.055 C 
ATOM     34  H   LIG d   1       8.434   1.225  -8.726  0.00  0.00     0.024 H 
ATOM     35  H   LIG d   1       9.032  -0.451  -8.780  0.00  0.00     0.024 H 
ATOM     36  H   LIG d   1       7.297  -0.132  -8.540  0.00  0.00     0.024 H 
ENDBRANCH   4  33
BRANCH   4  37
ATOM     37  C   LIG d   1       9.609  -0.782  -6.478  0.00  0.00    -0.055 C 
ATOM     38  H   LIG d   1       9.914  -1.278  -7.399  0.00  0.00     0.024 H 
ATOM     39  H   LIG d   1      10.469  -0.280  -6.034  0.00  0.00     0.024 H 
ATOM     40  H   LIG d   1       9.219  -1.522  -5.779  0.00  0.00     0.024 H 
ENDBRANCH   4  37
BRANCH   7  41
ATOM     41  C   LIG d   1      10.177   1.492  -4.218  0.00  0.00    -0.051 C 
ATOM     42  H   LIG d   1      11.062   1.865  -4.736  0.00  0.00     0.024 H 
ATOM     43  H   LIG d   1      10.175   1.858  -3.191  0.00  0.00     0.024 H 
ATOM     44  H   LIG d   1      10.191   0.402  -4.215  0.00  0.00     0.024 H 
ENDBRANCH   7  41
BRANCH   7  45
ATOM     45  C   LIG d   1       8.868   3.520  -4.790  0.00  0.00    -0.051 C 
ATOM     46  H   LIG d   1       9.026   3.788  -3.745  0.00  0.00     0.024 H 
ATOM     47  H   LIG d   1       9.647   3.972  -5.403  0.00  0.00     0.024 H 
ATOM     48  H   LIG d   1       7.893   3.883  -5.115  0.00  0.00     0.024 H 
ENDBRANCH   7  45
BRANCH   2  49
ATOM     49  O   LIG d   1       6.148   0.656  -6.691  0.00  0.00    -0.388 OA
ATOM     50  H   LIG d   1       6.293   1.609  -6.605  0.00  0.00     0.210 HD
ENDBRANCH   2  49
BRANCH   1  51
ATOM     51  C   LIG d   1       5.795  -0.169  -4.087  0.00  0.00    -0.014 C 
ATOM     52  H   LIG d   1       5.130  -0.439  -4.908  0.00  0.00     0.030 H 
ATOM     53  H   LIG d   1       5.452   0.761  -3.633  0.00  0.00     0.030 H 
BRANCH  51  54
ATOM     54  C   LIG d   1       5.788  -1.283  -3.038  0.00  0.00    -0.048 C 
ATOM     55  H   LIG d   1       6.726  -1.266  -2.484  0.00  0.00     0.027 H 
ATOM     56  H   LIG d   1       5.676  -2.247  -3.534  0.00  0.00     0.027 H 
BRANCH  54  57
ATOM     57  C   LIG d   1       4.622  -1.065  -2.072  0.00  0.00    -0.047 C 
ATOM     58  H   LIG d   1       4.810  -1.608  -1.146  0.00  0.00     0.029 H 
BRANCH  57  59
ATOM     59  C   LIG d   1       4.484   0.428  -1.768  0.00  0.00    -0.063 C 
ATOM     60  H   LIG d   1       5.461   0.906  -1.841  0.00  0.00     0.023 H 
ATOM     61  H   LIG d   1       3.802   0.884  -2.485  0.00  0.00     0.023 H 
ATOM     62  H   LIG d   1       4.091   0.558  -0.759  0.00  0.00     0.023 H 
ENDBRANCH  57  59
BRANCH  57  63
ATOM     63  C   LIG d   1       3.330  -1.578  -2.709  0.00  0.00    -0.063 C 
ATOM     64  H   LIG d   1       3.280  -1.249  -3.747  0.00  0.00     0.023 H 
ATOM     65  H   LIG d   1       3.314  -2.668  -2.673  0.00  0.00     0.023 H 
ATOM     66  H   LIG d   1       2.474  -1.184  -2.161  0.00  0.00     0.023 H 
ENDBRANCH  57  63
ENDBRANCH  54  57
ENDBRANCH  51  54
ENDBRANCH   1  51
BRANCH   1  67
ATOM     67  O   LIG d   1       8.069  -0.952  -4.013  0.00  0.00    -0.378 OA
ATOM     68  H   LIG d   1       9.011  -0.824  -4.192  0.00  0.00     0.211 HD
ENDBRANCH   1  67
TORSDOF 18
ENDMDL
MODEL 8
REMARK VINA RESULT:      -4.8      4.460      8.361
REMARK  18 active torsions:
REMARK  status: ('A' for Active; 'I' for Inactive)
REMARK    1  A    between atoms: C_1  and  C_2 
REMARK    2  A    between atoms: C_2  and  C_3 
REMARK    3  A    between atoms: C_2  and  C_4 
REMARK    4  A    between atoms: C_4  and  C_5 
REMARK    5  A    between atoms: C_5  and  C_6 
REMARK    6  A    between atoms: C_6  and  O_37 
REMARK    7  A    between atoms: C_7  and  O_36 
REMARK    8  A    between atoms: C_9  and  C_34 
REMARK    9  A    between atoms: C_9  and  C_35 
REMARK   10  A    between atoms: C_10  and  O_17 
REMARK   11  A    between atoms: C_12  and  C_15 
REMARK   12  A    between atoms: C_12  and  C_16 
REMARK   13  A    between atoms: O_17  and  C_18 
REMARK   14  A    between atoms: C_20  and  O_33 
REMARK   15  A    between atoms: C_22  and  O_32 
REMARK   16  A    between atoms: C_24  and  O_31 
REMARK   17  A    between atoms: C_26  and  C_29 
REMARK   18  A    between atoms: C_29  and  O_30 
ROOT
ATOM      1  C   LIG d   1       5.133  -0.497  -6.301  0.00  0.00     0.150 C 
ATOM      2  C   LIG d   1       5.126  -2.016  -6.444  0.00  0.00     0.098 C 
ATOM      3  H   LIG d   1       4.085  -2.364  -6.472  0.00  0.00     0.063 H 
ATOM      4  C   LIG d   1       5.847  -2.712  -5.298  0.00  0.00     0.021 C 
ATOM      5  C   LIG d   1       7.267  -2.212  -5.096  0.00  0.00     0.081 C 
ATOM      6  H   LIG d   1       7.891  -2.605  -5.918  0.00  0.00     0.061 H 
ATOM      7  C   LIG d   1       7.424  -0.701  -5.059  0.00  0.00     0.053 C 
ATOM      8  C   LIG d   1       6.549  -0.026  -6.084  0.00  0.00     0.175 C 
ATOM      9  O   LIG d   1       6.985   0.900  -6.738  0.00  0.00    -0.294 OA
ENDROOT
BRANCH   5  10
ATOM     10  O   LIG d   1       7.787  -2.766  -3.876  0.00  0.00    -0.344 OA
BRANCH  10  11
ATOM     11  C   LIG d   1       9.109  -3.297  -3.996  0.00  0.00     0.188 C 
ATOM     12  H   LIG d   1       9.834  -2.487  -3.914  0.00  0.00     0.094 H 
ATOM     13  O   LIG d   1       9.252  -3.936  -5.266  0.00  0.00    -0.341 OA
ATOM     14  C   LIG d   1      10.552  -4.483  -5.501  0.00  0.00     0.113 C 
ATOM     15  C   LIG d   1      10.854  -5.549  -4.446  0.00  0.00     0.112 C 
ATOM     16  H   LIG d   1      11.296  -3.689  -5.438  0.00  0.00     0.065 H 
ATOM     17  C   LIG d   1      10.749  -4.924  -3.052  0.00  0.00     0.114 C 
ATOM     18  H   LIG d   1      10.134  -6.364  -4.534  0.00  0.00     0.065 H 
ATOM     19  C   LIG d   1       9.353  -4.316  -2.881  0.00  0.00     0.134 C 
ATOM     20  H   LIG d   1      11.502  -4.143  -2.946  0.00  0.00     0.065 H 
ATOM     21  H   LIG d   1       8.603  -5.105  -2.938  0.00  0.00     0.067 H 
BRANCH  14  22
ATOM     22  C   LIG d   1      10.597  -5.114  -6.893  0.00  0.00     0.073 C 
ATOM     23  H   LIG d   1       9.893  -4.601  -7.548  0.00  0.00     0.058 H 
ATOM     24  H   LIG d   1      11.604  -5.024  -7.301  0.00  0.00     0.058 H 
BRANCH  22  25
ATOM     25  O   LIG d   1      10.242  -6.495  -6.803  0.00  0.00    -0.392 OA
ATOM     26  H   LIG d   1      10.045  -6.793  -5.905  0.00  0.00     0.209 HD
ENDBRANCH  22  25
ENDBRANCH  14  22
BRANCH  15  27
ATOM     27  O   LIG d   1      12.176  -6.057  -4.644  0.00  0.00    -0.387 OA
ATOM     28  H   LIG d   1      12.609  -5.724  -5.441  0.00  0.00     0.210 HD
ENDBRANCH  15  27
BRANCH  17  29
ATOM     29  O   LIG d   1      10.958  -5.928  -2.058  0.00  0.00    -0.386 OA
ATOM     30  H   LIG d   1      11.345  -5.594  -1.236  0.00  0.00     0.210 HD
ENDBRANCH  17  29
BRANCH  19  31
ATOM     31  O   LIG d   1       9.265  -3.666  -1.612  0.00  0.00    -0.384 OA
ATOM     32  H   LIG d   1       8.366  -3.613  -1.258  0.00  0.00     0.210 HD
ENDBRANCH  19  31
ENDBRANCH  10  11
ENDBRANCH   5  10
BRANCH   4  33
ATOM     33  C   LIG d   1       5.935  -4.215  -5.660  0.00  0.00    -0.055 C 
ATOM     34  H   LIG d   1       5.899  -4.811  -4.749  0.00  0.00     0.024 H 
ATOM     35  H   LIG d   1       5.097  -4.483  -6.304  0.00  0.00     0.024 H 
ATOM     36  H   LIG d   1       6.872  -4.408  -6.183  0.00  0.00     0.024 H 
ENDBRANCH   4  33
BRANCH   4  37
ATOM     37  C   LIG d   1       5.034  -2.615  -4.006  0.00  0.00    -0.055 C 
ATOM     38  H   LIG d   1       4.974  -1.574  -3.691  0.00  0.00     0.024 H 
ATOM     39  H   LIG d   1       4.029  -3.002  -4.179  0.00  0.00     0.024 H 
ATOM     40  H   LIG d   1       5.519  -3.203  -3.226  0.00  0.00     0.024 H 
ENDBRANCH   4  37
BRANCH   7  41
ATOM     41  C   LIG d   1       7.127  -0.146  -3.663  0.00  0.00    -0.051 C 
ATOM     42  H   LIG d   1       7.556  -0.809  -2.911  0.00  0.00     0.024 H 
ATOM     43  H   LIG d   1       7.566   0.847  -3.565  0.00  0.00     0.024 H 
ATOM     44  H   LIG d   1       6.049  -0.083  -3.519  0.00  0.00     0.024 H 
ENDBRANCH   7  41
BRANCH   7  45
ATOM     45  C   LIG d   1       8.894  -0.360  -5.393  0.00  0.00    -0.051 C 
ATOM     46  H   LIG d   1       9.514  -0.532  -4.513  0.00  0.00     0.024 H 
ATOM     47  H   LIG d   1       9.238  -0.994  -6.209  0.00  0.00     0.024 H 
ATOM     48  H   LIG d   1       8.965   0.686  -5.689  0.00  0.00     0.024 H 
ENDBRANCH   7  45
BRANCH   2  49
ATOM     49  O   LIG d   1       5.748  -2.377  -7.683  0.00  0.00    -0.388 OA
ATOM     50  H   LIG d   1       6.669  -2.659  -7.595  0.00  0.00     0.210 HD
ENDBRANCH   2  49
BRANCH   1  51
ATOM     51  C   LIG d   1       4.602   0.126  -7.603  0.00  0.00    -0.014 C 
ATOM     52  H   LIG d   1       4.802  -0.549  -8.436  0.00  0.00     0.030 H 
ATOM     53  H   LIG d   1       5.101   1.078  -7.781  0.00  0.00     0.030 H 
BRANCH  51  54
ATOM     54  C   LIG d   1       3.094   0.354  -7.482  0.00  0.00    -0.048 C 
ATOM     55  H   LIG d   1       2.884   0.919  -6.574  0.00  0.00     0.027 H 
ATOM     56  H   LIG d   1       2.584  -0.609  -7.436  0.00  0.00     0.027 H 
BRANCH  54  57
ATOM     57  C   LIG d   1       2.597   1.138  -8.698  0.00  0.00    -0.047 C 
ATOM     58  H   LIG d   1       1.624   1.575  -8.476  0.00  0.00     0.029 H 
BRANCH  57  59
ATOM     59  C   LIG d   1       3.593   2.254  -9.025  0.00  0.00    -0.063 C 
ATOM     60  H   LIG d   1       4.406   1.850  -9.629  0.00  0.00     0.023 H 
ATOM     61  H   LIG d   1       3.086   3.043  -9.579  0.00  0.00     0.023 H 
ATOM     62  H   LIG d   1       3.997   2.662  -8.099  0.00  0.00     0.023 H 
ENDBRANCH  57  59
BRANCH  57  63
ATOM     63  C   LIG d   1       2.473   0.197  -9.896  0.00  0.00    -0.063 C 
ATOM     64  H   LIG d   1       3.335   0.325 -10.551  0.00  0.00     0.023 H 
ATOM     65  H   LIG d   1       2.433  -0.835  -9.546  0.00  0.00     0.023 H 
ATOM     66  H   LIG d   1       1.561   0.429 -10.446  0.00  0.00     0.023 H 
ENDBRANCH  57  63
ENDBRANCH  54  57
ENDBRANCH  51  54
ENDBRANCH   1  51
BRANCH   1  67
ATOM     67  O   LIG d   1       4.297  -0.076  -5.225  0.00  0.00    -0.378 OA
ATOM     68  H   LIG d   1       3.405   0.183  -5.497  0.00  0.00     0.211 HD
ENDBRANCH   1  67
TORSDOF 18
ENDMDL
MODEL 9
REMARK VINA RESULT:      -4.7      2.009      4.158
REMARK  18 active torsions:
REMARK  status: ('A' for Active; 'I' for Inactive)
REMARK    1  A    between atoms: C_1  and  C_2 
REMARK    2  A    between atoms: C_2  and  C_3 
REMARK    3  A    between atoms: C_2  and  C_4 
REMARK    4  A    between atoms: C_4  and  C_5 
REMARK    5  A    between atoms: C_5  and  C_6 
REMARK    6  A    between atoms: C_6  and  O_37 
REMARK    7  A    between atoms: C_7  and  O_36 
REMARK    8  A    between atoms: C_9  and  C_34 
REMARK    9  A    between atoms: C_9  and  C_35 
REMARK   10  A    between atoms: C_10  and  O_17 
REMARK   11  A    between atoms: C_12  and  C_15 
REMARK   12  A    between atoms: C_12  and  C_16 
REMARK   13  A    between atoms: O_17  and  C_18 
REMARK   14  A    between atoms: C_20  and  O_33 
REMARK   15  A    between atoms: C_22  and  O_32 
REMARK   16  A    between atoms: C_24  and  O_31 
REMARK   17  A    between atoms: C_26  and  C_29 
REMARK   18  A    between atoms: C_29  and  O_30 
ROOT
ATOM      1  C   LIG d   1       3.838  -0.509  -6.523  0.00  0.00     0.150 C 
ATOM      2  C   LIG d   1       4.551   0.608  -7.280  0.00  0.00     0.098 C 
ATOM      3  H   LIG d   1       4.178   1.575  -6.917  0.00  0.00     0.063 H 
ATOM      4  C   LIG d   1       4.328   0.527  -8.784  0.00  0.00     0.021 C 
ATOM      5  C   LIG d   1       4.702  -0.824  -9.369  0.00  0.00     0.081 C 
ATOM      6  H   LIG d   1       5.803  -0.900  -9.384  0.00  0.00     0.061 H 
ATOM      7  C   LIG d   1       4.150  -2.029  -8.626  0.00  0.00     0.053 C 
ATOM      8  C   LIG d   1       4.210  -1.837  -7.133  0.00  0.00     0.175 C 
ATOM      9  O   LIG d   1       4.560  -2.753  -6.417  0.00  0.00    -0.294 OA
ENDROOT
BRANCH   5  10
ATOM     10  O   LIG d   1       4.264  -0.876 -10.737  0.00  0.00    -0.344 OA
BRANCH  10  11
ATOM     11  C   LIG d   1       5.267  -1.320 -11.653  0.00  0.00     0.188 C 
ATOM     12  H   LIG d   1       5.144  -2.387 -11.837  0.00  0.00     0.094 H 
ATOM     13  O   LIG d   1       6.561  -1.078 -11.096  0.00  0.00    -0.341 OA
ATOM     14  C   LIG d   1       7.643  -1.510 -11.924  0.00  0.00     0.113 C 
ATOM     15  C   LIG d   1       7.600  -0.754 -13.254  0.00  0.00     0.112 C 
ATOM     16  H   LIG d   1       7.551  -2.580 -12.112  0.00  0.00     0.065 H 
ATOM     17  C   LIG d   1       6.244  -0.993 -13.926  0.00  0.00     0.114 C 
ATOM     18  H   LIG d   1       7.731   0.313 -13.071  0.00  0.00     0.065 H 
ATOM     19  C   LIG d   1       5.129  -0.555 -12.972  0.00  0.00     0.134 C 
ATOM     20  H   LIG d   1       6.134  -2.054 -14.154  0.00  0.00     0.065 H 
ATOM     21  H   LIG d   1       5.211   0.515 -12.782  0.00  0.00     0.067 H 
BRANCH  14  22
ATOM     22  C   LIG d   1       8.970  -1.228 -11.219  0.00  0.00     0.073 C 
ATOM     23  H   LIG d   1       8.825  -1.269 -10.139  0.00  0.00     0.058 H 
ATOM     24  H   LIG d   1       9.706  -1.977 -11.515  0.00  0.00     0.058 H 
BRANCH  22  25
ATOM     25  O   LIG d   1       9.440   0.070 -11.586  0.00  0.00    -0.392 OA
ATOM     26  H   LIG d   1       9.984   0.081 -12.385  0.00  0.00     0.209 HD
ENDBRANCH  22  25
ENDBRANCH  14  22
BRANCH  15  27
ATOM     27  O   LIG d   1       8.646  -1.225 -14.106  0.00  0.00    -0.387 OA
ATOM     28  H   LIG d   1       9.382  -0.605 -14.203  0.00  0.00     0.210 HD
ENDBRANCH  15  27
BRANCH  17  29
ATOM     29  O   LIG d   1       6.166  -0.234 -15.133  0.00  0.00    -0.386 OA
ATOM     30  H   LIG d   1       5.312  -0.297 -15.583  0.00  0.00     0.210 HD
ENDBRANCH  17  29
BRANCH  19  31
ATOM     31  O   LIG d   1       3.857  -0.841 -13.557  0.00  0.00    -0.384 OA
ATOM     32  H   LIG d   1       3.375  -0.056 -13.853  0.00  0.00     0.210 HD
ENDBRANCH  19  31
ENDBRANCH  10  11
ENDBRANCH   5  10
BRANCH   4  33
ATOM     33  C   LIG d   1       5.250   1.585  -9.439  0.00  0.00    -0.055 C 
ATOM     34  H   LIG d   1       4.833   2.578  -9.280  0.00  0.00     0.024 H 
ATOM     35  H   LIG d   1       6.241   1.530  -8.990  0.00  0.00     0.024 H 
ATOM     36  H   LIG d   1       5.324   1.389 -10.509  0.00  0.00     0.024 H 
ENDBRANCH   4  33
BRANCH   4  37
ATOM     37  C   LIG d   1       2.891   0.910  -9.141  0.00  0.00    -0.055 C 
ATOM     38  H   LIG d   1       2.780   0.934 -10.225  0.00  0.00     0.024 H 
ATOM     39  H   LIG d   1       2.204   0.175  -8.721  0.00  0.00     0.024 H 
ATOM     40  H   LIG d   1       2.664   1.895  -8.731  0.00  0.00     0.024 H 
ENDBRANCH   4  37
BRANCH   7  41
ATOM     41  C   LIG d   1       2.715  -2.340  -9.062  0.00  0.00    -0.051 C 
ATOM     42  H   LIG d   1       2.225  -1.419  -9.380  0.00  0.00     0.024 H 
ATOM     43  H   LIG d   1       2.731  -3.049  -9.890  0.00  0.00     0.024 H 
ATOM     44  H   LIG d   1       2.167  -2.771  -8.224  0.00  0.00     0.024 H 
ENDBRANCH   7  41
BRANCH   7  45
ATOM     45  C   LIG d   1       5.020  -3.255  -8.982  0.00  0.00    -0.051 C 
ATOM     46  H   LIG d   1       6.074  -2.982  -8.920  0.00  0.00     0.024 H 
ATOM     47  H   LIG d   1       4.812  -4.065  -8.283  0.00  0.00     0.024 H 
ATOM     48  H   LIG d   1       4.789  -3.582  -9.996  0.00  0.00     0.024 H 
ENDBRANCH   7  45
BRANCH   2  49
ATOM     49  O   LIG d   1       5.956   0.543  -7.006  0.00  0.00    -0.388 OA
ATOM     50  H   LIG d   1       6.235   1.081  -6.251  0.00  0.00     0.210 HD
ENDBRANCH   2  49
BRANCH   1  51
ATOM     51  C   LIG d   1       4.307  -0.492  -5.058  0.00  0.00    -0.014 C 
ATOM     52  H   LIG d   1       5.205   0.120  -4.972  0.00  0.00     0.030 H 
ATOM     53  H   LIG d   1       4.528  -1.509  -4.735  0.00  0.00     0.030 H 
BRANCH  51  54
ATOM     54  C   LIG d   1       3.203   0.095  -4.176  0.00  0.00    -0.048 C 
ATOM     55  H   LIG d   1       2.229  -0.161  -4.593  0.00  0.00     0.027 H 
ATOM     56  H   LIG d   1       3.308   1.180  -4.138  0.00  0.00     0.027 H 
BRANCH  54  57
ATOM     57  C   LIG d   1       3.320  -0.479  -2.763  0.00  0.00    -0.047 C 
ATOM     58  H   LIG d   1       2.346  -0.446  -2.275  0.00  0.00     0.029 H 
BRANCH  57  59
ATOM     59  C   LIG d   1       3.801  -1.930  -2.841  0.00  0.00    -0.063 C 
ATOM     60  H   LIG d   1       2.963  -2.601  -2.652  0.00  0.00     0.023 H 
ATOM     61  H   LIG d   1       4.207  -2.126  -3.833  0.00  0.00     0.023 H 
ATOM     62  H   LIG d   1       4.575  -2.096  -2.092  0.00  0.00     0.023 H 
ENDBRANCH  57  59
BRANCH  57  63
ATOM     63  C   LIG d   1       4.322   0.349  -1.957  0.00  0.00    -0.063 C 
ATOM     64  H   LIG d   1       4.599  -0.195  -1.054  0.00  0.00     0.023 H 
ATOM     65  H   LIG d   1       5.212   0.530  -2.560  0.00  0.00     0.023 H 
ATOM     66  H   LIG d   1       3.869   1.302  -1.684  0.00  0.00     0.023 H 
ENDBRANCH  57  63
ENDBRANCH  54  57
ENDBRANCH  51  54
ENDBRANCH   1  51
BRANCH   1  67
ATOM     67  O   LIG d   1       2.424  -0.327  -6.547  0.00  0.00    -0.378 OA
ATOM     68  H   LIG d   1       1.943  -0.896  -5.930  0.00  0.00     0.211 HD
ENDBRANCH   1  67
TORSDOF 18
ENDMDL
