MODEL 1
REMARK VINA RESULT:      -7.4      0.000      0.000
REMARK  2 active torsions:
REMARK  status: ('A' for Active; 'I' for Inactive)
REMARK    1  A    between atoms: C_6  and  O_7 
REMARK    2  A    between atoms: C_22  and  O_24 
ROOT
ATOM      1  C   LIG d   1       9.151   7.316  -6.167  0.00  0.00    -0.019 A 
ATOM      2  C   LIG d   1       9.515   7.026  -4.872  0.00  0.00    -0.049 A 
ATOM      3  C   LIG d   1       9.913   8.053  -4.016  0.00  0.00     0.008 A 
ATOM      4  C   LIG d   1       9.940   9.381  -4.474  0.00  0.00     0.051 A 
ATOM      5  C   LIG d   1       9.569   9.658  -5.785  0.00  0.00     0.004 A 
ATOM      6  C   LIG d   1       9.176   8.630  -6.624  0.00  0.00     0.119 A 
ATOM      7  N   LIG d   1      10.366  10.192  -3.437  0.00  0.00    -0.352 N 
ATOM      8  H   LIG d   1      10.472  11.154  -3.493  0.00  0.00     0.166 HD
ATOM      9  C   LIG d   1      10.619   9.433  -2.309  0.00  0.00     0.072 A 
ATOM     10  C   LIG d   1      10.353   8.087  -2.612  0.00  0.00     0.022 A 
ATOM     11  C   LIG d   1      10.531   7.097  -1.637  0.00  0.00     0.062 A 
ATOM     12  C   LIG d   1      10.975   7.453  -0.349  0.00  0.00     0.062 A 
ATOM     13  C   LIG d   1      11.239   8.796  -0.050  0.00  0.00     0.022 A 
ATOM     14  C   LIG d   1      11.062   9.787  -1.030  0.00  0.00     0.072 A 
ATOM     15  N   LIG d   1      11.391  11.011  -0.477  0.00  0.00    -0.352 N 
ATOM     16  H   LIG d   1      11.353  11.859  -0.946  0.00  0.00     0.166 HD
ATOM     17  C   LIG d   1      11.779  10.853   0.840  0.00  0.00     0.051 A 
ATOM     18  C   LIG d   1      11.705   9.488   1.163  0.00  0.00     0.008 A 
ATOM     19  C   LIG d   1      12.046   9.051   2.442  0.00  0.00    -0.049 A 
ATOM     20  C   LIG d   1      12.458   9.961   3.389  0.00  0.00    -0.019 A 
ATOM     21  C   LIG d   1      12.533  11.314   3.074  0.00  0.00     0.119 A 
ATOM     22  C   LIG d   1      12.196  11.760   1.807  0.00  0.00     0.004 A 
ATOM     23  C   LIG d   1      11.053   6.196   0.414  0.00  0.00     0.260 A 
ATOM     24  O   LIG d   1      11.400   6.091   1.574  0.00  0.00    -0.267 OA
ATOM     25  N   LIG d   1      10.675   5.184  -0.387  0.00  0.00    -0.289 N 
ATOM     26  C   LIG d   1      10.352   5.635  -1.613  0.00  0.00     0.260 A 
ATOM     27  O   LIG d   1       9.976   4.951  -2.543  0.00  0.00    -0.267 OA
ATOM     28  H   LIG d   1       8.838   6.522  -6.828  0.00  0.00     0.065 H 
ATOM     29  H   LIG d   1       9.495   6.006  -4.519  0.00  0.00     0.062 H 
ATOM     30  H   LIG d   1       9.586  10.675  -6.148  0.00  0.00     0.068 H 
ATOM     31  H   LIG d   1      11.989   8.001   2.690  0.00  0.00     0.062 H 
ATOM     32  H   LIG d   1      12.723   9.624   4.381  0.00  0.00     0.065 H 
ATOM     33  H   LIG d   1      12.258  12.811   1.571  0.00  0.00     0.068 H 
ATOM     34  H   LIG d   1      10.640   4.253  -0.117  0.00  0.00     0.172 HD
ENDROOT
BRANCH   6  35
ATOM     35  O   LIG d   1       8.814   8.906  -7.905  0.00  0.00    -0.507 OA
ATOM     36  H   LIG d   1       7.965   9.362  -7.984  0.00  0.00     0.292 HD
ENDBRANCH   6  35
BRANCH  21  37
ATOM     37  O   LIG d   1      12.941  12.205   4.015  0.00  0.00    -0.507 OA
ATOM     38  H   LIG d   1      13.741  11.939   4.490  0.00  0.00     0.292 HD
ENDBRANCH  21  37
TORSDOF 2
ENDMDL
MODEL 2
REMARK VINA RESULT:      -7.4      0.037      6.875
REMARK  2 active torsions:
REMARK  status: ('A' for Active; 'I' for Inactive)
REMARK    1  A    between atoms: C_6  and  O_7 
REMARK    2  A    between atoms: C_22  and  O_24 
ROOT
ATOM      1  C   LIG d   1      12.453   9.922   3.384  0.00  0.00    -0.019 A 
ATOM      2  C   LIG d   1      12.047   9.016   2.431  0.00  0.00    -0.049 A 
ATOM      3  C   LIG d   1      11.709   9.457   1.152  0.00  0.00     0.008 A 
ATOM      4  C   LIG d   1      11.783  10.824   0.836  0.00  0.00     0.051 A 
ATOM      5  C   LIG d   1      12.195  11.728   1.809  0.00  0.00     0.004 A 
ATOM      6  C   LIG d   1      12.528  11.277   3.074  0.00  0.00     0.119 A 
ATOM      7  N   LIG d   1      11.399  10.988  -0.483  0.00  0.00    -0.352 N 
ATOM      8  H   LIG d   1      11.362  11.838  -0.947  0.00  0.00     0.166 HD
ATOM      9  C   LIG d   1      11.074   9.766  -1.043  0.00  0.00     0.072 A 
ATOM     10  C   LIG d   1      11.249   8.771  -0.067  0.00  0.00     0.022 A 
ATOM     11  C   LIG d   1      10.987   7.430  -0.373  0.00  0.00     0.062 A 
ATOM     12  C   LIG d   1      10.547   7.078  -1.664  0.00  0.00     0.062 A 
ATOM     13  C   LIG d   1      10.373   8.073  -2.635  0.00  0.00     0.022 A 
ATOM     14  C   LIG d   1      10.636   9.418  -2.325  0.00  0.00     0.072 A 
ATOM     15  N   LIG d   1      10.385  10.181  -3.451  0.00  0.00    -0.352 N 
ATOM     16  H   LIG d   1      10.490  11.144  -3.502  0.00  0.00     0.166 HD
ATOM     17  C   LIG d   1       9.965   9.376  -4.492  0.00  0.00     0.051 A 
ATOM     18  C   LIG d   1       9.938   8.046  -4.041  0.00  0.00     0.008 A 
ATOM     19  C   LIG d   1       9.545   7.022  -4.901  0.00  0.00    -0.049 A 
ATOM     20  C   LIG d   1       9.183   7.318  -6.197  0.00  0.00    -0.019 A 
ATOM     21  C   LIG d   1       9.209   8.633  -6.648  0.00  0.00     0.119 A 
ATOM     22  C   LIG d   1       9.597   9.658  -5.803  0.00  0.00     0.004 A 
ATOM     23  C   LIG d   1      10.369   5.616  -1.646  0.00  0.00     0.260 A 
ATOM     24  O   LIG d   1       9.996   4.937  -2.582  0.00  0.00    -0.267 OA
ATOM     25  N   LIG d   1      10.687   5.161  -0.422  0.00  0.00    -0.289 N 
ATOM     26  C   LIG d   1      11.061   6.169   0.385  0.00  0.00     0.260 A 
ATOM     27  O   LIG d   1      11.404   6.059   1.546  0.00  0.00    -0.267 OA
ATOM     28  H   LIG d   1      12.719   9.580   4.372  0.00  0.00     0.065 H 
ATOM     29  H   LIG d   1      11.990   7.964   2.673  0.00  0.00     0.062 H 
ATOM     30  H   LIG d   1      12.255  12.781   1.577  0.00  0.00     0.068 H 
ATOM     31  H   LIG d   1       9.524   6.000  -4.554  0.00  0.00     0.062 H 
ATOM     32  H   LIG d   1       8.879   6.525  -6.865  0.00  0.00     0.065 H 
ATOM     33  H   LIG d   1       9.613  10.677  -6.161  0.00  0.00     0.068 H 
ATOM     34  H   LIG d   1      10.652   4.228  -0.157  0.00  0.00     0.172 HD
ENDROOT
BRANCH   6  35
ATOM     35  O   LIG d   1      12.929  12.164   4.022  0.00  0.00    -0.507 OA
ATOM     36  H   LIG d   1      12.226  12.750   4.335  0.00  0.00     0.292 HD
ENDBRANCH   6  35
BRANCH  21  37
ATOM     37  O   LIG d   1       8.850   8.915  -7.928  0.00  0.00    -0.507 OA
ATOM     38  H   LIG d   1       8.084   8.413  -8.242  0.00  0.00     0.292 HD
ENDBRANCH  21  37
TORSDOF 2
ENDMDL
MODEL 3
REMARK VINA RESULT:      -7.2      2.283      4.438
REMARK  2 active torsions:
REMARK  status: ('A' for Active; 'I' for Inactive)
REMARK    1  A    between atoms: C_6  and  O_7 
REMARK    2  A    between atoms: C_22  and  O_24 
ROOT
ATOM      1  C   LIG d   1       9.430   3.085  -5.174  0.00  0.00    -0.019 A 
ATOM      2  C   LIG d   1       9.510   4.436  -4.923  0.00  0.00    -0.049 A 
ATOM      3  C   LIG d   1       9.934   4.886  -3.673  0.00  0.00     0.008 A 
ATOM      4  C   LIG d   1      10.279   3.962  -2.672  0.00  0.00     0.051 A 
ATOM      5  C   LIG d   1      10.193   2.601  -2.941  0.00  0.00     0.004 A 
ATOM      6  C   LIG d   1       9.770   2.167  -4.186  0.00  0.00     0.119 A 
ATOM      7  N   LIG d   1      10.661   4.665  -1.543  0.00  0.00    -0.352 N 
ATOM      8  H   LIG d   1      10.946   4.260  -0.709  0.00  0.00     0.166 HD
ATOM      9  C   LIG d   1      10.576   6.025  -1.774  0.00  0.00     0.072 A 
ATOM     10  C   LIG d   1      10.127   6.224  -3.091  0.00  0.00     0.022 A 
ATOM     11  C   LIG d   1       9.951   7.521  -3.587  0.00  0.00     0.062 A 
ATOM     12  C   LIG d   1      10.228   8.630  -2.764  0.00  0.00     0.062 A 
ATOM     13  C   LIG d   1      10.676   8.429  -1.452  0.00  0.00     0.022 A 
ATOM     14  C   LIG d   1      10.851   7.126  -0.956  0.00  0.00     0.072 A 
ATOM     15  N   LIG d   1      11.295   7.214   0.351  0.00  0.00    -0.352 N 
ATOM     16  H   LIG d   1      11.492   6.454   0.921  0.00  0.00     0.166 HD
ATOM     17  C   LIG d   1      11.418   8.538   0.728  0.00  0.00     0.051 A 
ATOM     18  C   LIG d   1      11.044   9.344  -0.359  0.00  0.00     0.008 A 
ATOM     19  C   LIG d   1      11.077  10.733  -0.245  0.00  0.00    -0.049 A 
ATOM     20  C   LIG d   1      11.477  11.313   0.938  0.00  0.00    -0.019 A 
ATOM     21  C   LIG d   1      11.848  10.518   2.018  0.00  0.00     0.119 A 
ATOM     22  C   LIG d   1      11.820   9.137   1.915  0.00  0.00     0.004 A 
ATOM     23  C   LIG d   1       9.943   9.822  -3.581  0.00  0.00     0.260 A 
ATOM     24  O   LIG d   1      10.062  10.975  -3.218  0.00  0.00    -0.267 OA
ATOM     25  N   LIG d   1       9.531   9.419  -4.796  0.00  0.00    -0.289 N 
ATOM     26  C   LIG d   1       9.508   8.077  -4.877  0.00  0.00     0.260 A 
ATOM     27  O   LIG d   1       9.179   7.431  -5.852  0.00  0.00    -0.267 OA
ATOM     28  H   LIG d   1       9.106   2.737  -6.144  0.00  0.00     0.065 H 
ATOM     29  H   LIG d   1       9.245   5.147  -5.692  0.00  0.00     0.062 H 
ATOM     30  H   LIG d   1      10.455   1.882  -2.179  0.00  0.00     0.068 H 
ATOM     31  H   LIG d   1      10.790  11.353  -1.081  0.00  0.00     0.062 H 
ATOM     32  H   LIG d   1      11.504  12.389   1.029  0.00  0.00     0.065 H 
ATOM     33  H   LIG d   1      12.108   8.528   2.758  0.00  0.00     0.068 H 
ATOM     34  H   LIG d   1       9.282  10.018  -5.518  0.00  0.00     0.172 HD
ENDROOT
BRANCH   6  35
ATOM     35  O   LIG d   1       9.688   0.836  -4.443  0.00  0.00    -0.507 OA
ATOM     36  H   LIG d   1       8.838   0.441  -4.205  0.00  0.00     0.292 HD
ENDBRANCH   6  35
BRANCH  21  37
ATOM     37  O   LIG d   1      12.241  11.099   3.181  0.00  0.00    -0.507 OA
ATOM     38  H   LIG d   1      13.103  10.798   3.501  0.00  0.00     0.292 HD
ENDBRANCH  21  37
TORSDOF 2
ENDMDL
MODEL 4
REMARK VINA RESULT:      -7.2      2.293      7.586
REMARK  2 active torsions:
REMARK  status: ('A' for Active; 'I' for Inactive)
REMARK    1  A    between atoms: C_6  and  O_7 
REMARK    2  A    between atoms: C_22  and  O_24 
ROOT
ATOM      1  C   LIG d   1      11.511  11.225   1.095  0.00  0.00    -0.019 A 
ATOM      2  C   LIG d   1      11.104  10.665  -0.095  0.00  0.00    -0.049 A 
ATOM      3  C   LIG d   1      11.078   9.278  -0.237  0.00  0.00     0.008 A 
ATOM      4  C   LIG d   1      11.466   8.453   0.833  0.00  0.00     0.051 A 
ATOM      5  C   LIG d   1      11.874   9.034   2.028  0.00  0.00     0.004 A 
ATOM      6  C   LIG d   1      11.895  10.412   2.156  0.00  0.00     0.119 A 
ATOM      7  N   LIG d   1      11.348   7.135   0.431  0.00  0.00    -0.352 N 
ATOM      8  H   LIG d   1      11.556   6.367   0.985  0.00  0.00     0.166 HD
ATOM      9  C   LIG d   1      10.894   7.070  -0.873  0.00  0.00     0.072 A 
ATOM     10  C   LIG d   1      10.707   8.381  -1.343  0.00  0.00     0.022 A 
ATOM     11  C   LIG d   1      10.249   8.603  -2.648  0.00  0.00     0.062 A 
ATOM     12  C   LIG d   1       9.972   7.508  -3.490  0.00  0.00     0.062 A 
ATOM     13  C   LIG d   1      10.159   6.203  -3.018  0.00  0.00     0.022 A 
ATOM     14  C   LIG d   1      10.620   5.982  -1.710  0.00  0.00     0.072 A 
ATOM     15  N   LIG d   1      10.715   4.618  -1.506  0.00  0.00    -0.352 N 
ATOM     16  H   LIG d   1      11.010   4.200  -0.681  0.00  0.00     0.166 HD
ATOM     17  C   LIG d   1      10.329   3.934  -2.643  0.00  0.00     0.051 A 
ATOM     18  C   LIG d   1       9.971   4.874  -3.624  0.00  0.00     0.008 A 
ATOM     19  C   LIG d   1       9.540   4.447  -4.879  0.00  0.00    -0.049 A 
ATOM     20  C   LIG d   1       9.467   3.100  -5.155  0.00  0.00    -0.019 A 
ATOM     21  C   LIG d   1       9.821   2.166  -4.187  0.00  0.00     0.119 A 
ATOM     22  C   LIG d   1      10.250   2.579  -2.937  0.00  0.00     0.004 A 
ATOM     23  C   LIG d   1       9.518   8.085  -4.766  0.00  0.00     0.260 A 
ATOM     24  O   LIG d   1       9.185   7.455  -5.750  0.00  0.00    -0.267 OA
ATOM     25  N   LIG d   1       9.532   9.425  -4.660  0.00  0.00    -0.289 N 
ATOM     26  C   LIG d   1       9.952   9.808  -3.441  0.00  0.00     0.260 A 
ATOM     27  O   LIG d   1      10.066  10.955  -3.058  0.00  0.00    -0.267 OA
ATOM     28  H   LIG d   1      11.526  12.299   1.206  0.00  0.00     0.065 H 
ATOM     29  H   LIG d   1      10.806  11.298  -0.918  0.00  0.00     0.062 H 
ATOM     30  H   LIG d   1      12.174   8.409   2.857  0.00  0.00     0.068 H 
ATOM     31  H   LIG d   1       9.264   5.170  -5.632  0.00  0.00     0.062 H 
ATOM     32  H   LIG d   1       9.133   2.767  -6.127  0.00  0.00     0.065 H 
ATOM     33  H   LIG d   1      10.524   1.847  -2.192  0.00  0.00     0.068 H 
ATOM     34  H   LIG d   1       9.274  10.035  -5.370  0.00  0.00     0.172 HD
ENDROOT
BRANCH   6  35
ATOM     35  O   LIG d   1      12.295  10.974   3.327  0.00  0.00    -0.507 OA
ATOM     36  H   LIG d   1      12.005  10.493   4.114  0.00  0.00     0.292 HD
ENDBRANCH   6  35
BRANCH  21  37
ATOM     37  O   LIG d   1       9.746   0.839  -4.470  0.00  0.00    -0.507 OA
ATOM     38  H   LIG d   1       9.429   0.297  -3.734  0.00  0.00     0.292 HD
ENDBRANCH  21  37
TORSDOF 2
ENDMDL
MODEL 5
REMARK VINA RESULT:      -7.1      1.870      7.215
REMARK  2 active torsions:
REMARK  status: ('A' for Active; 'I' for Inactive)
REMARK    1  A    between atoms: C_6  and  O_7 
REMARK    2  A    between atoms: C_22  and  O_24 
ROOT
ATOM      1  C   LIG d   1      10.491  11.049   1.038  0.00  0.00    -0.019 A 
ATOM      2  C   LIG d   1      10.371   9.945   0.224  0.00  0.00    -0.049 A 
ATOM      3  C   LIG d   1      10.255  10.108  -1.156  0.00  0.00     0.008 A 
ATOM      4  C   LIG d   1      10.263  11.397  -1.715  0.00  0.00     0.051 A 
ATOM      5  C   LIG d   1      10.385  12.502  -0.881  0.00  0.00     0.004 A 
ATOM      6  C   LIG d   1      10.499  12.326   0.487  0.00  0.00     0.119 A 
ATOM      7  N   LIG d   1      10.136  11.277  -3.088  0.00  0.00    -0.352 N 
ATOM      8  H   LIG d   1      10.113  12.021  -3.709  0.00  0.00     0.166 HD
ATOM      9  C   LIG d   1      10.046   9.945  -3.446  0.00  0.00     0.072 A 
ATOM     10  C   LIG d   1      10.115   9.166  -2.278  0.00  0.00     0.022 A 
ATOM     11  C   LIG d   1      10.045   7.770  -2.357  0.00  0.00     0.062 A 
ATOM     12  C   LIG d   1       9.908   7.145  -3.611  0.00  0.00     0.062 A 
ATOM     13  C   LIG d   1       9.839   7.923  -4.774  0.00  0.00     0.022 A 
ATOM     14  C   LIG d   1       9.908   9.324  -4.692  0.00  0.00     0.072 A 
ATOM     15  N   LIG d   1       9.817   9.840  -5.972  0.00  0.00    -0.352 N 
ATOM     16  H   LIG d   1       9.839  10.785  -6.191  0.00  0.00     0.166 HD
ATOM     17  C   LIG d   1       9.690   8.818  -6.893  0.00  0.00     0.051 A 
ATOM     18  C   LIG d   1       9.698   7.595  -6.202  0.00  0.00     0.008 A 
ATOM     19  C   LIG d   1       9.583   6.394  -6.901  0.00  0.00    -0.049 A 
ATOM     20  C   LIG d   1       9.461   6.410  -8.272  0.00  0.00    -0.019 A 
ATOM     21  C   LIG d   1       9.453   7.619  -8.961  0.00  0.00     0.119 A 
ATOM     22  C   LIG d   1       9.567   8.817  -8.278  0.00  0.00     0.004 A 
ATOM     23  C   LIG d   1       9.867   5.698  -3.340  0.00  0.00     0.260 A 
ATOM     24  O   LIG d   1       9.755   4.823  -4.175  0.00  0.00    -0.267 OA
ATOM     25  N   LIG d   1       9.976   5.507  -2.013  0.00  0.00    -0.289 N 
ATOM     26  C   LIG d   1      10.085   6.681  -1.366  0.00  0.00     0.260 A 
ATOM     27  O   LIG d   1      10.197   6.821  -0.164  0.00  0.00    -0.267 OA
ATOM     28  H   LIG d   1      10.585  10.922   2.106  0.00  0.00     0.065 H 
ATOM     29  H   LIG d   1      10.366   8.953   0.654  0.00  0.00     0.062 H 
ATOM     30  H   LIG d   1      10.391  13.498  -1.300  0.00  0.00     0.068 H 
ATOM     31  H   LIG d   1       9.589   5.454  -6.369  0.00  0.00     0.062 H 
ATOM     32  H   LIG d   1       9.373   5.481  -8.816  0.00  0.00     0.065 H 
ATOM     33  H   LIG d   1       9.559   9.751  -8.820  0.00  0.00     0.068 H 
ATOM     34  H   LIG d   1       9.976   4.639  -1.581  0.00  0.00     0.172 HD
ENDROOT
BRANCH   6  35
ATOM     35  O   LIG d   1      10.617  13.410   1.299  0.00  0.00    -0.507 OA
ATOM     36  H   LIG d   1       9.869  14.020   1.252  0.00  0.00     0.292 HD
ENDBRANCH   6  35
BRANCH  21  37
ATOM     37  O   LIG d   1       9.333   7.623 -10.314  0.00  0.00    -0.507 OA
ATOM     38  H   LIG d   1       9.530   8.477 -10.725  0.00  0.00     0.292 HD
ENDBRANCH  21  37
TORSDOF 2
ENDMDL
MODEL 6
REMARK VINA RESULT:      -7.1      1.843      2.587
REMARK  2 active torsions:
REMARK  status: ('A' for Active; 'I' for Inactive)
REMARK    1  A    between atoms: C_6  and  O_7 
REMARK    2  A    between atoms: C_22  and  O_24 
ROOT
ATOM      1  C   LIG d   1       9.456   6.232  -8.209  0.00  0.00    -0.019 A 
ATOM      2  C   LIG d   1       9.589   6.237  -6.839  0.00  0.00    -0.049 A 
ATOM      3  C   LIG d   1       9.701   7.447  -6.156  0.00  0.00     0.008 A 
ATOM      4  C   LIG d   1       9.677   8.660  -6.865  0.00  0.00     0.051 A 
ATOM      5  C   LIG d   1       9.542   8.640  -8.248  0.00  0.00     0.004 A 
ATOM      6  C   LIG d   1       9.432   7.431  -8.914  0.00  0.00     0.119 A 
ATOM      7  N   LIG d   1       9.804   9.697  -5.958  0.00  0.00    -0.352 N 
ATOM      8  H   LIG d   1       9.817  10.638  -6.191  0.00  0.00     0.166 HD
ATOM      9  C   LIG d   1       9.910   9.199  -4.673  0.00  0.00     0.072 A 
ATOM     10  C   LIG d   1       9.852   7.797  -4.734  0.00  0.00     0.022 A 
ATOM     11  C   LIG d   1       9.939   7.036  -3.562  0.00  0.00     0.062 A 
ATOM     12  C   LIG d   1      10.083   7.679  -2.317  0.00  0.00     0.062 A 
ATOM     13  C   LIG d   1      10.141   9.077  -2.259  0.00  0.00     0.022 A 
ATOM     14  C   LIG d   1      10.054   9.839  -3.436  0.00  0.00     0.072 A 
ATOM     15  N   LIG d   1      10.138  11.176  -3.097  0.00  0.00    -0.352 N 
ATOM     16  H   LIG d   1      10.104  11.912  -3.729  0.00  0.00     0.166 HD
ATOM     17  C   LIG d   1      10.276  11.316  -1.729  0.00  0.00     0.051 A 
ATOM     18  C   LIG d   1      10.284  10.036  -1.151  0.00  0.00     0.008 A 
ATOM     19  C   LIG d   1      10.413   9.891   0.229  0.00  0.00    -0.049 A 
ATOM     20  C   LIG d   1      10.534  11.007   1.026  0.00  0.00    -0.019 A 
ATOM     21  C   LIG d   1      10.526  12.277   0.459  0.00  0.00     0.119 A 
ATOM     22  C   LIG d   1      10.398  12.434  -0.911  0.00  0.00     0.004 A 
ATOM     23  C   LIG d   1      10.142   6.605  -1.311  0.00  0.00     0.260 A 
ATOM     24  O   LIG d   1      10.264   6.762  -0.113  0.00  0.00    -0.267 OA
ATOM     25  N   LIG d   1      10.036   5.421  -1.941  0.00  0.00    -0.289 N 
ATOM     26  C   LIG d   1       9.914   5.592  -3.270  0.00  0.00     0.260 A 
ATOM     27  O   LIG d   1       9.801   4.704  -4.092  0.00  0.00    -0.267 OA
ATOM     28  H   LIG d   1       9.365   5.295  -8.737  0.00  0.00     0.065 H 
ATOM     29  H   LIG d   1       9.607   5.304  -6.293  0.00  0.00     0.062 H 
ATOM     30  H   LIG d   1       9.523   9.566  -8.803  0.00  0.00     0.068 H 
ATOM     31  H   LIG d   1      10.420   8.906   0.673  0.00  0.00     0.062 H 
ATOM     32  H   LIG d   1      10.633  10.897   2.096  0.00  0.00     0.065 H 
ATOM     33  H   LIG d   1      10.394  13.423  -1.343  0.00  0.00     0.068 H 
ATOM     34  H   LIG d   1      10.047   4.559  -1.496  0.00  0.00     0.172 HD
ENDROOT
BRANCH   6  35
ATOM     35  O   LIG d   1       9.300   7.417 -10.266  0.00  0.00    -0.507 OA
ATOM     36  H   LIG d   1       9.676   6.632 -10.690  0.00  0.00     0.292 HD
ENDBRANCH   6  35
BRANCH  21  37
ATOM     37  O   LIG d   1      10.645  13.372   1.254  0.00  0.00    -0.507 OA
ATOM     38  H   LIG d   1      10.232  14.169   0.892  0.00  0.00     0.292 HD
ENDBRANCH  21  37
TORSDOF 2
ENDMDL
MODEL 7
REMARK VINA RESULT:      -7.0      3.036      5.935
REMARK  2 active torsions:
REMARK  status: ('A' for Active; 'I' for Inactive)
REMARK    1  A    between atoms: C_6  and  O_7 
REMARK    2  A    between atoms: C_22  and  O_24 
ROOT
ATOM      1  C   LIG d   1       9.510   6.255 -10.735  0.00  0.00    -0.019 A 
ATOM      2  C   LIG d   1       9.527   7.055  -9.615  0.00  0.00    -0.049 A 
ATOM      3  C   LIG d   1       9.707   6.484  -8.355  0.00  0.00     0.008 A 
ATOM      4  C   LIG d   1       9.871   5.094  -8.230  0.00  0.00     0.051 A 
ATOM      5  C   LIG d   1       9.852   4.299  -9.370  0.00  0.00     0.004 A 
ATOM      6  C   LIG d   1       9.673   4.879 -10.614  0.00  0.00     0.119 A 
ATOM      7  N   LIG d   1      10.029   4.794  -6.888  0.00  0.00    -0.352 N 
ATOM      8  H   LIG d   1      10.160   3.902  -6.533  0.00  0.00     0.166 HD
ATOM      9  C   LIG d   1       9.973   5.948  -6.129  0.00  0.00     0.072 A 
ATOM     10  C   LIG d   1       9.772   7.038  -6.993  0.00  0.00     0.022 A 
ATOM     11  C   LIG d   1       9.677   8.336  -6.479  0.00  0.00     0.062 A 
ATOM     12  C   LIG d   1       9.783   8.550  -5.091  0.00  0.00     0.062 A 
ATOM     13  C   LIG d   1       9.983   7.462  -4.232  0.00  0.00     0.022 A 
ATOM     14  C   LIG d   1      10.078   6.160  -4.750  0.00  0.00     0.072 A 
ATOM     15  N   LIG d   1      10.272   5.285  -3.697  0.00  0.00    -0.352 N 
ATOM     16  H   LIG d   1      10.369   4.324  -3.786  0.00  0.00     0.166 HD
ATOM     17  C   LIG d   1      10.308   5.976  -2.500  0.00  0.00     0.051 A 
ATOM     18  C   LIG d   1      10.132   7.342  -2.772  0.00  0.00     0.008 A 
ATOM     19  C   LIG d   1      10.127   8.269  -1.730  0.00  0.00    -0.049 A 
ATOM     20  C   LIG d   1      10.294   7.840  -0.433  0.00  0.00    -0.019 A 
ATOM     21  C   LIG d   1      10.468   6.487  -0.159  0.00  0.00     0.119 A 
ATOM     22  C   LIG d   1      10.476   5.558  -1.185  0.00  0.00     0.004 A 
ATOM     23  C   LIG d   1       9.641  10.003  -4.893  0.00  0.00     0.260 A 
ATOM     24  O   LIG d   1       9.677  10.580  -3.825  0.00  0.00    -0.267 OA
ATOM     25  N   LIG d   1       9.465  10.583  -6.093  0.00  0.00    -0.289 N 
ATOM     26  C   LIG d   1       9.474   9.667  -7.078  0.00  0.00     0.260 A 
ATOM     27  O   LIG d   1       9.338   9.897  -8.263  0.00  0.00    -0.267 OA
ATOM     28  H   LIG d   1       9.375   6.698 -11.710  0.00  0.00     0.065 H 
ATOM     29  H   LIG d   1       9.400   8.124  -9.711  0.00  0.00     0.062 H 
ATOM     30  H   LIG d   1       9.978   3.230  -9.285  0.00  0.00     0.068 H 
ATOM     31  H   LIG d   1       9.992   9.320  -1.940  0.00  0.00     0.062 H 
ATOM     32  H   LIG d   1      10.291   8.557   0.376  0.00  0.00     0.065 H 
ATOM     33  H   LIG d   1      10.610   4.510  -0.964  0.00  0.00     0.068 H 
ATOM     34  H   LIG d   1       9.348  11.537  -6.231  0.00  0.00     0.172 HD
ENDROOT
BRANCH   6  35
ATOM     35  O   LIG d   1       9.655   4.097 -11.725  0.00  0.00    -0.507 OA
ATOM     36  H   LIG d   1       8.996   4.361 -12.382  0.00  0.00     0.292 HD
ENDBRANCH   6  35
BRANCH  21  37
ATOM     37  O   LIG d   1      10.632   6.074   1.125  0.00  0.00    -0.507 OA
ATOM     38  H   LIG d   1       9.969   5.435   1.421  0.00  0.00     0.292 HD
ENDBRANCH  21  37
TORSDOF 2
ENDMDL
MODEL 8
REMARK VINA RESULT:      -7.0      2.522      8.362
REMARK  2 active torsions:
REMARK  status: ('A' for Active; 'I' for Inactive)
REMARK    1  A    between atoms: C_6  and  O_7 
REMARK    2  A    between atoms: C_22  and  O_24 
ROOT
ATOM      1  C   LIG d   1      10.957   8.133   0.927  0.00  0.00    -0.019 A 
ATOM      2  C   LIG d   1      10.724   8.592  -0.349  0.00  0.00    -0.049 A 
ATOM      3  C   LIG d   1      10.580   7.684  -1.398  0.00  0.00     0.008 A 
ATOM      4  C   LIG d   1      10.672   6.303  -1.152  0.00  0.00     0.051 A 
ATOM      5  C   LIG d   1      10.908   5.855   0.142  0.00  0.00     0.004 A 
ATOM      6  C   LIG d   1      11.049   6.767   1.174  0.00  0.00     0.119 A 
ATOM      7  N   LIG d   1      10.494   5.635  -2.351  0.00  0.00    -0.352 N 
ATOM      8  H   LIG d   1      10.512   4.671  -2.455  0.00  0.00     0.166 HD
ATOM      9  C   LIG d   1      10.287   6.538  -3.377  0.00  0.00     0.072 A 
ATOM     10  C   LIG d   1      10.331   7.836  -2.841  0.00  0.00     0.022 A 
ATOM     11  C   LIG d   1      10.150   8.948  -3.672  0.00  0.00     0.062 A 
ATOM     12  C   LIG d   1       9.923   8.764  -5.050  0.00  0.00     0.062 A 
ATOM     13  C   LIG d   1       9.880   7.469  -5.581  0.00  0.00     0.022 A 
ATOM     14  C   LIG d   1      10.062   6.355  -4.746  0.00  0.00     0.072 A 
ATOM     15  N   LIG d   1       9.974   5.211  -5.518  0.00  0.00    -0.352 N 
ATOM     16  H   LIG d   1      10.064   4.306  -5.181  0.00  0.00     0.166 HD
ATOM     17  C   LIG d   1       9.738   5.542  -6.839  0.00  0.00     0.051 A 
ATOM     18  C   LIG d   1       9.670   6.941  -6.940  0.00  0.00     0.008 A 
ATOM     19  C   LIG d   1       9.439   7.545  -8.175  0.00  0.00    -0.049 A 
ATOM     20  C   LIG d   1       9.278   6.764  -9.298  0.00  0.00    -0.019 A 
ATOM     21  C   LIG d   1       9.345   5.378  -9.204  0.00  0.00     0.119 A 
ATOM     22  C   LIG d   1       9.573   4.768  -7.982  0.00  0.00     0.004 A 
ATOM     23  C   LIG d   1       9.778  10.114  -5.620  0.00  0.00     0.260 A 
ATOM     24  O   LIG d   1       9.571  10.372  -6.789  0.00  0.00    -0.267 OA
ATOM     25  N   LIG d   1       9.913  11.014  -4.630  0.00  0.00    -0.289 N 
ATOM     26  C   LIG d   1      10.135  10.404  -3.452  0.00  0.00     0.260 A 
ATOM     27  O   LIG d   1      10.295  10.961  -2.384  0.00  0.00    -0.267 OA
ATOM     28  H   LIG d   1      11.064   8.835   1.740  0.00  0.00     0.065 H 
ATOM     29  H   LIG d   1      10.653   9.653  -0.539  0.00  0.00     0.062 H 
ATOM     30  H   LIG d   1      10.980   4.796   0.342  0.00  0.00     0.068 H 
ATOM     31  H   LIG d   1       9.386   8.621  -8.252  0.00  0.00     0.062 H 
ATOM     32  H   LIG d   1       9.099   7.230 -10.256  0.00  0.00     0.065 H 
ATOM     33  H   LIG d   1       9.625   3.692  -7.917  0.00  0.00     0.068 H 
ATOM     34  H   LIG d   1       9.857  11.975  -4.750  0.00  0.00     0.172 HD
ENDROOT
BRANCH   6  35
ATOM     35  O   LIG d   1      11.279   6.323   2.438  0.00  0.00    -0.507 OA
ATOM     36  H   LIG d   1      11.663   6.989   3.025  0.00  0.00     0.292 HD
ENDBRANCH   6  35
BRANCH  21  37
ATOM     37  O   LIG d   1       9.186   4.617 -10.317  0.00  0.00    -0.507 OA
ATOM     38  H   LIG d   1       8.336   4.156 -10.361  0.00  0.00     0.292 HD
ENDBRANCH  21  37
TORSDOF 2
ENDMDL
MODEL 9
REMARK VINA RESULT:      -6.9      2.531      7.478
REMARK  2 active torsions:
REMARK  status: ('A' for Active; 'I' for Inactive)
REMARK    1  A    between atoms: C_6  and  O_7 
REMARK    2  A    between atoms: C_22  and  O_24 
ROOT
ATOM      1  C   LIG d   1      10.402   9.937   0.191  0.00  0.00    -0.019 A 
ATOM      2  C   LIG d   1      10.475   8.694  -0.397  0.00  0.00    -0.049 A 
ATOM      3  C   LIG d   1      10.243   8.559  -1.765  0.00  0.00     0.008 A 
ATOM      4  C   LIG d   1       9.937   9.689  -2.543  0.00  0.00     0.051 A 
ATOM      5  C   LIG d   1       9.867  10.937  -1.935  0.00  0.00     0.004 A 
ATOM      6  C   LIG d   1      10.100  11.058  -0.576  0.00  0.00     0.119 A 
ATOM      7  N   LIG d   1       9.755   9.280  -3.852  0.00  0.00    -0.352 N 
ATOM      8  H   LIG d   1       9.534   9.869  -4.590  0.00  0.00     0.166 HD
ATOM      9  C   LIG d   1       9.934   7.914  -3.956  0.00  0.00     0.072 A 
ATOM     10  C   LIG d   1      10.241   7.408  -2.682  0.00  0.00     0.022 A 
ATOM     11  C   LIG d   1      10.471   6.038  -2.504  0.00  0.00     0.062 A 
ATOM     12  C   LIG d   1      10.395   5.165  -3.607  0.00  0.00     0.062 A 
ATOM     13  C   LIG d   1      10.089   5.672  -4.876  0.00  0.00     0.022 A 
ATOM     14  C   LIG d   1       9.858   7.047  -5.052  0.00  0.00     0.072 A 
ATOM     15  N   LIG d   1       9.579   7.274  -6.387  0.00  0.00    -0.352 N 
ATOM     16  H   LIG d   1       9.383   8.143  -6.772  0.00  0.00     0.166 HD
ATOM     17  C   LIG d   1       9.621   6.087  -7.095  0.00  0.00     0.051 A 
ATOM     18  C   LIG d   1       9.935   5.050  -6.202  0.00  0.00     0.008 A 
ATOM     19  C   LIG d   1      10.041   3.738  -6.661  0.00  0.00    -0.049 A 
ATOM     20  C   LIG d   1       9.835   3.461  -7.994  0.00  0.00    -0.019 A 
ATOM     21  C   LIG d   1       9.523   4.485  -8.882  0.00  0.00     0.119 A 
ATOM     22  C   LIG d   1       9.417   5.792  -8.438  0.00  0.00     0.004 A 
ATOM     23  C   LIG d   1      10.686   3.821  -3.080  0.00  0.00     0.260 A 
ATOM     24  O   LIG d   1      10.715   2.796  -3.730  0.00  0.00    -0.267 OA
ATOM     25  N   LIG d   1      10.914   3.919  -1.758  0.00  0.00    -0.289 N 
ATOM     26  C   LIG d   1      10.805   5.194  -1.344  0.00  0.00     0.260 A 
ATOM     27  O   LIG d   1      10.958   5.585  -0.204  0.00  0.00    -0.267 OA
ATOM     28  H   LIG d   1      10.587  10.042   1.250  0.00  0.00     0.065 H 
ATOM     29  H   LIG d   1      10.710   7.826   0.200  0.00  0.00     0.062 H 
ATOM     30  H   LIG d   1       9.633  11.812  -2.523  0.00  0.00     0.068 H 
ATOM     31  H   LIG d   1      10.282   2.941  -5.974  0.00  0.00     0.062 H 
ATOM     32  H   LIG d   1       9.916   2.445  -8.352  0.00  0.00     0.065 H 
ATOM     33  H   LIG d   1       9.174   6.581  -9.134  0.00  0.00     0.068 H 
ATOM     34  H   LIG d   1      11.128   3.170  -1.181  0.00  0.00     0.172 HD
ENDROOT
BRANCH   6  35
ATOM     35  O   LIG d   1      10.031  12.280   0.014  0.00  0.00    -0.507 OA
ATOM     36  H   LIG d   1      10.808  12.835  -0.139  0.00  0.00     0.292 HD
ENDBRANCH   6  35
BRANCH  21  37
ATOM     37  O   LIG d   1       9.322   4.202 -10.195  0.00  0.00    -0.507 OA
ATOM     38  H   LIG d   1       9.926   3.535 -10.552  0.00  0.00     0.292 HD
ENDBRANCH  21  37
TORSDOF 2
ENDMDL
MODEL 10
REMARK VINA RESULT:      -6.9      2.495      4.684
REMARK  2 active torsions:
REMARK  status: ('A' for Active; 'I' for Inactive)
REMARK    1  A    between atoms: C_6  and  O_7 
REMARK    2  A    between atoms: C_22  and  O_24 
ROOT
ATOM      1  C   LIG d   1       9.242   7.439  -9.092  0.00  0.00    -0.019 A 
ATOM      2  C   LIG d   1       9.423   8.135  -7.919  0.00  0.00    -0.049 A 
ATOM      3  C   LIG d   1       9.652   7.444  -6.729  0.00  0.00     0.008 A 
ATOM      4  C   LIG d   1       9.699   6.039  -6.729  0.00  0.00     0.051 A 
ATOM      5  C   LIG d   1       9.515   5.350  -7.923  0.00  0.00     0.004 A 
ATOM      6  C   LIG d   1       9.288   6.048  -9.096  0.00  0.00     0.119 A 
ATOM      7  N   LIG d   1       9.938   5.611  -5.435  0.00  0.00    -0.352 N 
ATOM      8  H   LIG d   1      10.015   4.684  -5.164  0.00  0.00     0.166 HD
ATOM      9  C   LIG d   1      10.049   6.696  -4.585  0.00  0.00     0.072 A 
ATOM     10  C   LIG d   1       9.879   7.870  -5.339  0.00  0.00     0.022 A 
ATOM     11  C   LIG d   1       9.943   9.122  -4.717  0.00  0.00     0.062 A 
ATOM     12  C   LIG d   1      10.182   9.206  -3.331  0.00  0.00     0.062 A 
ATOM     13  C   LIG d   1      10.351   8.034  -2.582  0.00  0.00     0.022 A 
ATOM     14  C   LIG d   1      10.285   6.778  -3.208  0.00  0.00     0.072 A 
ATOM     15  N   LIG d   1      10.483   5.802  -2.249  0.00  0.00    -0.352 N 
ATOM     16  H   LIG d   1      10.486   4.848  -2.422  0.00  0.00     0.166 HD
ATOM     17  C   LIG d   1      10.679   6.381  -1.009  0.00  0.00     0.051 A 
ATOM     18  C   LIG d   1      10.607   7.776  -1.156  0.00  0.00     0.008 A 
ATOM     19  C   LIG d   1      10.771   8.606  -0.048  0.00  0.00    -0.049 A 
ATOM     20  C   LIG d   1      11.004   8.054   1.192  0.00  0.00    -0.019 A 
ATOM     21  C   LIG d   1      11.076   6.673   1.342  0.00  0.00     0.119 A 
ATOM     22  C   LIG d   1      10.915   5.839   0.248  0.00  0.00     0.004 A 
ATOM     23  C   LIG d   1      10.189  10.642  -3.007  0.00  0.00     0.260 A 
ATOM     24  O   LIG d   1      10.364  11.119  -1.904  0.00  0.00    -0.267 OA
ATOM     25  N   LIG d   1       9.969  11.337  -4.137  0.00  0.00    -0.289 N 
ATOM     26  C   LIG d   1       9.814  10.512  -5.188  0.00  0.00     0.260 A 
ATOM     27  O   LIG d   1       9.604  10.855  -6.335  0.00  0.00    -0.267 OA
ATOM     28  H   LIG d   1       9.069   7.975 -10.014  0.00  0.00     0.065 H 
ATOM     29  H   LIG d   1       9.387   9.215  -7.918  0.00  0.00     0.062 H 
ATOM     30  H   LIG d   1       9.549   4.271  -7.934  0.00  0.00     0.068 H 
ATOM     31  H   LIG d   1      10.716   9.678  -0.160  0.00  0.00     0.062 H 
ATOM     32  H   LIG d   1      11.131   8.695   2.052  0.00  0.00     0.065 H 
ATOM     33  H   LIG d   1      10.972   4.768   0.373  0.00  0.00     0.068 H 
ATOM     34  H   LIG d   1       9.928  12.305  -4.188  0.00  0.00     0.172 HD
ENDROOT
BRANCH   6  35
ATOM     35  O   LIG d   1       9.109   5.370 -10.260  0.00  0.00    -0.507 OA
ATOM     36  H   LIG d   1       9.835   5.471 -10.890  0.00  0.00     0.292 HD
ENDBRANCH   6  35
BRANCH  21  37
ATOM     37  O   LIG d   1      11.306   6.138   2.569  0.00  0.00    -0.507 OA
ATOM     38  H   LIG d   1      10.506   6.004   3.097  0.00  0.00     0.292 HD
ENDBRANCH  21  37
TORSDOF 2
ENDMDL
