MODEL 1
REMARK VINA RESULT:      -4.0      0.000      0.000
REMARK  7 active torsions:
REMARK  status: ('A' for Active; 'I' for Inactive)
REMARK    1  A    between atoms: C_1  and  C_2 
REMARK    2  A    between atoms: C_3  and  O_12 
REMARK    3  A    between atoms: C_5  and  O_10 
REMARK    4  A    between atoms: C_7  and  O_8 
REMARK    5  A    between atoms: O_8  and  C_9 
REMARK    6  A    between atoms: O_10  and  C_11 
REMARK    7  A    between atoms: O_12  and  C_13 
ROOT
ATOM      1  C   LIG d   1       5.136  -1.408  -3.036  0.00  0.00     0.033 A 
ATOM      2  C   LIG d   1       6.048  -1.993  -3.900  0.00  0.00     0.130 A 
ATOM      3  C   LIG d   1       7.133  -1.264  -4.362  0.00  0.00     0.022 A 
ATOM      4  C   LIG d   1       7.300   0.056  -3.967  0.00  0.00     0.127 A 
ATOM      5  C   LIG d   1       6.386   0.643  -3.106  0.00  0.00     0.022 A 
ATOM      6  C   LIG d   1       5.304  -0.088  -2.640  0.00  0.00     0.130 A 
ATOM      7  H   LIG d   1       7.845  -1.721  -5.033  0.00  0.00     0.069 H 
ATOM      8  H   LIG d   1       6.517   1.670  -2.797  0.00  0.00     0.069 H 
ENDROOT
BRANCH   2   9
ATOM      9  O   LIG d   1       5.881  -3.284  -4.292  0.00  0.00    -0.495 OA
BRANCH   9  10
ATOM     10  C   LIG d   1       6.973  -3.900  -4.975  0.00  0.00     0.079 C 
ATOM     11  H   LIG d   1       7.514  -3.149  -5.550  0.00  0.00     0.066 H 
ATOM     12  H   LIG d   1       7.646  -4.356  -4.249  0.00  0.00     0.066 H 
ATOM     13  H   LIG d   1       6.593  -4.668  -5.650  0.00  0.00     0.066 H 
ENDBRANCH   9  10
ENDBRANCH   2   9
BRANCH   1  14
ATOM     14  C   LIG d   1       3.959  -2.202  -2.530  0.00  0.00    -0.033 C 
ATOM     15  H   LIG d   1       3.720  -1.890  -1.513  0.00  0.00     0.028 H 
ATOM     16  H   LIG d   1       3.099  -2.026  -3.176  0.00  0.00     0.028 H 
ATOM     17  H   LIG d   1       4.208  -3.264  -2.536  0.00  0.00     0.028 H 
ENDBRANCH   1  14
BRANCH   6  18
ATOM     18  O   LIG d   1       4.407   0.487  -1.797  0.00  0.00    -0.495 OA
BRANCH  18  19
ATOM     19  C   LIG d   1       3.528   1.466  -2.355  0.00  0.00     0.079 C 
ATOM     20  H   LIG d   1       3.962   2.458  -2.227  0.00  0.00     0.066 H 
ATOM     21  H   LIG d   1       3.387   1.265  -3.417  0.00  0.00     0.066 H 
ATOM     22  H   LIG d   1       2.565   1.423  -1.846  0.00  0.00     0.066 H 
ENDBRANCH  18  19
ENDBRANCH   6  18
BRANCH   4  23
ATOM     23  O   LIG d   1       8.361   0.772  -4.424  0.00  0.00    -0.495 OA
BRANCH  23  24
ATOM     24  C   LIG d   1       8.613   2.030  -3.794  0.00  0.00     0.079 C 
ATOM     25  H   LIG d   1       9.609   2.380  -4.067  0.00  0.00     0.066 H 
ATOM     26  H   LIG d   1       7.869   2.756  -4.123  0.00  0.00     0.066 H 
ATOM     27  H   LIG d   1       8.554   1.912  -2.712  0.00  0.00     0.066 H 
ENDBRANCH  23  24
ENDBRANCH   4  23
TORSDOF 7
ENDMDL
MODEL 2
REMARK VINA RESULT:      -4.0      0.036      3.543
REMARK  7 active torsions:
REMARK  status: ('A' for Active; 'I' for Inactive)
REMARK    1  A    between atoms: C_1  and  C_2 
REMARK    2  A    between atoms: C_3  and  O_12 
REMARK    3  A    between atoms: C_5  and  O_10 
REMARK    4  A    between atoms: C_7  and  O_8 
REMARK    5  A    between atoms: O_8  and  C_9 
REMARK    6  A    between atoms: O_10  and  C_11 
REMARK    7  A    between atoms: O_12  and  C_13 
ROOT
ATOM      1  C   LIG d   1       5.121  -1.402  -3.022  0.00  0.00     0.033 A 
ATOM      2  C   LIG d   1       5.291  -0.083  -2.632  0.00  0.00     0.130 A 
ATOM      3  C   LIG d   1       6.375   0.644  -3.101  0.00  0.00     0.022 A 
ATOM      4  C   LIG d   1       7.295   0.048  -3.951  0.00  0.00     0.127 A 
ATOM      5  C   LIG d   1       7.126  -1.273  -4.337  0.00  0.00     0.022 A 
ATOM      6  C   LIG d   1       6.040  -1.998  -3.873  0.00  0.00     0.130 A 
ATOM      7  H   LIG d   1       6.506   1.673  -2.800  0.00  0.00     0.069 H 
ATOM      8  H   LIG d   1       7.842  -1.737  -5.000  0.00  0.00     0.069 H 
ENDROOT
BRANCH   2   9
ATOM      9  O   LIG d   1       4.394   0.500  -1.795  0.00  0.00    -0.495 OA
BRANCH   9  10
ATOM     10  C   LIG d   1       3.517   1.476  -2.360  0.00  0.00     0.079 C 
ATOM     11  H   LIG d   1       3.011   1.051  -3.226  0.00  0.00     0.066 H 
ATOM     12  H   LIG d   1       2.777   1.774  -1.617  0.00  0.00     0.066 H 
ATOM     13  H   LIG d   1       4.094   2.349  -2.669  0.00  0.00     0.066 H 
ENDBRANCH   9  10
ENDBRANCH   2   9
BRANCH   1  14
ATOM     14  C   LIG d   1       3.940  -2.191  -2.516  0.00  0.00    -0.033 C 
ATOM     15  H   LIG d   1       4.106  -2.466  -1.475  0.00  0.00     0.028 H 
ATOM     16  H   LIG d   1       3.038  -1.584  -2.593  0.00  0.00     0.028 H 
ATOM     17  H   LIG d   1       3.822  -3.094  -3.117  0.00  0.00     0.028 H 
ENDBRANCH   1  14
BRANCH   6  18
ATOM     18  O   LIG d   1       5.875  -3.293  -4.251  0.00  0.00    -0.495 OA
BRANCH  18  19
ATOM     19  C   LIG d   1       6.912  -3.874  -5.046  0.00  0.00     0.079 C 
ATOM     20  H   LIG d   1       7.337  -3.112  -5.699  0.00  0.00     0.066 H 
ATOM     21  H   LIG d   1       7.691  -4.270  -4.394  0.00  0.00     0.066 H 
ATOM     22  H   LIG d   1       6.498  -4.681  -5.649  0.00  0.00     0.066 H 
ENDBRANCH  18  19
ENDBRANCH   6  18
BRANCH   4  23
ATOM     23  O   LIG d   1       8.360   0.759  -4.406  0.00  0.00    -0.495 OA
BRANCH  23  24
ATOM     24  C   LIG d   1       8.584   2.041  -3.814  0.00  0.00     0.079 C 
ATOM     25  H   LIG d   1       7.640   2.439  -3.442  0.00  0.00     0.066 H 
ATOM     26  H   LIG d   1       9.288   1.941  -2.989  0.00  0.00     0.066 H 
ATOM     27  H   LIG d   1       8.994   2.719  -4.563  0.00  0.00     0.066 H 
ENDBRANCH  23  24
ENDBRANCH   4  23
TORSDOF 7
ENDMDL
MODEL 3
REMARK VINA RESULT:      -3.9      2.872      3.347
REMARK  7 active torsions:
REMARK  status: ('A' for Active; 'I' for Inactive)
REMARK    1  A    between atoms: C_1  and  C_2 
REMARK    2  A    between atoms: C_3  and  O_12 
REMARK    3  A    between atoms: C_5  and  O_10 
REMARK    4  A    between atoms: C_7  and  O_8 
REMARK    5  A    between atoms: O_8  and  C_9 
REMARK    6  A    between atoms: O_10  and  C_11 
REMARK    7  A    between atoms: O_12  and  C_13 
ROOT
ATOM      1  C   LIG d   1       3.966  -1.716  -3.686  0.00  0.00     0.033 A 
ATOM      2  C   LIG d   1       4.520  -2.446  -4.726  0.00  0.00     0.130 A 
ATOM      3  C   LIG d   1       4.545  -1.919  -6.008  0.00  0.00     0.022 A 
ATOM      4  C   LIG d   1       4.005  -0.664  -6.252  0.00  0.00     0.127 A 
ATOM      5  C   LIG d   1       3.447   0.064  -5.213  0.00  0.00     0.022 A 
ATOM      6  C   LIG d   1       3.427  -0.461  -3.930  0.00  0.00     0.130 A 
ATOM      7  H   LIG d   1       4.979  -2.486  -6.818  0.00  0.00     0.069 H 
ATOM      8  H   LIG d   1       3.027   1.042  -5.403  0.00  0.00     0.069 H 
ENDROOT
BRANCH   2   9
ATOM      9  O   LIG d   1       5.044  -3.677  -4.489  0.00  0.00    -0.495 OA
BRANCH   9  10
ATOM     10  C   LIG d   1       4.895  -4.656  -5.519  0.00  0.00     0.079 C 
ATOM     11  H   LIG d   1       5.175  -5.635  -5.132  0.00  0.00     0.066 H 
ATOM     12  H   LIG d   1       3.856  -4.679  -5.851  0.00  0.00     0.066 H 
ATOM     13  H   LIG d   1       5.540  -4.400  -6.360  0.00  0.00     0.066 H 
ENDBRANCH   9  10
ENDBRANCH   2   9
BRANCH   1  14
ATOM     14  C   LIG d   1       3.944  -2.288  -2.292  0.00  0.00    -0.033 C 
ATOM     15  H   LIG d   1       4.275  -3.326  -2.319  0.00  0.00     0.028 H 
ATOM     16  H   LIG d   1       4.611  -1.710  -1.653  0.00  0.00     0.028 H 
ATOM     17  H   LIG d   1       2.929  -2.240  -1.896  0.00  0.00     0.028 H 
ENDBRANCH   1  14
BRANCH   6  18
ATOM     18  O   LIG d   1       2.879   0.252  -2.911  0.00  0.00    -0.495 OA
BRANCH  18  19
ATOM     19  C   LIG d   1       3.648   1.342  -2.397  0.00  0.00     0.079 C 
ATOM     20  H   LIG d   1       4.625   0.979  -2.080  0.00  0.00     0.066 H 
ATOM     21  H   LIG d   1       3.775   2.096  -3.174  0.00  0.00     0.066 H 
ATOM     22  H   LIG d   1       3.130   1.782  -1.545  0.00  0.00     0.066 H 
ENDBRANCH  18  19
ENDBRANCH   6  18
BRANCH   4  23
ATOM     23  O   LIG d   1       4.024  -0.149  -7.510  0.00  0.00    -0.495 OA
BRANCH  23  24
ATOM     24  C   LIG d   1       2.761   0.154  -8.106  0.00  0.00     0.079 C 
ATOM     25  H   LIG d   1       2.640  -0.431  -9.018  0.00  0.00     0.066 H 
ATOM     26  H   LIG d   1       1.962  -0.092  -7.407  0.00  0.00     0.066 H 
ATOM     27  H   LIG d   1       2.720   1.216  -8.348  0.00  0.00     0.066 H 
ENDBRANCH  23  24
ENDBRANCH   4  23
TORSDOF 7
ENDMDL
MODEL 4
REMARK VINA RESULT:      -3.9      2.803      4.818
REMARK  7 active torsions:
REMARK  status: ('A' for Active; 'I' for Inactive)
REMARK    1  A    between atoms: C_1  and  C_2 
REMARK    2  A    between atoms: C_3  and  O_12 
REMARK    3  A    between atoms: C_5  and  O_10 
REMARK    4  A    between atoms: C_7  and  O_8 
REMARK    5  A    between atoms: O_8  and  C_9 
REMARK    6  A    between atoms: O_10  and  C_11 
REMARK    7  A    between atoms: O_12  and  C_13 
ROOT
ATOM      1  C   LIG d   1       3.973  -1.683  -3.706  0.00  0.00     0.033 A 
ATOM      2  C   LIG d   1       3.406  -0.433  -3.894  0.00  0.00     0.130 A 
ATOM      3  C   LIG d   1       3.363   0.126  -5.162  0.00  0.00     0.022 A 
ATOM      4  C   LIG d   1       3.898  -0.562  -6.241  0.00  0.00     0.127 A 
ATOM      5  C   LIG d   1       4.469  -1.811  -6.053  0.00  0.00     0.022 A 
ATOM      6  C   LIG d   1       4.507  -2.372  -4.786  0.00  0.00     0.130 A 
ATOM      7  H   LIG d   1       2.919   1.100  -5.309  0.00  0.00     0.069 H 
ATOM      8  H   LIG d   1       4.884  -2.347  -6.894  0.00  0.00     0.069 H 
ENDROOT
BRANCH   2   9
ATOM      9  O   LIG d   1       2.888   0.244  -2.836  0.00  0.00    -0.495 OA
BRANCH   9  10
ATOM     10  C   LIG d   1       3.628   1.369  -2.358  0.00  0.00     0.079 C 
ATOM     11  H   LIG d   1       4.626   1.047  -2.062  0.00  0.00     0.066 H 
ATOM     12  H   LIG d   1       3.706   2.115  -3.150  0.00  0.00     0.066 H 
ATOM     13  H   LIG d   1       3.116   1.803  -1.499  0.00  0.00     0.066 H 
ENDBRANCH   9  10
ENDBRANCH   2   9
BRANCH   1  14
ATOM     14  C   LIG d   1       4.015  -2.294  -2.329  0.00  0.00    -0.033 C 
ATOM     15  H   LIG d   1       4.942  -2.854  -2.207  0.00  0.00     0.028 H 
ATOM     16  H   LIG d   1       3.968  -1.503  -1.580  0.00  0.00     0.028 H 
ATOM     17  H   LIG d   1       3.165  -2.965  -2.202  0.00  0.00     0.028 H 
ENDBRANCH   1  14
BRANCH   6  18
ATOM     18  O   LIG d   1       5.067  -3.596  -4.601  0.00  0.00    -0.495 OA
BRANCH  18  19
ATOM     19  C   LIG d   1       6.432  -3.751  -4.995  0.00  0.00     0.079 C 
ATOM     20  H   LIG d   1       6.475  -4.073  -6.035  0.00  0.00     0.066 H 
ATOM     21  H   LIG d   1       6.952  -2.798  -4.888  0.00  0.00     0.066 H 
ATOM     22  H   LIG d   1       6.911  -4.499  -4.363  0.00  0.00     0.066 H 
ENDBRANCH  18  19
ENDBRANCH   6  18
BRANCH   4  23
ATOM     23  O   LIG d   1       3.861  -0.011  -7.484  0.00  0.00    -0.495 OA
BRANCH  23  24
ATOM     24  C   LIG d   1       2.745  -0.352  -8.310  0.00  0.00     0.079 C 
ATOM     25  H   LIG d   1       3.075  -1.016  -9.109  0.00  0.00     0.066 H 
ATOM     26  H   LIG d   1       1.988  -0.853  -7.709  0.00  0.00     0.066 H 
ATOM     27  H   LIG d   1       2.325   0.556  -8.744  0.00  0.00     0.066 H 
ENDBRANCH  23  24
ENDBRANCH   4  23
TORSDOF 7
ENDMDL
MODEL 5
REMARK VINA RESULT:      -3.7      1.385      3.573
REMARK  7 active torsions:
REMARK  status: ('A' for Active; 'I' for Inactive)
REMARK    1  A    between atoms: C_1  and  C_2 
REMARK    2  A    between atoms: C_3  and  O_12 
REMARK    3  A    between atoms: C_5  and  O_10 
REMARK    4  A    between atoms: C_7  and  O_8 
REMARK    5  A    between atoms: O_8  and  C_9 
REMARK    6  A    between atoms: O_10  and  C_11 
REMARK    7  A    between atoms: O_12  and  C_13 
ROOT
ATOM      1  C   LIG d   1       5.836   0.333  -3.068  0.00  0.00     0.033 A 
ATOM      2  C   LIG d   1       6.888   0.731  -3.879  0.00  0.00     0.130 A 
ATOM      3  C   LIG d   1       7.740  -0.217  -4.424  0.00  0.00     0.022 A 
ATOM      4  C   LIG d   1       7.548  -1.563  -4.149  0.00  0.00     0.127 A 
ATOM      5  C   LIG d   1       6.499  -1.960  -3.335  0.00  0.00     0.022 A 
ATOM      6  C   LIG d   1       5.643  -1.013  -2.794  0.00  0.00     0.130 A 
ATOM      7  H   LIG d   1       8.558   0.093  -5.059  0.00  0.00     0.069 H 
ATOM      8  H   LIG d   1       6.348  -3.009  -3.122  0.00  0.00     0.069 H 
ENDROOT
BRANCH   2   9
ATOM      9  O   LIG d   1       7.080   2.050  -4.144  0.00  0.00    -0.495 OA
BRANCH   9  10
ATOM     10  C   LIG d   1       8.351   2.426  -4.676  0.00  0.00     0.079 C 
ATOM     11  H   LIG d   1       8.933   1.531  -4.893  0.00  0.00     0.066 H 
ATOM     12  H   LIG d   1       8.207   2.997  -5.594  0.00  0.00     0.066 H 
ATOM     13  H   LIG d   1       8.884   3.038  -3.947  0.00  0.00     0.066 H 
ENDBRANCH   9  10
ENDBRANCH   2   9
BRANCH   1  14
ATOM     14  C   LIG d   1       4.906   1.363  -2.480  0.00  0.00    -0.033 C 
ATOM     15  H   LIG d   1       3.910   1.238  -2.904  0.00  0.00     0.028 H 
ATOM     16  H   LIG d   1       4.860   1.234  -1.398  0.00  0.00     0.028 H 
ATOM     17  H   LIG d   1       5.277   2.362  -2.711  0.00  0.00     0.028 H 
ENDBRANCH   1  14
BRANCH   6  18
ATOM     18  O   LIG d   1       4.615  -1.402  -1.995  0.00  0.00    -0.495 OA
BRANCH  18  19
ATOM     19  C   LIG d   1       3.418  -1.839  -2.644  0.00  0.00     0.079 C 
ATOM     20  H   LIG d   1       2.931  -0.986  -3.116  0.00  0.00     0.066 H 
ATOM     21  H   LIG d   1       3.667  -2.582  -3.403  0.00  0.00     0.066 H 
ATOM     22  H   LIG d   1       2.746  -2.281  -1.909  0.00  0.00     0.066 H 
ENDBRANCH  18  19
ENDBRANCH   6  18
BRANCH   4  23
ATOM     23  O   LIG d   1       8.387  -2.491  -4.680  0.00  0.00    -0.495 OA
BRANCH  23  24
ATOM     24  C   LIG d   1       8.782  -3.569  -3.828  0.00  0.00     0.079 C 
ATOM     25  H   LIG d   1       9.226  -3.168  -2.917  0.00  0.00     0.066 H 
ATOM     26  H   LIG d   1       7.909  -4.170  -3.574  0.00  0.00     0.066 H 
ATOM     27  H   LIG d   1       9.514  -4.190  -4.346  0.00  0.00     0.066 H 
ENDBRANCH  23  24
ENDBRANCH   4  23
TORSDOF 7
ENDMDL
MODEL 6
REMARK VINA RESULT:      -3.6      2.475      4.301
REMARK  7 active torsions:
REMARK  status: ('A' for Active; 'I' for Inactive)
REMARK    1  A    between atoms: C_1  and  C_2 
REMARK    2  A    between atoms: C_3  and  O_12 
REMARK    3  A    between atoms: C_5  and  O_10 
REMARK    4  A    between atoms: C_7  and  O_8 
REMARK    5  A    between atoms: O_8  and  C_9 
REMARK    6  A    between atoms: O_10  and  C_11 
REMARK    7  A    between atoms: O_12  and  C_13 
ROOT
ATOM      1  C   LIG d   1       3.628  -0.376  -4.721  0.00  0.00     0.033 A 
ATOM      2  C   LIG d   1       4.154  -0.714  -3.484  0.00  0.00     0.130 A 
ATOM      3  C   LIG d   1       5.176  -1.647  -3.396  0.00  0.00     0.022 A 
ATOM      4  C   LIG d   1       5.665  -2.251  -4.546  0.00  0.00     0.127 A 
ATOM      5  C   LIG d   1       5.136  -1.916  -5.783  0.00  0.00     0.022 A 
ATOM      6  C   LIG d   1       4.118  -0.979  -5.871  0.00  0.00     0.130 A 
ATOM      7  H   LIG d   1       5.588  -1.908  -2.432  0.00  0.00     0.069 H 
ATOM      8  H   LIG d   1       5.518  -2.385  -6.678  0.00  0.00     0.069 H 
ENDROOT
BRANCH   2   9
ATOM      9  O   LIG d   1       3.671  -0.128  -2.357  0.00  0.00    -0.495 OA
BRANCH   9  10
ATOM     10  C   LIG d   1       4.526   0.804  -1.694  0.00  0.00     0.079 C 
ATOM     11  H   LIG d   1       4.545   1.740  -2.251  0.00  0.00     0.066 H 
ATOM     12  H   LIG d   1       4.151   0.989  -0.686  0.00  0.00     0.066 H 
ATOM     13  H   LIG d   1       5.536   0.395  -1.636  0.00  0.00     0.066 H 
ENDBRANCH   9  10
ENDBRANCH   2   9
BRANCH   1  14
ATOM     14  C   LIG d   1       2.521   0.641  -4.818  0.00  0.00    -0.033 C 
ATOM     15  H   LIG d   1       1.596   0.210  -4.433  0.00  0.00     0.028 H 
ATOM     16  H   LIG d   1       2.784   1.521  -4.230  0.00  0.00     0.028 H 
ATOM     17  H   LIG d   1       2.381   0.930  -5.860  0.00  0.00     0.028 H 
ENDBRANCH   1  14
BRANCH   6  18
ATOM     18  O   LIG d   1       3.599  -0.651  -7.084  0.00  0.00    -0.495 OA
BRANCH  18  19
ATOM     19  C   LIG d   1       3.728  -1.619  -8.128  0.00  0.00     0.079 C 
ATOM     20  H   LIG d   1       3.158  -2.511  -7.868  0.00  0.00     0.066 H 
ATOM     21  H   LIG d   1       3.345  -1.202  -9.060  0.00  0.00     0.066 H 
ATOM     22  H   LIG d   1       4.778  -1.882  -8.252  0.00  0.00     0.066 H 
ENDBRANCH  18  19
ENDBRANCH   6  18
BRANCH   4  23
ATOM     23  O   LIG d   1       6.663  -3.169  -4.459  0.00  0.00    -0.495 OA
BRANCH  23  24
ATOM     24  C   LIG d   1       7.847  -2.776  -3.760  0.00  0.00     0.079 C 
ATOM     25  H   LIG d   1       8.691  -3.364  -4.117  0.00  0.00     0.066 H 
ATOM     26  H   LIG d   1       8.039  -1.718  -3.939  0.00  0.00     0.066 H 
ATOM     27  H   LIG d   1       7.711  -2.946  -2.692  0.00  0.00     0.066 H 
ENDBRANCH  23  24
ENDBRANCH   4  23
TORSDOF 7
ENDMDL
MODEL 7
REMARK VINA RESULT:      -3.6      2.492      3.361
REMARK  7 active torsions:
REMARK  status: ('A' for Active; 'I' for Inactive)
REMARK    1  A    between atoms: C_1  and  C_2 
REMARK    2  A    between atoms: C_3  and  O_12 
REMARK    3  A    between atoms: C_5  and  O_10 
REMARK    4  A    between atoms: C_7  and  O_8 
REMARK    5  A    between atoms: O_8  and  C_9 
REMARK    6  A    between atoms: O_10  and  C_11 
REMARK    7  A    between atoms: O_12  and  C_13 
ROOT
ATOM      1  C   LIG d   1       3.606  -0.371  -4.727  0.00  0.00     0.033 A 
ATOM      2  C   LIG d   1       4.105  -0.948  -5.884  0.00  0.00     0.130 A 
ATOM      3  C   LIG d   1       5.120  -1.889  -5.809  0.00  0.00     0.022 A 
ATOM      4  C   LIG d   1       5.645  -2.245  -4.575  0.00  0.00     0.127 A 
ATOM      5  C   LIG d   1       5.150  -1.666  -3.418  0.00  0.00     0.022 A 
ATOM      6  C   LIG d   1       4.131  -0.728  -3.493  0.00  0.00     0.130 A 
ATOM      7  H   LIG d   1       5.506  -2.341  -6.711  0.00  0.00     0.069 H 
ATOM      8  H   LIG d   1       5.557  -1.944  -2.457  0.00  0.00     0.069 H 
ENDROOT
BRANCH   2   9
ATOM      9  O   LIG d   1       3.595  -0.595  -7.094  0.00  0.00    -0.495 OA
BRANCH   9  10
ATOM     10  C   LIG d   1       3.714  -1.547  -8.151  0.00  0.00     0.079 C 
ATOM     11  H   LIG d   1       4.193  -2.450  -7.775  0.00  0.00     0.066 H 
ATOM     12  H   LIG d   1       2.723  -1.792  -8.533  0.00  0.00     0.066 H 
ATOM     13  H   LIG d   1       4.319  -1.124  -8.955  0.00  0.00     0.066 H 
ENDBRANCH   9  10
ENDBRANCH   2   9
BRANCH   1  14
ATOM     14  C   LIG d   1       2.499   0.648  -4.808  0.00  0.00    -0.033 C 
ATOM     15  H   LIG d   1       2.900   1.593  -5.177  0.00  0.00     0.028 H 
ATOM     16  H   LIG d   1       1.727   0.292  -5.489  0.00  0.00     0.028 H 
ATOM     17  H   LIG d   1       2.070   0.799  -3.817  0.00  0.00     0.028 H 
ENDBRANCH   1  14
BRANCH   6  18
ATOM     18  O   LIG d   1       3.645  -0.159  -2.358  0.00  0.00    -0.495 OA
BRANCH  18  19
ATOM     19  C   LIG d   1       4.476   0.809  -1.712  0.00  0.00     0.079 C 
ATOM     20  H   LIG d   1       3.885   1.693  -1.475  0.00  0.00     0.066 H 
ATOM     21  H   LIG d   1       4.880   0.384  -0.792  0.00  0.00     0.066 H 
ATOM     22  H   LIG d   1       5.295   1.085  -2.375  0.00  0.00     0.066 H 
ENDBRANCH  18  19
ENDBRANCH   6  18
BRANCH   4  23
ATOM     23  O   LIG d   1       6.644  -3.164  -4.502  0.00  0.00    -0.495 OA
BRANCH  23  24
ATOM     24  C   LIG d   1       7.820  -2.787  -3.782  0.00  0.00     0.079 C 
ATOM     25  H   LIG d   1       7.852  -3.322  -2.833  0.00  0.00     0.066 H 
ATOM     26  H   LIG d   1       8.702  -3.038  -4.372  0.00  0.00     0.066 H 
ATOM     27  H   LIG d   1       7.801  -1.714  -3.594  0.00  0.00     0.066 H 
ENDBRANCH  23  24
ENDBRANCH   4  23
TORSDOF 7
ENDMDL
MODEL 8
REMARK VINA RESULT:      -3.5      8.754     11.373
REMARK  7 active torsions:
REMARK  status: ('A' for Active; 'I' for Inactive)
REMARK    1  A    between atoms: C_1  and  C_2 
REMARK    2  A    between atoms: C_3  and  O_12 
REMARK    3  A    between atoms: C_5  and  O_10 
REMARK    4  A    between atoms: C_7  and  O_8 
REMARK    5  A    between atoms: O_8  and  C_9 
REMARK    6  A    between atoms: O_10  and  C_11 
REMARK    7  A    between atoms: O_12  and  C_13 
ROOT
ATOM      1  C   LIG d   1      10.898   7.595   0.699  0.00  0.00     0.033 A 
ATOM      2  C   LIG d   1      10.148   7.725  -0.459  0.00  0.00     0.130 A 
ATOM      3  C   LIG d   1       9.910   8.981  -0.995  0.00  0.00     0.022 A 
ATOM      4  C   LIG d   1      10.414  10.110  -0.366  0.00  0.00     0.127 A 
ATOM      5  C   LIG d   1      11.161   9.981   0.795  0.00  0.00     0.022 A 
ATOM      6  C   LIG d   1      11.403   8.724   1.328  0.00  0.00     0.130 A 
ATOM      7  H   LIG d   1       9.328   9.082  -1.899  0.00  0.00     0.069 H 
ATOM      8  H   LIG d   1      11.554  10.860   1.285  0.00  0.00     0.069 H 
ENDROOT
BRANCH   2   9
ATOM      9  O   LIG d   1       9.649   6.620  -1.073  0.00  0.00    -0.495 OA
BRANCH   9  10
ATOM     10  C   LIG d   1       9.567   6.650  -2.498  0.00  0.00     0.079 C 
ATOM     11  H   LIG d   1      10.570   6.710  -2.919  0.00  0.00     0.066 H 
ATOM     12  H   LIG d   1       9.077   5.743  -2.854  0.00  0.00     0.066 H 
ATOM     13  H   LIG d   1       8.989   7.521  -2.811  0.00  0.00     0.066 H 
ENDBRANCH   9  10
ENDBRANCH   2   9
BRANCH   1  14
ATOM     14  C   LIG d   1      11.160   6.229   1.279  0.00  0.00    -0.033 C 
ATOM     15  H   LIG d   1      11.318   5.515   0.471  0.00  0.00     0.028 H 
ATOM     16  H   LIG d   1      12.049   6.267   1.909  0.00  0.00     0.028 H 
ATOM     17  H   LIG d   1      10.303   5.917   1.877  0.00  0.00     0.028 H 
ENDBRANCH   1  14
BRANCH   6  18
ATOM     18  O   LIG d   1      12.134   8.598   2.467  0.00  0.00    -0.495 OA
BRANCH  18  19
ATOM     19  C   LIG d   1      12.475   9.803   3.156  0.00  0.00     0.079 C 
ATOM     20  H   LIG d   1      13.474   9.709   3.579  0.00  0.00     0.066 H 
ATOM     21  H   LIG d   1      12.453  10.640   2.457  0.00  0.00     0.066 H 
ATOM     22  H   LIG d   1      11.756   9.980   3.956  0.00  0.00     0.066 H 
ENDBRANCH  18  19
ENDBRANCH   6  18
BRANCH   4  23
ATOM     23  O   LIG d   1      10.177  11.342  -0.888  0.00  0.00    -0.495 OA
BRANCH  23  24
ATOM     24  C   LIG d   1       9.636  11.392  -2.211  0.00  0.00     0.079 C 
ATOM     25  H   LIG d   1       8.598  11.721  -2.166  0.00  0.00     0.066 H 
ATOM     26  H   LIG d   1      10.214  12.092  -2.813  0.00  0.00     0.066 H 
ATOM     27  H   LIG d   1       9.684  10.400  -2.659  0.00  0.00     0.066 H 
ENDBRANCH  23  24
ENDBRANCH   4  23
TORSDOF 7
ENDMDL
MODEL 9
REMARK VINA RESULT:      -3.5      1.380      4.886
REMARK  7 active torsions:
REMARK  status: ('A' for Active; 'I' for Inactive)
REMARK    1  A    between atoms: C_1  and  C_2 
REMARK    2  A    between atoms: C_3  and  O_12 
REMARK    3  A    between atoms: C_5  and  O_10 
REMARK    4  A    between atoms: C_7  and  O_8 
REMARK    5  A    between atoms: O_8  and  C_9 
REMARK    6  A    between atoms: O_10  and  C_11 
REMARK    7  A    between atoms: O_12  and  C_13 
ROOT
ATOM      1  C   LIG d   1       6.683   0.110  -3.959  0.00  0.00     0.033 A 
ATOM      2  C   LIG d   1       5.331   0.129  -3.656  0.00  0.00     0.130 A 
ATOM      3  C   LIG d   1       4.590  -1.042  -3.715  0.00  0.00     0.022 A 
ATOM      4  C   LIG d   1       5.201  -2.231  -4.087  0.00  0.00     0.127 A 
ATOM      5  C   LIG d   1       6.552  -2.249  -4.394  0.00  0.00     0.022 A 
ATOM      6  C   LIG d   1       7.294  -1.079  -4.330  0.00  0.00     0.130 A 
ATOM      7  H   LIG d   1       3.537  -1.028  -3.476  0.00  0.00     0.069 H 
ATOM      8  H   LIG d   1       7.028  -3.175  -4.683  0.00  0.00     0.069 H 
ENDROOT
BRANCH   2   9
ATOM      9  O   LIG d   1       4.731   1.294  -3.297  0.00  0.00    -0.495 OA
BRANCH   9  10
ATOM     10  C   LIG d   1       3.706   1.218  -2.305  0.00  0.00     0.079 C 
ATOM     11  H   LIG d   1       3.547   0.176  -2.026  0.00  0.00     0.066 H 
ATOM     12  H   LIG d   1       4.008   1.788  -1.425  0.00  0.00     0.066 H 
ATOM     13  H   LIG d   1       2.780   1.631  -2.706  0.00  0.00     0.066 H 
ENDBRANCH   9  10
ENDBRANCH   2   9
BRANCH   1  14
ATOM     14  C   LIG d   1       7.489   1.381  -3.890  0.00  0.00    -0.033 C 
ATOM     15  H   LIG d   1       7.464   1.773  -2.873  0.00  0.00     0.028 H 
ATOM     16  H   LIG d   1       8.521   1.173  -4.173  0.00  0.00     0.028 H 
ATOM     17  H   LIG d   1       7.066   2.118  -4.573  0.00  0.00     0.028 H 
ENDBRANCH   1  14
BRANCH   6  18
ATOM     18  O   LIG d   1       8.619  -1.097  -4.632  0.00  0.00    -0.495 OA
BRANCH  18  19
ATOM     19  C   LIG d   1       9.139  -2.302  -5.199  0.00  0.00     0.079 C 
ATOM     20  H   LIG d   1       8.495  -3.137  -4.927  0.00  0.00     0.066 H 
ATOM     21  H   LIG d   1       9.172  -2.207  -6.285  0.00  0.00     0.066 H 
ATOM     22  H   LIG d   1      10.145  -2.478  -4.819  0.00  0.00     0.066 H 
ENDBRANCH  18  19
ENDBRANCH   6  18
BRANCH   4  23
ATOM     23  O   LIG d   1       4.473  -3.377  -4.150  0.00  0.00    -0.495 OA
BRANCH  23  24
ATOM     24  C   LIG d   1       4.843  -4.326  -5.153  0.00  0.00     0.079 C 
ATOM     25  H   LIG d   1       4.913  -5.317  -4.707  0.00  0.00     0.066 H 
ATOM     26  H   LIG d   1       4.090  -4.333  -5.940  0.00  0.00     0.066 H 
ATOM     27  H   LIG d   1       5.809  -4.048  -5.576  0.00  0.00     0.066 H 
ENDBRANCH  23  24
ENDBRANCH   4  23
TORSDOF 7
ENDMDL
MODEL 10
REMARK VINA RESULT:      -3.4      8.267     11.224
REMARK  7 active torsions:
REMARK  status: ('A' for Active; 'I' for Inactive)
REMARK    1  A    between atoms: C_1  and  C_2 
REMARK    2  A    between atoms: C_3  and  O_12 
REMARK    3  A    between atoms: C_5  and  O_10 
REMARK    4  A    between atoms: C_7  and  O_8 
REMARK    5  A    between atoms: O_8  and  C_9 
REMARK    6  A    between atoms: O_10  and  C_11 
REMARK    7  A    between atoms: O_12  and  C_13 
ROOT
ATOM      1  C   LIG d   1      10.986   7.062   0.752  0.00  0.00     0.033 A 
ATOM      2  C   LIG d   1      11.333   8.287   1.300  0.00  0.00     0.130 A 
ATOM      3  C   LIG d   1      11.248   9.439   0.533  0.00  0.00     0.022 A 
ATOM      4  C   LIG d   1      10.826   9.364  -0.787  0.00  0.00     0.127 A 
ATOM      5  C   LIG d   1      10.482   8.138  -1.336  0.00  0.00     0.022 A 
ATOM      6  C   LIG d   1      10.563   6.987  -0.567  0.00  0.00     0.130 A 
ATOM      7  H   LIG d   1      11.515  10.394   0.960  0.00  0.00     0.069 H 
ATOM      8  H   LIG d   1      10.152   8.080  -2.363  0.00  0.00     0.069 H 
ENDROOT
BRANCH   2   9
ATOM      9  O   LIG d   1      11.752   8.361   2.590  0.00  0.00    -0.495 OA
BRANCH   9  10
ATOM     10  C   LIG d   1      12.317   9.600   3.020  0.00  0.00     0.079 C 
ATOM     11  H   LIG d   1      11.781   9.958   3.898  0.00  0.00     0.066 H 
ATOM     12  H   LIG d   1      13.368   9.454   3.270  0.00  0.00     0.066 H 
ATOM     13  H   LIG d   1      12.233  10.336   2.219  0.00  0.00     0.066 H 
ENDBRANCH   9  10
ENDBRANCH   2   9
BRANCH   1  14
ATOM     14  C   LIG d   1      11.073   5.811   1.587  0.00  0.00    -0.033 C 
ATOM     15  H   LIG d   1      10.568   4.994   1.072  0.00  0.00     0.028 H 
ATOM     16  H   LIG d   1      12.120   5.550   1.742  0.00  0.00     0.028 H 
ATOM     17  H   LIG d   1      10.595   5.983   2.552  0.00  0.00     0.028 H 
ENDBRANCH   1  14
BRANCH   6  18
ATOM     18  O   LIG d   1      10.227   5.785  -1.105  0.00  0.00    -0.495 OA
BRANCH  18  19
ATOM     19  C   LIG d   1       9.910   5.765  -2.499  0.00  0.00     0.079 C 
ATOM     20  H   LIG d   1       9.129   6.496  -2.704  0.00  0.00     0.066 H 
ATOM     21  H   LIG d   1      10.801   6.013  -3.078  0.00  0.00     0.066 H 
ATOM     22  H   LIG d   1       9.561   4.771  -2.778  0.00  0.00     0.066 H 
ENDBRANCH  18  19
ENDBRANCH   6  18
BRANCH   4  23
ATOM     23  O   LIG d   1      10.747  10.493  -1.540  0.00  0.00    -0.495 OA
BRANCH  23  24
ATOM     24  C   LIG d   1       9.489  10.774  -2.157  0.00  0.00     0.079 C 
ATOM     25  H   LIG d   1       9.339  11.853  -2.201  0.00  0.00     0.066 H 
ATOM     26  H   LIG d   1       9.480  10.364  -3.166  0.00  0.00     0.066 H 
ATOM     27  H   LIG d   1       8.689  10.320  -1.572  0.00  0.00     0.066 H 
ENDBRANCH  23  24
ENDBRANCH   4  23
TORSDOF 7
ENDMDL
