MODEL 1
REMARK VINA RESULT:      -5.8      0.000      0.000
REMARK  7 active torsions:
REMARK  status: ('A' for Active; 'I' for Inactive)
REMARK    1  A    between atoms: C_1  and  C_2 
REMARK    2  A    between atoms: C_2  and  C_4 
REMARK    3  A    between atoms: C_10  and  C_31 
REMARK    4  A    between atoms: C_20  and  C_30 
REMARK    5  A    between atoms: C_23  and  O_26 
REMARK    6  A    between atoms: O_26  and  C_27 
REMARK    7  A    between atoms: C_27  and  C_29 
ROOT
ATOM      1  C   LIG d   1       3.803  -1.355  -4.004  0.00  0.00     0.023 C 
ATOM      2  H   LIG d   1       3.447  -2.284  -4.102  0.00  0.00     0.038 H 
ATOM      3  C   LIG d   1       2.651  -0.327  -3.887  0.00  0.00    -0.043 C 
ATOM      4  C   LIG d   1       2.670   0.511  -5.195  0.00  0.00    -0.049 C 
ATOM      5  C   LIG d   1       3.451  -0.389  -6.161  0.00  0.00    -0.032 C 
ATOM      6  H   LIG d   1       2.796  -1.216  -6.470  0.00  0.00     0.031 H 
ATOM      7  C   LIG d   1       4.583  -0.926  -5.254  0.00  0.00    -0.019 C 
ATOM      8  C   LIG d   1       5.320  -2.024  -5.980  0.00  0.00    -0.046 C 
ATOM      9  C   LIG d   1       5.781  -1.585  -7.366  0.00  0.00    -0.049 C 
ATOM     10  C   LIG d   1       4.778  -0.801  -8.198  0.00  0.00    -0.029 C 
ATOM     11  H   LIG d   1       5.392  -0.230  -8.944  0.00  0.00     0.031 H 
ATOM     12  C   LIG d   1       4.063   0.265  -7.370  0.00  0.00    -0.031 C 
ATOM     13  H   LIG d   1       4.816   1.006  -7.052  0.00  0.00     0.031 H 
ATOM     14  C   LIG d   1       3.042   1.035  -8.196  0.00  0.00    -0.031 C 
ATOM     15  C   LIG d   1       2.160   0.106  -8.967  0.00  0.00    -0.084 C 
ATOM     16  C   LIG d   1       2.537  -1.074  -9.347  0.00  0.00    -0.064 C 
ATOM     17  C   LIG d   1       3.872  -1.683  -9.024  0.00  0.00    -0.008 C 
ATOM     18  C   LIG d   1       4.562  -2.016 -10.359  0.00  0.00    -0.040 C 
ATOM     19  C   LIG d   1       3.661  -2.873 -11.241  0.00  0.00    -0.015 C 
ATOM     20  C   LIG d   1       2.337  -2.171 -11.536  0.00  0.00     0.107 C 
ATOM     21  H   LIG d   1       2.531  -1.231 -12.053  0.00  0.00     0.074 H 
ATOM     22  C   LIG d   1       1.596  -1.882 -10.226  0.00  0.00     0.006 C 
ATOM     23  H   LIG d   1       2.809   0.319  -3.024  0.00  0.00     0.027 H 
ATOM     24  H   LIG d   1       1.696  -0.848  -3.793  0.00  0.00     0.027 H 
ATOM     25  H   LIG d   1       3.165   1.465  -5.048  0.00  0.00     0.027 H 
ATOM     26  H   LIG d   1       1.652   0.665  -5.562  0.00  0.00     0.027 H 
ATOM     27  H   LIG d   1       4.705  -2.923  -6.021  0.00  0.00     0.027 H 
ATOM     28  H   LIG d   1       6.214  -2.290  -5.383  0.00  0.00     0.027 H 
ATOM     29  H   LIG d   1       6.132  -2.457  -7.931  0.00  0.00     0.027 H 
ATOM     30  H   LIG d   1       6.681  -0.951  -7.242  0.00  0.00     0.027 H 
ATOM     31  H   LIG d   1       2.432   1.653  -7.534  0.00  0.00     0.031 H 
ATOM     32  H   LIG d   1       3.571   1.693  -8.893  0.00  0.00     0.031 H 
ATOM     33  H   LIG d   1       1.159   0.435  -9.219  0.00  0.00     0.057 H 
ATOM     34  H   LIG d   1       4.798  -1.084 -10.875  0.00  0.00     0.028 H 
ATOM     35  H   LIG d   1       5.490  -2.553 -10.151  0.00  0.00     0.028 H 
ATOM     36  H   LIG d   1       4.176  -3.053 -12.195  0.00  0.00     0.030 H 
ATOM     37  H   LIG d   1       3.473  -3.841 -10.783  0.00  0.00     0.030 H 
ATOM     38  H   LIG d   1       1.316  -2.811  -9.740  0.00  0.00     0.035 H 
ATOM     39  H   LIG d   1       0.700  -1.295 -10.437  0.00  0.00     0.035 H 
ENDROOT
BRANCH  20  40
ATOM     40  O   LIG d   1       1.513  -3.020 -12.378  0.00  0.00    -0.461 OA
BRANCH  40  41
ATOM     41  C   LIG d   1       0.869  -2.429 -13.397  0.00  0.00     0.304 C 
ATOM     42  O   LIG d   1       1.444  -2.233 -14.441  0.00  0.00    -0.251 OA
BRANCH  41  43
ATOM     43  C   LIG d   1      -0.569  -2.010 -13.237  0.00  0.00     0.033 C 
ATOM     44  H   LIG d   1      -0.650  -0.931 -13.366  0.00  0.00     0.034 H 
ATOM     45  H   LIG d   1      -1.180  -2.513 -13.987  0.00  0.00     0.034 H 
ATOM     46  H   LIG d   1      -0.918  -2.283 -12.241  0.00  0.00     0.034 H 
ENDBRANCH  41  43
ENDBRANCH  40  41
ENDBRANCH  20  40
BRANCH  17  47
ATOM     47  C   LIG d   1       3.610  -3.006  -8.308  0.00  0.00    -0.056 C 
ATOM     48  H   LIG d   1       3.269  -2.808  -7.292  0.00  0.00     0.024 H 
ATOM     49  H   LIG d   1       2.844  -3.565  -8.846  0.00  0.00     0.024 H 
ATOM     50  H   LIG d   1       4.530  -3.590  -8.275  0.00  0.00     0.024 H 
ENDBRANCH  17  47
BRANCH   7  51
ATOM     51  C   LIG d   1       5.561   0.175  -4.844  0.00  0.00    -0.059 C 
ATOM     52  H   LIG d   1       6.118   0.512  -5.718  0.00  0.00     0.024 H 
ATOM     53  H   LIG d   1       5.007   1.014  -4.422  0.00  0.00     0.024 H 
ATOM     54  H   LIG d   1       6.255  -0.213  -4.099  0.00  0.00     0.024 H 
ENDBRANCH   7  51
BRANCH   1  55
ATOM     55  C   LIG d   1       4.695  -1.287  -2.793  0.00  0.00     0.134 C 
ATOM     56  O   LIG d   1       5.609  -2.066  -2.672  0.00  0.00    -0.297 OA
BRANCH  55  57
ATOM     57  C   LIG d   1       4.448  -0.245  -1.733  0.00  0.00    -0.006 C 
ATOM     58  H   LIG d   1       4.272   0.638  -2.168  0.00  0.00     0.031 H 
ATOM     59  H   LIG d   1       3.585  -0.534  -1.134  0.00  0.00     0.031 H 
ATOM     60  H   LIG d   1       5.325  -0.164  -1.091  0.00  0.00     0.031 H 
ENDBRANCH  55  57
ENDBRANCH   1  55
TORSDOF 7
ENDMDL
MODEL 2
REMARK VINA RESULT:      -5.8      3.696      5.322
REMARK  7 active torsions:
REMARK  status: ('A' for Active; 'I' for Inactive)
REMARK    1  A    between atoms: C_1  and  C_2 
REMARK    2  A    between atoms: C_2  and  C_4 
REMARK    3  A    between atoms: C_10  and  C_31 
REMARK    4  A    between atoms: C_20  and  C_30 
REMARK    5  A    between atoms: C_23  and  O_26 
REMARK    6  A    between atoms: O_26  and  C_27 
REMARK    7  A    between atoms: C_27  and  C_29 
ROOT
ATOM      1  C   LIG d   1       3.519  -0.043  -3.868  0.00  0.00     0.023 C 
ATOM      2  H   LIG d   1       2.924  -0.683  -3.383  0.00  0.00     0.038 H 
ATOM      3  C   LIG d   1       2.829   0.496  -5.146  0.00  0.00    -0.043 C 
ATOM      4  C   LIG d   1       3.598  -0.107  -6.353  0.00  0.00    -0.049 C 
ATOM      5  C   LIG d   1       4.310  -1.315  -5.731  0.00  0.00    -0.032 C 
ATOM      6  H   LIG d   1       3.566  -2.105  -5.560  0.00  0.00     0.031 H 
ATOM      7  C   LIG d   1       4.788  -0.741  -4.376  0.00  0.00    -0.019 C 
ATOM      8  C   LIG d   1       5.309  -1.868  -3.517  0.00  0.00    -0.046 C 
ATOM      9  C   LIG d   1       6.352  -2.707  -4.247  0.00  0.00    -0.049 C 
ATOM     10  C   LIG d   1       6.045  -3.067  -5.692  0.00  0.00    -0.029 C 
ATOM     11  H   LIG d   1       7.038  -3.291  -6.161  0.00  0.00     0.031 H 
ATOM     12  C   LIG d   1       5.495  -1.873  -6.470  0.00  0.00    -0.031 C 
ATOM     13  H   LIG d   1       6.293  -1.111  -6.525  0.00  0.00     0.031 H 
ATOM     14  C   LIG d   1       5.165  -2.237  -7.910  0.00  0.00    -0.031 C 
ATOM     15  C   LIG d   1       4.352  -3.490  -7.979  0.00  0.00    -0.084 C 
ATOM     16  C   LIG d   1       4.409  -4.418  -7.076  0.00  0.00    -0.064 C 
ATOM     17  C   LIG d   1       5.246  -4.341  -5.831  0.00  0.00    -0.008 C 
ATOM     18  C   LIG d   1       6.204  -5.546  -5.844  0.00  0.00    -0.040 C 
ATOM     19  C   LIG d   1       5.439  -6.852  -6.024  0.00  0.00    -0.015 C 
ATOM     20  C   LIG d   1       4.634  -6.853  -7.322  0.00  0.00     0.107 C 
ATOM     21  H   LIG d   1       5.309  -6.730  -8.170  0.00  0.00     0.074 H 
ATOM     22  C   LIG d   1       3.624  -5.700  -7.311  0.00  0.00     0.006 C 
ATOM     23  H   LIG d   1       2.883   1.585  -5.172  0.00  0.00     0.027 H 
ATOM     24  H   LIG d   1       1.787   0.174  -5.169  0.00  0.00     0.027 H 
ATOM     25  H   LIG d   1       4.305   0.603  -6.770  0.00  0.00     0.027 H 
ATOM     26  H   LIG d   1       2.896  -0.438  -7.123  0.00  0.00     0.027 H 
ATOM     27  H   LIG d   1       4.479  -2.473  -3.153  0.00  0.00     0.027 H 
ATOM     28  H   LIG d   1       5.783  -1.423  -2.621  0.00  0.00     0.027 H 
ATOM     29  H   LIG d   1       6.557  -3.619  -3.672  0.00  0.00     0.027 H 
ATOM     30  H   LIG d   1       7.308  -2.150  -4.237  0.00  0.00     0.027 H 
ATOM     31  H   LIG d   1       4.613  -1.417  -8.374  0.00  0.00     0.031 H 
ATOM     32  H   LIG d   1       6.099  -2.382  -8.464  0.00  0.00     0.031 H 
ATOM     33  H   LIG d   1       3.684  -3.627  -8.819  0.00  0.00     0.057 H 
ATOM     34  H   LIG d   1       6.914  -5.422  -6.665  0.00  0.00     0.028 H 
ATOM     35  H   LIG d   1       6.753  -5.569  -4.901  0.00  0.00     0.028 H 
ATOM     36  H   LIG d   1       6.163  -7.677  -6.068  0.00  0.00     0.030 H 
ATOM     37  H   LIG d   1       4.780  -7.038  -5.180  0.00  0.00     0.030 H 
ATOM     38  H   LIG d   1       2.889  -5.851  -6.528  0.00  0.00     0.035 H 
ATOM     39  H   LIG d   1       3.122  -5.647  -8.280  0.00  0.00     0.035 H 
ENDROOT
BRANCH  20  40
ATOM     40  O   LIG d   1       3.924  -8.113  -7.454  0.00  0.00    -0.461 OA
BRANCH  40  41
ATOM     41  C   LIG d   1       4.602  -9.231  -7.150  0.00  0.00     0.304 C 
ATOM     42  O   LIG d   1       4.278  -9.891  -6.192  0.00  0.00    -0.251 OA
BRANCH  41  43
ATOM     43  C   LIG d   1       5.767  -9.660  -8.004  0.00  0.00     0.033 C 
ATOM     44  H   LIG d   1       5.742  -9.122  -8.951  0.00  0.00     0.034 H 
ATOM     45  H   LIG d   1       6.699  -9.438  -7.484  0.00  0.00     0.034 H 
ATOM     46  H   LIG d   1       5.702 -10.731  -8.193  0.00  0.00     0.034 H 
ENDBRANCH  41  43
ENDBRANCH  40  41
ENDBRANCH  20  40
BRANCH  17  47
ATOM     47  C   LIG d   1       4.309  -4.523  -4.638  0.00  0.00    -0.056 C 
ATOM     48  H   LIG d   1       4.510  -5.482  -4.161  0.00  0.00     0.024 H 
ATOM     49  H   LIG d   1       4.475  -3.718  -3.921  0.00  0.00     0.024 H 
ATOM     50  H   LIG d   1       3.275  -4.496  -4.982  0.00  0.00     0.024 H 
ENDBRANCH  17  47
BRANCH   7  51
ATOM     51  C   LIG d   1       5.872   0.323  -4.554  0.00  0.00    -0.059 C 
ATOM     52  H   LIG d   1       5.813   0.738  -5.560  0.00  0.00     0.024 H 
ATOM     53  H   LIG d   1       5.722   1.118  -3.824  0.00  0.00     0.024 H 
ATOM     54  H   LIG d   1       6.852  -0.128  -4.404  0.00  0.00     0.024 H 
ENDBRANCH   7  51
BRANCH   1  55
ATOM     55  C   LIG d   1       3.889   1.091  -2.951  0.00  0.00     0.134 C 
ATOM     56  O   LIG d   1       3.690   2.233  -3.291  0.00  0.00    -0.297 OA
BRANCH  55  57
ATOM     57  C   LIG d   1       4.507   0.803  -1.607  0.00  0.00    -0.006 C 
ATOM     58  H   LIG d   1       3.845   0.321  -1.033  0.00  0.00     0.031 H 
ATOM     59  H   LIG d   1       5.393   0.183  -1.740  0.00  0.00     0.031 H 
ATOM     60  H   LIG d   1       4.788   1.740  -1.127  0.00  0.00     0.031 H 
ENDBRANCH  55  57
ENDBRANCH   1  55
TORSDOF 7
ENDMDL
MODEL 3
REMARK VINA RESULT:      -5.7      5.664      7.987
REMARK  7 active torsions:
REMARK  status: ('A' for Active; 'I' for Inactive)
REMARK    1  A    between atoms: C_1  and  C_2 
REMARK    2  A    between atoms: C_2  and  C_4 
REMARK    3  A    between atoms: C_10  and  C_31 
REMARK    4  A    between atoms: C_20  and  C_30 
REMARK    5  A    between atoms: C_23  and  O_26 
REMARK    6  A    between atoms: O_26  and  C_27 
REMARK    7  A    between atoms: C_27  and  C_29 
ROOT
ATOM      1  C   LIG d   1       5.134  -1.197  -2.491  0.00  0.00     0.023 C 
ATOM      2  H   LIG d   1       5.683  -1.434  -1.690  0.00  0.00     0.038 H 
ATOM      3  C   LIG d   1       3.969  -2.201  -2.682  0.00  0.00    -0.043 C 
ATOM      4  C   LIG d   1       4.293  -3.016  -3.964  0.00  0.00    -0.049 C 
ATOM      5  C   LIG d   1       5.804  -2.807  -4.125  0.00  0.00    -0.032 C 
ATOM      6  H   LIG d   1       6.320  -3.418  -3.372  0.00  0.00     0.031 H 
ATOM      7  C   LIG d   1       5.958  -1.307  -3.781  0.00  0.00    -0.019 C 
ATOM      8  C   LIG d   1       7.425  -0.976  -3.656  0.00  0.00    -0.046 C 
ATOM      9  C   LIG d   1       8.218  -1.424  -4.878  0.00  0.00    -0.049 C 
ATOM     10  C   LIG d   1       7.899  -2.806  -5.426  0.00  0.00    -0.029 C 
ATOM     11  H   LIG d   1       8.236  -2.787  -6.496  0.00  0.00     0.031 H 
ATOM     12  C   LIG d   1       6.393  -3.058  -5.486  0.00  0.00    -0.031 C 
ATOM     13  H   LIG d   1       5.962  -2.351  -6.216  0.00  0.00     0.031 H 
ATOM     14  C   LIG d   1       6.072  -4.449  -6.013  0.00  0.00    -0.031 C 
ATOM     15  C   LIG d   1       6.881  -5.494  -5.312  0.00  0.00    -0.084 C 
ATOM     16  C   LIG d   1       8.044  -5.254  -4.792  0.00  0.00    -0.064 C 
ATOM     17  C   LIG d   1       8.705  -3.905  -4.776  0.00  0.00    -0.008 C 
ATOM     18  C   LIG d   1      10.055  -4.045  -5.501  0.00  0.00    -0.040 C 
ATOM     19  C   LIG d   1      10.885  -5.174  -4.901  0.00  0.00    -0.015 C 
ATOM     20  C   LIG d   1      10.148  -6.510  -4.977  0.00  0.00     0.107 C 
ATOM     21  H   LIG d   1       9.941  -6.752  -6.020  0.00  0.00     0.074 H 
ATOM     22  C   LIG d   1       8.825  -6.421  -4.209  0.00  0.00     0.006 C 
ATOM     23  H   LIG d   1       3.027  -1.667  -2.803  0.00  0.00     0.027 H 
ATOM     24  H   LIG d   1       3.910  -2.869  -1.821  0.00  0.00     0.027 H 
ATOM     25  H   LIG d   1       3.743  -2.642  -4.822  0.00  0.00     0.027 H 
ATOM     26  H   LIG d   1       4.073  -4.075  -3.806  0.00  0.00     0.027 H 
ATOM     27  H   LIG d   1       7.824  -1.396  -2.733  0.00  0.00     0.027 H 
ATOM     28  H   LIG d   1       7.521   0.123  -3.561  0.00  0.00     0.027 H 
ATOM     29  H   LIG d   1       9.293  -1.347  -4.668  0.00  0.00     0.027 H 
ATOM     30  H   LIG d   1       8.040  -0.693  -5.689  0.00  0.00     0.027 H 
ATOM     31  H   LIG d   1       5.008  -4.655  -5.870  0.00  0.00     0.031 H 
ATOM     32  H   LIG d   1       6.289  -4.484  -7.085  0.00  0.00     0.031 H 
ATOM     33  H   LIG d   1       6.476  -6.494  -5.234  0.00  0.00     0.057 H 
ATOM     34  H   LIG d   1       9.868  -4.251  -6.557  0.00  0.00     0.028 H 
ATOM     35  H   LIG d   1      10.601  -3.103  -5.414  0.00  0.00     0.028 H 
ATOM     36  H   LIG d   1      11.819  -5.263  -5.472  0.00  0.00     0.030 H 
ATOM     37  H   LIG d   1      11.151  -4.957  -3.869  0.00  0.00     0.030 H 
ATOM     38  H   LIG d   1       9.014  -6.268  -3.151  0.00  0.00     0.035 H 
ATOM     39  H   LIG d   1       8.260  -7.345  -4.350  0.00  0.00     0.035 H 
ENDROOT
BRANCH  20  40
ATOM     40  O   LIG d   1      10.973  -7.554  -4.396  0.00  0.00    -0.461 OA
BRANCH  40  41
ATOM     41  C   LIG d   1      10.553  -8.820  -4.551  0.00  0.00     0.304 C 
ATOM     42  O   LIG d   1      10.392  -9.525  -3.583  0.00  0.00    -0.251 OA
BRANCH  41  43
ATOM     43  C   LIG d   1      10.283  -9.361  -5.931  0.00  0.00     0.033 C 
ATOM     44  H   LIG d   1      10.086  -8.535  -6.613  0.00  0.00     0.034 H 
ATOM     45  H   LIG d   1      11.151  -9.920  -6.278  0.00  0.00     0.034 H 
ATOM     46  H   LIG d   1       9.415 -10.020  -5.899  0.00  0.00     0.034 H 
ENDBRANCH  41  43
ENDBRANCH  40  41
ENDBRANCH  20  40
BRANCH  17  47
ATOM     47  C   LIG d   1       9.008  -3.562  -3.319  0.00  0.00    -0.056 C 
ATOM     48  H   LIG d   1       8.522  -2.622  -3.059  0.00  0.00     0.024 H 
ATOM     49  H   LIG d   1       8.632  -4.356  -2.674  0.00  0.00     0.024 H 
ATOM     50  H   LIG d   1      10.085  -3.463  -3.186  0.00  0.00     0.024 H 
ENDBRANCH  17  47
BRANCH   7  51
ATOM     51  C   LIG d   1       5.308  -0.407  -4.833  0.00  0.00    -0.059 C 
ATOM     52  H   LIG d   1       5.592   0.630  -4.650  0.00  0.00     0.024 H 
ATOM     53  H   LIG d   1       5.646  -0.706  -5.825  0.00  0.00     0.024 H 
ATOM     54  H   LIG d   1       4.225  -0.502  -4.774  0.00  0.00     0.024 H 
ENDBRANCH   7  51
BRANCH   1  55
ATOM     55  C   LIG d   1       4.602   0.203  -2.338  0.00  0.00     0.134 C 
ATOM     56  O   LIG d   1       5.325   1.083  -1.937  0.00  0.00    -0.297 OA
BRANCH  55  57
ATOM     57  C   LIG d   1       3.168   0.507  -2.687  0.00  0.00    -0.006 C 
ATOM     58  H   LIG d   1       2.589  -0.260  -2.412  0.00  0.00     0.031 H 
ATOM     59  H   LIG d   1       2.850   1.409  -2.164  0.00  0.00     0.031 H 
ATOM     60  H   LIG d   1       3.080   0.661  -3.762  0.00  0.00     0.031 H 
ENDBRANCH  55  57
ENDBRANCH   1  55
TORSDOF 7
ENDMDL
MODEL 4
REMARK VINA RESULT:      -5.5      5.269      6.823
REMARK  7 active torsions:
REMARK  status: ('A' for Active; 'I' for Inactive)
REMARK    1  A    between atoms: C_1  and  C_2 
REMARK    2  A    between atoms: C_2  and  C_4 
REMARK    3  A    between atoms: C_10  and  C_31 
REMARK    4  A    between atoms: C_20  and  C_30 
REMARK    5  A    between atoms: C_23  and  O_26 
REMARK    6  A    between atoms: O_26  and  C_27 
REMARK    7  A    between atoms: C_27  and  C_29 
ROOT
ATOM      1  C   LIG d   1       5.686  -0.785  -2.727  0.00  0.00     0.023 C 
ATOM      2  H   LIG d   1       6.552  -1.013  -2.283  0.00  0.00     0.038 H 
ATOM      3  C   LIG d   1       4.524  -1.625  -2.141  0.00  0.00    -0.043 C 
ATOM      4  C   LIG d   1       4.080  -2.607  -3.260  0.00  0.00    -0.049 C 
ATOM      5  C   LIG d   1       5.300  -2.635  -4.188  0.00  0.00    -0.032 C 
ATOM      6  H   LIG d   1       6.087  -3.233  -3.708  0.00  0.00     0.031 H 
ATOM      7  C   LIG d   1       5.714  -1.145  -4.218  0.00  0.00    -0.019 C 
ATOM      8  C   LIG d   1       7.054  -1.017  -4.901  0.00  0.00    -0.046 C 
ATOM      9  C   LIG d   1       7.068  -1.699  -6.265  0.00  0.00    -0.049 C 
ATOM     10  C   LIG d   1       6.414  -3.071  -6.345  0.00  0.00    -0.029 C 
ATOM     11  H   LIG d   1       6.150  -3.212  -7.426  0.00  0.00     0.031 H 
ATOM     12  C   LIG d   1       5.082  -3.109  -5.599  0.00  0.00    -0.031 C 
ATOM     13  H   LIG d   1       4.386  -2.426  -6.119  0.00  0.00     0.031 H 
ATOM     14  C   LIG d   1       4.437  -4.486  -5.659  0.00  0.00    -0.031 C 
ATOM     15  C   LIG d   1       5.417  -5.557  -5.299  0.00  0.00    -0.084 C 
ATOM     16  C   LIG d   1       6.694  -5.435  -5.480  0.00  0.00    -0.064 C 
ATOM     17  C   LIG d   1       7.361  -4.201  -6.018  0.00  0.00    -0.008 C 
ATOM     18  C   LIG d   1       8.128  -4.608  -7.289  0.00  0.00    -0.040 C 
ATOM     19  C   LIG d   1       9.067  -5.776  -7.010  0.00  0.00    -0.015 C 
ATOM     20  C   LIG d   1       8.306  -6.992  -6.488  0.00  0.00     0.107 C 
ATOM     21  H   LIG d   1       7.573  -7.309  -7.231  0.00  0.00     0.074 H 
ATOM     22  C   LIG d   1       7.581  -6.635  -5.186  0.00  0.00     0.006 C 
ATOM     23  H   LIG d   1       3.695  -0.976  -1.859  0.00  0.00     0.027 H 
ATOM     24  H   LIG d   1       4.872  -2.185  -1.271  0.00  0.00     0.027 H 
ATOM     25  H   LIG d   1       3.193  -2.249  -3.774  0.00  0.00     0.027 H 
ATOM     26  H   LIG d   1       3.900  -3.601  -2.843  0.00  0.00     0.027 H 
ATOM     27  H   LIG d   1       7.843  -1.393  -4.249  0.00  0.00     0.027 H 
ATOM     28  H   LIG d   1       7.262   0.060  -5.048  0.00  0.00     0.027 H 
ATOM     29  H   LIG d   1       8.098  -1.757  -6.638  0.00  0.00     0.027 H 
ATOM     30  H   LIG d   1       6.547  -1.039  -6.984  0.00  0.00     0.027 H 
ATOM     31  H   LIG d   1       3.589  -4.520  -4.971  0.00  0.00     0.031 H 
ATOM     32  H   LIG d   1       4.066  -4.662  -6.674  0.00  0.00     0.031 H 
ATOM     33  H   LIG d   1       5.042  -6.476  -4.867  0.00  0.00     0.057 H 
ATOM     34  H   LIG d   1       7.408  -4.893  -8.058  0.00  0.00     0.028 H 
ATOM     35  H   LIG d   1       8.705  -3.750  -7.642  0.00  0.00     0.028 H 
ATOM     36  H   LIG d   1       9.563  -6.057  -7.950  0.00  0.00     0.030 H 
ATOM     37  H   LIG d   1       9.843  -5.493  -6.303  0.00  0.00     0.030 H 
ATOM     38  H   LIG d   1       8.300  -6.402  -4.407  0.00  0.00     0.035 H 
ATOM     39  H   LIG d   1       6.961  -7.477  -4.872  0.00  0.00     0.035 H 
ENDROOT
BRANCH  20  40
ATOM     40  O   LIG d   1       9.236  -8.079  -6.238  0.00  0.00    -0.461 OA
BRANCH  40  41
ATOM     41  C   LIG d   1       8.743  -9.327  -6.281  0.00  0.00     0.304 C 
ATOM     42  O   LIG d   1       8.904 -10.072  -5.344  0.00  0.00    -0.251 OA
BRANCH  41  43
ATOM     43  C   LIG d   1       7.990  -9.798  -7.497  0.00  0.00     0.033 C 
ATOM     44  H   LIG d   1       6.923  -9.625  -7.355  0.00  0.00     0.034 H 
ATOM     45  H   LIG d   1       8.333  -9.248  -8.373  0.00  0.00     0.034 H 
ATOM     46  H   LIG d   1       8.168 -10.863  -7.644  0.00  0.00     0.034 H 
ENDBRANCH  41  43
ENDBRANCH  40  41
ENDBRANCH  20  40
BRANCH  17  47
ATOM     47  C   LIG d   1       8.397  -3.755  -4.988  0.00  0.00    -0.056 C 
ATOM     48  H   LIG d   1       8.093  -2.802  -4.556  0.00  0.00     0.024 H 
ATOM     49  H   LIG d   1       8.471  -4.504  -4.200  0.00  0.00     0.024 H 
ATOM     50  H   LIG d   1       9.366  -3.641  -5.474  0.00  0.00     0.024 H 
ENDBRANCH  17  47
BRANCH   7  51
ATOM     51  C   LIG d   1       4.680  -0.275  -4.932  0.00  0.00    -0.059 C 
ATOM     52  H   LIG d   1       5.170   0.305  -5.714  0.00  0.00     0.024 H 
ATOM     53  H   LIG d   1       3.916  -0.912  -5.378  0.00  0.00     0.024 H 
ATOM     54  H   LIG d   1       4.216   0.401  -4.215  0.00  0.00     0.024 H 
ENDBRANCH   7  51
BRANCH   1  55
ATOM     55  C   LIG d   1       5.410   0.685  -2.558  0.00  0.00     0.134 C 
ATOM     56  O   LIG d   1       6.259   1.496  -2.842  0.00  0.00    -0.297 OA
BRANCH  55  57
ATOM     57  C   LIG d   1       4.073   1.146  -2.037  0.00  0.00    -0.006 C 
ATOM     58  H   LIG d   1       3.466   0.359  -1.934  0.00  0.00     0.031 H 
ATOM     59  H   LIG d   1       4.208   1.631  -1.070  0.00  0.00     0.031 H 
ATOM     60  H   LIG d   1       3.634   1.854  -2.740  0.00  0.00     0.031 H 
ENDBRANCH  55  57
ENDBRANCH   1  55
TORSDOF 7
ENDMDL
MODEL 5
REMARK VINA RESULT:      -5.5      4.717      8.209
REMARK  7 active torsions:
REMARK  status: ('A' for Active; 'I' for Inactive)
REMARK    1  A    between atoms: C_1  and  C_2 
REMARK    2  A    between atoms: C_2  and  C_4 
REMARK    3  A    between atoms: C_10  and  C_31 
REMARK    4  A    between atoms: C_20  and  C_30 
REMARK    5  A    between atoms: C_23  and  O_26 
REMARK    6  A    between atoms: O_26  and  C_27 
REMARK    7  A    between atoms: C_27  and  C_29 
ROOT
ATOM      1  C   LIG d   1       5.771  -8.018  -5.194  0.00  0.00     0.023 C 
ATOM      2  H   LIG d   1       5.087  -7.838  -4.488  0.00  0.00     0.038 H 
ATOM      3  C   LIG d   1       7.172  -8.235  -4.569  0.00  0.00    -0.043 C 
ATOM      4  C   LIG d   1       8.034  -7.009  -4.978  0.00  0.00    -0.049 C 
ATOM      5  C   LIG d   1       6.977  -5.960  -5.345  0.00  0.00    -0.032 C 
ATOM      6  H   LIG d   1       6.528  -5.581  -4.417  0.00  0.00     0.031 H 
ATOM      7  C   LIG d   1       5.942  -6.808  -6.123  0.00  0.00    -0.019 C 
ATOM      8  C   LIG d   1       4.703  -5.980  -6.361  0.00  0.00    -0.046 C 
ATOM      9  C   LIG d   1       5.027  -4.638  -7.007  0.00  0.00    -0.049 C 
ATOM     10  C   LIG d   1       6.226  -3.886  -6.448  0.00  0.00    -0.029 C 
ATOM     11  H   LIG d   1       6.551  -3.192  -7.267  0.00  0.00     0.031 H 
ATOM     12  C   LIG d   1       7.417  -4.813  -6.213  0.00  0.00    -0.031 C 
ATOM     13  H   LIG d   1       7.747  -5.193  -7.195  0.00  0.00     0.031 H 
ATOM     14  C   LIG d   1       8.610  -4.067  -5.632  0.00  0.00    -0.031 C 
ATOM     15  C   LIG d   1       8.203  -3.219  -4.469  0.00  0.00    -0.084 C 
ATOM     16  C   LIG d   1       7.010  -2.731  -4.334  0.00  0.00    -0.064 C 
ATOM     17  C   LIG d   1       5.875  -2.989  -5.285  0.00  0.00    -0.008 C 
ATOM     18  C   LIG d   1       5.401  -1.625  -5.817  0.00  0.00    -0.040 C 
ATOM     19  C   LIG d   1       5.075  -0.674  -4.672  0.00  0.00    -0.015 C 
ATOM     20  C   LIG d   1       6.287  -0.452  -3.769  0.00  0.00     0.107 C 
ATOM     21  H   LIG d   1       7.102  -0.022  -4.352  0.00  0.00     0.074 H 
ATOM     22  C   LIG d   1       6.745  -1.787  -3.172  0.00  0.00     0.006 C 
ATOM     23  H   LIG d   1       7.617  -9.153  -4.953  0.00  0.00     0.027 H 
ATOM     24  H   LIG d   1       7.089  -8.287  -3.483  0.00  0.00     0.027 H 
ATOM     25  H   LIG d   1       8.679  -7.240  -5.819  0.00  0.00     0.027 H 
ATOM     26  H   LIG d   1       8.629  -6.664  -4.128  0.00  0.00     0.027 H 
ATOM     27  H   LIG d   1       4.149  -5.861  -5.429  0.00  0.00     0.027 H 
ATOM     28  H   LIG d   1       4.040  -6.545  -7.043  0.00  0.00     0.027 H 
ATOM     29  H   LIG d   1       4.140  -3.993  -6.983  0.00  0.00     0.027 H 
ATOM     30  H   LIG d   1       5.216  -4.813  -8.084  0.00  0.00     0.027 H 
ATOM     31  H   LIG d   1       9.367  -4.786  -5.312  0.00  0.00     0.031 H 
ATOM     32  H   LIG d   1       9.045  -3.430  -6.408  0.00  0.00     0.031 H 
ATOM     33  H   LIG d   1       8.938  -3.005  -3.704  0.00  0.00     0.057 H 
ATOM     34  H   LIG d   1       6.190  -1.195  -6.436  0.00  0.00     0.028 H 
ATOM     35  H   LIG d   1       4.511  -1.777  -6.431  0.00  0.00     0.028 H 
ATOM     36  H   LIG d   1       4.780   0.296  -5.096  0.00  0.00     0.030 H 
ATOM     37  H   LIG d   1       4.238  -1.043  -4.083  0.00  0.00     0.030 H 
ATOM     38  H   LIG d   1       5.979  -2.188  -2.516  0.00  0.00     0.035 H 
ATOM     39  H   LIG d   1       7.668  -1.636  -2.608  0.00  0.00     0.035 H 
ENDROOT
BRANCH  20  40
ATOM     40  O   LIG d   1       5.933   0.459  -2.694  0.00  0.00    -0.461 OA
BRANCH  40  41
ATOM     41  C   LIG d   1       4.705   0.334  -2.167  0.00  0.00     0.304 C 
ATOM     42  O   LIG d   1       4.431  -0.636  -1.500  0.00  0.00    -0.251 OA
BRANCH  41  43
ATOM     43  C   LIG d   1       3.669   1.401  -2.408  0.00  0.00     0.033 C 
ATOM     44  H   LIG d   1       3.816   1.833  -3.397  0.00  0.00     0.034 H 
ATOM     45  H   LIG d   1       2.674   0.961  -2.347  0.00  0.00     0.034 H 
ATOM     46  H   LIG d   1       3.769   2.180  -1.653  0.00  0.00     0.034 H 
ENDBRANCH  41  43
ENDBRANCH  40  41
ENDBRANCH  20  40
BRANCH  17  47
ATOM     47  C   LIG d   1       4.725  -3.583  -4.474  0.00  0.00    -0.056 C 
ATOM     48  H   LIG d   1       3.985  -2.809  -4.272  0.00  0.00     0.024 H 
ATOM     49  H   LIG d   1       4.261  -4.391  -5.040  0.00  0.00     0.024 H 
ATOM     50  H   LIG d   1       5.109  -3.973  -3.531  0.00  0.00     0.024 H 
ENDBRANCH  17  47
BRANCH   7  51
ATOM     51  C   LIG d   1       6.496  -7.311  -7.456  0.00  0.00    -0.059 C 
ATOM     52  H   LIG d   1       7.559  -7.079  -7.519  0.00  0.00     0.024 H 
ATOM     53  H   LIG d   1       6.356  -8.390  -7.522  0.00  0.00     0.024 H 
ATOM     54  H   LIG d   1       5.970  -6.825  -8.276  0.00  0.00     0.024 H 
ENDBRANCH   7  51
BRANCH   1  55
ATOM     55  C   LIG d   1       5.358  -9.225  -5.994  0.00  0.00     0.134 C 
ATOM     56  O   LIG d   1       4.241  -9.296  -6.447  0.00  0.00    -0.297 OA
BRANCH  55  57
ATOM     57  C   LIG d   1       6.339 -10.344  -6.231  0.00  0.00    -0.006 C 
ATOM     58  H   LIG d   1       6.011 -10.921  -6.979  0.00  0.00     0.031 H 
ATOM     59  H   LIG d   1       7.311  -9.925  -6.495  0.00  0.00     0.031 H 
ATOM     60  H   LIG d   1       6.435 -10.941  -5.325  0.00  0.00     0.031 H 
ENDBRANCH  55  57
ENDBRANCH   1  55
TORSDOF 7
ENDMDL
MODEL 6
REMARK VINA RESULT:      -5.4      4.782      8.083
REMARK  7 active torsions:
REMARK  status: ('A' for Active; 'I' for Inactive)
REMARK    1  A    between atoms: C_1  and  C_2 
REMARK    2  A    between atoms: C_2  and  C_4 
REMARK    3  A    between atoms: C_10  and  C_31 
REMARK    4  A    between atoms: C_20  and  C_30 
REMARK    5  A    between atoms: C_23  and  O_26 
REMARK    6  A    between atoms: O_26  and  C_27 
REMARK    7  A    between atoms: C_27  and  C_29 
ROOT
ATOM      1  C   LIG d   1       7.880  -7.877  -4.736  0.00  0.00     0.023 C 
ATOM      2  H   LIG d   1       6.934  -8.023  -4.446  0.00  0.00     0.038 H 
ATOM      3  C   LIG d   1       8.790  -7.567  -3.521  0.00  0.00    -0.043 C 
ATOM      4  C   LIG d   1       9.213  -6.078  -3.654  0.00  0.00    -0.049 C 
ATOM      5  C   LIG d   1       8.147  -5.506  -4.597  0.00  0.00    -0.032 C 
ATOM      6  H   LIG d   1       7.211  -5.392  -4.033  0.00  0.00     0.031 H 
ATOM      7  C   LIG d   1       7.999  -6.641  -5.638  0.00  0.00    -0.019 C 
ATOM      8  C   LIG d   1       6.808  -6.352  -6.519  0.00  0.00    -0.046 C 
ATOM      9  C   LIG d   1       6.870  -4.953  -7.121  0.00  0.00    -0.049 C 
ATOM     10  C   LIG d   1       7.287  -3.828  -6.186  0.00  0.00    -0.029 C 
ATOM     11  H   LIG d   1       7.671  -3.013  -6.853  0.00  0.00     0.031 H 
ATOM     12  C   LIG d   1       8.477  -4.226  -5.315  0.00  0.00    -0.031 C 
ATOM     13  H   LIG d   1       9.343  -4.384  -5.981  0.00  0.00     0.031 H 
ATOM     14  C   LIG d   1       8.881  -3.111  -4.362  0.00  0.00    -0.031 C 
ATOM     15  C   LIG d   1       7.694  -2.565  -3.635  0.00  0.00    -0.084 C 
ATOM     16  C   LIG d   1       6.493  -2.593  -4.122  0.00  0.00    -0.064 C 
ATOM     17  C   LIG d   1       6.126  -3.215  -5.439  0.00  0.00    -0.008 C 
ATOM     18  C   LIG d   1       5.486  -2.115  -6.305  0.00  0.00    -0.040 C 
ATOM     19  C   LIG d   1       4.333  -1.441  -5.570  0.00  0.00    -0.015 C 
ATOM     20  C   LIG d   1       4.798  -0.819  -4.255  0.00  0.00     0.107 C 
ATOM     21  H   LIG d   1       5.563  -0.068  -4.458  0.00  0.00     0.074 H 
ATOM     22  C   LIG d   1       5.385  -1.902  -3.343  0.00  0.00     0.006 C 
ATOM     23  H   LIG d   1       9.669  -8.210  -3.535  0.00  0.00     0.027 H 
ATOM     24  H   LIG d   1       8.235  -7.714  -2.594  0.00  0.00     0.027 H 
ATOM     25  H   LIG d   1      10.210  -5.984  -4.073  0.00  0.00     0.027 H 
ATOM     26  H   LIG d   1       9.163  -5.581  -2.682  0.00  0.00     0.027 H 
ATOM     27  H   LIG d   1       5.885  -6.518  -5.965  0.00  0.00     0.027 H 
ATOM     28  H   LIG d   1       6.808  -7.088  -7.346  0.00  0.00     0.027 H 
ATOM     29  H   LIG d   1       5.906  -4.710  -7.588  0.00  0.00     0.027 H 
ATOM     30  H   LIG d   1       7.590  -4.973  -7.962  0.00  0.00     0.027 H 
ATOM     31  H   LIG d   1       9.607  -3.494  -3.642  0.00  0.00     0.031 H 
ATOM     32  H   LIG d   1       9.355  -2.307  -4.935  0.00  0.00     0.031 H 
ATOM     33  H   LIG d   1       7.845  -2.127  -2.656  0.00  0.00     0.057 H 
ATOM     34  H   LIG d   1       6.247  -1.372  -6.551  0.00  0.00     0.028 H 
ATOM     35  H   LIG d   1       5.117  -2.565  -7.229  0.00  0.00     0.028 H 
ATOM     36  H   LIG d   1       3.933  -0.640  -6.207  0.00  0.00     0.030 H 
ATOM     37  H   LIG d   1       3.525  -2.145  -5.381  0.00  0.00     0.030 H 
ATOM     38  H   LIG d   1       4.614  -2.612  -3.058  0.00  0.00     0.035 H 
ATOM     39  H   LIG d   1       5.803  -1.437  -2.448  0.00  0.00     0.035 H 
ENDROOT
BRANCH  20  40
ATOM     40  O   LIG d   1       3.672  -0.188  -3.589  0.00  0.00    -0.461 OA
BRANCH  40  41
ATOM     41  C   LIG d   1       3.904   0.979  -2.970  0.00  0.00     0.304 C 
ATOM     42  O   LIG d   1       3.606   2.018  -3.509  0.00  0.00    -0.251 OA
BRANCH  41  43
ATOM     43  C   LIG d   1       4.539   0.994  -1.603  0.00  0.00     0.033 C 
ATOM     44  H   LIG d   1       4.183   0.141  -1.028  0.00  0.00     0.034 H 
ATOM     45  H   LIG d   1       5.623   0.938  -1.706  0.00  0.00     0.034 H 
ATOM     46  H   LIG d   1       4.270   1.917  -1.089  0.00  0.00     0.034 H 
ENDBRANCH  41  43
ENDBRANCH  40  41
ENDBRANCH  20  40
BRANCH  17  47
ATOM     47  C   LIG d   1       5.047  -4.261  -5.166  0.00  0.00    -0.056 C 
ATOM     48  H   LIG d   1       4.070  -3.847  -5.410  0.00  0.00     0.024 H 
ATOM     49  H   LIG d   1       5.233  -5.142  -5.781  0.00  0.00     0.024 H 
ATOM     50  H   LIG d   1       5.072  -4.541  -4.113  0.00  0.00     0.024 H 
ENDBRANCH  17  47
BRANCH   7  51
ATOM     51  C   LIG d   1       9.255  -6.803  -6.495  0.00  0.00    -0.059 C 
ATOM     52  H   LIG d   1       9.833  -5.879  -6.470  0.00  0.00     0.024 H 
ATOM     53  H   LIG d   1       9.859  -7.620  -6.101  0.00  0.00     0.024 H 
ATOM     54  H   LIG d   1       8.968  -7.024  -7.522  0.00  0.00     0.024 H 
ENDBRANCH   7  51
BRANCH   1  55
ATOM     55  C   LIG d   1       8.374  -9.096  -5.467  0.00  0.00     0.134 C 
ATOM     56  O   LIG d   1       7.716  -9.574  -6.360  0.00  0.00    -0.297 OA
BRANCH  55  57
ATOM     57  C   LIG d   1       9.691  -9.722  -5.085  0.00  0.00    -0.006 C 
ATOM     58  H   LIG d   1       9.723  -9.853  -4.095  0.00  0.00     0.031 H 
ATOM     59  H   LIG d   1       9.794 -10.686  -5.583  0.00  0.00     0.031 H 
ATOM     60  H   LIG d   1      10.507  -9.067  -5.390  0.00  0.00     0.031 H 
ENDBRANCH  55  57
ENDBRANCH   1  55
TORSDOF 7
ENDMDL
MODEL 7
REMARK VINA RESULT:      -5.3      2.215      2.762
REMARK  7 active torsions:
REMARK  status: ('A' for Active; 'I' for Inactive)
REMARK    1  A    between atoms: C_1  and  C_2 
REMARK    2  A    between atoms: C_2  and  C_4 
REMARK    3  A    between atoms: C_10  and  C_31 
REMARK    4  A    between atoms: C_20  and  C_30 
REMARK    5  A    between atoms: C_23  and  O_26 
REMARK    6  A    between atoms: O_26  and  C_27 
REMARK    7  A    between atoms: C_27  and  C_29 
ROOT
ATOM      1  C   LIG d   1       3.423  -0.961  -3.662  0.00  0.00     0.023 C 
ATOM      2  H   LIG d   1       2.886  -1.788  -3.502  0.00  0.00     0.038 H 
ATOM      3  C   LIG d   1       2.568   0.134  -4.346  0.00  0.00    -0.043 C 
ATOM      4  C   LIG d   1       3.121   0.290  -5.789  0.00  0.00    -0.049 C 
ATOM      5  C   LIG d   1       3.874  -1.028  -6.008  0.00  0.00    -0.032 C 
ATOM      6  H   LIG d   1       3.135  -1.826  -6.169  0.00  0.00     0.031 H 
ATOM      7  C   LIG d   1       4.574  -1.226  -4.642  0.00  0.00    -0.019 C 
ATOM      8  C   LIG d   1       5.176  -2.609  -4.591  0.00  0.00    -0.046 C 
ATOM      9  C   LIG d   1       6.064  -2.890  -5.798  0.00  0.00    -0.049 C 
ATOM     10  C   LIG d   1       5.528  -2.454  -7.153  0.00  0.00    -0.029 C 
ATOM     11  H   LIG d   1       6.430  -2.350  -7.811  0.00  0.00     0.031 H 
ATOM     12  C   LIG d   1       4.911  -1.058  -7.096  0.00  0.00    -0.031 C 
ATOM     13  H   LIG d   1       5.719  -0.342  -6.861  0.00  0.00     0.031 H 
ATOM     14  C   LIG d   1       4.353  -0.628  -8.445  0.00  0.00    -0.031 C 
ATOM     15  C   LIG d   1       3.493  -1.698  -9.039  0.00  0.00    -0.084 C 
ATOM     16  C   LIG d   1       3.651  -2.957  -8.779  0.00  0.00    -0.064 C 
ATOM     17  C   LIG d   1       4.670  -3.503  -7.819  0.00  0.00    -0.008 C 
ATOM     18  C   LIG d   1       5.570  -4.474  -8.606  0.00  0.00    -0.040 C 
ATOM     19  C   LIG d   1       4.738  -5.527  -9.328  0.00  0.00    -0.015 C 
ATOM     20  C   LIG d   1       3.746  -4.888 -10.297  0.00  0.00     0.107 C 
ATOM     21  H   LIG d   1       4.288  -4.306 -11.043  0.00  0.00     0.074 H 
ATOM     22  C   LIG d   1       2.793  -3.961  -9.532  0.00  0.00     0.006 C 
ATOM     23  H   LIG d   1       2.657   1.076  -3.805  0.00  0.00     0.027 H 
ATOM     24  H   LIG d   1       1.523  -0.178  -4.380  0.00  0.00     0.027 H 
ATOM     25  H   LIG d   1       3.782   1.147  -5.871  0.00  0.00     0.027 H 
ATOM     26  H   LIG d   1       2.298   0.378  -6.504  0.00  0.00     0.027 H 
ATOM     27  H   LIG d   1       4.389  -3.355  -4.481  0.00  0.00     0.027 H 
ATOM     28  H   LIG d   1       5.797  -2.678  -3.677  0.00  0.00     0.027 H 
ATOM     29  H   LIG d   1       6.320  -3.957  -5.827  0.00  0.00     0.027 H 
ATOM     30  H   LIG d   1       7.031  -2.375  -5.640  0.00  0.00     0.027 H 
ATOM     31  H   LIG d   1       3.767   0.285  -8.322  0.00  0.00     0.031 H 
ATOM     32  H   LIG d   1       5.185  -0.416  -9.124  0.00  0.00     0.031 H 
ATOM     33  H   LIG d   1       2.700  -1.406  -9.717  0.00  0.00     0.057 H 
ATOM     34  H   LIG d   1       6.150  -3.904  -9.334  0.00  0.00     0.028 H 
ATOM     35  H   LIG d   1       6.254  -4.962  -7.909  0.00  0.00     0.028 H 
ATOM     36  H   LIG d   1       5.416  -6.172  -9.905  0.00  0.00     0.030 H 
ATOM     37  H   LIG d   1       4.208  -6.160  -8.620  0.00  0.00     0.030 H 
ATOM     38  H   LIG d   1       2.180  -4.537  -8.845  0.00  0.00     0.035 H 
ATOM     39  H   LIG d   1       2.152  -3.433 -10.241  0.00  0.00     0.035 H 
ENDROOT
BRANCH  20  40
ATOM     40  O   LIG d   1       2.977  -5.924 -10.962  0.00  0.00    -0.461 OA
BRANCH  40  41
ATOM     41  C   LIG d   1       1.901  -6.397 -10.314  0.00  0.00     0.304 C 
ATOM     42  O   LIG d   1       2.036  -7.216  -9.437  0.00  0.00    -0.251 OA
BRANCH  41  43
ATOM     43  C   LIG d   1       0.524  -5.907 -10.682  0.00  0.00     0.033 C 
ATOM     44  H   LIG d   1       0.431  -4.854 -10.421  0.00  0.00     0.034 H 
ATOM     45  H   LIG d   1       0.369  -6.032 -11.754  0.00  0.00     0.034 H 
ATOM     46  H   LIG d   1      -0.223  -6.483 -10.137  0.00  0.00     0.034 H 
ENDBRANCH  41  43
ENDBRANCH  40  41
ENDBRANCH  20  40
BRANCH  17  47
ATOM     47  C   LIG d   1       3.919  -4.328  -6.776  0.00  0.00    -0.056 C 
ATOM     48  H   LIG d   1       3.680  -5.307  -7.190  0.00  0.00     0.024 H 
ATOM     49  H   LIG d   1       4.545  -4.450  -5.891  0.00  0.00     0.024 H 
ATOM     50  H   LIG d   1       2.998  -3.814  -6.501  0.00  0.00     0.024 H 
ENDBRANCH  17  47
BRANCH   7  51
ATOM     51  C   LIG d   1       5.656  -0.176  -4.394  0.00  0.00    -0.059 C 
ATOM     52  H   LIG d   1       6.176   0.039  -5.327  0.00  0.00     0.024 H 
ATOM     53  H   LIG d   1       5.196   0.737  -4.016  0.00  0.00     0.024 H 
ATOM     54  H   LIG d   1       6.368  -0.554  -3.661  0.00  0.00     0.024 H 
ENDBRANCH   7  51
BRANCH   1  55
ATOM     55  C   LIG d   1       3.970  -0.459  -2.352  0.00  0.00     0.134 C 
ATOM     56  O   LIG d   1       4.452  -1.235  -1.562  0.00  0.00    -0.297 OA
BRANCH  55  57
ATOM     57  C   LIG d   1       3.918   1.011  -2.027  0.00  0.00    -0.006 C 
ATOM     58  H   LIG d   1       3.931   1.134  -1.035  0.00  0.00     0.031 H 
ATOM     59  H   LIG d   1       4.781   1.511  -2.465  0.00  0.00     0.031 H 
ATOM     60  H   LIG d   1       3.003   1.442  -2.434  0.00  0.00     0.031 H 
ENDBRANCH  55  57
ENDBRANCH   1  55
TORSDOF 7
ENDMDL
MODEL 8
REMARK VINA RESULT:      -5.3      1.918      7.640
REMARK  7 active torsions:
REMARK  status: ('A' for Active; 'I' for Inactive)
REMARK    1  A    between atoms: C_1  and  C_2 
REMARK    2  A    between atoms: C_2  and  C_4 
REMARK    3  A    between atoms: C_10  and  C_31 
REMARK    4  A    between atoms: C_20  and  C_30 
REMARK    5  A    between atoms: C_23  and  O_26 
REMARK    6  A    between atoms: O_26  and  C_27 
REMARK    7  A    between atoms: C_27  and  C_29 
ROOT
ATOM      1  C   LIG d   1       4.978  -1.477 -12.315  0.00  0.00     0.023 C 
ATOM      2  H   LIG d   1       5.945  -1.398 -12.076  0.00  0.00     0.038 H 
ATOM      3  C   LIG d   1       4.308  -0.082 -12.387  0.00  0.00    -0.043 C 
ATOM      4  C   LIG d   1       3.326  -0.000 -11.186  0.00  0.00    -0.049 C 
ATOM      5  C   LIG d   1       3.855  -1.086 -10.242  0.00  0.00    -0.032 C 
ATOM      6  H   LIG d   1       4.774  -0.715  -9.767  0.00  0.00     0.031 H 
ATOM      7  C   LIG d   1       4.198  -2.228 -11.228  0.00  0.00    -0.019 C 
ATOM      8  C   LIG d   1       4.961  -3.304 -10.494  0.00  0.00    -0.046 C 
ATOM      9  C   LIG d   1       4.235  -3.760  -9.233  0.00  0.00    -0.049 C 
ATOM     10  C   LIG d   1       3.633  -2.668  -8.362  0.00  0.00    -0.029 C 
ATOM     11  H   LIG d   1       2.828  -3.172  -7.766  0.00  0.00     0.031 H 
ATOM     12  C   LIG d   1       2.910  -1.612  -9.196  0.00  0.00    -0.031 C 
ATOM     13  H   LIG d   1       2.048  -2.100  -9.684  0.00  0.00     0.031 H 
ATOM     14  C   LIG d   1       2.326  -0.506  -8.329  0.00  0.00    -0.031 C 
ATOM     15  C   LIG d   1       3.339   0.011  -7.358  0.00  0.00    -0.084 C 
ATOM     16  C   LIG d   1       4.320  -0.708  -6.911  0.00  0.00    -0.064 C 
ATOM     17  C   LIG d   1       4.600  -2.121  -7.340  0.00  0.00    -0.008 C 
ATOM     18  C   LIG d   1       4.562  -3.002  -6.078  0.00  0.00    -0.040 C 
ATOM     19  C   LIG d   1       5.496  -2.459  -5.003  0.00  0.00    -0.015 C 
ATOM     20  C   LIG d   1       5.127  -1.030  -4.613  0.00  0.00     0.107 C 
ATOM     21  H   LIG d   1       4.108  -1.010  -4.225  0.00  0.00     0.074 H 
ATOM     22  C   LIG d   1       5.218  -0.114  -5.838  0.00  0.00     0.006 C 
ATOM     23  H   LIG d   1       3.764   0.027 -13.325  0.00  0.00     0.027 H 
ATOM     24  H   LIG d   1       5.065   0.699 -12.302  0.00  0.00     0.027 H 
ATOM     25  H   LIG d   1       2.304  -0.200 -11.494  0.00  0.00     0.027 H 
ATOM     26  H   LIG d   1       3.392   0.981 -10.708  0.00  0.00     0.027 H 
ATOM     27  H   LIG d   1       5.974  -2.963 -10.281  0.00  0.00     0.027 H 
ATOM     28  H   LIG d   1       5.063  -4.173 -11.171  0.00  0.00     0.027 H 
ATOM     29  H   LIG d   1       4.903  -4.389  -8.631  0.00  0.00     0.027 H 
ATOM     30  H   LIG d   1       3.413  -4.437  -9.537  0.00  0.00     0.027 H 
ATOM     31  H   LIG d   1       1.981   0.311  -8.967  0.00  0.00     0.031 H 
ATOM     32  H   LIG d   1       1.466  -0.901  -7.778  0.00  0.00     0.031 H 
ATOM     33  H   LIG d   1       3.250   1.033  -7.014  0.00  0.00     0.057 H 
ATOM     34  H   LIG d   1       3.539  -3.025  -5.696  0.00  0.00     0.028 H 
ATOM     35  H   LIG d   1       4.863  -4.016  -6.348  0.00  0.00     0.028 H 
ATOM     36  H   LIG d   1       5.407  -3.094  -4.111  0.00  0.00     0.030 H 
ATOM     37  H   LIG d   1       6.533  -2.498  -5.331  0.00  0.00     0.030 H 
ATOM     38  H   LIG d   1       6.245  -0.051  -6.186  0.00  0.00     0.035 H 
ATOM     39  H   LIG d   1       4.859   0.883  -5.575  0.00  0.00     0.035 H 
ENDROOT
BRANCH  20  40
ATOM     40  O   LIG d   1       6.040  -0.554  -3.588  0.00  0.00    -0.461 OA
BRANCH  40  41
ATOM     41  C   LIG d   1       5.658   0.523  -2.883  0.00  0.00     0.304 C 
ATOM     42  O   LIG d   1       6.192   1.589  -3.073  0.00  0.00    -0.251 OA
BRANCH  41  43
ATOM     43  C   LIG d   1       4.565   0.399  -1.853  0.00  0.00     0.033 C 
ATOM     44  H   LIG d   1       4.178   1.389  -1.613  0.00  0.00     0.034 H 
ATOM     45  H   LIG d   1       3.761  -0.219  -2.249  0.00  0.00     0.034 H 
ATOM     46  H   LIG d   1       4.968  -0.061  -0.951  0.00  0.00     0.034 H 
ENDBRANCH  41  43
ENDBRANCH  40  41
ENDBRANCH  20  40
BRANCH  17  47
ATOM     47  C   LIG d   1       6.030  -2.161  -7.876  0.00  0.00    -0.056 C 
ATOM     48  H   LIG d   1       6.668  -2.693  -7.170  0.00  0.00     0.024 H 
ATOM     49  H   LIG d   1       6.043  -2.675  -8.837  0.00  0.00     0.024 H 
ATOM     50  H   LIG d   1       6.399  -1.143  -8.003  0.00  0.00     0.024 H 
ENDBRANCH  17  47
BRANCH   7  51
ATOM     51  C   LIG d   1       2.946  -2.825 -11.873  0.00  0.00    -0.059 C 
ATOM     52  H   LIG d   1       2.205  -2.039 -12.024  0.00  0.00     0.024 H 
ATOM     53  H   LIG d   1       3.209  -3.265 -12.835  0.00  0.00     0.024 H 
ATOM     54  H   LIG d   1       2.532  -3.593 -11.222  0.00  0.00     0.024 H 
ENDBRANCH   7  51
BRANCH   1  55
ATOM     55  C   LIG d   1       4.844  -2.194 -13.632  0.00  0.00     0.134 C 
ATOM     56  O   LIG d   1       5.429  -3.234 -13.815  0.00  0.00    -0.297 OA
BRANCH  55  57
ATOM     57  C   LIG d   1       3.979  -1.614 -14.721  0.00  0.00    -0.006 C 
ATOM     58  H   LIG d   1       3.276  -1.032 -14.314  0.00  0.00     0.031 H 
ATOM     59  H   LIG d   1       4.595  -1.022 -15.398  0.00  0.00     0.031 H 
ATOM     60  H   LIG d   1       3.504  -2.422 -15.277  0.00  0.00     0.031 H 
ENDBRANCH  55  57
ENDBRANCH   1  55
TORSDOF 7
ENDMDL
MODEL 9
REMARK VINA RESULT:      -5.0      9.462     11.392
REMARK  7 active torsions:
REMARK  status: ('A' for Active; 'I' for Inactive)
REMARK    1  A    between atoms: C_1  and  C_2 
REMARK    2  A    between atoms: C_2  and  C_4 
REMARK    3  A    between atoms: C_10  and  C_31 
REMARK    4  A    between atoms: C_20  and  C_30 
REMARK    5  A    between atoms: C_23  and  O_26 
REMARK    6  A    between atoms: O_26  and  C_27 
REMARK    7  A    between atoms: C_27  and  C_29 
ROOT
ATOM      1  C   LIG d   1      12.713   6.568  -1.959  0.00  0.00     0.023 C 
ATOM      2  H   LIG d   1      13.437   6.952  -2.532  0.00  0.00     0.038 H 
ATOM      3  C   LIG d   1      12.735   5.019  -2.002  0.00  0.00    -0.043 C 
ATOM      4  C   LIG d   1      11.456   4.580  -2.767  0.00  0.00    -0.049 C 
ATOM      5  C   LIG d   1      11.072   5.847  -3.539  0.00  0.00    -0.032 C 
ATOM      6  H   LIG d   1      11.769   5.965  -4.381  0.00  0.00     0.031 H 
ATOM      7  C   LIG d   1      11.325   6.953  -2.487  0.00  0.00    -0.019 C 
ATOM      8  C   LIG d   1      11.224   8.303  -3.153  0.00  0.00    -0.046 C 
ATOM      9  C   LIG d   1       9.922   8.462  -3.930  0.00  0.00    -0.049 C 
ATOM     10  C   LIG d   1       9.485   7.275  -4.775  0.00  0.00    -0.029 C 
ATOM     11  H   LIG d   1       8.378   7.397  -4.911  0.00  0.00     0.031 H 
ATOM     12  C   LIG d   1       9.653   5.954  -4.027  0.00  0.00    -0.031 C 
ATOM     13  H   LIG d   1       8.962   5.965  -3.165  0.00  0.00     0.031 H 
ATOM     14  C   LIG d   1       9.238   4.763  -4.879  0.00  0.00    -0.031 C 
ATOM     15  C   LIG d   1       9.860   4.827  -6.237  0.00  0.00    -0.084 C 
ATOM     16  C   LIG d   1      10.197   5.941  -6.807  0.00  0.00    -0.064 C 
ATOM     17  C   LIG d   1      10.060   7.296  -6.171  0.00  0.00    -0.008 C 
ATOM     18  C   LIG d   1       9.156   8.144  -7.083  0.00  0.00    -0.040 C 
ATOM     19  C   LIG d   1       9.680   8.157  -8.514  0.00  0.00    -0.015 C 
ATOM     20  C   LIG d   1       9.768   6.745  -9.090  0.00  0.00     0.107 C 
ATOM     21  H   LIG d   1       8.777   6.290  -9.090  0.00  0.00     0.074 H 
ATOM     22  C   LIG d   1      10.713   5.891  -8.237  0.00  0.00     0.006 C 
ATOM     23  H   LIG d   1      12.726   4.614  -0.991  0.00  0.00     0.027 H 
ATOM     24  H   LIG d   1      13.624   4.675  -2.534  0.00  0.00     0.027 H 
ATOM     25  H   LIG d   1      10.671   4.273  -2.084  0.00  0.00     0.027 H 
ATOM     26  H   LIG d   1      11.690   3.770  -3.462  0.00  0.00     0.027 H 
ATOM     27  H   LIG d   1      12.098   8.474  -3.782  0.00  0.00     0.027 H 
ATOM     28  H   LIG d   1      11.256   9.078  -2.363  0.00  0.00     0.027 H 
ATOM     29  H   LIG d   1       9.972   9.363  -4.553  0.00  0.00     0.027 H 
ATOM     30  H   LIG d   1       9.113   8.670  -3.203  0.00  0.00     0.027 H 
ATOM     31  H   LIG d   1       9.540   3.838  -4.382  0.00  0.00     0.031 H 
ATOM     32  H   LIG d   1       8.148   4.760  -4.981  0.00  0.00     0.031 H 
ATOM     33  H   LIG d   1      10.039   3.901  -6.768  0.00  0.00     0.057 H 
ATOM     34  H   LIG d   1       8.148   7.725  -7.067  0.00  0.00     0.028 H 
ATOM     35  H   LIG d   1       9.123   9.164  -6.696  0.00  0.00     0.028 H 
ATOM     36  H   LIG d   1       8.985   8.739  -9.136  0.00  0.00     0.030 H 
ATOM     37  H   LIG d   1      10.653   8.640  -8.570  0.00  0.00     0.030 H 
ATOM     38  H   LIG d   1      11.726   6.279  -8.295  0.00  0.00     0.035 H 
ATOM     39  H   LIG d   1      10.695   4.860  -8.594  0.00  0.00     0.035 H 
ENDROOT
BRANCH  20  40
ATOM     40  O   LIG d   1      10.269   6.803 -10.451  0.00  0.00    -0.461 OA
BRANCH  40  41
ATOM     41  C   LIG d   1       9.390   6.566 -11.437  0.00  0.00     0.304 C 
ATOM     42  O   LIG d   1       8.521   5.741 -11.284  0.00  0.00    -0.251 OA
BRANCH  41  43
ATOM     43  C   LIG d   1       9.487   7.328 -12.733  0.00  0.00     0.033 C 
ATOM     44  H   LIG d   1      10.442   7.849 -12.778  0.00  0.00     0.034 H 
ATOM     45  H   LIG d   1       9.412   6.633 -13.569  0.00  0.00     0.034 H 
ATOM     46  H   LIG d   1       8.675   8.052 -12.789  0.00  0.00     0.034 H 
ENDBRANCH  41  43
ENDBRANCH  40  41
ENDBRANCH  20  40
BRANCH  17  47
ATOM     47  C   LIG d   1      11.442   7.945  -6.175  0.00  0.00    -0.056 C 
ATOM     48  H   LIG d   1      11.649   8.353  -7.164  0.00  0.00     0.024 H 
ATOM     49  H   LIG d   1      11.469   8.747  -5.438  0.00  0.00     0.024 H 
ATOM     50  H   LIG d   1      12.195   7.197  -5.925  0.00  0.00     0.024 H 
ENDBRANCH  17  47
BRANCH   7  51
ATOM     51  C   LIG d   1      10.339   6.872  -1.321  0.00  0.00    -0.059 C 
ATOM     52  H   LIG d   1      10.586   7.634  -0.582  0.00  0.00     0.024 H 
ATOM     53  H   LIG d   1       9.327   7.038  -1.690  0.00  0.00     0.024 H 
ATOM     54  H   LIG d   1      10.401   5.887  -0.860  0.00  0.00     0.024 H 
ENDBRANCH   7  51
BRANCH   1  55
ATOM     55  C   LIG d   1      12.880   7.058  -0.546  0.00  0.00     0.134 C 
ATOM     56  O   LIG d   1      12.731   6.295   0.379  0.00  0.00    -0.297 OA
BRANCH  55  57
ATOM     57  C   LIG d   1      13.232   8.499  -0.284  0.00  0.00    -0.006 C 
ATOM     58  H   LIG d   1      12.887   9.067  -1.031  0.00  0.00     0.031 H 
ATOM     59  H   LIG d   1      12.779   8.819   0.654  0.00  0.00     0.031 H 
ATOM     60  H   LIG d   1      14.314   8.603  -0.218  0.00  0.00     0.031 H 
ENDBRANCH  55  57
ENDBRANCH   1  55
TORSDOF 7
ENDMDL
