MODEL 1
REMARK VINA RESULT:      -7.3      0.000      0.000
REMARK  4 active torsions:
REMARK  status: ('A' for Active; 'I' for Inactive)
REMARK    1  A    between atoms: C_1  and  C_2 
REMARK    2  A    between atoms: C_2  and  C_3 
REMARK    3  A    between atoms: C_2  and  N_4 
REMARK       I    between atoms: N_4  and  C_5 
REMARK       I    between atoms: C_5  and  N_7 
REMARK    4  A    between atoms: C_16  and  C_23 
ROOT
ATOM      1  N   LIG d   1       7.343   1.234  -4.318  0.00  0.00    -0.297 N 
ATOM      2  C   LIG d   1       7.266  -0.084  -4.043  0.00  0.00     0.302 C 
ATOM      3  O   LIG d   1       8.083  -0.852  -4.513  0.00  0.00    -0.253 OA
ATOM      4  N   LIG d   1       6.284  -0.549  -3.245  0.00  0.00    -0.285 N 
ATOM      5  C   LIG d   1       5.354   0.374  -2.583  0.00  0.00     0.021 C 
ATOM      6  C   LIG d   1       3.916  -0.062  -2.826  0.00  0.00    -0.006 C 
ATOM      7  H   LIG d   1       3.290   0.546  -2.157  0.00  0.00     0.033 H 
ATOM      8  C   LIG d   1       3.728  -1.545  -2.505  0.00  0.00    -0.037 C 
ATOM      9  C   LIG d   1       4.671  -2.364  -3.365  0.00  0.00     0.016 C 
ATOM     10  H   LIG d   1       4.464  -3.431  -3.193  0.00  0.00     0.038 H 
ATOM     11  C   LIG d   1       6.117  -1.994  -3.023  0.00  0.00     0.024 C 
ATOM     12  C   LIG d   1       4.469  -1.997  -4.816  0.00  0.00     0.030 A 
ATOM     13  C   LIG d   1       4.809  -2.928  -5.747  0.00  0.00    -0.024 A 
ATOM     14  C   LIG d   1       4.746  -2.625  -7.112  0.00  0.00    -0.051 A 
ATOM     15  C   LIG d   1       4.351  -1.377  -7.492  0.00  0.00     0.003 A 
ATOM     16  C   LIG d   1       3.997  -0.444  -6.508  0.00  0.00     0.252 A 
ATOM     17  O   LIG d   1       3.679   0.689  -6.836  0.00  0.00    -0.268 OA
ATOM     18  N   LIG d   1       4.001  -0.785  -5.195  0.00  0.00    -0.311 N 
ATOM     19  C   LIG d   1       3.472   0.201  -4.253  0.00  0.00     0.031 C 
ATOM     20  H   LIG d   1       6.662   1.940  -3.820  0.00  0.00     0.150 HD
ATOM     21  H   LIG d   1       5.549   0.379  -1.501  0.00  0.00     0.047 H 
ATOM     22  H   LIG d   1       5.495   1.388  -2.987  0.00  0.00     0.047 H 
ATOM     23  H   LIG d   1       3.950  -1.721  -1.442  0.00  0.00     0.028 H 
ATOM     24  H   LIG d   1       2.688  -1.837  -2.715  0.00  0.00     0.028 H 
ATOM     25  H   LIG d   1       6.812  -2.548  -3.670  0.00  0.00     0.047 H 
ATOM     26  H   LIG d   1       6.330  -2.231  -1.970  0.00  0.00     0.047 H 
ATOM     27  H   LIG d   1       5.005  -3.368  -7.851  0.00  0.00     0.062 H 
ATOM     28  H   LIG d   1       4.311  -1.110  -8.539  0.00  0.00     0.067 H 
ATOM     29  H   LIG d   1       2.374   0.168  -4.309  0.00  0.00     0.050 H 
ATOM     30  H   LIG d   1       3.825   1.195  -4.569  0.00  0.00     0.050 H 
ENDROOT
BRANCH  13  31
ATOM     31  C   LIG d   1       5.256  -4.297  -5.305  0.00  0.00    -0.014 C 
ATOM     32  C   LIG d   1       4.376  -5.359  -5.967  0.00  0.00    -0.046 C 
ATOM     33  C   LIG d   1       4.830  -6.750  -5.518  0.00  0.00    -0.052 C 
ATOM     34  H   LIG d   1       3.328  -5.203  -5.671  0.00  0.00     0.027 H 
ATOM     35  H   LIG d   1       4.464  -5.280  -7.061  0.00  0.00     0.027 H 
ATOM     36  C   LIG d   1       6.288  -6.968  -5.929  0.00  0.00    -0.053 C 
ATOM     37  H   LIG d   1       4.197  -7.513  -5.994  0.00  0.00     0.026 H 
ATOM     38  H   LIG d   1       4.742  -6.829  -4.425  0.00  0.00     0.026 H 
ATOM     39  C   LIG d   1       7.168  -5.905  -5.268  0.00  0.00    -0.052 C 
ATOM     40  H   LIG d   1       6.376  -6.888  -7.023  0.00  0.00     0.026 H 
ATOM     41  H   LIG d   1       6.615  -7.967  -5.606  0.00  0.00     0.026 H 
ATOM     42  C   LIG d   1       6.714  -4.515  -5.717  0.00  0.00    -0.046 C 
ATOM     43  H   LIG d   1       8.216  -6.061  -5.564  0.00  0.00     0.026 H 
ATOM     44  H   LIG d   1       7.080  -5.985  -4.174  0.00  0.00     0.026 H 
ATOM     45  H   LIG d   1       6.802  -4.435  -6.810  0.00  0.00     0.027 H 
ATOM     46  H   LIG d   1       7.347  -3.751  -5.241  0.00  0.00     0.027 H 
ATOM     47  H   LIG d   1       5.163  -4.362  -4.212  0.00  0.00     0.035 H 
ENDBRANCH  13  31
BRANCH   1  48
ATOM     48  C   LIG d   1       8.331   1.723  -5.283  0.00  0.00     0.019 C 
ATOM     49  H   LIG d   1       9.221   1.084  -5.188  0.00  0.00     0.049 H 
BRANCH  48  50
ATOM     50  C   LIG d   1       7.751   1.636  -6.696  0.00  0.00    -0.047 C 
ATOM     51  H   LIG d   1       6.720   2.020  -6.693  0.00  0.00     0.025 H 
ATOM     52  H   LIG d   1       7.751   0.587  -7.028  0.00  0.00     0.025 H 
ATOM     53  H   LIG d   1       8.365   2.237  -7.382  0.00  0.00     0.025 H 
ENDBRANCH  48  50
BRANCH  48  54
ATOM     54  C   LIG d   1       8.676   3.180  -4.963  0.00  0.00    -0.047 C 
ATOM     55  H   LIG d   1       9.765   3.320  -5.024  0.00  0.00     0.025 H 
ATOM     56  H   LIG d   1       8.330   3.425  -3.948  0.00  0.00     0.025 H 
ATOM     57  H   LIG d   1       8.180   3.841  -5.689  0.00  0.00     0.025 H 
ENDBRANCH  48  54
ENDBRANCH   1  48
TORSDOF 4
ENDMDL
MODEL 2
REMARK VINA RESULT:      -6.1      2.168      4.574
REMARK  4 active torsions:
REMARK  status: ('A' for Active; 'I' for Inactive)
REMARK    1  A    between atoms: C_1  and  C_2 
REMARK    2  A    between atoms: C_2  and  C_3 
REMARK    3  A    between atoms: C_2  and  N_4 
REMARK       I    between atoms: N_4  and  C_5 
REMARK       I    between atoms: C_5  and  N_7 
REMARK    4  A    between atoms: C_16  and  C_23 
ROOT
ATOM      1  N   LIG d   1       5.012   0.665  -7.562  0.00  0.00    -0.297 N 
ATOM      2  C   LIG d   1       5.924  -0.320  -7.437  0.00  0.00     0.302 C 
ATOM      3  O   LIG d   1       5.582  -1.482  -7.537  0.00  0.00    -0.253 OA
ATOM      4  N   LIG d   1       7.217  -0.015  -7.203  0.00  0.00    -0.285 N 
ATOM      5  C   LIG d   1       7.667   1.381  -7.187  0.00  0.00     0.021 C 
ATOM      6  C   LIG d   1       8.473   1.661  -5.926  0.00  0.00    -0.006 C 
ATOM      7  H   LIG d   1       8.935   2.649  -6.065  0.00  0.00     0.033 H 
ATOM      8  C   LIG d   1       9.560   0.605  -5.722  0.00  0.00    -0.037 C 
ATOM      9  C   LIG d   1       8.914  -0.764  -5.633  0.00  0.00     0.016 C 
ATOM     10  H   LIG d   1       9.693  -1.503  -5.395  0.00  0.00     0.038 H 
ATOM     11  C   LIG d   1       8.206  -1.076  -6.954  0.00  0.00     0.024 C 
ATOM     12  C   LIG d   1       7.841  -0.741  -4.569  0.00  0.00     0.030 A 
ATOM     13  C   LIG d   1       7.518  -1.926  -3.986  0.00  0.00    -0.024 A 
ATOM     14  C   LIG d   1       6.465  -2.002  -3.066  0.00  0.00    -0.051 A 
ATOM     15  C   LIG d   1       5.762  -0.871  -2.775  0.00  0.00     0.003 A 
ATOM     16  C   LIG d   1       6.129   0.336  -3.385  0.00  0.00     0.252 A 
ATOM     17  O   LIG d   1       5.481   1.347  -3.161  0.00  0.00    -0.268 OA
ATOM     18  N   LIG d   1       7.195   0.396  -4.220  0.00  0.00    -0.311 N 
ATOM     19  C   LIG d   1       7.596   1.722  -4.689  0.00  0.00     0.031 C 
ATOM     20  H   LIG d   1       5.335   1.717  -7.565  0.00  0.00     0.150 HD
ATOM     21  H   LIG d   1       8.299   1.575  -8.066  0.00  0.00     0.047 H 
ATOM     22  H   LIG d   1       6.793   2.049  -7.209  0.00  0.00     0.047 H 
ATOM     23  H   LIG d   1      10.259   0.630  -6.571  0.00  0.00     0.028 H 
ATOM     24  H   LIG d   1      10.108   0.817  -4.792  0.00  0.00     0.028 H 
ATOM     25  H   LIG d   1       7.694  -2.047  -6.888  0.00  0.00     0.047 H 
ATOM     26  H   LIG d   1       8.934  -1.100  -7.778  0.00  0.00     0.047 H 
ATOM     27  H   LIG d   1       6.216  -2.941  -2.595  0.00  0.00     0.062 H 
ATOM     28  H   LIG d   1       4.933  -0.904  -2.082  0.00  0.00     0.067 H 
ATOM     29  H   LIG d   1       8.145   2.218  -3.874  0.00  0.00     0.050 H 
ATOM     30  H   LIG d   1       6.683   2.292  -4.916  0.00  0.00     0.050 H 
ENDROOT
BRANCH  13  31
ATOM     31  C   LIG d   1       8.298  -3.167  -4.333  0.00  0.00    -0.014 C 
ATOM     32  C   LIG d   1       8.942  -3.735  -3.065  0.00  0.00    -0.046 C 
ATOM     33  C   LIG d   1       9.735  -4.995  -3.417  0.00  0.00    -0.052 C 
ATOM     34  H   LIG d   1       9.619  -2.985  -2.631  0.00  0.00     0.027 H 
ATOM     35  H   LIG d   1       8.157  -3.987  -2.337  0.00  0.00     0.027 H 
ATOM     36  C   LIG d   1       8.793  -6.038  -4.022  0.00  0.00    -0.053 C 
ATOM     37  H   LIG d   1      10.197  -5.403  -2.507  0.00  0.00     0.026 H 
ATOM     38  H   LIG d   1      10.519  -4.744  -4.146  0.00  0.00     0.026 H 
ATOM     39  C   LIG d   1       8.149  -5.470  -5.290  0.00  0.00    -0.052 C 
ATOM     40  H   LIG d   1       8.008  -6.290  -3.294  0.00  0.00     0.026 H 
ATOM     41  H   LIG d   1       9.363  -6.945  -4.276  0.00  0.00     0.026 H 
ATOM     42  C   LIG d   1       7.356  -4.210  -4.937  0.00  0.00    -0.046 C 
ATOM     43  H   LIG d   1       7.472  -6.220  -5.724  0.00  0.00     0.026 H 
ATOM     44  H   LIG d   1       8.934  -5.218  -6.018  0.00  0.00     0.026 H 
ATOM     45  H   LIG d   1       6.572  -4.461  -4.208  0.00  0.00     0.027 H 
ATOM     46  H   LIG d   1       6.894  -3.802  -5.848  0.00  0.00     0.027 H 
ATOM     47  H   LIG d   1       9.078  -2.901  -5.060  0.00  0.00     0.035 H 
ENDBRANCH  13  31
BRANCH   1  48
ATOM     48  C   LIG d   1       3.591   0.334  -7.690  0.00  0.00     0.019 C 
ATOM     49  H   LIG d   1       3.529  -0.650  -8.178  0.00  0.00     0.049 H 
BRANCH  48  50
ATOM     50  C   LIG d   1       2.950   0.290  -6.302  0.00  0.00    -0.047 C 
ATOM     51  H   LIG d   1       3.493   0.966  -5.626  0.00  0.00     0.025 H 
ATOM     52  H   LIG d   1       2.996  -0.737  -5.909  0.00  0.00     0.025 H 
ATOM     53  H   LIG d   1       1.900   0.609  -6.372  0.00  0.00     0.025 H 
ENDBRANCH  48  50
BRANCH  48  54
ATOM     54  C   LIG d   1       2.894   1.401  -8.539  0.00  0.00    -0.047 C 
ATOM     55  H   LIG d   1       3.232   1.317  -9.583  0.00  0.00     0.025 H 
ATOM     56  H   LIG d   1       3.144   2.399  -8.151  0.00  0.00     0.025 H 
ATOM     57  H   LIG d   1       1.806   1.252  -8.493  0.00  0.00     0.025 H 
ENDBRANCH  48  54
ENDBRANCH   1  48
TORSDOF 4
ENDMDL
MODEL 3
REMARK VINA RESULT:      -6.1      2.697      5.492
REMARK  4 active torsions:
REMARK  status: ('A' for Active; 'I' for Inactive)
REMARK    1  A    between atoms: C_1  and  C_2 
REMARK    2  A    between atoms: C_2  and  C_3 
REMARK    3  A    between atoms: C_2  and  N_4 
REMARK       I    between atoms: N_4  and  C_5 
REMARK       I    between atoms: C_5  and  N_7 
REMARK    4  A    between atoms: C_16  and  C_23 
ROOT
ATOM      1  N   LIG d   1       7.808  -2.430  -8.901  0.00  0.00    -0.297 N 
ATOM      2  C   LIG d   1       7.268  -1.481  -8.110  0.00  0.00     0.302 C 
ATOM      3  O   LIG d   1       7.905  -1.032  -7.176  0.00  0.00    -0.253 OA
ATOM      4  N   LIG d   1       6.022  -1.028  -8.356  0.00  0.00    -0.285 N 
ATOM      5  C   LIG d   1       5.280  -1.478  -9.539  0.00  0.00     0.021 C 
ATOM      6  C   LIG d   1       3.889  -1.951  -9.141  0.00  0.00    -0.006 C 
ATOM      7  H   LIG d   1       3.328  -2.090 -10.077  0.00  0.00     0.033 H 
ATOM      8  C   LIG d   1       3.185  -0.914  -8.265  0.00  0.00    -0.037 C 
ATOM      9  C   LIG d   1       4.021  -0.660  -7.026  0.00  0.00     0.016 C 
ATOM     10  H   LIG d   1       3.463   0.016  -6.361  0.00  0.00     0.038 H 
ATOM     11  C   LIG d   1       5.374  -0.075  -7.441  0.00  0.00     0.024 C 
ATOM     12  C   LIG d   1       4.316  -1.975  -6.344  0.00  0.00     0.030 A 
ATOM     13  C   LIG d   1       4.582  -1.939  -5.011  0.00  0.00    -0.024 A 
ATOM     14  C   LIG d   1       4.963  -3.101  -4.330  0.00  0.00    -0.051 A 
ATOM     15  C   LIG d   1       5.075  -4.267  -5.028  0.00  0.00     0.003 A 
ATOM     16  C   LIG d   1       4.783  -4.272  -6.399  0.00  0.00     0.252 A 
ATOM     17  O   LIG d   1       4.918  -5.301  -7.042  0.00  0.00    -0.268 OA
ATOM     18  N   LIG d   1       4.350  -3.147  -7.020  0.00  0.00    -0.311 N 
ATOM     19  C   LIG d   1       3.924  -3.282  -8.413  0.00  0.00     0.031 C 
ATOM     20  H   LIG d   1       7.271  -2.768  -9.799  0.00  0.00     0.150 HD
ATOM     21  H   LIG d   1       5.186  -0.647 -10.253  0.00  0.00     0.047 H 
ATOM     22  H   LIG d   1       5.819  -2.311 -10.016  0.00  0.00     0.047 H 
ATOM     23  H   LIG d   1       3.065   0.022  -8.830  0.00  0.00     0.028 H 
ATOM     24  H   LIG d   1       2.195  -1.294  -7.972  0.00  0.00     0.028 H 
ATOM     25  H   LIG d   1       6.009   0.073  -6.555  0.00  0.00     0.047 H 
ATOM     26  H   LIG d   1       5.230   0.887  -7.953  0.00  0.00     0.047 H 
ATOM     27  H   LIG d   1       5.163  -3.075  -3.269  0.00  0.00     0.062 H 
ATOM     28  H   LIG d   1       5.385  -5.175  -4.531  0.00  0.00     0.067 H 
ATOM     29  H   LIG d   1       2.919  -3.730  -8.418  0.00  0.00     0.050 H 
ATOM     30  H   LIG d   1       4.629  -3.958  -8.919  0.00  0.00     0.050 H 
ENDROOT
BRANCH  13  31
ATOM     31  C   LIG d   1       4.465  -0.638  -4.261  0.00  0.00    -0.014 C 
ATOM     32  C   LIG d   1       3.386  -0.766  -3.183  0.00  0.00    -0.046 C 
ATOM     33  C   LIG d   1       3.267   0.556  -2.421  0.00  0.00    -0.052 C 
ATOM     34  H   LIG d   1       2.422  -1.004  -3.655  0.00  0.00     0.027 H 
ATOM     35  H   LIG d   1       3.661  -1.569  -2.483  0.00  0.00     0.027 H 
ATOM     36  C   LIG d   1       4.609   0.888  -1.763  0.00  0.00    -0.053 C 
ATOM     37  H   LIG d   1       2.492   0.464  -1.646  0.00  0.00     0.026 H 
ATOM     38  H   LIG d   1       2.994   1.359  -3.120  0.00  0.00     0.026 H 
ATOM     39  C   LIG d   1       5.688   1.016  -2.842  0.00  0.00    -0.052 C 
ATOM     40  H   LIG d   1       4.883   0.084  -1.064  0.00  0.00     0.026 H 
ATOM     41  H   LIG d   1       4.524   1.838  -1.216  0.00  0.00     0.026 H 
ATOM     42  C   LIG d   1       5.806  -0.307  -3.603  0.00  0.00    -0.046 C 
ATOM     43  H   LIG d   1       6.652   1.254  -2.369  0.00  0.00     0.026 H 
ATOM     44  H   LIG d   1       5.413   1.819  -3.541  0.00  0.00     0.026 H 
ATOM     45  H   LIG d   1       6.080  -1.110  -2.904  0.00  0.00     0.027 H 
ATOM     46  H   LIG d   1       6.582  -0.214  -4.378  0.00  0.00     0.027 H 
ATOM     47  H   LIG d   1       4.191   0.155  -4.972  0.00  0.00     0.035 H 
ENDBRANCH  13  31
BRANCH   1  48
ATOM     48  C   LIG d   1       9.109  -3.011  -8.561  0.00  0.00     0.019 C 
ATOM     49  H   LIG d   1       9.597  -2.325  -7.854  0.00  0.00     0.049 H 
BRANCH  48  50
ATOM     50  C   LIG d   1       8.902  -4.386  -7.924  0.00  0.00    -0.047 C 
ATOM     51  H   LIG d   1       9.858  -4.750  -7.518  0.00  0.00     0.025 H 
ATOM     52  H   LIG d   1       8.533  -5.091  -8.683  0.00  0.00     0.025 H 
ATOM     53  H   LIG d   1       8.166  -4.306  -7.110  0.00  0.00     0.025 H 
ENDBRANCH  48  50
BRANCH  48  54
ATOM     54  C   LIG d   1       9.947  -3.161  -9.833  0.00  0.00    -0.047 C 
ATOM     55  H   LIG d   1      10.713  -3.935  -9.678  0.00  0.00     0.025 H 
ATOM     56  H   LIG d   1      10.435  -2.203 -10.066  0.00  0.00     0.025 H 
ATOM     57  H   LIG d   1       9.295  -3.453 -10.669  0.00  0.00     0.025 H 
ENDBRANCH  48  54
ENDBRANCH   1  48
TORSDOF 4
ENDMDL
MODEL 4
REMARK VINA RESULT:      -5.9      2.643      4.622
REMARK  4 active torsions:
REMARK  status: ('A' for Active; 'I' for Inactive)
REMARK    1  A    between atoms: C_1  and  C_2 
REMARK    2  A    between atoms: C_2  and  C_3 
REMARK    3  A    between atoms: C_2  and  N_4 
REMARK       I    between atoms: N_4  and  C_5 
REMARK       I    between atoms: C_5  and  N_7 
REMARK    4  A    between atoms: C_16  and  C_23 
ROOT
ATOM      1  N   LIG d   1       3.672  -0.780  -6.964  0.00  0.00    -0.297 N 
ATOM      2  C   LIG d   1       4.910  -0.552  -6.482  0.00  0.00     0.302 C 
ATOM      3  O   LIG d   1       5.849  -0.441  -7.246  0.00  0.00    -0.253 OA
ATOM      4  N   LIG d   1       5.106  -0.446  -5.152  0.00  0.00    -0.285 N 
ATOM      5  C   LIG d   1       3.972  -0.469  -4.222  0.00  0.00     0.021 C 
ATOM      6  C   LIG d   1       4.223  -1.477  -3.109  0.00  0.00    -0.006 C 
ATOM      7  H   LIG d   1       3.439  -1.310  -2.356  0.00  0.00     0.033 H 
ATOM      8  C   LIG d   1       5.600  -1.269  -2.479  0.00  0.00    -0.037 C 
ATOM      9  C   LIG d   1       6.664  -1.404  -3.551  0.00  0.00     0.016 C 
ATOM     10  H   LIG d   1       7.653  -1.345  -3.072  0.00  0.00     0.038 H 
ATOM     11  C   LIG d   1       6.464  -0.308  -4.601  0.00  0.00     0.024 C 
ATOM     12  C   LIG d   1       6.485  -2.721  -4.269  0.00  0.00     0.030 A 
ATOM     13  C   LIG d   1       7.580  -3.256  -4.872  0.00  0.00    -0.024 A 
ATOM     14  C   LIG d   1       7.472  -4.420  -5.641  0.00  0.00    -0.051 A 
ATOM     15  C   LIG d   1       6.247  -5.001  -5.787  0.00  0.00     0.003 A 
ATOM     16  C   LIG d   1       5.141  -4.431  -5.144  0.00  0.00     0.252 A 
ATOM     17  O   LIG d   1       4.033  -4.921  -5.299  0.00  0.00    -0.268 OA
ATOM     18  N   LIG d   1       5.285  -3.342  -4.348  0.00  0.00    -0.311 N 
ATOM     19  C   LIG d   1       4.106  -2.909  -3.598  0.00  0.00     0.031 C 
ATOM     20  H   LIG d   1       2.809  -0.787  -6.281  0.00  0.00     0.150 HD
ATOM     21  H   LIG d   1       3.838   0.528  -3.779  0.00  0.00     0.047 H 
ATOM     22  H   LIG d   1       3.058  -0.754  -4.765  0.00  0.00     0.047 H 
ATOM     23  H   LIG d   1       5.651  -0.266  -2.031  0.00  0.00     0.028 H 
ATOM     24  H   LIG d   1       5.764  -2.027  -1.698  0.00  0.00     0.028 H 
ATOM     25  H   LIG d   1       7.201  -0.421  -5.410  0.00  0.00     0.047 H 
ATOM     26  H   LIG d   1       6.575   0.684  -4.140  0.00  0.00     0.047 H 
ATOM     27  H   LIG d   1       8.344  -4.850  -6.111  0.00  0.00     0.062 H 
ATOM     28  H   LIG d   1       6.132  -5.891  -6.390  0.00  0.00     0.067 H 
ATOM     29  H   LIG d   1       3.987  -3.583  -2.736  0.00  0.00     0.050 H 
ATOM     30  H   LIG d   1       3.231  -3.000  -4.259  0.00  0.00     0.050 H 
ENDROOT
BRANCH  13  31
ATOM     31  C   LIG d   1       8.921  -2.589  -4.710  0.00  0.00    -0.014 C 
ATOM     32  C   LIG d   1       9.933  -3.604  -4.172  0.00  0.00    -0.046 C 
ATOM     33  C   LIG d   1      11.296  -2.927  -4.007  0.00  0.00    -0.052 C 
ATOM     34  H   LIG d   1       9.591  -3.981  -3.197  0.00  0.00     0.027 H 
ATOM     35  H   LIG d   1      10.023  -4.442  -4.879  0.00  0.00     0.027 H 
ATOM     36  C   LIG d   1      11.772  -2.402  -5.364  0.00  0.00    -0.053 C 
ATOM     37  H   LIG d   1      12.023  -3.656  -3.621  0.00  0.00     0.026 H 
ATOM     38  H   LIG d   1      11.206  -2.089  -3.301  0.00  0.00     0.026 H 
ATOM     39  C   LIG d   1      10.760  -1.387  -5.901  0.00  0.00    -0.052 C 
ATOM     40  H   LIG d   1      11.861  -3.240  -6.071  0.00  0.00     0.026 H 
ATOM     41  H   LIG d   1      12.751  -1.915  -5.245  0.00  0.00     0.026 H 
ATOM     42  C   LIG d   1       9.398  -2.065  -6.066  0.00  0.00    -0.046 C 
ATOM     43  H   LIG d   1      11.102  -1.010  -6.876  0.00  0.00     0.026 H 
ATOM     44  H   LIG d   1      10.670  -0.549  -5.194  0.00  0.00     0.026 H 
ATOM     45  H   LIG d   1       9.487  -2.903  -6.772  0.00  0.00     0.027 H 
ATOM     46  H   LIG d   1       8.670  -1.335  -6.452  0.00  0.00     0.027 H 
ATOM     47  H   LIG d   1       8.817  -1.755  -4.002  0.00  0.00     0.035 H 
ENDBRANCH  13  31
BRANCH   1  48
ATOM     48  C   LIG d   1       3.476  -1.021  -8.395  0.00  0.00     0.019 C 
ATOM     49  H   LIG d   1       4.323  -0.556  -8.921  0.00  0.00     0.049 H 
BRANCH  48  50
ATOM     50  C   LIG d   1       3.438  -2.527  -8.659  0.00  0.00    -0.047 C 
ATOM     51  H   LIG d   1       2.431  -2.814  -8.996  0.00  0.00     0.025 H 
ATOM     52  H   LIG d   1       3.683  -3.068  -7.733  0.00  0.00     0.025 H 
ATOM     53  H   LIG d   1       4.171  -2.782  -9.438  0.00  0.00     0.025 H 
ENDBRANCH  48  50
BRANCH  48  54
ATOM     54  C   LIG d   1       2.154  -0.391  -8.842  0.00  0.00    -0.047 C 
ATOM     55  H   LIG d   1       1.396  -0.538  -8.058  0.00  0.00     0.025 H 
ATOM     56  H   LIG d   1       1.817  -0.868  -9.773  0.00  0.00     0.025 H 
ATOM     57  H   LIG d   1       2.301   0.685  -9.013  0.00  0.00     0.025 H 
ENDBRANCH  48  54
ENDBRANCH   1  48
TORSDOF 4
ENDMDL
MODEL 5
REMARK VINA RESULT:      -5.8      3.073      6.162
REMARK  4 active torsions:
REMARK  status: ('A' for Active; 'I' for Inactive)
REMARK    1  A    between atoms: C_1  and  C_2 
REMARK    2  A    between atoms: C_2  and  C_3 
REMARK    3  A    between atoms: C_2  and  N_4 
REMARK       I    between atoms: N_4  and  C_5 
REMARK       I    between atoms: C_5  and  N_7 
REMARK    4  A    between atoms: C_16  and  C_23 
ROOT
ATOM      1  N   LIG d   1       3.945  -3.989  -9.683  0.00  0.00    -0.297 N 
ATOM      2  C   LIG d   1       4.421  -3.838  -8.431  0.00  0.00     0.302 C 
ATOM      3  O   LIG d   1       3.771  -4.233  -7.482  0.00  0.00    -0.253 OA
ATOM      4  N   LIG d   1       5.617  -3.250  -8.231  0.00  0.00    -0.285 N 
ATOM      5  C   LIG d   1       6.462  -2.864  -9.367  0.00  0.00     0.021 C 
ATOM      6  C   LIG d   1       6.916  -1.418  -9.220  0.00  0.00    -0.006 C 
ATOM      7  H   LIG d   1       7.687  -1.254  -9.988  0.00  0.00     0.033 H 
ATOM      8  C   LIG d   1       7.504  -1.163  -7.833  0.00  0.00    -0.037 C 
ATOM      9  C   LIG d   1       6.460  -1.489  -6.782  0.00  0.00     0.016 C 
ATOM     10  H   LIG d   1       6.861  -1.216  -5.795  0.00  0.00     0.038 H 
ATOM     11  C   LIG d   1       6.103  -2.976  -6.869  0.00  0.00     0.024 C 
ATOM     12  C   LIG d   1       5.191  -0.727  -7.085  0.00  0.00     0.030 A 
ATOM     13  C   LIG d   1       4.355  -0.472  -6.044  0.00  0.00    -0.024 A 
ATOM     14  C   LIG d   1       3.114   0.139  -6.262  0.00  0.00    -0.051 A 
ATOM     15  C   LIG d   1       2.754   0.462  -7.537  0.00  0.00     0.003 A 
ATOM     16  C   LIG d   1       3.644   0.195  -8.586  0.00  0.00     0.252 A 
ATOM     17  O   LIG d   1       3.315   0.444  -9.735  0.00  0.00    -0.268 OA
ATOM     18  N   LIG d   1       4.868  -0.335  -8.340  0.00  0.00    -0.311 N 
ATOM     19  C   LIG d   1       5.786  -0.437  -9.474  0.00  0.00     0.031 C 
ATOM     20  H   LIG d   1       4.571  -3.717 -10.546  0.00  0.00     0.150 HD
ATOM     21  H   LIG d   1       7.348  -3.515  -9.405  0.00  0.00     0.047 H 
ATOM     22  H   LIG d   1       5.891  -2.968 -10.302  0.00  0.00     0.047 H 
ATOM     23  H   LIG d   1       8.388  -1.801  -7.686  0.00  0.00     0.028 H 
ATOM     24  H   LIG d   1       7.797  -0.106  -7.747  0.00  0.00     0.028 H 
ATOM     25  H   LIG d   1       5.313  -3.218  -6.143  0.00  0.00     0.047 H 
ATOM     26  H   LIG d   1       6.990  -3.592  -6.665  0.00  0.00     0.047 H 
ATOM     27  H   LIG d   1       2.455   0.352  -5.434  0.00  0.00     0.062 H 
ATOM     28  H   LIG d   1       1.795   0.918  -7.736  0.00  0.00     0.067 H 
ATOM     29  H   LIG d   1       6.203   0.563  -9.663  0.00  0.00     0.050 H 
ATOM     30  H   LIG d   1       5.206  -0.763 -10.351  0.00  0.00     0.050 H 
ENDROOT
BRANCH  13  31
ATOM     31  C   LIG d   1       4.766  -0.849  -4.645  0.00  0.00    -0.014 C 
ATOM     32  C   LIG d   1       4.971   0.420  -3.814  0.00  0.00    -0.046 C 
ATOM     33  C   LIG d   1       5.390   0.036  -2.393  0.00  0.00    -0.052 C 
ATOM     34  H   LIG d   1       5.758   1.036  -4.274  0.00  0.00     0.027 H 
ATOM     35  H   LIG d   1       4.031   0.990  -3.779  0.00  0.00     0.027 H 
ATOM     36  C   LIG d   1       4.296  -0.821  -1.753  0.00  0.00    -0.053 C 
ATOM     37  H   LIG d   1       5.537   0.948  -1.796  0.00  0.00     0.026 H 
ATOM     38  H   LIG d   1       6.329  -0.535  -2.429  0.00  0.00     0.026 H 
ATOM     39  C   LIG d   1       4.091  -2.090  -2.584  0.00  0.00    -0.052 C 
ATOM     40  H   LIG d   1       3.356  -0.251  -1.718  0.00  0.00     0.026 H 
ATOM     41  H   LIG d   1       4.597  -1.097  -0.731  0.00  0.00     0.026 H 
ATOM     42  C   LIG d   1       3.672  -1.706  -4.005  0.00  0.00    -0.046 C 
ATOM     43  H   LIG d   1       3.304  -2.706  -2.125  0.00  0.00     0.026 H 
ATOM     44  H   LIG d   1       5.031  -2.661  -2.620  0.00  0.00     0.026 H 
ATOM     45  H   LIG d   1       2.733  -1.135  -3.970  0.00  0.00     0.027 H 
ATOM     46  H   LIG d   1       3.525  -2.619  -4.603  0.00  0.00     0.027 H 
ATOM     47  H   LIG d   1       5.706  -1.419  -4.696  0.00  0.00     0.035 H 
ENDBRANCH  13  31
BRANCH   1  48
ATOM     48  C   LIG d   1       2.593  -4.512  -9.894  0.00  0.00     0.019 C 
ATOM     49  H   LIG d   1       2.276  -4.982  -8.952  0.00  0.00     0.049 H 
BRANCH  48  50
ATOM     50  C   LIG d   1       1.654  -3.364 -10.268  0.00  0.00    -0.047 C 
ATOM     51  H   LIG d   1       1.366  -2.815  -9.359  0.00  0.00     0.025 H 
ATOM     52  H   LIG d   1       0.754  -3.769 -10.752  0.00  0.00     0.025 H 
ATOM     53  H   LIG d   1       2.167  -2.681 -10.961  0.00  0.00     0.025 H 
ENDBRANCH  48  50
BRANCH  48  54
ATOM     54  C   LIG d   1       2.616  -5.540 -11.028  0.00  0.00    -0.047 C 
ATOM     55  H   LIG d   1       2.802  -5.028 -11.984  0.00  0.00     0.025 H 
ATOM     56  H   LIG d   1       1.648  -6.061 -11.072  0.00  0.00     0.025 H 
ATOM     57  H   LIG d   1       3.417  -6.271 -10.843  0.00  0.00     0.025 H 
ENDBRANCH  48  54
ENDBRANCH   1  48
TORSDOF 4
ENDMDL
MODEL 6
REMARK VINA RESULT:      -5.7      2.885      5.598
REMARK  4 active torsions:
REMARK  status: ('A' for Active; 'I' for Inactive)
REMARK    1  A    between atoms: C_1  and  C_2 
REMARK    2  A    between atoms: C_2  and  C_3 
REMARK    3  A    between atoms: C_2  and  N_4 
REMARK       I    between atoms: N_4  and  C_5 
REMARK       I    between atoms: C_5  and  N_7 
REMARK    4  A    between atoms: C_16  and  C_23 
ROOT
ATOM      1  N   LIG d   1       8.959  -2.018  -8.521  0.00  0.00    -0.297 N 
ATOM      2  C   LIG d   1       7.960  -1.402  -7.857  0.00  0.00     0.302 C 
ATOM      3  O   LIG d   1       8.167  -0.346  -7.291  0.00  0.00    -0.253 OA
ATOM      4  N   LIG d   1       6.731  -1.956  -7.824  0.00  0.00    -0.285 N 
ATOM      5  C   LIG d   1       6.435  -3.172  -8.590  0.00  0.00     0.021 C 
ATOM      6  C   LIG d   1       5.770  -4.209  -7.696  0.00  0.00    -0.006 C 
ATOM      7  H   LIG d   1       5.406  -5.006  -8.362  0.00  0.00     0.033 H 
ATOM      8  C   LIG d   1       4.597  -3.602  -6.926  0.00  0.00    -0.037 C 
ATOM      9  C   LIG d   1       5.099  -2.441  -6.090  0.00  0.00     0.016 C 
ATOM     10  H   LIG d   1       4.267  -2.070  -5.471  0.00  0.00     0.038 H 
ATOM     11  C   LIG d   1       5.658  -1.356  -7.014  0.00  0.00     0.024 C 
ATOM     12  C   LIG d   1       6.251  -2.906  -5.231  0.00  0.00     0.030 A 
ATOM     13  C   LIG d   1       6.494  -2.213  -4.086  0.00  0.00    -0.024 A 
ATOM     14  C   LIG d   1       7.604  -2.519  -3.291  0.00  0.00    -0.051 A 
ATOM     15  C   LIG d   1       8.445  -3.515  -3.690  0.00  0.00     0.003 A 
ATOM     16  C   LIG d   1       8.161  -4.216  -4.869  0.00  0.00     0.252 A 
ATOM     17  O   LIG d   1       8.929  -5.084  -5.256  0.00  0.00    -0.268 OA
ATOM     18  N   LIG d   1       7.041  -3.945  -5.585  0.00  0.00    -0.311 N 
ATOM     19  C   LIG d   1       6.747  -4.828  -6.714  0.00  0.00     0.031 C 
ATOM     20  H   LIG d   1       8.751  -2.923  -9.110  0.00  0.00     0.150 HD
ATOM     21  H   LIG d   1       5.758  -2.928  -9.421  0.00  0.00     0.047 H 
ATOM     22  H   LIG d   1       7.371  -3.590  -8.990  0.00  0.00     0.047 H 
ATOM     23  H   LIG d   1       3.837  -3.245  -7.637  0.00  0.00     0.028 H 
ATOM     24  H   LIG d   1       4.154  -4.366  -6.270  0.00  0.00     0.028 H 
ATOM     25  H   LIG d   1       6.067  -0.526  -6.419  0.00  0.00     0.047 H 
ATOM     26  H   LIG d   1       4.867  -0.977  -7.677  0.00  0.00     0.047 H 
ATOM     27  H   LIG d   1       7.790  -1.976  -2.376  0.00  0.00     0.062 H 
ATOM     28  H   LIG d   1       9.320  -3.760  -3.104  0.00  0.00     0.067 H 
ATOM     29  H   LIG d   1       6.324  -5.761  -6.313  0.00  0.00     0.050 H 
ATOM     30  H   LIG d   1       7.695  -5.047  -7.229  0.00  0.00     0.050 H 
ENDROOT
BRANCH  13  31
ATOM     31  C   LIG d   1       5.559  -1.107  -3.671  0.00  0.00    -0.014 C 
ATOM     32  C   LIG d   1       4.742  -1.558  -2.457  0.00  0.00    -0.046 C 
ATOM     33  C   LIG d   1       3.793  -0.435  -2.035  0.00  0.00    -0.052 C 
ATOM     34  H   LIG d   1       4.158  -2.452  -2.721  0.00  0.00     0.027 H 
ATOM     35  H   LIG d   1       5.422  -1.796  -1.626  0.00  0.00     0.027 H 
ATOM     36  C   LIG d   1       4.605   0.809  -1.669  0.00  0.00    -0.053 C 
ATOM     37  H   LIG d   1       3.206  -0.759  -1.164  0.00  0.00     0.026 H 
ATOM     38  H   LIG d   1       3.114  -0.197  -2.866  0.00  0.00     0.026 H 
ATOM     39  C   LIG d   1       5.422   1.260  -2.882  0.00  0.00    -0.052 C 
ATOM     40  H   LIG d   1       5.285   0.571  -0.837  0.00  0.00     0.026 H 
ATOM     41  H   LIG d   1       3.923   1.617  -1.365  0.00  0.00     0.026 H 
ATOM     42  C   LIG d   1       6.372   0.137  -3.303  0.00  0.00    -0.046 C 
ATOM     43  H   LIG d   1       6.007   2.154  -2.618  0.00  0.00     0.026 H 
ATOM     44  H   LIG d   1       4.742   1.498  -3.714  0.00  0.00     0.026 H 
ATOM     45  H   LIG d   1       7.051  -0.101  -2.472  0.00  0.00     0.027 H 
ATOM     46  H   LIG d   1       6.958   0.462  -4.176  0.00  0.00     0.027 H 
ATOM     47  H   LIG d   1       4.887  -0.880  -4.510  0.00  0.00     0.035 H 
ENDBRANCH  13  31
BRANCH   1  48
ATOM     48  C   LIG d   1      10.321  -1.484  -8.453  0.00  0.00     0.019 C 
ATOM     49  H   LIG d   1      10.264  -0.511  -7.944  0.00  0.00     0.049 H 
BRANCH  48  50
ATOM     50  C   LIG d   1      11.210  -2.452  -7.670  0.00  0.00    -0.047 C 
ATOM     51  H   LIG d   1      10.948  -3.487  -7.935  0.00  0.00     0.025 H 
ATOM     52  H   LIG d   1      11.057  -2.299  -6.591  0.00  0.00     0.025 H 
ATOM     53  H   LIG d   1      12.265  -2.266  -7.920  0.00  0.00     0.025 H 
ENDBRANCH  48  50
BRANCH  48  54
ATOM     54  C   LIG d   1      10.874  -1.319  -9.871  0.00  0.00    -0.047 C 
ATOM     55  H   LIG d   1      10.837  -0.257 -10.157  0.00  0.00     0.025 H 
ATOM     56  H   LIG d   1      10.268  -1.910 -10.573  0.00  0.00     0.025 H 
ATOM     57  H   LIG d   1      11.916  -1.670  -9.901  0.00  0.00     0.025 H 
ENDBRANCH  48  54
ENDBRANCH   1  48
TORSDOF 4
ENDMDL
MODEL 7
REMARK VINA RESULT:      -5.6      2.287      4.400
REMARK  4 active torsions:
REMARK  status: ('A' for Active; 'I' for Inactive)
REMARK    1  A    between atoms: C_1  and  C_2 
REMARK    2  A    between atoms: C_2  and  C_3 
REMARK    3  A    between atoms: C_2  and  N_4 
REMARK       I    between atoms: N_4  and  C_5 
REMARK       I    between atoms: C_5  and  N_7 
REMARK    4  A    between atoms: C_16  and  C_23 
ROOT
ATOM      1  N   LIG d   1       7.801  -3.007  -3.460  0.00  0.00    -0.297 N 
ATOM      2  C   LIG d   1       6.638  -3.052  -4.141  0.00  0.00     0.302 C 
ATOM      3  O   LIG d   1       6.544  -3.740  -5.139  0.00  0.00    -0.253 OA
ATOM      4  N   LIG d   1       5.579  -2.335  -3.713  0.00  0.00    -0.285 N 
ATOM      5  C   LIG d   1       5.640  -1.585  -2.454  0.00  0.00     0.021 C 
ATOM      6  C   LIG d   1       5.181  -0.150  -2.671  0.00  0.00    -0.006 C 
ATOM      7  H   LIG d   1       5.068   0.295  -1.672  0.00  0.00     0.033 H 
ATOM      8  C   LIG d   1       3.844  -0.106  -3.412  0.00  0.00    -0.037 C 
ATOM      9  C   LIG d   1       3.990  -0.813  -4.745  0.00  0.00     0.016 C 
ATOM     10  H   LIG d   1       3.052  -0.696  -5.308  0.00  0.00     0.038 H 
ATOM     11  C   LIG d   1       4.338  -2.284  -4.502  0.00  0.00     0.024 C 
ATOM     12  C   LIG d   1       5.156  -0.218  -5.500  0.00  0.00     0.030 A 
ATOM     13  C   LIG d   1       5.141  -0.329  -6.856  0.00  0.00    -0.024 A 
ATOM     14  C   LIG d   1       6.232   0.107  -7.617  0.00  0.00    -0.051 A 
ATOM     15  C   LIG d   1       7.315   0.632  -6.976  0.00  0.00     0.003 A 
ATOM     16  C   LIG d   1       7.293   0.742  -5.579  0.00  0.00     0.252 A 
ATOM     17  O   LIG d   1       8.273   1.175  -4.991  0.00  0.00    -0.268 OA
ATOM     18  N   LIG d   1       6.196   0.376  -4.870  0.00  0.00    -0.311 N 
ATOM     19  C   LIG d   1       6.205   0.668  -3.437  0.00  0.00     0.031 C 
ATOM     20  H   LIG d   1       7.859  -2.460  -2.507  0.00  0.00     0.150 HD
ATOM     21  H   LIG d   1       4.986  -2.062  -1.709  0.00  0.00     0.047 H 
ATOM     22  H   LIG d   1       6.675  -1.578  -2.080  0.00  0.00     0.047 H 
ATOM     23  H   LIG d   1       3.074  -0.610  -2.809  0.00  0.00     0.028 H 
ATOM     24  H   LIG d   1       3.551   0.941  -3.578  0.00  0.00     0.028 H 
ATOM     25  H   LIG d   1       4.492  -2.799  -5.462  0.00  0.00     0.047 H 
ATOM     26  H   LIG d   1       3.528  -2.778  -3.946  0.00  0.00     0.047 H 
ATOM     27  H   LIG d   1       6.216   0.029  -8.694  0.00  0.00     0.062 H 
ATOM     28  H   LIG d   1       8.178   0.960  -7.537  0.00  0.00     0.067 H 
ATOM     29  H   LIG d   1       5.990   1.739  -3.308  0.00  0.00     0.050 H 
ATOM     30  H   LIG d   1       7.212   0.447  -3.052  0.00  0.00     0.050 H 
ENDROOT
BRANCH  13  31
ATOM     31  C   LIG d   1       3.941  -0.925  -7.543  0.00  0.00    -0.014 C 
ATOM     32  C   LIG d   1       3.262   0.145  -8.403  0.00  0.00    -0.046 C 
ATOM     33  C   LIG d   1       2.043  -0.460  -9.101  0.00  0.00    -0.052 C 
ATOM     34  H   LIG d   1       2.941   0.980  -7.763  0.00  0.00     0.027 H 
ATOM     35  H   LIG d   1       3.973   0.513  -9.158  0.00  0.00     0.027 H 
ATOM     36  C   LIG d   1       2.490  -1.622  -9.992  0.00  0.00    -0.053 C 
ATOM     37  H   LIG d   1       1.555   0.308  -9.719  0.00  0.00     0.026 H 
ATOM     38  H   LIG d   1       1.333  -0.829  -8.347  0.00  0.00     0.026 H 
ATOM     39  C   LIG d   1       3.168  -2.692  -9.132  0.00  0.00    -0.052 C 
ATOM     40  H   LIG d   1       3.200  -1.254 -10.747  0.00  0.00     0.026 H 
ATOM     41  H   LIG d   1       1.613  -2.058 -10.494  0.00  0.00     0.026 H 
ATOM     42  C   LIG d   1       4.388  -2.086  -8.434  0.00  0.00    -0.046 C 
ATOM     43  H   LIG d   1       3.489  -3.527  -9.772  0.00  0.00     0.026 H 
ATOM     44  H   LIG d   1       2.458  -3.060  -8.377  0.00  0.00     0.026 H 
ATOM     45  H   LIG d   1       5.097  -1.717  -9.189  0.00  0.00     0.027 H 
ATOM     46  H   LIG d   1       4.875  -2.855  -7.816  0.00  0.00     0.027 H 
ATOM     47  H   LIG d   1       3.241  -1.288  -6.778  0.00  0.00     0.035 H 
ENDBRANCH  13  31
BRANCH   1  48
ATOM     48  C   LIG d   1       8.986  -3.684  -3.991  0.00  0.00     0.019 C 
ATOM     49  H   LIG d   1       8.632  -4.508  -4.626  0.00  0.00     0.049 H 
BRANCH  48  50
ATOM     50  C   LIG d   1       9.817  -2.692  -4.807  0.00  0.00    -0.047 C 
ATOM     51  H   LIG d   1       9.287  -1.730  -4.865  0.00  0.00     0.025 H 
ATOM     52  H   LIG d   1       9.969  -3.089  -5.822  0.00  0.00     0.025 H 
ATOM     53  H   LIG d   1      10.793  -2.544  -4.322  0.00  0.00     0.025 H 
ENDBRANCH  48  50
BRANCH  48  54
ATOM     54  C   LIG d   1       9.829  -4.220  -2.831  0.00  0.00    -0.047 C 
ATOM     55  H   LIG d   1      10.202  -3.378  -2.229  0.00  0.00     0.025 H 
ATOM     56  H   LIG d   1      10.680  -4.792  -3.229  0.00  0.00     0.025 H 
ATOM     57  H   LIG d   1       9.210  -4.875  -2.201  0.00  0.00     0.025 H 
ENDBRANCH  48  54
ENDBRANCH   1  48
TORSDOF 4
ENDMDL
MODEL 8
REMARK VINA RESULT:      -5.6      3.108      5.611
REMARK  4 active torsions:
REMARK  status: ('A' for Active; 'I' for Inactive)
REMARK    1  A    between atoms: C_1  and  C_2 
REMARK    2  A    between atoms: C_2  and  C_3 
REMARK    3  A    between atoms: C_2  and  N_4 
REMARK       I    between atoms: N_4  and  C_5 
REMARK       I    between atoms: C_5  and  N_7 
REMARK    4  A    between atoms: C_16  and  C_23 
ROOT
ATOM      1  N   LIG d   1      11.386   0.476  -5.460  0.00  0.00    -0.297 N 
ATOM      2  C   LIG d   1      10.124   0.934  -5.335  0.00  0.00     0.302 C 
ATOM      3  O   LIG d   1       9.770   1.466  -4.301  0.00  0.00    -0.253 OA
ATOM      4  N   LIG d   1       9.255   0.804  -6.358  0.00  0.00    -0.285 N 
ATOM      5  C   LIG d   1       9.693   0.262  -7.650  0.00  0.00     0.021 C 
ATOM      6  C   LIG d   1       8.755  -0.848  -8.101  0.00  0.00    -0.006 C 
ATOM      7  H   LIG d   1       9.021  -1.075  -9.145  0.00  0.00     0.033 H 
ATOM      8  C   LIG d   1       7.295  -0.401  -8.024  0.00  0.00    -0.037 C 
ATOM      9  C   LIG d   1       6.973   0.002  -6.598  0.00  0.00     0.016 C 
ATOM     10  H   LIG d   1       5.899   0.234  -6.534  0.00  0.00     0.038 H 
ATOM     11  C   LIG d   1       7.846   1.196  -6.202  0.00  0.00     0.024 C 
ATOM     12  C   LIG d   1       7.344  -1.126  -5.664  0.00  0.00     0.030 A 
ATOM     13  C   LIG d   1       6.691  -1.187  -4.473  0.00  0.00    -0.024 A 
ATOM     14  C   LIG d   1       7.050  -2.142  -3.513  0.00  0.00    -0.051 A 
ATOM     15  C   LIG d   1       8.074  -2.999  -3.788  0.00  0.00     0.003 A 
ATOM     16  C   LIG d   1       8.719  -2.916  -5.030  0.00  0.00     0.252 A 
ATOM     17  O   LIG d   1       9.662  -3.653  -5.271  0.00  0.00    -0.268 OA
ATOM     18  N   LIG d   1       8.306  -2.027  -5.968  0.00  0.00    -0.311 N 
ATOM     19  C   LIG d   1       8.935  -2.115  -7.286  0.00  0.00     0.031 C 
ATOM     20  H   LIG d   1      11.733   0.079  -6.426  0.00  0.00     0.150 HD
ATOM     21  H   LIG d   1       9.691   1.062  -8.404  0.00  0.00     0.047 H 
ATOM     22  H   LIG d   1      10.711  -0.145  -7.551  0.00  0.00     0.047 H 
ATOM     23  H   LIG d   1       7.138   0.455  -8.695  0.00  0.00     0.028 H 
ATOM     24  H   LIG d   1       6.641  -1.232  -8.330  0.00  0.00     0.028 H 
ATOM     25  H   LIG d   1       7.655   1.473  -5.154  0.00  0.00     0.047 H 
ATOM     26  H   LIG d   1       7.630   2.056  -6.852  0.00  0.00     0.047 H 
ATOM     27  H   LIG d   1       6.524  -2.198  -2.572  0.00  0.00     0.062 H 
ATOM     28  H   LIG d   1       8.384  -3.734  -3.059  0.00  0.00     0.067 H 
ATOM     29  H   LIG d   1       8.484  -2.964  -7.821  0.00  0.00     0.050 H 
ATOM     30  H   LIG d   1      10.009  -2.306  -7.137  0.00  0.00     0.050 H 
ENDROOT
BRANCH  13  31
ATOM     31  C   LIG d   1       5.573  -0.221  -4.183  0.00  0.00    -0.014 C 
ATOM     32  C   LIG d   1       4.247  -0.984  -4.106  0.00  0.00    -0.046 C 
ATOM     33  C   LIG d   1       3.111  -0.002  -3.812  0.00  0.00    -0.052 C 
ATOM     34  H   LIG d   1       4.058  -1.487  -5.066  0.00  0.00     0.027 H 
ATOM     35  H   LIG d   1       4.302  -1.733  -3.303  0.00  0.00     0.027 H 
ATOM     36  C   LIG d   1       3.374   0.698  -2.478  0.00  0.00    -0.053 C 
ATOM     37  H   LIG d   1       2.159  -0.550  -3.757  0.00  0.00     0.026 H 
ATOM     38  H   LIG d   1       3.057   0.747  -4.615  0.00  0.00     0.026 H 
ATOM     39  C   LIG d   1       4.699   1.461  -2.555  0.00  0.00    -0.052 C 
ATOM     40  H   LIG d   1       3.429  -0.051  -1.674  0.00  0.00     0.026 H 
ATOM     41  H   LIG d   1       2.557   1.404  -2.266  0.00  0.00     0.026 H 
ATOM     42  C   LIG d   1       5.836   0.479  -2.848  0.00  0.00    -0.046 C 
ATOM     43  H   LIG d   1       4.889   1.964  -1.595  0.00  0.00     0.026 H 
ATOM     44  H   LIG d   1       4.645   2.210  -3.358  0.00  0.00     0.026 H 
ATOM     45  H   LIG d   1       5.890  -0.271  -2.046  0.00  0.00     0.027 H 
ATOM     46  H   LIG d   1       6.788   1.027  -2.904  0.00  0.00     0.027 H 
ATOM     47  H   LIG d   1       5.530   0.521  -4.993  0.00  0.00     0.035 H 
ENDBRANCH  13  31
BRANCH   1  48
ATOM     48  C   LIG d   1      12.292   0.503  -4.310  0.00  0.00     0.019 C 
ATOM     49  H   LIG d   1      11.703   0.830  -3.440  0.00  0.00     0.049 H 
BRANCH  48  50
ATOM     50  C   LIG d   1      12.865  -0.896  -4.078  0.00  0.00    -0.047 C 
ATOM     51  H   LIG d   1      13.891  -0.942  -4.473  0.00  0.00     0.025 H 
ATOM     52  H   LIG d   1      12.239  -1.639  -4.594  0.00  0.00     0.025 H 
ATOM     53  H   LIG d   1      12.878  -1.113  -3.000  0.00  0.00     0.025 H 
ENDBRANCH  48  50
BRANCH  48  54
ATOM     54  C   LIG d   1      13.435   1.482  -4.585  0.00  0.00    -0.047 C 
ATOM     55  H   LIG d   1      13.322   1.903  -5.596  0.00  0.00     0.025 H 
ATOM     56  H   LIG d   1      14.397   0.954  -4.513  0.00  0.00     0.025 H 
ATOM     57  H   LIG d   1      13.408   2.296  -3.845  0.00  0.00     0.025 H 
ENDBRANCH  48  54
ENDBRANCH   1  48
TORSDOF 4
ENDMDL
MODEL 9
REMARK VINA RESULT:      -5.6      3.266      5.845
REMARK  4 active torsions:
REMARK  status: ('A' for Active; 'I' for Inactive)
REMARK    1  A    between atoms: C_1  and  C_2 
REMARK    2  A    between atoms: C_2  and  C_3 
REMARK    3  A    between atoms: C_2  and  N_4 
REMARK       I    between atoms: N_4  and  C_5 
REMARK       I    between atoms: C_5  and  N_7 
REMARK    4  A    between atoms: C_16  and  C_23 
ROOT
ATOM      1  N   LIG d   1       6.610  -0.795 -10.849  0.00  0.00    -0.297 N 
ATOM      2  C   LIG d   1       6.339  -0.076  -9.741  0.00  0.00     0.302 C 
ATOM      3  O   LIG d   1       7.191   0.066  -8.885  0.00  0.00    -0.253 OA
ATOM      4  N   LIG d   1       5.124   0.487  -9.584  0.00  0.00    -0.285 N 
ATOM      5  C   LIG d   1       4.121   0.417 -10.653  0.00  0.00     0.021 C 
ATOM      6  C   LIG d   1       2.793  -0.079 -10.098  0.00  0.00    -0.006 C 
ATOM      7  H   LIG d   1       2.048   0.073 -10.894  0.00  0.00     0.033 H 
ATOM      8  C   LIG d   1       2.388   0.709  -8.852  0.00  0.00    -0.037 C 
ATOM      9  C   LIG d   1       3.473   0.570  -7.802  0.00  0.00     0.016 C 
ATOM     10  H   LIG d   1       3.132   1.062  -6.879  0.00  0.00     0.038 H 
ATOM     11  C   LIG d   1       4.773   1.180  -8.335  0.00  0.00     0.024 C 
ATOM     12  C   LIG d   1       3.755  -0.895  -7.566  0.00  0.00     0.030 A 
ATOM     13  C   LIG d   1       4.280  -1.241  -6.360  0.00  0.00    -0.024 A 
ATOM     14  C   LIG d   1       4.663  -2.563  -6.104  0.00  0.00    -0.051 A 
ATOM     15  C   LIG d   1       4.512  -3.495  -7.088  0.00  0.00     0.003 A 
ATOM     16  C   LIG d   1       3.958  -3.107  -8.315  0.00  0.00     0.252 A 
ATOM     17  O   LIG d   1       3.854  -3.925  -9.217  0.00  0.00    -0.268 OA
ATOM     18  N   LIG d   1       3.533  -1.835  -8.514  0.00  0.00    -0.311 N 
ATOM     19  C   LIG d   1       2.829  -1.559  -9.766  0.00  0.00     0.031 C 
ATOM     20  H   LIG d   1       5.874  -0.846 -11.665  0.00  0.00     0.150 HD
ATOM     21  H   LIG d   1       3.977   1.417 -11.088  0.00  0.00     0.047 H 
ATOM     22  H   LIG d   1       4.465  -0.277 -11.435  0.00  0.00     0.047 H 
ATOM     23  H   LIG d   1       2.260   1.769  -9.114  0.00  0.00     0.028 H 
ATOM     24  H   LIG d   1       1.440   0.311  -8.459  0.00  0.00     0.028 H 
ATOM     25  H   LIG d   1       5.582   1.047  -7.601  0.00  0.00     0.047 H 
ATOM     26  H   LIG d   1       4.634   2.252  -8.536  0.00  0.00     0.047 H 
ATOM     27  H   LIG d   1       5.069  -2.840  -5.142  0.00  0.00     0.062 H 
ATOM     28  H   LIG d   1       4.815  -4.519  -6.923  0.00  0.00     0.067 H 
ATOM     29  H   LIG d   1       1.802  -1.939  -9.669  0.00  0.00     0.050 H 
ATOM     30  H   LIG d   1       3.346  -2.103 -10.572  0.00  0.00     0.050 H 
ENDROOT
BRANCH  13  31
ATOM     31  C   LIG d   1       4.452  -0.194  -5.291  0.00  0.00    -0.014 C 
ATOM     32  C   LIG d   1       3.269  -0.257  -4.321  0.00  0.00    -0.046 C 
ATOM     33  C   LIG d   1       3.442   0.808  -3.236  0.00  0.00    -0.052 C 
ATOM     34  H   LIG d   1       2.334  -0.071  -4.871  0.00  0.00     0.027 H 
ATOM     35  H   LIG d   1       3.230  -1.253  -3.856  0.00  0.00     0.027 H 
ATOM     36  C   LIG d   1       4.743   0.549  -2.472  0.00  0.00    -0.053 C 
ATOM     37  H   LIG d   1       2.593   0.762  -2.539  0.00  0.00     0.026 H 
ATOM     38  H   LIG d   1       3.483   1.803  -3.701  0.00  0.00     0.026 H 
ATOM     39  C   LIG d   1       5.926   0.613  -3.442  0.00  0.00    -0.052 C 
ATOM     40  H   LIG d   1       4.703  -0.447  -2.006  0.00  0.00     0.026 H 
ATOM     41  H   LIG d   1       4.868   1.315  -1.691  0.00  0.00     0.026 H 
ATOM     42  C   LIG d   1       5.751  -0.452  -4.527  0.00  0.00    -0.046 C 
ATOM     43  H   LIG d   1       6.860   0.427  -2.892  0.00  0.00     0.026 H 
ATOM     44  H   LIG d   1       5.965   1.609  -3.907  0.00  0.00     0.026 H 
ATOM     45  H   LIG d   1       5.711  -1.448  -4.061  0.00  0.00     0.027 H 
ATOM     46  H   LIG d   1       6.602  -0.407  -5.224  0.00  0.00     0.027 H 
ATOM     47  H   LIG d   1       4.490   0.795  -5.770  0.00  0.00     0.035 H 
ENDBRANCH  13  31
BRANCH   1  48
ATOM     48  C   LIG d   1       7.883  -1.511 -10.964  0.00  0.00     0.019 C 
ATOM     49  H   LIG d   1       8.563  -1.086 -10.211  0.00  0.00     0.049 H 
BRANCH  48  50
ATOM     50  C   LIG d   1       7.656  -3.001 -10.707  0.00  0.00    -0.047 C 
ATOM     51  H   LIG d   1       6.710  -3.313 -11.173  0.00  0.00     0.025 H 
ATOM     52  H   LIG d   1       7.609  -3.184  -9.623  0.00  0.00     0.025 H 
ATOM     53  H   LIG d   1       8.486  -3.579 -11.140  0.00  0.00     0.025 H 
ENDBRANCH  48  50
BRANCH  48  54
ATOM     54  C   LIG d   1       8.451  -1.317 -12.372  0.00  0.00    -0.047 C 
ATOM     55  H   LIG d   1       8.952  -2.242 -12.695  0.00  0.00     0.025 H 
ATOM     56  H   LIG d   1       9.175  -0.490 -12.366  0.00  0.00     0.025 H 
ATOM     57  H   LIG d   1       7.632  -1.083 -13.068  0.00  0.00     0.025 H 
ENDBRANCH  48  54
ENDBRANCH   1  48
TORSDOF 4
ENDMDL
MODEL 10
REMARK VINA RESULT:      -5.5      2.749      5.843
REMARK  4 active torsions:
REMARK  status: ('A' for Active; 'I' for Inactive)
REMARK    1  A    between atoms: C_1  and  C_2 
REMARK    2  A    between atoms: C_2  and  C_3 
REMARK    3  A    between atoms: C_2  and  N_4 
REMARK       I    between atoms: N_4  and  C_5 
REMARK       I    between atoms: C_5  and  N_7 
REMARK    4  A    between atoms: C_16  and  C_23 
ROOT
ATOM      1  N   LIG d   1       7.487  -3.481  -8.350  0.00  0.00    -0.297 N 
ATOM      2  C   LIG d   1       6.743  -3.300  -7.241  0.00  0.00     0.302 C 
ATOM      3  O   LIG d   1       5.638  -2.799  -7.325  0.00  0.00    -0.253 OA
ATOM      4  N   LIG d   1       7.224  -3.675  -6.039  0.00  0.00    -0.285 N 
ATOM      5  C   LIG d   1       8.507  -4.378  -5.930  0.00  0.00     0.021 C 
ATOM      6  C   LIG d   1       9.392  -3.703  -4.891  0.00  0.00    -0.006 C 
ATOM      7  H   LIG d   1      10.244  -4.378  -4.722  0.00  0.00     0.033 H 
ATOM      8  C   LIG d   1       8.635  -3.488  -3.580  0.00  0.00    -0.037 C 
ATOM      9  C   LIG d   1       7.408  -2.638  -3.848  0.00  0.00     0.016 C 
ATOM     10  H   LIG d   1       6.922  -2.413  -2.887  0.00  0.00     0.038 H 
ATOM     11  C   LIG d   1       6.475  -3.385  -4.805  0.00  0.00     0.024 C 
ATOM     12  C   LIG d   1       7.823  -1.371  -4.559  0.00  0.00     0.030 A 
ATOM     13  C   LIG d   1       7.009  -0.290  -4.430  0.00  0.00    -0.024 A 
ATOM     14  C   LIG d   1       7.273   0.888  -5.140  0.00  0.00    -0.051 A 
ATOM     15  C   LIG d   1       8.352   0.927  -5.972  0.00  0.00     0.003 A 
ATOM     16  C   LIG d   1       9.177  -0.201  -6.073  0.00  0.00     0.252 A 
ATOM     17  O   LIG d   1      10.124  -0.190  -6.844  0.00  0.00    -0.268 OA
ATOM     18  N   LIG d   1       8.938  -1.305  -5.323  0.00  0.00    -0.311 N 
ATOM     19  C   LIG d   1       9.936  -2.374  -5.380  0.00  0.00     0.031 C 
ATOM     20  H   LIG d   1       8.445  -4.017  -8.288  0.00  0.00     0.150 HD
ATOM     21  H   LIG d   1       8.332  -5.421  -5.629  0.00  0.00     0.047 H 
ATOM     22  H   LIG d   1       9.020  -4.359  -6.904  0.00  0.00     0.047 H 
ATOM     23  H   LIG d   1       8.328  -4.461  -3.169  0.00  0.00     0.028 H 
ATOM     24  H   LIG d   1       9.289  -2.976  -2.859  0.00  0.00     0.028 H 
ATOM     25  H   LIG d   1       5.601  -2.761  -5.044  0.00  0.00     0.047 H 
ATOM     26  H   LIG d   1       6.139  -4.327  -4.349  0.00  0.00     0.047 H 
ATOM     27  H   LIG d   1       6.633   1.750  -5.029  0.00  0.00     0.062 H 
ATOM     28  H   LIG d   1       8.569   1.817  -6.545  0.00  0.00     0.067 H 
ATOM     29  H   LIG d   1      10.790  -2.074  -4.754  0.00  0.00     0.050 H 
ATOM     30  H   LIG d   1      10.265  -2.475  -6.425  0.00  0.00     0.050 H 
ENDROOT
BRANCH  13  31
ATOM     31  C   LIG d   1       5.814  -0.359  -3.516  0.00  0.00    -0.014 C 
ATOM     32  C   LIG d   1       5.753   0.907  -2.658  0.00  0.00    -0.046 C 
ATOM     33  C   LIG d   1       4.540   0.836  -1.730  0.00  0.00    -0.052 C 
ATOM     34  H   LIG d   1       6.671   0.985  -2.056  0.00  0.00     0.027 H 
ATOM     35  H   LIG d   1       5.666   1.788  -3.311  0.00  0.00     0.027 H 
ATOM     36  C   LIG d   1       3.263   0.726  -2.567  0.00  0.00    -0.053 C 
ATOM     37  H   LIG d   1       4.496   1.746  -1.113  0.00  0.00     0.026 H 
ATOM     38  H   LIG d   1       4.627  -0.045  -1.078  0.00  0.00     0.026 H 
ATOM     39  C   LIG d   1       3.323  -0.540  -3.425  0.00  0.00    -0.052 C 
ATOM     40  H   LIG d   1       3.175   1.608  -3.219  0.00  0.00     0.026 H 
ATOM     41  H   LIG d   1       2.390   0.675  -1.899  0.00  0.00     0.026 H 
ATOM     42  C   LIG d   1       4.537  -0.468  -4.353  0.00  0.00    -0.046 C 
ATOM     43  H   LIG d   1       2.406  -0.618  -4.027  0.00  0.00     0.026 H 
ATOM     44  H   LIG d   1       3.411  -1.421  -2.772  0.00  0.00     0.026 H 
ATOM     45  H   LIG d   1       4.450   0.413  -5.005  0.00  0.00     0.027 H 
ATOM     46  H   LIG d   1       4.580  -1.378  -4.970  0.00  0.00     0.027 H 
ATOM     47  H   LIG d   1       5.914  -1.244  -2.871  0.00  0.00     0.035 H 
ENDBRANCH  13  31
BRANCH   1  48
ATOM     48  C   LIG d   1       7.020  -2.960  -9.638  0.00  0.00     0.019 C 
ATOM     49  H   LIG d   1       5.943  -2.763  -9.537  0.00  0.00     0.049 H 
BRANCH  48  50
ATOM     50  C   LIG d   1       7.775  -1.673  -9.972  0.00  0.00    -0.047 C 
ATOM     51  H   LIG d   1       7.374  -0.845  -9.368  0.00  0.00     0.025 H 
ATOM     52  H   LIG d   1       7.651  -1.441 -11.040  0.00  0.00     0.025 H 
ATOM     53  H   LIG d   1       8.844  -1.806  -9.747  0.00  0.00     0.025 H 
ENDBRANCH  48  50
BRANCH  48  54
ATOM     54  C   LIG d   1       7.277  -4.000 -10.731  0.00  0.00    -0.047 C 
ATOM     55  H   LIG d   1       6.827  -3.658 -11.675  0.00  0.00     0.025 H 
ATOM     56  H   LIG d   1       6.829  -4.961 -10.437  0.00  0.00     0.025 H 
ATOM     57  H   LIG d   1       8.361  -4.128 -10.867  0.00  0.00     0.025 H 
ENDBRANCH  48  54
ENDBRANCH   1  48
TORSDOF 4
ENDMDL
