MODEL 1
REMARK VINA RESULT:      -6.2      0.000      0.000
REMARK  9 active torsions:
REMARK  status: ('A' for Active; 'I' for Inactive)
REMARK    1  A    between atoms: C_1  and  N_63 
REMARK    2  A    between atoms: C_2  and  C_3 
REMARK    3  A    between atoms: C_2  and  N_63 
REMARK    4  A    between atoms: C_3  and  C_4 
REMARK    5  A    between atoms: C_10  and  C_11 
REMARK    6  A    between atoms: C_10  and  N_63 
REMARK    7  A    between atoms: C_19  and  C_21 
REMARK    8  A    between atoms: C_21  and  N_22 
REMARK       I    between atoms: N_22  and  C_23 
REMARK    9  A    between atoms: C_23  and  C_25 
ROOT
ATOM      1  C   LIG d   1       5.719  -0.860  -4.022  0.00  0.00     0.042 C 
ATOM      2  H   LIG d   1       6.707  -1.091  -3.624  0.00  0.00     0.041 H 
ATOM      3  C   LIG d   1       5.371   0.600  -3.714  0.00  0.00    -0.024 C 
ATOM      4  C   LIG d   1       4.356  -0.029  -1.607  0.00  0.00    -0.031 C 
ATOM      5  C   LIG d   1       4.675  -1.506  -1.855  0.00  0.00    -0.009 C 
ATOM      6  C   LIG d   1       4.671  -1.767  -3.367  0.00  0.00    -0.019 C 
ATOM      7  H   LIG d   1       4.904  -2.813  -3.567  0.00  0.00     0.031 H 
ATOM      8  C   LIG d   1       3.290  -1.401  -3.922  0.00  0.00    -0.005 C 
ATOM      9  C   LIG d   1       3.008   0.074  -3.616  0.00  0.00    -0.005 C 
ATOM     10  H   LIG d   1       2.113   0.153  -2.999  0.00  0.00     0.087 H 
ATOM     11  H   LIG d   1       6.194   1.063  -3.170  0.00  0.00     0.082 H 
ATOM     12  H   LIG d   1       5.203   1.138  -4.648  0.00  0.00     0.082 H 
ATOM     13  H   LIG d   1       5.186   0.438  -1.077  0.00  0.00     0.081 H 
ATOM     14  H   LIG d   1       3.450   0.051  -1.006  0.00  0.00     0.081 H 
ATOM     15  H   LIG d   1       5.659  -1.741  -1.447  0.00  0.00     0.032 H 
ATOM     16  H   LIG d   1       3.923  -2.129  -1.373  0.00  0.00     0.032 H 
ATOM     17  H   LIG d   1       3.276  -1.558  -5.001  0.00  0.00     0.032 H 
ATOM     18  H   LIG d   1       2.530  -2.024  -3.452  0.00  0.00     0.032 H 
ATOM     19  N   LIG d   1       4.146   0.676  -2.889  0.00  0.00     0.239 N 
ATOM     20  H   LIG d   1       3.935   1.661  -2.696  0.00  0.00     0.204 HD
ENDROOT
BRANCH   1  21
ATOM     21  C   LIG d   1       5.711  -1.079  -5.537  0.00  0.00    -0.024 C 
ATOM     22  H   LIG d   1       4.775  -0.707  -5.953  0.00  0.00     0.082 H 
ATOM     23  H   LIG d   1       5.807  -2.144  -5.750  0.00  0.00     0.082 H 
BRANCH  21  24
ATOM     24  N   LIG d   1       6.838  -0.329  -6.133  0.00  0.00     0.234 N 
ATOM     25  H   LIG d   1       7.122   0.415  -5.485  0.00  0.00     0.203 HD
BRANCH  24  26
ATOM     26  C   LIG d   1       7.985  -1.234  -6.358  0.00  0.00    -0.043 C 
ATOM     27  H   LIG d   1       7.614  -2.181  -6.751  0.00  0.00     0.078 H 
ATOM     28  H   LIG d   1       8.659  -0.778  -7.083  0.00  0.00     0.078 H 
ATOM     29  H   LIG d   1       8.519  -1.412  -5.425  0.00  0.00     0.078 H 
ENDBRANCH  24  26
BRANCH  24  30
ATOM     30  C   LIG d   1       6.418   0.281  -7.412  0.00  0.00    -0.027 C 
ATOM     31  H   LIG d   1       5.333   0.244  -7.514  0.00  0.00     0.082 H 
ATOM     32  H   LIG d   1       6.749   1.319  -7.437  0.00  0.00     0.082 H 
BRANCH  30  33
ATOM     33  C   LIG d   1       7.065  -0.491  -8.563  0.00  0.00     0.030 C 
ATOM     34  H   LIG d   1       8.047  -0.068  -8.777  0.00  0.00     0.038 H 
ATOM     35  H   LIG d   1       7.174  -1.538  -8.283  0.00  0.00     0.038 H 
BRANCH  33  36
ATOM     36  C   LIG d   1       6.196  -0.387  -9.790  0.00  0.00     0.046 A 
ATOM     37  N   LIG d   1       6.209  -1.359 -10.681  0.00  0.00    -0.260 NA
ATOM     38  C   LIG d   1       5.465  -1.311 -11.769  0.00  0.00     0.028 A 
ATOM     39  C   LIG d   1       4.639  -0.231 -12.014  0.00  0.00    -0.044 A 
ATOM     40  H   LIG d   1       5.502  -2.126 -12.476  0.00  0.00     0.083 H 
ATOM     41  C   LIG d   1       4.599   0.810 -11.098  0.00  0.00    -0.059 A 
ATOM     42  H   LIG d   1       4.032  -0.198 -12.907  0.00  0.00     0.063 H 
ATOM     43  C   LIG d   1       5.390   0.722  -9.965  0.00  0.00    -0.040 A 
ATOM     44  H   LIG d   1       3.963   1.668 -11.264  0.00  0.00     0.062 H 
ATOM     45  H   LIG d   1       5.381   1.512  -9.228  0.00  0.00     0.064 H 
ENDBRANCH  33  36
ENDBRANCH  30  33
ENDBRANCH  24  30
ENDBRANCH  21  24
ENDBRANCH   1  21
BRANCH   9  46
ATOM     46  C   LIG d   1       2.796   0.835  -4.925  0.00  0.00     0.055 C 
ATOM     47  H   LIG d   1       1.922   1.480  -4.834  0.00  0.00     0.052 H 
ATOM     48  H   LIG d   1       3.675   1.443  -5.139  0.00  0.00     0.052 H 
BRANCH  46  49
ATOM     49  N   LIG d   1       2.586  -0.119  -6.017  0.00  0.00    -0.306 N 
ATOM     50  C   LIG d   1       2.751   0.272  -7.297  0.00  0.00     0.244 C 
ATOM     51  O   LIG d   1       3.074   1.417  -7.545  0.00  0.00    -0.270 OA
ATOM     52  H   LIG d   1       2.328  -1.033  -5.819  0.00  0.00     0.149 HD
BRANCH  50  53
ATOM     53  C   LIG d   1       2.539  -0.690  -8.395  0.00  0.00     0.040 A 
ATOM     54  C   LIG d   1       3.259  -1.888  -8.425  0.00  0.00    -0.004 A 
ATOM     55  C   LIG d   1       3.053  -2.788  -9.452  0.00  0.00     0.167 A 
ATOM     56  H   LIG d   1       3.970  -2.111  -7.645  0.00  0.00     0.066 H 
ATOM     57  C   LIG d   1       2.138  -2.496 -10.463  0.00  0.00     0.166 A 
ATOM     58  O   LIG d   1       3.613  -4.007  -9.710  0.00  0.00    -0.453 OA
ATOM     59  C   LIG d   1       1.427  -1.303 -10.435  0.00  0.00    -0.015 A 
ATOM     60  O   LIG d   1       2.126  -3.530 -11.352  0.00  0.00    -0.453 OA
ATOM     61  C   LIG d   1       1.623  -0.404  -9.410  0.00  0.00    -0.046 A 
ATOM     62  H   LIG d   1       0.719  -1.080 -11.219  0.00  0.00     0.066 H 
ATOM     63  H   LIG d   1       1.068   0.523  -9.391  0.00  0.00     0.063 H 
ATOM     64  C   LIG d   1       2.735  -4.638 -10.662  0.00  0.00     0.233 C 
ATOM     65  H   LIG d   1       1.981  -5.233 -10.150  0.00  0.00     0.117 H 
ATOM     66  H   LIG d   1       3.303  -5.256 -11.358  0.00  0.00     0.117 H 
ENDBRANCH  50  53
ENDBRANCH  46  49
ENDBRANCH   9  46
TORSDOF 9
ENDMDL
MODEL 2
REMARK VINA RESULT:      -6.2      2.910      6.279
REMARK  9 active torsions:
REMARK  status: ('A' for Active; 'I' for Inactive)
REMARK    1  A    between atoms: C_1  and  N_63 
REMARK    2  A    between atoms: C_2  and  C_3 
REMARK    3  A    between atoms: C_2  and  N_63 
REMARK    4  A    between atoms: C_3  and  C_4 
REMARK    5  A    between atoms: C_10  and  C_11 
REMARK    6  A    between atoms: C_10  and  N_63 
REMARK    7  A    between atoms: C_19  and  C_21 
REMARK    8  A    between atoms: C_21  and  N_22 
REMARK       I    between atoms: N_22  and  C_23 
REMARK    9  A    between atoms: C_23  and  C_25 
ROOT
ATOM      1  C   LIG d   1       4.087  -0.297  -8.358  0.00  0.00     0.042 C 
ATOM      2  H   LIG d   1       4.694   0.171  -7.584  0.00  0.00     0.041 H 
ATOM      3  C   LIG d   1       4.802  -0.182  -9.708  0.00  0.00    -0.024 C 
ATOM      4  C   LIG d   1       3.718   1.936 -10.164  0.00  0.00    -0.031 C 
ATOM      5  C   LIG d   1       2.973   1.881  -8.827  0.00  0.00    -0.009 C 
ATOM      6  C   LIG d   1       2.731   0.412  -8.455  0.00  0.00    -0.019 C 
ATOM      7  H   LIG d   1       2.207   0.350  -7.501  0.00  0.00     0.031 H 
ATOM      8  C   LIG d   1       1.912  -0.246  -9.571  0.00  0.00    -0.005 C 
ATOM      9  C   LIG d   1       2.686  -0.132 -10.887  0.00  0.00    -0.005 C 
ATOM     10  H   LIG d   1       2.093   0.429 -11.610  0.00  0.00     0.087 H 
ATOM     11  H   LIG d   1       5.749   0.341  -9.575  0.00  0.00     0.082 H 
ATOM     12  H   LIG d   1       4.990  -1.180 -10.106  0.00  0.00     0.082 H 
ATOM     13  H   LIG d   1       4.673   2.444 -10.028  0.00  0.00     0.081 H 
ATOM     14  H   LIG d   1       3.118   2.480 -10.893  0.00  0.00     0.081 H 
ATOM     15  H   LIG d   1       3.575   2.359  -8.054  0.00  0.00     0.032 H 
ATOM     16  H   LIG d   1       2.019   2.399  -8.919  0.00  0.00     0.032 H 
ATOM     17  H   LIG d   1       1.750  -1.298  -9.333  0.00  0.00     0.032 H 
ATOM     18  H   LIG d   1       0.951   0.259  -9.665  0.00  0.00     0.032 H 
ATOM     19  N   LIG d   1       3.969   0.570 -10.672  0.00  0.00     0.239 N 
ATOM     20  H   LIG d   1       4.469   0.634 -11.565  0.00  0.00     0.204 HD
ENDROOT
BRANCH   1  21
ATOM     21  C   LIG d   1       3.869  -1.773  -8.018  0.00  0.00    -0.024 C 
ATOM     22  H   LIG d   1       4.505  -2.390  -8.652  0.00  0.00     0.082 H 
ATOM     23  H   LIG d   1       2.825  -2.034  -8.186  0.00  0.00     0.082 H 
BRANCH  21  24
ATOM     24  N   LIG d   1       4.237  -1.995  -6.603  0.00  0.00     0.234 N 
ATOM     25  H   LIG d   1       3.438  -1.748  -6.008  0.00  0.00     0.203 HD
BRANCH  24  26
ATOM     26  C   LIG d   1       4.577  -3.417  -6.386  0.00  0.00    -0.043 C 
ATOM     27  H   LIG d   1       5.494  -3.475  -5.799  0.00  0.00     0.078 H 
ATOM     28  H   LIG d   1       3.765  -3.896  -5.840  0.00  0.00     0.078 H 
ATOM     29  H   LIG d   1       4.723  -3.924  -7.339  0.00  0.00     0.078 H 
ENDBRANCH  24  26
BRANCH  24  30
ATOM     30  C   LIG d   1       5.387  -1.140  -6.240  0.00  0.00    -0.027 C 
ATOM     31  H   LIG d   1       6.248  -1.371  -6.867  0.00  0.00     0.082 H 
ATOM     32  H   LIG d   1       5.110  -0.094  -6.376  0.00  0.00     0.082 H 
BRANCH  30  33
ATOM     33  C   LIG d   1       5.743  -1.388  -4.773  0.00  0.00     0.030 C 
ATOM     34  H   LIG d   1       5.486  -2.412  -4.505  0.00  0.00     0.038 H 
ATOM     35  H   LIG d   1       6.812  -1.232  -4.628  0.00  0.00     0.038 H 
BRANCH  33  36
ATOM     36  C   LIG d   1       4.973  -0.431  -3.900  0.00  0.00     0.046 A 
ATOM     37  N   LIG d   1       3.976   0.262  -4.415  0.00  0.00    -0.260 NA
ATOM     38  C   LIG d   1       3.274   1.111  -3.688  0.00  0.00     0.028 A 
ATOM     39  C   LIG d   1       3.563   1.303  -2.351  0.00  0.00    -0.044 A 
ATOM     40  H   LIG d   1       2.465   1.660  -4.145  0.00  0.00     0.083 H 
ATOM     41  C   LIG d   1       4.605   0.592  -1.775  0.00  0.00    -0.059 A 
ATOM     42  H   LIG d   1       2.985   2.000  -1.762  0.00  0.00     0.063 H 
ATOM     43  C   LIG d   1       5.316  -0.294  -2.568  0.00  0.00    -0.040 A 
ATOM     44  H   LIG d   1       4.854   0.723  -0.732  0.00  0.00     0.062 H 
ATOM     45  H   LIG d   1       6.130  -0.868  -2.152  0.00  0.00     0.064 H 
ENDBRANCH  33  36
ENDBRANCH  30  33
ENDBRANCH  24  30
ENDBRANCH  21  24
ENDBRANCH   1  21
BRANCH   9  46
ATOM     46  C   LIG d   1       2.971  -1.531 -11.434  0.00  0.00     0.055 C 
ATOM     47  H   LIG d   1       3.058  -1.486 -12.520  0.00  0.00     0.052 H 
ATOM     48  H   LIG d   1       3.903  -1.905 -11.011  0.00  0.00     0.052 H 
BRANCH  46  49
ATOM     49  N   LIG d   1       1.874  -2.432 -11.070  0.00  0.00    -0.306 N 
ATOM     50  C   LIG d   1       1.104  -2.981 -12.030  0.00  0.00     0.244 C 
ATOM     51  O   LIG d   1       1.320  -2.729 -13.200  0.00  0.00    -0.270 OA
ATOM     52  H   LIG d   1       1.702  -2.633 -10.137  0.00  0.00     0.149 HD
BRANCH  50  53
ATOM     53  C   LIG d   1      -0.000  -3.887 -11.662  0.00  0.00     0.040 A 
ATOM     54  C   LIG d   1       0.120  -4.719 -10.544  0.00  0.00    -0.004 A 
ATOM     55  C   LIG d   1      -0.919  -5.562 -10.199  0.00  0.00     0.167 A 
ATOM     56  H   LIG d   1       1.020  -4.698  -9.949  0.00  0.00     0.066 H 
ATOM     57  C   LIG d   1      -2.079  -5.591 -10.973  0.00  0.00     0.166 A 
ATOM     58  O   LIG d   1      -1.055  -6.454  -9.174  0.00  0.00    -0.453 OA
ATOM     59  C   LIG d   1      -2.195  -4.769 -12.086  0.00  0.00    -0.015 A 
ATOM     60  O   LIG d   1      -2.939  -6.502 -10.432  0.00  0.00    -0.453 OA
ATOM     61  C   LIG d   1      -1.165  -3.921 -12.431  0.00  0.00    -0.046 A 
ATOM     62  H   LIG d   1      -3.095  -4.794 -12.681  0.00  0.00     0.066 H 
ATOM     63  H   LIG d   1      -1.259  -3.283 -13.297  0.00  0.00     0.063 H 
ATOM     64  C   LIG d   1      -2.466  -6.729  -9.091  0.00  0.00     0.233 C 
ATOM     65  H   LIG d   1      -2.948  -6.046  -8.393  0.00  0.00     0.117 H 
ATOM     66  H   LIG d   1      -2.639  -7.764  -8.795  0.00  0.00     0.117 H 
ENDBRANCH  50  53
ENDBRANCH  46  49
ENDBRANCH   9  46
TORSDOF 9
ENDMDL
MODEL 3
REMARK VINA RESULT:      -6.1      4.365      5.495
REMARK  9 active torsions:
REMARK  status: ('A' for Active; 'I' for Inactive)
REMARK    1  A    between atoms: C_1  and  N_63 
REMARK    2  A    between atoms: C_2  and  C_3 
REMARK    3  A    between atoms: C_2  and  N_63 
REMARK    4  A    between atoms: C_3  and  C_4 
REMARK    5  A    between atoms: C_10  and  C_11 
REMARK    6  A    between atoms: C_10  and  N_63 
REMARK    7  A    between atoms: C_19  and  C_21 
REMARK    8  A    between atoms: C_21  and  N_22 
REMARK       I    between atoms: N_22  and  C_23 
REMARK    9  A    between atoms: C_23  and  C_25 
ROOT
ATOM      1  C   LIG d   1       5.575   0.016  -4.055  0.00  0.00     0.042 C 
ATOM      2  H   LIG d   1       5.582   1.070  -3.778  0.00  0.00     0.041 H 
ATOM      3  C   LIG d   1       4.315  -0.292  -4.869  0.00  0.00    -0.024 C 
ATOM      4  C   LIG d   1       3.079  -0.829  -2.855  0.00  0.00    -0.031 C 
ATOM      5  C   LIG d   1       4.304  -0.536  -1.985  0.00  0.00    -0.009 C 
ATOM      6  C   LIG d   1       5.571  -0.851  -2.790  0.00  0.00    -0.019 C 
ATOM      7  H   LIG d   1       6.458  -0.642  -2.190  0.00  0.00     0.031 H 
ATOM      8  C   LIG d   1       5.531  -2.326  -3.206  0.00  0.00    -0.005 C 
ATOM      9  C   LIG d   1       4.271  -2.570  -4.043  0.00  0.00    -0.005 C 
ATOM     10  H   LIG d   1       3.648  -3.318  -3.553  0.00  0.00     0.087 H 
ATOM     11  H   LIG d   1       3.723   0.616  -4.980  0.00  0.00     0.082 H 
ATOM     12  H   LIG d   1       4.600  -0.664  -5.853  0.00  0.00     0.082 H 
ATOM     13  H   LIG d   1       2.495   0.083  -2.981  0.00  0.00     0.081 H 
ATOM     14  H   LIG d   1       2.465  -1.590  -2.375  0.00  0.00     0.081 H 
ATOM     15  H   LIG d   1       4.306   0.517  -1.699  0.00  0.00     0.032 H 
ATOM     16  H   LIG d   1       4.273  -1.156  -1.089  0.00  0.00     0.032 H 
ATOM     17  H   LIG d   1       6.414  -2.562  -3.800  0.00  0.00     0.032 H 
ATOM     18  H   LIG d   1       5.508  -2.957  -2.318  0.00  0.00     0.032 H 
ATOM     19  N   LIG d   1       3.497  -1.318  -4.187  0.00  0.00     0.239 N 
ATOM     20  H   LIG d   1       2.660  -1.506  -4.750  0.00  0.00     0.204 HD
ENDROOT
BRANCH   1  21
ATOM     21  C   LIG d   1       6.816  -0.304  -4.891  0.00  0.00    -0.024 C 
ATOM     22  H   LIG d   1       6.779  -1.345  -5.213  0.00  0.00     0.082 H 
ATOM     23  H   LIG d   1       7.711  -0.140  -4.290  0.00  0.00     0.082 H 
BRANCH  21  24
ATOM     24  N   LIG d   1       6.826   0.571  -6.083  0.00  0.00     0.234 N 
ATOM     25  H   LIG d   1       5.944   1.094  -6.119  0.00  0.00     0.203 HD
BRANCH  24  26
ATOM     26  C   LIG d   1       7.950   1.526  -5.999  0.00  0.00    -0.043 C 
ATOM     27  H   LIG d   1       8.872   1.011  -6.274  0.00  0.00     0.078 H 
ATOM     28  H   LIG d   1       7.770   2.346  -6.695  0.00  0.00     0.078 H 
ATOM     29  H   LIG d   1       8.042   1.920  -4.988  0.00  0.00     0.078 H 
ENDBRANCH  24  26
BRANCH  24  30
ATOM     30  C   LIG d   1       6.948  -0.248  -7.308  0.00  0.00    -0.027 C 
ATOM     31  H   LIG d   1       7.917  -0.746  -7.339  0.00  0.00     0.082 H 
ATOM     32  H   LIG d   1       6.155  -0.995  -7.318  0.00  0.00     0.082 H 
BRANCH  30  33
ATOM     33  C   LIG d   1       6.805   0.665  -8.528  0.00  0.00     0.030 C 
ATOM     34  H   LIG d   1       7.449   1.537  -8.406  0.00  0.00     0.038 H 
ATOM     35  H   LIG d   1       7.097   0.121  -9.425  0.00  0.00     0.038 H 
BRANCH  33  36
ATOM     36  C   LIG d   1       5.372   1.113  -8.655  0.00  0.00     0.046 A 
ATOM     37  N   LIG d   1       4.404   0.329  -8.222  0.00  0.00    -0.260 NA
ATOM     38  C   LIG d   1       3.135   0.680  -8.313  0.00  0.00     0.028 A 
ATOM     39  C   LIG d   1       2.776   1.892  -8.869  0.00  0.00    -0.044 A 
ATOM     40  H   LIG d   1       2.370   0.012  -7.947  0.00  0.00     0.083 H 
ATOM     41  C   LIG d   1       3.766   2.743  -9.335  0.00  0.00    -0.059 A 
ATOM     42  H   LIG d   1       1.735   2.173  -8.941  0.00  0.00     0.063 H 
ATOM     43  C   LIG d   1       5.088   2.343  -9.219  0.00  0.00    -0.040 A 
ATOM     44  H   LIG d   1       3.514   3.696  -9.776  0.00  0.00     0.062 H 
ATOM     45  H   LIG d   1       5.886   2.982  -9.567  0.00  0.00     0.064 H 
ENDBRANCH  33  36
ENDBRANCH  30  33
ENDBRANCH  24  30
ENDBRANCH  21  24
ENDBRANCH   1  21
BRANCH   9  46
ATOM     46  C   LIG d   1       4.671  -3.069  -5.433  0.00  0.00     0.055 C 
ATOM     47  H   LIG d   1       3.775  -3.228  -6.033  0.00  0.00     0.052 H 
ATOM     48  H   LIG d   1       5.305  -2.326  -5.917  0.00  0.00     0.052 H 
BRANCH  46  49
ATOM     49  N   LIG d   1       5.405  -4.330  -5.307  0.00  0.00    -0.306 N 
ATOM     50  C   LIG d   1       4.795  -5.497  -5.594  0.00  0.00     0.244 C 
ATOM     51  O   LIG d   1       3.635  -5.504  -5.958  0.00  0.00    -0.270 OA
ATOM     52  H   LIG d   1       6.331  -4.325  -5.017  0.00  0.00     0.149 HD
BRANCH  50  53
ATOM     53  C   LIG d   1       5.536  -6.767  -5.467  0.00  0.00     0.040 A 
ATOM     54  C   LIG d   1       4.841  -7.974  -5.343  0.00  0.00    -0.004 A 
ATOM     55  C   LIG d   1       5.538  -9.161  -5.230  0.00  0.00     0.167 A 
ATOM     56  H   LIG d   1       3.761  -7.978  -5.340  0.00  0.00     0.066 H 
ATOM     57  C   LIG d   1       6.933  -9.153  -5.228  0.00  0.00     0.166 A 
ATOM     58  O   LIG d   1       5.109 -10.451  -5.102  0.00  0.00    -0.453 OA
ATOM     59  C   LIG d   1       7.622  -7.953  -5.346  0.00  0.00    -0.015 A 
ATOM     60  O   LIG d   1       7.375 -10.437  -5.098  0.00  0.00    -0.453 OA
ATOM     61  C   LIG d   1       6.932  -6.767  -5.466  0.00  0.00    -0.046 A 
ATOM     62  H   LIG d   1       8.702  -7.952  -5.345  0.00  0.00     0.066 H 
ATOM     63  H   LIG d   1       7.472  -5.836  -5.558  0.00  0.00     0.063 H 
ATOM     64  C   LIG d   1       6.247 -11.268  -5.434  0.00  0.00     0.233 C 
ATOM     65  H   LIG d   1       6.250 -11.507  -6.496  0.00  0.00     0.117 H 
ATOM     66  H   LIG d   1       6.253 -12.180  -4.836  0.00  0.00     0.117 H 
ENDBRANCH  50  53
ENDBRANCH  46  49
ENDBRANCH   9  46
TORSDOF 9
ENDMDL
MODEL 4
REMARK VINA RESULT:      -6.1      4.077      8.396
REMARK  9 active torsions:
REMARK  status: ('A' for Active; 'I' for Inactive)
REMARK    1  A    between atoms: C_1  and  N_63 
REMARK    2  A    between atoms: C_2  and  C_3 
REMARK    3  A    between atoms: C_2  and  N_63 
REMARK    4  A    between atoms: C_3  and  C_4 
REMARK    5  A    between atoms: C_10  and  C_11 
REMARK    6  A    between atoms: C_10  and  N_63 
REMARK    7  A    between atoms: C_19  and  C_21 
REMARK    8  A    between atoms: C_21  and  N_22 
REMARK       I    between atoms: N_22  and  C_23 
REMARK    9  A    between atoms: C_23  and  C_25 
ROOT
ATOM      1  C   LIG d   1       6.060  -1.580  -6.298  0.00  0.00     0.042 C 
ATOM      2  H   LIG d   1       5.093  -1.916  -6.670  0.00  0.00     0.041 H 
ATOM      3  C   LIG d   1       7.179  -2.270  -7.084  0.00  0.00    -0.024 C 
ATOM      4  C   LIG d   1       7.228  -4.110  -5.509  0.00  0.00    -0.031 C 
ATOM      5  C   LIG d   1       6.111  -3.473  -4.679  0.00  0.00    -0.009 C 
ATOM      6  C   LIG d   1       6.200  -1.947  -4.815  0.00  0.00    -0.019 C 
ATOM      7  H   LIG d   1       5.407  -1.473  -4.236  0.00  0.00     0.031 H 
ATOM      8  C   LIG d   1       7.579  -1.492  -4.325  0.00  0.00    -0.005 C 
ATOM      9  C   LIG d   1       8.656  -2.185  -5.165  0.00  0.00    -0.005 C 
ATOM     10  H   LIG d   1       9.293  -2.786  -4.516  0.00  0.00     0.087 H 
ATOM     11  H   LIG d   1       6.743  -2.932  -7.832  0.00  0.00     0.082 H 
ATOM     12  H   LIG d   1       7.794  -1.516  -7.579  0.00  0.00     0.082 H 
ATOM     13  H   LIG d   1       6.792  -4.759  -6.268  0.00  0.00     0.081 H 
ATOM     14  H   LIG d   1       7.877  -4.696  -4.858  0.00  0.00     0.081 H 
ATOM     15  H   LIG d   1       5.143  -3.816  -5.044  0.00  0.00     0.032 H 
ATOM     16  H   LIG d   1       6.226  -3.756  -3.632  0.00  0.00     0.032 H 
ATOM     17  H   LIG d   1       7.668  -0.412  -4.436  0.00  0.00     0.032 H 
ATOM     18  H   LIG d   1       7.702  -1.763  -3.276  0.00  0.00     0.032 H 
ATOM     19  N   LIG d   1       8.034  -3.065  -6.177  0.00  0.00     0.239 N 
ATOM     20  H   LIG d   1       8.774  -3.517  -6.726  0.00  0.00     0.204 HD
ENDROOT
BRANCH   1  21
ATOM     21  C   LIG d   1       6.177  -0.064  -6.462  0.00  0.00    -0.024 C 
ATOM     22  H   LIG d   1       6.957   0.164  -7.190  0.00  0.00     0.082 H 
ATOM     23  H   LIG d   1       6.431   0.387  -5.504  0.00  0.00     0.082 H 
BRANCH  21  24
ATOM     24  N   LIG d   1       4.886   0.463  -6.956  0.00  0.00     0.234 N 
ATOM     25  H   LIG d   1       4.704   1.369  -6.511  0.00  0.00     0.203 HD
BRANCH  24  26
ATOM     26  C   LIG d   1       4.944   0.649  -8.421  0.00  0.00    -0.043 C 
ATOM     27  H   LIG d   1       5.772   0.061  -8.819  0.00  0.00     0.078 H 
ATOM     28  H   LIG d   1       4.008   0.302  -8.859  0.00  0.00     0.078 H 
ATOM     29  H   LIG d   1       5.094   1.699  -8.667  0.00  0.00     0.078 H 
ENDBRANCH  24  26
BRANCH  24  30
ATOM     30  C   LIG d   1       3.795  -0.471  -6.608  0.00  0.00    -0.027 C 
ATOM     31  H   LIG d   1       3.245  -0.767  -7.502  0.00  0.00     0.082 H 
ATOM     32  H   LIG d   1       4.220  -1.356  -6.134  0.00  0.00     0.082 H 
BRANCH  30  33
ATOM     33  C   LIG d   1       2.843   0.224  -5.632  0.00  0.00     0.030 C 
ATOM     34  H   LIG d   1       2.708   1.263  -5.934  0.00  0.00     0.038 H 
ATOM     35  H   LIG d   1       1.880  -0.284  -5.640  0.00  0.00     0.038 H 
BRANCH  33  36
ATOM     36  C   LIG d   1       3.425   0.177  -4.243  0.00  0.00     0.046 A 
ATOM     37  N   LIG d   1       4.142   1.193  -3.802  0.00  0.00    -0.260 NA
ATOM     38  C   LIG d   1       4.671   1.195  -2.593  0.00  0.00     0.028 A 
ATOM     39  C   LIG d   1       4.489   0.123  -1.741  0.00  0.00    -0.044 A 
ATOM     40  H   LIG d   1       5.251   2.045  -2.267  0.00  0.00     0.083 H 
ATOM     41  C   LIG d   1       3.742  -0.963  -2.170  0.00  0.00    -0.059 A 
ATOM     42  H   LIG d   1       4.925   0.131  -0.753  0.00  0.00     0.063 H 
ATOM     43  C   LIG d   1       3.198  -0.928  -3.444  0.00  0.00    -0.040 A 
ATOM     44  H   LIG d   1       3.585  -1.815  -1.525  0.00  0.00     0.062 H 
ATOM     45  H   LIG d   1       2.606  -1.754  -3.809  0.00  0.00     0.064 H 
ENDBRANCH  33  36
ENDBRANCH  30  33
ENDBRANCH  24  30
ENDBRANCH  21  24
ENDBRANCH   1  21
BRANCH   9  46
ATOM     46  C   LIG d   1       9.503  -1.130  -5.879  0.00  0.00     0.055 C 
ATOM     47  H   LIG d   1      10.471  -1.557  -6.141  0.00  0.00     0.052 H 
ATOM     48  H   LIG d   1       8.992  -0.805  -6.785  0.00  0.00     0.052 H 
BRANCH  46  49
ATOM     49  N   LIG d   1       9.702   0.019  -4.991  0.00  0.00    -0.306 N 
ATOM     50  C   LIG d   1       9.707   1.269  -5.496  0.00  0.00     0.244 C 
ATOM     51  O   LIG d   1       9.547   1.443  -6.689  0.00  0.00    -0.270 OA
ATOM     52  H   LIG d   1       9.830  -0.120  -4.040  0.00  0.00     0.149 HD
BRANCH  50  53
ATOM     53  C   LIG d   1       9.907   2.425  -4.602  0.00  0.00     0.040 A 
ATOM     54  C   LIG d   1       9.460   3.693  -4.986  0.00  0.00    -0.004 A 
ATOM     55  C   LIG d   1       9.643   4.772  -4.143  0.00  0.00     0.167 A 
ATOM     56  H   LIG d   1       8.967   3.827  -5.937  0.00  0.00     0.066 H 
ATOM     57  C   LIG d   1      10.286   4.597  -2.917  0.00  0.00     0.166 A 
ATOM     58  O   LIG d   1       9.305   6.088  -4.274  0.00  0.00    -0.453 OA
ATOM     59  C   LIG d   1      10.735   3.339  -2.540  0.00  0.00    -0.015 A 
ATOM     60  O   LIG d   1      10.348   5.804  -2.284  0.00  0.00    -0.453 OA
ATOM     61  C   LIG d   1      10.548   2.258  -3.373  0.00  0.00    -0.046 A 
ATOM     62  H   LIG d   1      11.231   3.208  -1.589  0.00  0.00     0.066 H 
ATOM     63  H   LIG d   1      10.898   1.280  -3.075  0.00  0.00     0.063 H 
ATOM     64  C   LIG d   1       9.378   6.637  -2.945  0.00  0.00     0.233 C 
ATOM     65  H   LIG d   1       8.411   6.568  -2.449  0.00  0.00     0.117 H 
ATOM     66  H   LIG d   1       9.720   7.672  -2.975  0.00  0.00     0.117 H 
ENDBRANCH  50  53
ENDBRANCH  46  49
ENDBRANCH   9  46
TORSDOF 9
ENDMDL
MODEL 5
REMARK VINA RESULT:      -6.1      1.767      2.772
REMARK  9 active torsions:
REMARK  status: ('A' for Active; 'I' for Inactive)
REMARK    1  A    between atoms: C_1  and  N_63 
REMARK    2  A    between atoms: C_2  and  C_3 
REMARK    3  A    between atoms: C_2  and  N_63 
REMARK    4  A    between atoms: C_3  and  C_4 
REMARK    5  A    between atoms: C_10  and  C_11 
REMARK    6  A    between atoms: C_10  and  N_63 
REMARK    7  A    between atoms: C_19  and  C_21 
REMARK    8  A    between atoms: C_21  and  N_22 
REMARK       I    between atoms: N_22  and  C_23 
REMARK    9  A    between atoms: C_23  and  C_25 
ROOT
ATOM      1  C   LIG d   1       5.371   0.169  -4.162  0.00  0.00     0.042 C 
ATOM      2  H   LIG d   1       5.233   1.249  -4.117  0.00  0.00     0.041 H 
ATOM      3  C   LIG d   1       4.253  -0.456  -5.002  0.00  0.00    -0.024 C 
ATOM      4  C   LIG d   1       2.858  -0.731  -3.040  0.00  0.00    -0.031 C 
ATOM      5  C   LIG d   1       3.936  -0.114  -2.145  0.00  0.00    -0.009 C 
ATOM      6  C   LIG d   1       5.314  -0.419  -2.746  0.00  0.00    -0.019 C 
ATOM      7  H   LIG d   1       6.098   0.018  -2.127  0.00  0.00     0.031 H 
ATOM      8  C   LIG d   1       5.480  -1.940  -2.841  0.00  0.00    -0.005 C 
ATOM      9  C   LIG d   1       4.358  -2.507  -3.716  0.00  0.00    -0.005 C 
ATOM     10  H   LIG d   1       3.766  -3.215  -3.136  0.00  0.00     0.087 H 
ATOM     11  H   LIG d   1       3.584   0.328  -5.357  0.00  0.00     0.082 H 
ATOM     12  H   LIG d   1       4.688  -0.979  -5.854  0.00  0.00     0.082 H 
ATOM     13  H   LIG d   1       2.199   0.054  -3.410  0.00  0.00     0.081 H 
ATOM     14  H   LIG d   1       2.277  -1.453  -2.466  0.00  0.00     0.081 H 
ATOM     15  H   LIG d   1       3.793   0.966  -2.092  0.00  0.00     0.032 H 
ATOM     16  H   LIG d   1       3.869  -0.540  -1.145  0.00  0.00     0.032 H 
ATOM     17  H   LIG d   1       6.446  -2.176  -3.288  0.00  0.00     0.032 H 
ATOM     18  H   LIG d   1       5.423  -2.377  -1.844  0.00  0.00     0.032 H 
ATOM     19  N   LIG d   1       3.477  -1.420  -4.193  0.00  0.00     0.239 N 
ATOM     20  H   LIG d   1       2.735  -1.824  -4.776  0.00  0.00     0.204 HD
ENDROOT
BRANCH   1  21
ATOM     21  C   LIG d   1       6.727  -0.151  -4.794  0.00  0.00    -0.024 C 
ATOM     22  H   LIG d   1       6.763  -1.207  -5.063  0.00  0.00     0.082 H 
ATOM     23  H   LIG d   1       7.521   0.072  -4.083  0.00  0.00     0.082 H 
BRANCH  21  24
ATOM     24  N   LIG d   1       6.886   0.665  -6.018  0.00  0.00     0.234 N 
ATOM     25  H   LIG d   1       6.047   1.243  -6.144  0.00  0.00     0.203 HD
BRANCH  24  26
ATOM     26  C   LIG d   1       8.063   1.548  -5.888  0.00  0.00    -0.043 C 
ATOM     27  H   LIG d   1       8.676   1.454  -6.785  0.00  0.00     0.078 H 
ATOM     28  H   LIG d   1       7.724   2.579  -5.786  0.00  0.00     0.078 H 
ATOM     29  H   LIG d   1       8.653   1.271  -5.015  0.00  0.00     0.078 H 
ENDBRANCH  24  26
BRANCH  24  30
ATOM     30  C   LIG d   1       7.042  -0.216  -7.195  0.00  0.00    -0.027 C 
ATOM     31  H   LIG d   1       7.842  -0.939  -7.027  0.00  0.00     0.082 H 
ATOM     32  H   LIG d   1       6.106  -0.746  -7.371  0.00  0.00     0.082 H 
BRANCH  30  33
ATOM     33  C   LIG d   1       7.380   0.644  -8.414  0.00  0.00     0.030 C 
ATOM     34  H   LIG d   1       7.900   1.546  -8.090  0.00  0.00     0.038 H 
ATOM     35  H   LIG d   1       8.020   0.080  -9.091  0.00  0.00     0.038 H 
BRANCH  33  36
ATOM     36  C   LIG d   1       6.109   1.027  -9.127  0.00  0.00     0.046 A 
ATOM     37  N   LIG d   1       5.376   2.020  -8.663  0.00  0.00    -0.260 NA
ATOM     38  C   LIG d   1       4.256   2.390  -9.254  0.00  0.00     0.028 A 
ATOM     39  C   LIG d   1       3.810   1.743 -10.391  0.00  0.00    -0.044 A 
ATOM     40  H   LIG d   1       3.682   3.208  -8.846  0.00  0.00     0.083 H 
ATOM     41  C   LIG d   1       4.555   0.694 -10.908  0.00  0.00    -0.059 A 
ATOM     42  H   LIG d   1       2.892   2.050 -10.870  0.00  0.00     0.063 H 
ATOM     43  C   LIG d   1       5.728   0.337 -10.263  0.00  0.00    -0.040 A 
ATOM     44  H   LIG d   1       4.230   0.169 -11.794  0.00  0.00     0.062 H 
ATOM     45  H   LIG d   1       6.335  -0.472 -10.640  0.00  0.00     0.064 H 
ENDBRANCH  33  36
ENDBRANCH  30  33
ENDBRANCH  24  30
ENDBRANCH  21  24
ENDBRANCH   1  21
BRANCH   9  46
ATOM     46  C   LIG d   1       4.966  -3.220  -4.926  0.00  0.00     0.055 C 
ATOM     47  H   LIG d   1       5.899  -2.730  -5.206  0.00  0.00     0.052 H 
ATOM     48  H   LIG d   1       5.165  -4.261  -4.672  0.00  0.00     0.052 H 
BRANCH  46  49
ATOM     49  N   LIG d   1       4.027  -3.162  -6.049  0.00  0.00    -0.306 N 
ATOM     50  C   LIG d   1       4.482  -3.261  -7.314  0.00  0.00     0.244 C 
ATOM     51  O   LIG d   1       5.672  -3.398  -7.523  0.00  0.00    -0.270 OA
ATOM     52  H   LIG d   1       3.078  -3.053  -5.883  0.00  0.00     0.149 HD
BRANCH  50  53
ATOM     53  C   LIG d   1       3.537  -3.203  -8.445  0.00  0.00     0.040 A 
ATOM     54  C   LIG d   1       2.981  -1.980  -8.831  0.00  0.00    -0.004 A 
ATOM     55  C   LIG d   1       2.100  -1.928  -9.894  0.00  0.00     0.167 A 
ATOM     56  H   LIG d   1       3.244  -1.076  -8.302  0.00  0.00     0.066 H 
ATOM     57  C   LIG d   1       1.757  -3.098 -10.572  0.00  0.00     0.166 A 
ATOM     58  O   LIG d   1       1.432  -0.882 -10.464  0.00  0.00    -0.453 OA
ATOM     59  C   LIG d   1       2.305  -4.314 -10.184  0.00  0.00    -0.015 A 
ATOM     60  O   LIG d   1       0.876  -2.783 -11.564  0.00  0.00    -0.453 OA
ATOM     61  C   LIG d   1       3.190  -4.370  -9.129  0.00  0.00    -0.046 A 
ATOM     62  H   LIG d   1       2.038  -5.217 -10.712  0.00  0.00     0.066 H 
ATOM     63  H   LIG d   1       3.614  -5.317  -8.831  0.00  0.00     0.063 H 
ATOM     64  C   LIG d   1       0.999  -1.361 -11.751  0.00  0.00     0.233 C 
ATOM     65  H   LIG d   1       1.743  -1.136 -12.513  0.00  0.00     0.117 H 
ATOM     66  H   LIG d   1       0.035  -0.926 -12.017  0.00  0.00     0.117 H 
ENDBRANCH  50  53
ENDBRANCH  46  49
ENDBRANCH   9  46
TORSDOF 9
ENDMDL
MODEL 6
REMARK VINA RESULT:      -6.0      3.426      5.293
REMARK  9 active torsions:
REMARK  status: ('A' for Active; 'I' for Inactive)
REMARK    1  A    between atoms: C_1  and  N_63 
REMARK    2  A    between atoms: C_2  and  C_3 
REMARK    3  A    between atoms: C_2  and  N_63 
REMARK    4  A    between atoms: C_3  and  C_4 
REMARK    5  A    between atoms: C_10  and  C_11 
REMARK    6  A    between atoms: C_10  and  N_63 
REMARK    7  A    between atoms: C_19  and  C_21 
REMARK    8  A    between atoms: C_21  and  N_22 
REMARK       I    between atoms: N_22  and  C_23 
REMARK    9  A    between atoms: C_23  and  C_25 
ROOT
ATOM      1  C   LIG d   1       5.687   0.227  -3.534  0.00  0.00     0.042 C 
ATOM      2  H   LIG d   1       5.863   1.293  -3.675  0.00  0.00     0.041 H 
ATOM      3  C   LIG d   1       4.936  -0.333  -4.745  0.00  0.00    -0.024 C 
ATOM      4  C   LIG d   1       2.798   0.140  -3.709  0.00  0.00    -0.031 C 
ATOM      5  C   LIG d   1       3.489   0.713  -2.468  0.00  0.00    -0.009 C 
ATOM      6  C   LIG d   1       4.836   0.004  -2.278  0.00  0.00    -0.019 C 
ATOM      7  H   LIG d   1       5.349   0.403  -1.402  0.00  0.00     0.031 H 
ATOM      8  C   LIG d   1       4.578  -1.499  -2.121  0.00  0.00    -0.005 C 
ATOM      9  C   LIG d   1       3.858  -2.011  -3.371  0.00  0.00    -0.005 C 
ATOM     10  H   LIG d   1       2.892  -2.431  -3.088  0.00  0.00     0.087 H 
ATOM     11  H   LIG d   1       4.756   0.467  -5.463  0.00  0.00     0.082 H 
ATOM     12  H   LIG d   1       5.535  -1.115  -5.215  0.00  0.00     0.082 H 
ATOM     13  H   LIG d   1       2.633   0.936  -4.434  0.00  0.00     0.081 H 
ATOM     14  H   LIG d   1       1.842  -0.297  -3.424  0.00  0.00     0.081 H 
ATOM     15  H   LIG d   1       3.655   1.782  -2.604  0.00  0.00     0.032 H 
ATOM     16  H   LIG d   1       2.861   0.551  -1.592  0.00  0.00     0.032 H 
ATOM     17  H   LIG d   1       5.528  -2.023  -2.007  0.00  0.00     0.032 H 
ATOM     18  H   LIG d   1       3.958  -1.674  -1.242  0.00  0.00     0.032 H 
ATOM     19  N   LIG d   1       3.639  -0.907  -4.329  0.00  0.00     0.239 N 
ATOM     20  H   LIG d   1       3.155  -1.274  -5.157  0.00  0.00     0.204 HD
ENDROOT
BRANCH   1  21
ATOM     21  C   LIG d   1       7.026  -0.499  -3.380  0.00  0.00    -0.024 C 
ATOM     22  H   LIG d   1       7.042  -1.374  -4.030  0.00  0.00     0.082 H 
ATOM     23  H   LIG d   1       7.152  -0.812  -2.344  0.00  0.00     0.082 H 
BRANCH  21  24
ATOM     24  N   LIG d   1       8.114   0.420  -3.779  0.00  0.00     0.234 N 
ATOM     25  H   LIG d   1       8.846   0.400  -3.060  0.00  0.00     0.203 HD
BRANCH  24  26
ATOM     26  C   LIG d   1       8.693  -0.013  -5.068  0.00  0.00    -0.043 C 
ATOM     27  H   LIG d   1       9.102  -1.017  -4.952  0.00  0.00     0.078 H 
ATOM     28  H   LIG d   1       7.906  -0.026  -5.823  0.00  0.00     0.078 H 
ATOM     29  H   LIG d   1       9.484   0.667  -5.380  0.00  0.00     0.078 H 
ENDBRANCH  24  26
BRANCH  24  30
ATOM     30  C   LIG d   1       7.594   1.798  -3.897  0.00  0.00    -0.027 C 
ATOM     31  H   LIG d   1       6.555   1.787  -4.229  0.00  0.00     0.082 H 
ATOM     32  H   LIG d   1       7.658   2.288  -2.924  0.00  0.00     0.082 H 
BRANCH  30  33
ATOM     33  C   LIG d   1       8.446   2.563  -4.911  0.00  0.00     0.030 C 
ATOM     34  H   LIG d   1       9.124   1.871  -5.411  0.00  0.00     0.038 H 
ATOM     35  H   LIG d   1       7.798   3.033  -5.650  0.00  0.00     0.038 H 
BRANCH  33  36
ATOM     36  C   LIG d   1       9.246   3.623  -4.198  0.00  0.00     0.046 A 
ATOM     37  N   LIG d   1       9.832   3.336  -3.052  0.00  0.00    -0.260 NA
ATOM     38  C   LIG d   1      10.541   4.232  -2.393  0.00  0.00     0.028 A 
ATOM     39  C   LIG d   1      10.696   5.513  -2.886  0.00  0.00    -0.044 A 
ATOM     40  H   LIG d   1      11.007   3.959  -1.458  0.00  0.00     0.083 H 
ATOM     41  C   LIG d   1      10.095   5.851  -4.089  0.00  0.00    -0.059 A 
ATOM     42  H   LIG d   1      11.278   6.242  -2.342  0.00  0.00     0.063 H 
ATOM     43  C   LIG d   1       9.361   4.883  -4.755  0.00  0.00    -0.040 A 
ATOM     44  H   LIG d   1      10.198   6.845  -4.498  0.00  0.00     0.062 H 
ATOM     45  H   LIG d   1       8.883   5.109  -5.696  0.00  0.00     0.064 H 
ENDBRANCH  33  36
ENDBRANCH  30  33
ENDBRANCH  24  30
ENDBRANCH  21  24
ENDBRANCH   1  21
BRANCH   9  46
ATOM     46  C   LIG d   1       4.707  -3.091  -4.044  0.00  0.00     0.055 C 
ATOM     47  H   LIG d   1       5.671  -2.671  -4.328  0.00  0.00     0.052 H 
ATOM     48  H   LIG d   1       4.862  -3.917  -3.349  0.00  0.00     0.052 H 
BRANCH  46  49
ATOM     49  N   LIG d   1       4.016  -3.582  -5.239  0.00  0.00    -0.306 N 
ATOM     50  C   LIG d   1       4.708  -3.800  -6.376  0.00  0.00     0.244 C 
ATOM     51  O   LIG d   1       5.905  -3.590  -6.409  0.00  0.00    -0.270 OA
ATOM     52  H   LIG d   1       3.062  -3.750  -5.212  0.00  0.00     0.149 HD
BRANCH  50  53
ATOM     53  C   LIG d   1       4.011  -4.295  -7.579  0.00  0.00     0.040 A 
ATOM     54  C   LIG d   1       3.821  -5.668  -7.763  0.00  0.00    -0.004 A 
ATOM     55  C   LIG d   1       3.163  -6.126  -8.888  0.00  0.00     0.167 A 
ATOM     56  H   LIG d   1       4.183  -6.367  -7.025  0.00  0.00     0.066 H 
ATOM     57  C   LIG d   1       2.702  -5.221  -9.843  0.00  0.00     0.166 A 
ATOM     58  O   LIG d   1       2.850  -7.391  -9.298  0.00  0.00    -0.453 OA
ATOM     59  C   LIG d   1       2.897  -3.858  -9.662  0.00  0.00    -0.015 A 
ATOM     60  O   LIG d   1       2.102  -5.919 -10.850  0.00  0.00    -0.453 OA
ATOM     61  C   LIG d   1       3.546  -3.394  -8.539  0.00  0.00    -0.046 A 
ATOM     62  H   LIG d   1       2.538  -3.160 -10.404  0.00  0.00     0.066 H 
ATOM     63  H   LIG d   1       3.695  -2.333  -8.401  0.00  0.00     0.063 H 
ATOM     64  C   LIG d   1       1.836  -7.226 -10.306  0.00  0.00     0.233 C 
ATOM     65  H   LIG d   1       0.843  -7.261  -9.859  0.00  0.00     0.117 H 
ATOM     66  H   LIG d   1       1.934  -7.988 -11.079  0.00  0.00     0.117 H 
ENDBRANCH  50  53
ENDBRANCH  46  49
ENDBRANCH   9  46
TORSDOF 9
ENDMDL
MODEL 7
REMARK VINA RESULT:      -5.9      6.913     11.140
REMARK  9 active torsions:
REMARK  status: ('A' for Active; 'I' for Inactive)
REMARK    1  A    between atoms: C_1  and  N_63 
REMARK    2  A    between atoms: C_2  and  C_3 
REMARK    3  A    between atoms: C_2  and  N_63 
REMARK    4  A    between atoms: C_3  and  C_4 
REMARK    5  A    between atoms: C_10  and  C_11 
REMARK    6  A    between atoms: C_10  and  N_63 
REMARK    7  A    between atoms: C_19  and  C_21 
REMARK    8  A    between atoms: C_21  and  N_22 
REMARK       I    between atoms: N_22  and  C_23 
REMARK    9  A    between atoms: C_23  and  C_25 
ROOT
ATOM      1  C   LIG d   1      10.620   1.372  -5.871  0.00  0.00     0.042 C 
ATOM      2  H   LIG d   1      10.532   1.242  -6.950  0.00  0.00     0.041 H 
ATOM      3  C   LIG d   1      10.449   2.853  -5.518  0.00  0.00    -0.024 C 
ATOM      4  C   LIG d   1      12.830   3.240  -5.743  0.00  0.00    -0.031 C 
ATOM      5  C   LIG d   1      13.068   1.771  -6.102  0.00  0.00    -0.009 C 
ATOM      6  C   LIG d   1      12.007   0.911  -5.405  0.00  0.00    -0.019 C 
ATOM      7  H   LIG d   1      12.154  -0.141  -5.654  0.00  0.00     0.031 H 
ATOM      8  C   LIG d   1      12.114   1.132  -3.892  0.00  0.00    -0.005 C 
ATOM      9  C   LIG d   1      11.902   2.620  -3.594  0.00  0.00    -0.005 C 
ATOM     10  H   LIG d   1      12.790   3.023  -3.106  0.00  0.00     0.087 H 
ATOM     11  H   LIG d   1      10.278   3.427  -6.429  0.00  0.00     0.082 H 
ATOM     12  H   LIG d   1       9.596   2.970  -4.848  0.00  0.00     0.082 H 
ATOM     13  H   LIG d   1      12.642   3.811  -6.652  0.00  0.00     0.081 H 
ATOM     14  H   LIG d   1      13.709   3.639  -5.238  0.00  0.00     0.081 H 
ATOM     15  H   LIG d   1      12.991   1.642  -7.182  0.00  0.00     0.032 H 
ATOM     16  H   LIG d   1      14.062   1.470  -5.770  0.00  0.00     0.032 H 
ATOM     17  H   LIG d   1      11.351   0.546  -3.382  0.00  0.00     0.032 H 
ATOM     18  H   LIG d   1      13.102   0.827  -3.547  0.00  0.00     0.032 H 
ATOM     19  N   LIG d   1      11.661   3.368  -4.846  0.00  0.00     0.239 N 
ATOM     20  H   LIG d   1      11.522   4.359  -4.621  0.00  0.00     0.204 HD
ENDROOT
BRANCH   1  21
ATOM     21  C   LIG d   1       9.542   0.549  -5.164  0.00  0.00    -0.024 C 
ATOM     22  H   LIG d   1       9.798   0.442  -4.110  0.00  0.00     0.082 H 
ATOM     23  H   LIG d   1       9.478  -0.437  -5.625  0.00  0.00     0.082 H 
BRANCH  21  24
ATOM     24  N   LIG d   1       8.249   1.258  -5.279  0.00  0.00     0.234 N 
ATOM     25  H   LIG d   1       8.430   2.255  -5.443  0.00  0.00     0.203 HD
BRANCH  24  26
ATOM     26  C   LIG d   1       7.475   0.716  -6.415  0.00  0.00    -0.043 C 
ATOM     27  H   LIG d   1       7.606  -0.366  -6.447  0.00  0.00     0.078 H 
ATOM     28  H   LIG d   1       6.420   0.950  -6.268  0.00  0.00     0.078 H 
ATOM     29  H   LIG d   1       7.817   1.151  -7.353  0.00  0.00     0.078 H 
ENDBRANCH  24  26
BRANCH  24  30
ATOM     30  C   LIG d   1       7.480   1.110  -4.026  0.00  0.00    -0.027 C 
ATOM     31  H   LIG d   1       8.072   1.438  -3.172  0.00  0.00     0.082 H 
ATOM     32  H   LIG d   1       6.573   1.711  -4.091  0.00  0.00     0.082 H 
BRANCH  30  33
ATOM     33  C   LIG d   1       7.104  -0.363  -3.849  0.00  0.00     0.030 C 
ATOM     34  H   LIG d   1       7.284  -0.898  -4.782  0.00  0.00     0.038 H 
ATOM     35  H   LIG d   1       7.712  -0.800  -3.057  0.00  0.00     0.038 H 
BRANCH  33  36
ATOM     36  C   LIG d   1       5.647  -0.470  -3.481  0.00  0.00     0.046 A 
ATOM     37  N   LIG d   1       4.811   0.482  -3.849  0.00  0.00    -0.260 NA
ATOM     38  C   LIG d   1       3.527   0.431  -3.549  0.00  0.00     0.028 A 
ATOM     39  C   LIG d   1       3.011  -0.632  -2.834  0.00  0.00    -0.044 A 
ATOM     40  H   LIG d   1       2.873   1.229  -3.868  0.00  0.00     0.083 H 
ATOM     41  C   LIG d   1       3.859  -1.652  -2.430  0.00  0.00    -0.059 A 
ATOM     42  H   LIG d   1       1.958  -0.668  -2.592  0.00  0.00     0.063 H 
ATOM     43  C   LIG d   1       5.200  -1.566  -2.767  0.00  0.00    -0.040 A 
ATOM     44  H   LIG d   1       3.483  -2.494  -1.869  0.00  0.00     0.062 H 
ATOM     45  H   LIG d   1       5.889  -2.344  -2.474  0.00  0.00     0.064 H 
ENDBRANCH  33  36
ENDBRANCH  30  33
ENDBRANCH  24  30
ENDBRANCH  21  24
ENDBRANCH   1  21
BRANCH   9  46
ATOM     46  C   LIG d   1      10.692   2.788  -2.674  0.00  0.00     0.055 C 
ATOM     47  H   LIG d   1       9.799   2.963  -3.275  0.00  0.00     0.052 H 
ATOM     48  H   LIG d   1      10.558   1.883  -2.080  0.00  0.00     0.052 H 
BRANCH  46  49
ATOM     49  N   LIG d   1      10.911   3.930  -1.782  0.00  0.00    -0.306 N 
ATOM     50  C   LIG d   1      10.340   5.119  -2.057  0.00  0.00     0.244 C 
ATOM     51  O   LIG d   1       9.644   5.246  -3.045  0.00  0.00    -0.270 OA
ATOM     52  H   LIG d   1      11.466   3.829  -0.993  0.00  0.00     0.149 HD
BRANCH  50  53
ATOM     53  C   LIG d   1      10.561   6.268  -1.158  0.00  0.00     0.040 A 
ATOM     54  C   LIG d   1      10.275   7.565  -1.596  0.00  0.00    -0.004 A 
ATOM     55  C   LIG d   1      10.477   8.637  -0.749  0.00  0.00     0.167 A 
ATOM     56  H   LIG d   1       9.891   7.727  -2.591  0.00  0.00     0.066 H 
ATOM     57  C   LIG d   1      10.978   8.427   0.536  0.00  0.00     0.166 A 
ATOM     58  O   LIG d   1      10.278   9.977  -0.925  0.00  0.00    -0.453 OA
ATOM     59  C   LIG d   1      11.268   7.139   0.967  0.00  0.00    -0.015 A 
ATOM     60  O   LIG d   1      11.093   9.633   1.161  0.00  0.00    -0.453 OA
ATOM     61  C   LIG d   1      11.061   6.065   0.130  0.00  0.00    -0.046 A 
ATOM     62  H   LIG d   1      11.655   6.980   1.963  0.00  0.00     0.066 H 
ATOM     63  H   LIG d   1      11.287   5.064   0.469  0.00  0.00     0.063 H 
ATOM     64  C   LIG d   1      10.274  10.541   0.400  0.00  0.00     0.233 C 
ATOM     65  H   LIG d   1       9.261  10.572   0.799  0.00  0.00     0.117 H 
ATOM     66  H   LIG d   1      10.714  11.539   0.394  0.00  0.00     0.117 H 
ENDBRANCH  50  53
ENDBRANCH  46  49
ENDBRANCH   9  46
TORSDOF 9
ENDMDL
MODEL 8
REMARK VINA RESULT:      -5.8      8.023     11.914
REMARK  9 active torsions:
REMARK  status: ('A' for Active; 'I' for Inactive)
REMARK    1  A    between atoms: C_1  and  N_63 
REMARK    2  A    between atoms: C_2  and  C_3 
REMARK    3  A    between atoms: C_2  and  N_63 
REMARK    4  A    between atoms: C_3  and  C_4 
REMARK    5  A    between atoms: C_10  and  C_11 
REMARK    6  A    between atoms: C_10  and  N_63 
REMARK    7  A    between atoms: C_19  and  C_21 
REMARK    8  A    between atoms: C_21  and  N_22 
REMARK       I    between atoms: N_22  and  C_23 
REMARK    9  A    between atoms: C_23  and  C_25 
ROOT
ATOM      1  C   LIG d   1       9.807   2.718  -5.039  0.00  0.00     0.042 C 
ATOM      2  H   LIG d   1       9.898   2.178  -5.981  0.00  0.00     0.041 H 
ATOM      3  C   LIG d   1      10.168   4.191  -5.256  0.00  0.00    -0.024 C 
ATOM      4  C   LIG d   1      12.498   3.749  -4.760  0.00  0.00    -0.031 C 
ATOM      5  C   LIG d   1      12.203   2.265  -4.530  0.00  0.00    -0.009 C 
ATOM      6  C   LIG d   1      10.769   2.120  -4.005  0.00  0.00    -0.019 C 
ATOM      7  H   LIG d   1      10.534   1.068  -3.840  0.00  0.00     0.031 H 
ATOM      8  C   LIG d   1      10.643   2.916  -2.701  0.00  0.00    -0.005 C 
ATOM      9  C   LIG d   1      10.982   4.383  -2.982  0.00  0.00    -0.005 C 
ATOM     10  H   LIG d   1      11.836   4.682  -2.374  0.00  0.00     0.087 H 
ATOM     11  H   LIG d   1      10.430   4.351  -6.302  0.00  0.00     0.082 H 
ATOM     12  H   LIG d   1       9.315   4.817  -4.994  0.00  0.00     0.082 H 
ATOM     13  H   LIG d   1      12.743   3.913  -5.809  0.00  0.00     0.081 H 
ATOM     14  H   LIG d   1      13.340   4.054  -4.138  0.00  0.00     0.081 H 
ATOM     15  H   LIG d   1      12.304   1.722  -5.470  0.00  0.00     0.032 H 
ATOM     16  H   LIG d   1      12.904   1.861  -3.799  0.00  0.00     0.032 H 
ATOM     17  H   LIG d   1       9.622   2.844  -2.325  0.00  0.00     0.032 H 
ATOM     18  H   LIG d   1      11.334   2.516  -1.960  0.00  0.00     0.032 H 
ATOM     19  N   LIG d   1      11.320   4.570  -4.409  0.00  0.00     0.239 N 
ATOM     20  H   LIG d   1      11.542   5.559  -4.572  0.00  0.00     0.204 HD
ENDROOT
BRANCH   1  21
ATOM     21  C   LIG d   1       8.371   2.614  -4.522  0.00  0.00    -0.024 C 
ATOM     22  H   LIG d   1       7.912   3.602  -4.521  0.00  0.00     0.082 H 
ATOM     23  H   LIG d   1       8.377   2.214  -3.509  0.00  0.00     0.082 H 
BRANCH  21  24
ATOM     24  N   LIG d   1       7.604   1.726  -5.424  0.00  0.00     0.234 N 
ATOM     25  H   LIG d   1       6.744   2.207  -5.712  0.00  0.00     0.203 HD
BRANCH  24  26
ATOM     26  C   LIG d   1       8.406   1.411  -6.625  0.00  0.00    -0.043 C 
ATOM     27  H   LIG d   1       7.790   0.841  -7.321  0.00  0.00     0.078 H 
ATOM     28  H   LIG d   1       8.718   2.344  -7.096  0.00  0.00     0.078 H 
ATOM     29  H   LIG d   1       9.285   0.828  -6.355  0.00  0.00     0.078 H 
ENDBRANCH  24  26
BRANCH  24  30
ATOM     30  C   LIG d   1       7.242   0.480  -4.717  0.00  0.00    -0.027 C 
ATOM     31  H   LIG d   1       6.536  -0.104  -5.307  0.00  0.00     0.082 H 
ATOM     32  H   LIG d   1       8.145  -0.108  -4.546  0.00  0.00     0.082 H 
BRANCH  30  33
ATOM     33  C   LIG d   1       6.607   0.841  -3.373  0.00  0.00     0.030 C 
ATOM     34  H   LIG d   1       7.243   0.484  -2.563  0.00  0.00     0.038 H 
ATOM     35  H   LIG d   1       6.500   1.923  -3.300  0.00  0.00     0.038 H 
BRANCH  33  36
ATOM     36  C   LIG d   1       5.249   0.195  -3.269  0.00  0.00     0.046 A 
ATOM     37  N   LIG d   1       4.227   0.719  -3.916  0.00  0.00    -0.260 NA
ATOM     38  C   LIG d   1       3.021   0.187  -3.854  0.00  0.00     0.028 A 
ATOM     39  C   LIG d   1       2.787  -0.947  -3.102  0.00  0.00    -0.044 A 
ATOM     40  H   LIG d   1       2.209   0.644  -4.399  0.00  0.00     0.083 H 
ATOM     41  C   LIG d   1       3.838  -1.527  -2.407  0.00  0.00    -0.059 A 
ATOM     42  H   LIG d   1       1.797  -1.378  -3.055  0.00  0.00     0.063 H 
ATOM     43  C   LIG d   1       5.091  -0.944  -2.500  0.00  0.00    -0.040 A 
ATOM     44  H   LIG d   1       3.684  -2.414  -1.810  0.00  0.00     0.062 H 
ATOM     45  H   LIG d   1       5.934  -1.370  -1.976  0.00  0.00     0.064 H 
ENDBRANCH  33  36
ENDBRANCH  30  33
ENDBRANCH  24  30
ENDBRANCH  21  24
ENDBRANCH   1  21
BRANCH   9  46
ATOM     46  C   LIG d   1       9.777   5.260  -2.637  0.00  0.00     0.055 C 
ATOM     47  H   LIG d   1       9.464   5.812  -3.524  0.00  0.00     0.052 H 
ATOM     48  H   LIG d   1       8.956   4.631  -2.292  0.00  0.00     0.052 H 
BRANCH  46  49
ATOM     49  N   LIG d   1      10.147   6.205  -1.580  0.00  0.00    -0.306 N 
ATOM     50  C   LIG d   1      10.268   7.518  -1.860  0.00  0.00     0.244 C 
ATOM     51  O   LIG d   1      10.072   7.919  -2.991  0.00  0.00    -0.270 OA
ATOM     52  H   LIG d   1      10.303   5.885  -0.678  0.00  0.00     0.149 HD
BRANCH  50  53
ATOM     53  C   LIG d   1      10.640   8.468  -0.794  0.00  0.00     0.040 A 
ATOM     54  C   LIG d   1      11.131   7.994   0.426  0.00  0.00    -0.004 A 
ATOM     55  C   LIG d   1      11.484   8.887   1.419  0.00  0.00     0.167 A 
ATOM     56  H   LIG d   1      11.240   6.933   0.589  0.00  0.00     0.066 H 
ATOM     57  C   LIG d   1      11.338  10.258   1.208  0.00  0.00     0.166 A 
ATOM     58  O   LIG d   1      11.982   8.690   2.675  0.00  0.00    -0.453 OA
ATOM     59  C   LIG d   1      10.844  10.727  -0.003  0.00  0.00    -0.015 A 
ATOM     60  O   LIG d   1      11.744  10.917   2.331  0.00  0.00    -0.453 OA
ATOM     61  C   LIG d   1      10.498   9.842  -0.999  0.00  0.00    -0.046 A 
ATOM     62  H   LIG d   1      10.733  11.789  -0.162  0.00  0.00     0.066 H 
ATOM     63  H   LIG d   1      10.114  10.211  -1.940  0.00  0.00     0.063 H 
ATOM     64  C   LIG d   1      12.523   9.963   3.076  0.00  0.00     0.233 C 
ATOM     65  H   LIG d   1      13.576  10.033   2.807  0.00  0.00     0.117 H 
ATOM     66  H   LIG d   1      12.392  10.116   4.148  0.00  0.00     0.117 H 
ENDBRANCH  50  53
ENDBRANCH  46  49
ENDBRANCH   9  46
TORSDOF 9
ENDMDL
MODEL 9
REMARK VINA RESULT:      -5.7      5.562      9.816
REMARK  9 active torsions:
REMARK  status: ('A' for Active; 'I' for Inactive)
REMARK    1  A    between atoms: C_1  and  N_63 
REMARK    2  A    between atoms: C_2  and  C_3 
REMARK    3  A    between atoms: C_2  and  N_63 
REMARK    4  A    between atoms: C_3  and  C_4 
REMARK    5  A    between atoms: C_10  and  C_11 
REMARK    6  A    between atoms: C_10  and  N_63 
REMARK    7  A    between atoms: C_19  and  C_21 
REMARK    8  A    between atoms: C_21  and  N_22 
REMARK       I    between atoms: N_22  and  C_23 
REMARK    9  A    between atoms: C_23  and  C_25 
ROOT
ATOM      1  C   LIG d   1       7.745  -0.500  -6.294  0.00  0.00     0.042 C 
ATOM      2  H   LIG d   1       7.168  -0.911  -7.122  0.00  0.00     0.041 H 
ATOM      3  C   LIG d   1       7.511   1.011  -6.207  0.00  0.00    -0.024 C 
ATOM      4  C   LIG d   1       9.372   1.442  -7.696  0.00  0.00    -0.031 C 
ATOM      5  C   LIG d   1       9.659  -0.057  -7.826  0.00  0.00    -0.009 C 
ATOM      6  C   LIG d   1       9.240  -0.756  -6.527  0.00  0.00    -0.019 C 
ATOM      7  H   LIG d   1       9.429  -1.828  -6.600  0.00  0.00     0.031 H 
ATOM      8  C   LIG d   1      10.029  -0.142  -5.365  0.00  0.00    -0.005 C 
ATOM      9  C   LIG d   1       9.732   1.359  -5.303  0.00  0.00    -0.005 C 
ATOM     10  H   LIG d   1      10.659   1.919  -5.433  0.00  0.00     0.087 H 
ATOM     11  H   LIG d   1       6.821   1.318  -6.993  0.00  0.00     0.082 H 
ATOM     12  H   LIG d   1       7.086   1.257  -5.233  0.00  0.00     0.082 H 
ATOM     13  H   LIG d   1       8.670   1.746  -8.472  0.00  0.00     0.081 H 
ATOM     14  H   LIG d   1      10.301   2.001  -7.807  0.00  0.00     0.081 H 
ATOM     15  H   LIG d   1       9.090  -0.467  -8.661  0.00  0.00     0.032 H 
ATOM     16  H   LIG d   1      10.724  -0.212  -8.000  0.00  0.00     0.032 H 
ATOM     17  H   LIG d   1       9.726  -0.612  -4.429  0.00  0.00     0.032 H 
ATOM     18  H   LIG d   1      11.095  -0.299  -5.524  0.00  0.00     0.032 H 
ATOM     19  N   LIG d   1       8.786   1.742  -6.373  0.00  0.00     0.239 N 
ATOM     20  H   LIG d   1       8.603   2.750  -6.311  0.00  0.00     0.204 HD
ENDROOT
BRANCH   1  21
ATOM     21  C   LIG d   1       7.310  -1.163  -4.986  0.00  0.00    -0.024 C 
ATOM     22  H   LIG d   1       7.266  -0.413  -4.196  0.00  0.00     0.082 H 
ATOM     23  H   LIG d   1       8.028  -1.936  -4.714  0.00  0.00     0.082 H 
BRANCH  21  24
ATOM     24  N   LIG d   1       5.965  -1.748  -5.173  0.00  0.00     0.234 N 
ATOM     25  H   LIG d   1       5.260  -1.017  -5.024  0.00  0.00     0.203 HD
BRANCH  24  26
ATOM     26  C   LIG d   1       5.830  -2.275  -6.547  0.00  0.00    -0.043 C 
ATOM     27  H   LIG d   1       4.770  -2.373  -6.785  0.00  0.00     0.078 H 
ATOM     28  H   LIG d   1       6.295  -1.575  -7.241  0.00  0.00     0.078 H 
ATOM     29  H   LIG d   1       6.313  -3.247  -6.633  0.00  0.00     0.078 H 
ENDBRANCH  24  26
BRANCH  24  30
ATOM     30  C   LIG d   1       5.746  -2.832  -4.192  0.00  0.00    -0.027 C 
ATOM     31  H   LIG d   1       5.812  -3.806  -4.678  0.00  0.00     0.082 H 
ATOM     32  H   LIG d   1       6.503  -2.764  -3.411  0.00  0.00     0.082 H 
BRANCH  30  33
ATOM     33  C   LIG d   1       4.356  -2.665  -3.574  0.00  0.00     0.030 C 
ATOM     34  H   LIG d   1       3.598  -2.970  -4.295  0.00  0.00     0.038 H 
ATOM     35  H   LIG d   1       4.279  -3.286  -2.682  0.00  0.00     0.038 H 
BRANCH  33  36
ATOM     36  C   LIG d   1       4.143  -1.221  -3.200  0.00  0.00     0.046 A 
ATOM     37  N   LIG d   1       3.467  -0.431  -4.012  0.00  0.00    -0.260 NA
ATOM     38  C   LIG d   1       3.256   0.839  -3.726  0.00  0.00     0.028 A 
ATOM     39  C   LIG d   1       3.739   1.390  -2.555  0.00  0.00    -0.044 A 
ATOM     40  H   LIG d   1       2.697   1.454  -4.415  0.00  0.00     0.083 H 
ATOM     41  C   LIG d   1       4.455   0.590  -1.677  0.00  0.00    -0.059 A 
ATOM     42  H   LIG d   1       3.563   2.431  -2.328  0.00  0.00     0.063 H 
ATOM     43  C   LIG d   1       4.653  -0.740  -2.008  0.00  0.00    -0.040 A 
ATOM     44  H   LIG d   1       4.846   0.995  -0.755  0.00  0.00     0.062 H 
ATOM     45  H   LIG d   1       5.201  -1.394  -1.346  0.00  0.00     0.064 H 
ENDBRANCH  33  36
ENDBRANCH  30  33
ENDBRANCH  24  30
ENDBRANCH  21  24
ENDBRANCH   1  21
BRANCH   9  46
ATOM     46  C   LIG d   1       9.114   1.702  -3.947  0.00  0.00     0.055 C 
ATOM     47  H   LIG d   1       8.089   1.333  -3.910  0.00  0.00     0.052 H 
ATOM     48  H   LIG d   1       9.697   1.234  -3.153  0.00  0.00     0.052 H 
BRANCH  46  49
ATOM     49  N   LIG d   1       9.116   3.155  -3.762  0.00  0.00    -0.306 N 
ATOM     50  C   LIG d   1      10.018   3.730  -2.942  0.00  0.00     0.244 C 
ATOM     51  O   LIG d   1      10.830   3.042  -2.354  0.00  0.00    -0.270 OA
ATOM     52  H   LIG d   1       8.468   3.704  -4.231  0.00  0.00     0.149 HD
BRANCH  50  53
ATOM     53  C   LIG d   1      10.019   5.194  -2.757  0.00  0.00     0.040 A 
ATOM     54  C   LIG d   1      10.144   5.737  -1.475  0.00  0.00    -0.004 A 
ATOM     55  C   LIG d   1      10.151   7.108  -1.306  0.00  0.00     0.167 A 
ATOM     56  H   LIG d   1      10.240   5.087  -0.619  0.00  0.00     0.066 H 
ATOM     57  C   LIG d   1      10.020   7.947  -2.413  0.00  0.00     0.166 A 
ATOM     58  O   LIG d   1      10.261   7.880  -0.185  0.00  0.00    -0.453 OA
ATOM     59  C   LIG d   1       9.890   7.406  -3.685  0.00  0.00    -0.015 A 
ATOM     60  O   LIG d   1      10.048   9.241  -1.983  0.00  0.00    -0.453 OA
ATOM     61  C   LIG d   1       9.890   6.040  -3.860  0.00  0.00    -0.046 A 
ATOM     62  H   LIG d   1       9.790   8.059  -4.539  0.00  0.00     0.066 H 
ATOM     63  H   LIG d   1       9.789   5.623  -4.852  0.00  0.00     0.063 H 
ATOM     64  C   LIG d   1      10.608   9.195  -0.657  0.00  0.00     0.233 C 
ATOM     65  H   LIG d   1      11.690   9.315  -0.693  0.00  0.00     0.117 H 
ATOM     66  H   LIG d   1      10.159   9.961  -0.025  0.00  0.00     0.117 H 
ENDBRANCH  50  53
ENDBRANCH  46  49
ENDBRANCH   9  46
TORSDOF 9
ENDMDL
MODEL 10
REMARK VINA RESULT:      -5.6      2.221      3.790
REMARK  9 active torsions:
REMARK  status: ('A' for Active; 'I' for Inactive)
REMARK    1  A    between atoms: C_1  and  N_63 
REMARK    2  A    between atoms: C_2  and  C_3 
REMARK    3  A    between atoms: C_2  and  N_63 
REMARK    4  A    between atoms: C_3  and  C_4 
REMARK    5  A    between atoms: C_10  and  C_11 
REMARK    6  A    between atoms: C_10  and  N_63 
REMARK    7  A    between atoms: C_19  and  C_21 
REMARK    8  A    between atoms: C_21  and  N_22 
REMARK       I    between atoms: N_22  and  C_23 
REMARK    9  A    between atoms: C_23  and  C_25 
ROOT
ATOM      1  C   LIG d   1       6.281  -1.149  -3.397  0.00  0.00     0.042 C 
ATOM      2  H   LIG d   1       6.945  -1.190  -2.534  0.00  0.00     0.041 H 
ATOM      3  C   LIG d   1       5.736   0.274  -3.557  0.00  0.00    -0.024 C 
ATOM      4  C   LIG d   1       3.838  -0.234  -2.139  0.00  0.00    -0.031 C 
ATOM      5  C   LIG d   1       4.329  -1.670  -1.939  0.00  0.00    -0.009 C 
ATOM      6  C   LIG d   1       5.103  -2.109  -3.189  0.00  0.00    -0.019 C 
ATOM      7  H   LIG d   1       5.468  -3.129  -3.065  0.00  0.00     0.031 H 
ATOM      8  C   LIG d   1       4.169  -2.009  -4.401  0.00  0.00    -0.005 C 
ATOM      9  C   LIG d   1       3.683  -0.563  -4.533  0.00  0.00    -0.005 C 
ATOM     10  H   LIG d   1       2.595  -0.537  -4.456  0.00  0.00     0.087 H 
ATOM     11  H   LIG d   1       6.143   0.910  -2.770  0.00  0.00     0.082 H 
ATOM     12  H   LIG d   1       6.028   0.667  -4.531  0.00  0.00     0.082 H 
ATOM     13  H   LIG d   1       4.258   0.405  -1.363  0.00  0.00     0.081 H 
ATOM     14  H   LIG d   1       2.750  -0.210  -2.081  0.00  0.00     0.081 H 
ATOM     15  H   LIG d   1       4.986  -1.714  -1.070  0.00  0.00     0.032 H 
ATOM     16  H   LIG d   1       3.476  -2.330  -1.785  0.00  0.00     0.032 H 
ATOM     17  H   LIG d   1       4.710  -2.295  -5.303  0.00  0.00     0.032 H 
ATOM     18  H   LIG d   1       3.316  -2.672  -4.261  0.00  0.00     0.032 H 
ATOM     19  N   LIG d   1       4.260   0.276  -3.462  0.00  0.00     0.239 N 
ATOM     20  H   LIG d   1       3.920   1.238  -3.571  0.00  0.00     0.204 HD
ENDROOT
BRANCH   1  21
ATOM     21  C   LIG d   1       7.050  -1.548  -4.658  0.00  0.00    -0.024 C 
ATOM     22  H   LIG d   1       6.878  -0.807  -5.438  0.00  0.00     0.082 H 
ATOM     23  H   LIG d   1       6.706  -2.524  -5.000  0.00  0.00     0.082 H 
BRANCH  21  24
ATOM     24  N   LIG d   1       8.494  -1.591  -4.341  0.00  0.00     0.234 N 
ATOM     25  H   LIG d   1       8.659  -1.078  -3.467  0.00  0.00     0.203 HD
BRANCH  24  26
ATOM     26  C   LIG d   1       8.931  -2.992  -4.167  0.00  0.00    -0.043 C 
ATOM     27  H   LIG d   1       8.470  -3.396  -3.265  0.00  0.00     0.078 H 
ATOM     28  H   LIG d   1       8.609  -3.573  -5.031  0.00  0.00     0.078 H 
ATOM     29  H   LIG d   1      10.016  -3.045  -4.076  0.00  0.00     0.078 H 
ENDBRANCH  24  26
BRANCH  24  30
ATOM     30  C   LIG d   1       9.268  -0.951  -5.426  0.00  0.00    -0.027 C 
ATOM     31  H   LIG d   1      10.220  -0.578  -5.048  0.00  0.00     0.082 H 
ATOM     32  H   LIG d   1       9.451  -1.684  -6.212  0.00  0.00     0.082 H 
BRANCH  30  33
ATOM     33  C   LIG d   1       8.453   0.213  -5.993  0.00  0.00     0.030 C 
ATOM     34  H   LIG d   1       8.619   0.283  -7.068  0.00  0.00     0.038 H 
ATOM     35  H   LIG d   1       7.394   0.043  -5.800  0.00  0.00     0.038 H 
BRANCH  33  36
ATOM     36  C   LIG d   1       8.884   1.497  -5.333  0.00  0.00     0.046 A 
ATOM     37  N   LIG d   1       9.095   1.522  -4.032  0.00  0.00    -0.260 NA
ATOM     38  C   LIG d   1       9.474   2.623  -3.412  0.00  0.00     0.028 A 
ATOM     39  C   LIG d   1       9.665   3.798  -4.112  0.00  0.00    -0.044 A 
ATOM     40  H   LIG d   1       9.638   2.604  -2.345  0.00  0.00     0.083 H 
ATOM     41  C   LIG d   1       9.453   3.811  -5.483  0.00  0.00    -0.059 A 
ATOM     42  H   LIG d   1       9.974   4.697  -3.599  0.00  0.00     0.063 H 
ATOM     43  C   LIG d   1       9.060   2.634  -6.100  0.00  0.00    -0.040 A 
ATOM     44  H   LIG d   1       9.592   4.716  -6.056  0.00  0.00     0.062 H 
ATOM     45  H   LIG d   1       8.890   2.605  -7.166  0.00  0.00     0.064 H 
ENDBRANCH  33  36
ENDBRANCH  30  33
ENDBRANCH  24  30
ENDBRANCH  21  24
ENDBRANCH   1  21
BRANCH   9  46
ATOM     46  C   LIG d   1       4.112  -0.002  -5.890  0.00  0.00     0.055 C 
ATOM     47  H   LIG d   1       3.741   1.018  -5.996  0.00  0.00     0.052 H 
ATOM     48  H   LIG d   1       5.201  -0.000  -5.954  0.00  0.00     0.052 H 
BRANCH  46  49
ATOM     49  N   LIG d   1       3.561  -0.835  -6.961  0.00  0.00    -0.306 N 
ATOM     50  C   LIG d   1       2.987  -0.260  -8.036  0.00  0.00     0.244 C 
ATOM     51  O   LIG d   1       2.928   0.952  -8.118  0.00  0.00    -0.270 OA
ATOM     52  H   LIG d   1       3.609  -1.802  -6.896  0.00  0.00     0.149 HD
BRANCH  50  53
ATOM     53  C   LIG d   1       2.432  -1.100  -9.115  0.00  0.00     0.040 A 
ATOM     54  C   LIG d   1       2.746  -2.461  -9.173  0.00  0.00    -0.004 A 
ATOM     55  C   LIG d   1       2.220  -3.246 -10.181  0.00  0.00     0.167 A 
ATOM     56  H   LIG d   1       3.395  -2.899  -8.429  0.00  0.00     0.066 H 
ATOM     57  C   LIG d   1       1.387  -2.677 -11.144  0.00  0.00     0.166 A 
ATOM     58  O   LIG d   1       2.363  -4.576 -10.458  0.00  0.00    -0.453 OA
ATOM     59  C   LIG d   1       1.080  -1.324 -11.088  0.00  0.00    -0.015 A 
ATOM     60  O   LIG d   1       1.010  -3.651 -12.023  0.00  0.00    -0.453 OA
ATOM     61  C   LIG d   1       1.597  -0.538 -10.082  0.00  0.00    -0.046 A 
ATOM     62  H   LIG d   1       0.434  -0.888 -11.836  0.00  0.00     0.066 H 
ATOM     63  H   LIG d   1       1.356   0.515 -10.041  0.00  0.00     0.063 H 
ATOM     64  C   LIG d   1       1.285  -4.897 -11.357  0.00  0.00     0.233 C 
ATOM     65  H   LIG d   1       0.412  -5.237 -10.801  0.00  0.00     0.117 H 
ATOM     66  H   LIG d   1       1.598  -5.654 -12.077  0.00  0.00     0.117 H 
ENDBRANCH  50  53
ENDBRANCH  46  49
ENDBRANCH   9  46
TORSDOF 9
ENDMDL
