MODEL 1
REMARK VINA RESULT:      -6.5      0.000      0.000
REMARK  3 active torsions:
REMARK  status: ('A' for Active; 'I' for Inactive)
REMARK    1  A    between atoms: C_1  and  C_2 
REMARK    2  A    between atoms: C_2  and  C_18 
REMARK    3  A    between atoms: C_7  and  C_8 
ROOT
ATOM      1  C   LIG d   1       3.319   0.910  -8.598  0.00  0.00     0.255 C 
ATOM      2  O   LIG d   1       4.637   0.327  -8.806  0.00  0.00    -0.419 OA
ATOM      3  C   LIG d   1       4.937  -0.738  -8.012  0.00  0.00     0.349 C 
ATOM      4  O   LIG d   1       5.441  -1.754  -8.448  0.00  0.00    -0.245 OA
ATOM      5  C   LIG d   1       4.603  -0.568  -6.572  0.00  0.00     0.143 C 
ATOM      6  C   LIG d   1       5.371  -1.103  -5.559  0.00  0.00    -0.031 C 
ATOM      7  C   LIG d   1       3.369   0.223  -6.315  0.00  0.00     0.349 C 
ATOM      8  O   LIG d   1       2.616  -0.023  -5.393  0.00  0.00    -0.245 OA
ATOM      9  O   LIG d   1       3.149   1.247  -7.191  0.00  0.00    -0.419 OA
ATOM     10  H   LIG d   1       6.184  -1.774  -5.793  0.00  0.00     0.064 H 
ENDROOT
BRANCH   6  11
ATOM     11  C   LIG d   1       5.083  -0.764  -4.163  0.00  0.00     0.011 A 
ATOM     12  C   LIG d   1       4.513  -1.719  -3.306  0.00  0.00     0.131 A 
ATOM     13  C   LIG d   1       4.246  -1.387  -1.992  0.00  0.00    -0.026 A 
ATOM     14  F   LIG d   1       4.233  -2.959  -3.764  0.00  0.00    -0.205 F 
ATOM     15  C   LIG d   1       4.538  -0.120  -1.522  0.00  0.00    -0.059 A 
ATOM     16  H   LIG d   1       3.807  -2.118  -1.329  0.00  0.00     0.065 H 
ATOM     17  C   LIG d   1       5.101   0.829  -2.362  0.00  0.00    -0.061 A 
ATOM     18  H   LIG d   1       4.328   0.133  -0.493  0.00  0.00     0.062 H 
ATOM     19  C   LIG d   1       5.374   0.517  -3.675  0.00  0.00    -0.052 A 
ATOM     20  H   LIG d   1       5.326   1.815  -1.984  0.00  0.00     0.062 H 
ATOM     21  H   LIG d   1       5.812   1.260  -4.326  0.00  0.00     0.062 H 
ENDBRANCH   6  11
BRANCH   1  22
ATOM     22  C   LIG d   1       3.183   2.176  -9.445  0.00  0.00     0.013 C 
ATOM     23  H   LIG d   1       4.003   2.856  -9.216  0.00  0.00     0.030 H 
ATOM     24  H   LIG d   1       3.217   1.910 -10.502  0.00  0.00     0.030 H 
ATOM     25  H   LIG d   1       2.233   2.662  -9.223  0.00  0.00     0.030 H 
ENDBRANCH   1  22
BRANCH   1  26
ATOM     26  C   LIG d   1       2.246  -0.099  -9.013  0.00  0.00     0.013 C 
ATOM     27  H   LIG d   1       1.261   0.299  -8.770  0.00  0.00     0.030 H 
ATOM     28  H   LIG d   1       2.311  -0.276 -10.087  0.00  0.00     0.030 H 
ATOM     29  H   LIG d   1       2.402  -1.035  -8.479  0.00  0.00     0.030 H 
ENDBRANCH   1  26
TORSDOF 3
ENDMDL
MODEL 2
REMARK VINA RESULT:      -6.3      1.866      2.943
REMARK  3 active torsions:
REMARK  status: ('A' for Active; 'I' for Inactive)
REMARK    1  A    between atoms: C_1  and  C_2 
REMARK    2  A    between atoms: C_2  and  C_18 
REMARK    3  A    between atoms: C_7  and  C_8 
ROOT
ATOM      1  C   LIG d   1       5.337  -0.786  -8.769  0.00  0.00     0.255 C 
ATOM      2  O   LIG d   1       3.884  -0.740  -8.848  0.00  0.00    -0.419 OA
ATOM      3  C   LIG d   1       3.276   0.070  -7.938  0.00  0.00     0.349 C 
ATOM      4  O   LIG d   1       2.390   0.844  -8.244  0.00  0.00    -0.245 OA
ATOM      5  C   LIG d   1       3.773  -0.061  -6.541  0.00  0.00     0.143 C 
ATOM      6  C   LIG d   1       2.951   0.066  -5.441  0.00  0.00    -0.031 C 
ATOM      7  C   LIG d   1       5.231  -0.335  -6.430  0.00  0.00     0.349 C 
ATOM      8  O   LIG d   1       5.913   0.115  -5.529  0.00  0.00    -0.245 OA
ATOM      9  O   LIG d   1       5.744  -1.131  -7.414  0.00  0.00    -0.419 OA
ATOM     10  H   LIG d   1       1.928   0.388  -5.565  0.00  0.00     0.064 H 
ENDROOT
BRANCH   6  11
ATOM     11  C   LIG d   1       3.465  -0.236  -4.103  0.00  0.00     0.011 A 
ATOM     12  C   LIG d   1       3.706   0.801  -3.188  0.00  0.00     0.131 A 
ATOM     13  C   LIG d   1       4.191   0.504  -1.929  0.00  0.00    -0.026 A 
ATOM     14  F   LIG d   1       3.459   2.083  -3.535  0.00  0.00    -0.205 F 
ATOM     15  C   LIG d   1       4.440  -0.808  -1.571  0.00  0.00    -0.059 A 
ATOM     16  H   LIG d   1       4.379   1.299  -1.222  0.00  0.00     0.065 H 
ATOM     17  C   LIG d   1       4.204  -1.838  -2.469  0.00  0.00    -0.061 A 
ATOM     18  H   LIG d   1       4.818  -1.034  -0.585  0.00  0.00     0.062 H 
ATOM     19  C   LIG d   1       3.721  -1.562  -3.729  0.00  0.00    -0.052 A 
ATOM     20  H   LIG d   1       4.400  -2.859  -2.179  0.00  0.00     0.062 H 
ATOM     21  H   LIG d   1       3.539  -2.367  -4.426  0.00  0.00     0.062 H 
ENDBRANCH   6  11
BRANCH   1  22
ATOM     22  C   LIG d   1       5.867  -1.840  -9.743  0.00  0.00     0.013 C 
ATOM     23  H   LIG d   1       6.783  -2.275  -9.344  0.00  0.00     0.030 H 
ATOM     24  H   LIG d   1       5.119  -2.623  -9.872  0.00  0.00     0.030 H 
ATOM     25  H   LIG d   1       6.074  -1.374 -10.706  0.00  0.00     0.030 H 
ENDBRANCH   1  22
BRANCH   1  26
ATOM     26  C   LIG d   1       5.911   0.583  -9.139  0.00  0.00     0.013 C 
ATOM     27  H   LIG d   1       5.097   1.298  -9.258  0.00  0.00     0.030 H 
ATOM     28  H   LIG d   1       6.579   0.923  -8.347  0.00  0.00     0.030 H 
ATOM     29  H   LIG d   1       6.466   0.504 -10.073  0.00  0.00     0.030 H 
ENDBRANCH   1  26
TORSDOF 3
ENDMDL
MODEL 3
REMARK VINA RESULT:      -6.3      2.536      3.561
REMARK  3 active torsions:
REMARK  status: ('A' for Active; 'I' for Inactive)
REMARK    1  A    between atoms: C_1  and  C_2 
REMARK    2  A    between atoms: C_2  and  C_18 
REMARK    3  A    between atoms: C_7  and  C_8 
ROOT
ATOM      1  C   LIG d   1       5.322  -3.581  -7.672  0.00  0.00     0.255 C 
ATOM      2  O   LIG d   1       5.495  -4.561  -6.610  0.00  0.00    -0.419 OA
ATOM      3  C   LIG d   1       4.701  -4.385  -5.518  0.00  0.00     0.349 C 
ATOM      4  O   LIG d   1       4.097  -5.302  -4.996  0.00  0.00    -0.245 OA
ATOM      5  C   LIG d   1       4.627  -2.989  -5.008  0.00  0.00     0.143 C 
ATOM      6  C   LIG d   1       4.519  -2.689  -3.665  0.00  0.00    -0.031 C 
ATOM      7  C   LIG d   1       4.674  -1.943  -6.065  0.00  0.00     0.349 C 
ATOM      8  O   LIG d   1       4.047  -0.905  -5.984  0.00  0.00    -0.245 OA
ATOM      9  O   LIG d   1       5.476  -2.238  -7.131  0.00  0.00    -0.419 OA
ATOM     10  H   LIG d   1       4.362  -3.478  -2.946  0.00  0.00     0.064 H 
ENDROOT
BRANCH   6  11
ATOM     11  C   LIG d   1       4.616  -1.298  -3.216  0.00  0.00     0.011 A 
ATOM     12  C   LIG d   1       3.464  -0.603  -2.815  0.00  0.00     0.131 A 
ATOM     13  C   LIG d   1       3.568   0.708  -2.391  0.00  0.00    -0.026 A 
ATOM     14  F   LIG d   1       2.260  -1.216  -2.836  0.00  0.00    -0.205 F 
ATOM     15  C   LIG d   1       4.800   1.334  -2.364  0.00  0.00    -0.059 A 
ATOM     16  H   LIG d   1       2.684   1.247  -2.083  0.00  0.00     0.065 H 
ATOM     17  C   LIG d   1       5.942   0.654  -2.758  0.00  0.00    -0.061 A 
ATOM     18  H   LIG d   1       4.875   2.359  -2.031  0.00  0.00     0.062 H 
ATOM     19  C   LIG d   1       5.860  -0.653  -3.183  0.00  0.00    -0.052 A 
ATOM     20  H   LIG d   1       6.900   1.152  -2.731  0.00  0.00     0.062 H 
ATOM     21  H   LIG d   1       6.752  -1.179  -3.489  0.00  0.00     0.062 H 
ENDBRANCH   6  11
BRANCH   1  22
ATOM     22  C   LIG d   1       6.374  -3.816  -8.758  0.00  0.00     0.013 C 
ATOM     23  H   LIG d   1       6.322  -3.013  -9.493  0.00  0.00     0.030 H 
ATOM     24  H   LIG d   1       7.365  -3.830  -8.305  0.00  0.00     0.030 H 
ATOM     25  H   LIG d   1       6.184  -4.771  -9.247  0.00  0.00     0.030 H 
ENDBRANCH   1  22
BRANCH   1  26
ATOM     26  C   LIG d   1       3.924  -3.729  -8.277  0.00  0.00     0.013 C 
ATOM     27  H   LIG d   1       3.293  -2.907  -7.939  0.00  0.00     0.030 H 
ATOM     28  H   LIG d   1       3.995  -3.708  -9.365  0.00  0.00     0.030 H 
ATOM     29  H   LIG d   1       3.489  -4.676  -7.959  0.00  0.00     0.030 H 
ENDBRANCH   1  26
TORSDOF 3
ENDMDL
MODEL 4
REMARK VINA RESULT:      -6.3      2.274      5.359
REMARK  3 active torsions:
REMARK  status: ('A' for Active; 'I' for Inactive)
REMARK    1  A    between atoms: C_1  and  C_2 
REMARK    2  A    between atoms: C_2  and  C_18 
REMARK    3  A    between atoms: C_7  and  C_8 
ROOT
ATOM      1  C   LIG d   1       4.673  -2.099  -3.627  0.00  0.00     0.255 C 
ATOM      2  O   LIG d   1       4.231  -3.133  -4.552  0.00  0.00    -0.419 OA
ATOM      3  C   LIG d   1       4.737  -3.043  -5.812  0.00  0.00     0.349 C 
ATOM      4  O   LIG d   1       5.182  -4.006  -6.406  0.00  0.00    -0.245 OA
ATOM      5  C   LIG d   1       4.705  -1.681  -6.412  0.00  0.00     0.143 C 
ATOM      6  C   LIG d   1       4.487  -1.462  -7.756  0.00  0.00    -0.031 C 
ATOM      7  C   LIG d   1       4.933  -0.576  -5.442  0.00  0.00     0.349 C 
ATOM      8  O   LIG d   1       5.537   0.437  -5.737  0.00  0.00    -0.245 OA
ATOM      9  O   LIG d   1       4.412  -0.785  -4.198  0.00  0.00    -0.419 OA
ATOM     10  H   LIG d   1       4.452  -2.296  -8.442  0.00  0.00     0.064 H 
ENDROOT
BRANCH   6  11
ATOM     11  C   LIG d   1       4.305  -0.097  -8.256  0.00  0.00     0.011 A 
ATOM     12  C   LIG d   1       3.057   0.536  -8.142  0.00  0.00     0.131 A 
ATOM     13  C   LIG d   1       2.897   1.824  -8.616  0.00  0.00    -0.026 A 
ATOM     14  F   LIG d   1       2.019  -0.109  -7.566  0.00  0.00    -0.205 F 
ATOM     15  C   LIG d   1       3.960   2.487  -9.200  0.00  0.00    -0.059 A 
ATOM     16  H   LIG d   1       1.938   2.315  -8.531  0.00  0.00     0.065 H 
ATOM     17  C   LIG d   1       5.195   1.869  -9.316  0.00  0.00    -0.061 A 
ATOM     18  H   LIG d   1       3.828   3.494  -9.568  0.00  0.00     0.062 H 
ATOM     19  C   LIG d   1       5.375   0.586  -8.850  0.00  0.00    -0.052 A 
ATOM     20  H   LIG d   1       6.020   2.396  -9.773  0.00  0.00     0.062 H 
ATOM     21  H   LIG d   1       6.339   0.107  -8.942  0.00  0.00     0.062 H 
ENDBRANCH   6  11
BRANCH   1  22
ATOM     22  C   LIG d   1       3.914  -2.240  -2.306  0.00  0.00     0.013 C 
ATOM     23  H   LIG d   1       4.601  -2.566  -1.525  0.00  0.00     0.030 H 
ATOM     24  H   LIG d   1       3.484  -1.276  -2.030  0.00  0.00     0.030 H 
ATOM     25  H   LIG d   1       3.118  -2.974  -2.420  0.00  0.00     0.030 H 
ENDBRANCH   1  22
BRANCH   1  26
ATOM     26  C   LIG d   1       6.174  -2.254  -3.370  0.00  0.00     0.013 C 
ATOM     27  H   LIG d   1       6.724  -1.560  -4.006  0.00  0.00     0.030 H 
ATOM     28  H   LIG d   1       6.388  -2.034  -2.324  0.00  0.00     0.030 H 
ATOM     29  H   LIG d   1       6.477  -3.275  -3.598  0.00  0.00     0.030 H 
ENDBRANCH   1  26
TORSDOF 3
ENDMDL
MODEL 5
REMARK VINA RESULT:      -6.2      2.291      5.972
REMARK  3 active torsions:
REMARK  status: ('A' for Active; 'I' for Inactive)
REMARK    1  A    between atoms: C_1  and  C_2 
REMARK    2  A    between atoms: C_2  and  C_18 
REMARK    3  A    between atoms: C_7  and  C_8 
ROOT
ATOM      1  C   LIG d   1       5.454  -0.049  -4.293  0.00  0.00     0.255 C 
ATOM      2  O   LIG d   1       4.160   0.571  -4.043  0.00  0.00    -0.419 OA
ATOM      3  C   LIG d   1       3.138   0.121  -4.822  0.00  0.00     0.349 C 
ATOM      4  O   LIG d   1       2.047  -0.164  -4.366  0.00  0.00    -0.245 OA
ATOM      5  C   LIG d   1       3.450   0.004  -6.272  0.00  0.00     0.143 C 
ATOM      6  C   LIG d   1       2.521   0.258  -7.260  0.00  0.00    -0.031 C 
ATOM      7  C   LIG d   1       4.847  -0.415  -6.569  0.00  0.00     0.349 C 
ATOM      8  O   LIG d   1       5.127  -1.131  -7.511  0.00  0.00    -0.245 OA
ATOM      9  O   LIG d   1       5.788   0.066  -5.705  0.00  0.00    -0.419 OA
ATOM     10  H   LIG d   1       1.489   0.437  -6.998  0.00  0.00     0.064 H 
ENDROOT
BRANCH   6  11
ATOM     11  C   LIG d   1       2.934   0.285  -8.665  0.00  0.00     0.011 A 
ATOM     12  C   LIG d   1       3.475   1.456  -9.220  0.00  0.00     0.131 A 
ATOM     13  C   LIG d   1       3.861   1.470 -10.547  0.00  0.00    -0.026 A 
ATOM     14  F   LIG d   1       3.622   2.563  -8.459  0.00  0.00    -0.205 F 
ATOM     15  C   LIG d   1       3.716   0.336 -11.325  0.00  0.00    -0.059 A 
ATOM     16  H   LIG d   1       4.277   2.368 -10.978  0.00  0.00     0.065 H 
ATOM     17  C   LIG d   1       3.184  -0.824 -10.783  0.00  0.00    -0.061 A 
ATOM     18  H   LIG d   1       4.022   0.352 -12.360  0.00  0.00     0.062 H 
ATOM     19  C   LIG d   1       2.792  -0.857  -9.463  0.00  0.00    -0.052 A 
ATOM     20  H   LIG d   1       3.076  -1.704 -11.399  0.00  0.00     0.062 H 
ATOM     21  H   LIG d   1       2.377  -1.763  -9.045  0.00  0.00     0.062 H 
ENDBRANCH   6  11
BRANCH   1  22
ATOM     22  C   LIG d   1       6.524   0.655  -3.457  0.00  0.00     0.013 C 
ATOM     23  H   LIG d   1       6.471   0.302  -2.427  0.00  0.00     0.030 H 
ATOM     24  H   LIG d   1       7.510   0.430  -3.867  0.00  0.00     0.030 H 
ATOM     25  H   LIG d   1       6.357   1.731  -3.483  0.00  0.00     0.030 H 
ENDBRANCH   1  22
BRANCH   1  26
ATOM     26  C   LIG d   1       5.393  -1.528  -3.903  0.00  0.00     0.013 C 
ATOM     27  H   LIG d   1       6.319  -1.808  -3.399  0.00  0.00     0.030 H 
ATOM     28  H   LIG d   1       4.551  -1.691  -3.231  0.00  0.00     0.030 H 
ATOM     29  H   LIG d   1       5.268  -2.134  -4.799  0.00  0.00     0.030 H 
ENDBRANCH   1  26
TORSDOF 3
ENDMDL
MODEL 6
REMARK VINA RESULT:      -6.0      3.412      4.365
REMARK  3 active torsions:
REMARK  status: ('A' for Active; 'I' for Inactive)
REMARK    1  A    between atoms: C_1  and  C_2 
REMARK    2  A    between atoms: C_2  and  C_18 
REMARK    3  A    between atoms: C_7  and  C_8 
ROOT
ATOM      1  C   LIG d   1       8.136   1.478  -6.726  0.00  0.00     0.255 C 
ATOM      2  O   LIG d   1       8.391   2.354  -5.592  0.00  0.00    -0.419 OA
ATOM      3  C   LIG d   1       8.315   1.761  -4.368  0.00  0.00     0.349 C 
ATOM      4  O   LIG d   1       9.153   1.938  -3.506  0.00  0.00    -0.245 OA
ATOM      5  C   LIG d   1       7.133   0.881  -4.163  0.00  0.00     0.143 C 
ATOM      6  C   LIG d   1       6.491   0.764  -2.947  0.00  0.00    -0.031 C 
ATOM      7  C   LIG d   1       6.704   0.134  -5.376  0.00  0.00     0.349 C 
ATOM      8  O   LIG d   1       6.252  -0.994  -5.321  0.00  0.00    -0.245 OA
ATOM      9  O   LIG d   1       6.854   0.810  -6.552  0.00  0.00    -0.419 OA
ATOM     10  H   LIG d   1       6.912   1.227  -2.067  0.00  0.00     0.064 H 
ENDROOT
BRANCH   6  11
ATOM     11  C   LIG d   1       5.238   0.012  -2.850  0.00  0.00     0.011 A 
ATOM     12  C   LIG d   1       4.006   0.664  -3.021  0.00  0.00     0.131 A 
ATOM     13  C   LIG d   1       2.831  -0.057  -2.927  0.00  0.00    -0.026 A 
ATOM     14  F   LIG d   1       3.971   1.989  -3.281  0.00  0.00    -0.205 F 
ATOM     15  C   LIG d   1       2.867  -1.414  -2.667  0.00  0.00    -0.059 A 
ATOM     16  H   LIG d   1       1.881   0.442  -3.057  0.00  0.00     0.065 H 
ATOM     17  C   LIG d   1       4.079  -2.065  -2.498  0.00  0.00    -0.061 A 
ATOM     18  H   LIG d   1       1.945  -1.972  -2.596  0.00  0.00     0.062 H 
ATOM     19  C   LIG d   1       5.261  -1.365  -2.587  0.00  0.00    -0.052 A 
ATOM     20  H   LIG d   1       4.096  -3.126  -2.295  0.00  0.00     0.062 H 
ATOM     21  H   LIG d   1       6.204  -1.876  -2.454  0.00  0.00     0.062 H 
ENDBRANCH   6  11
BRANCH   1  22
ATOM     22  C   LIG d   1       8.107   2.307  -8.012  0.00  0.00     0.013 C 
ATOM     23  H   LIG d   1       8.332   3.347  -7.779  0.00  0.00     0.030 H 
ATOM     24  H   LIG d   1       8.853   1.922  -8.708  0.00  0.00     0.030 H 
ATOM     25  H   LIG d   1       7.119   2.240  -8.466  0.00  0.00     0.030 H 
ENDBRANCH   1  22
BRANCH   1  26
ATOM     26  C   LIG d   1       9.247   0.431  -6.820  0.00  0.00     0.013 C 
ATOM     27  H   LIG d   1       9.140  -0.129  -7.749  0.00  0.00     0.030 H 
ATOM     28  H   LIG d   1      10.217   0.928  -6.806  0.00  0.00     0.030 H 
ATOM     29  H   LIG d   1       9.175  -0.251  -5.974  0.00  0.00     0.030 H 
ENDBRANCH   1  26
TORSDOF 3
ENDMDL
MODEL 7
REMARK VINA RESULT:      -5.9      3.174      5.103
REMARK  3 active torsions:
REMARK  status: ('A' for Active; 'I' for Inactive)
REMARK    1  A    between atoms: C_1  and  C_2 
REMARK    2  A    between atoms: C_2  and  C_18 
REMARK    3  A    between atoms: C_7  and  C_8 
ROOT
ATOM      1  C   LIG d   1       4.256  -0.123  -2.958  0.00  0.00     0.255 C 
ATOM      2  O   LIG d   1       4.635   0.418  -4.256  0.00  0.00    -0.419 OA
ATOM      3  C   LIG d   1       4.326  -0.363  -5.327  0.00  0.00     0.349 C 
ATOM      4  O   LIG d   1       3.807   0.083  -6.331  0.00  0.00    -0.245 OA
ATOM      5  C   LIG d   1       4.671  -1.804  -5.180  0.00  0.00     0.143 C 
ATOM      6  C   LIG d   1       5.102  -2.580  -6.236  0.00  0.00    -0.031 C 
ATOM      7  C   LIG d   1       4.507  -2.339  -3.801  0.00  0.00     0.349 C 
ATOM      8  O   LIG d   1       4.131  -3.474  -3.582  0.00  0.00    -0.245 OA
ATOM      9  O   LIG d   1       4.813  -1.459  -2.802  0.00  0.00    -0.419 OA
ATOM     10  H   LIG d   1       5.086  -2.184  -7.240  0.00  0.00     0.064 H 
ENDROOT
BRANCH   6  11
ATOM     11  C   LIG d   1       5.582  -3.943  -5.995  0.00  0.00     0.011 A 
ATOM     12  C   LIG d   1       4.728  -5.039  -6.200  0.00  0.00     0.131 A 
ATOM     13  C   LIG d   1       5.192  -6.320  -5.970  0.00  0.00    -0.026 A 
ATOM     14  F   LIG d   1       3.462  -4.842  -6.627  0.00  0.00    -0.205 F 
ATOM     15  C   LIG d   1       6.490  -6.523  -5.539  0.00  0.00    -0.059 A 
ATOM     16  H   LIG d   1       4.539  -7.166  -6.126  0.00  0.00     0.065 H 
ATOM     17  C   LIG d   1       7.339  -5.446  -5.334  0.00  0.00    -0.061 A 
ATOM     18  H   LIG d   1       6.846  -7.527  -5.362  0.00  0.00     0.062 H 
ATOM     19  C   LIG d   1       6.895  -4.162  -5.558  0.00  0.00    -0.052 A 
ATOM     20  H   LIG d   1       8.351  -5.615  -4.998  0.00  0.00     0.062 H 
ATOM     21  H   LIG d   1       7.560  -3.325  -5.397  0.00  0.00     0.062 H 
ENDBRANCH   6  11
BRANCH   1  22
ATOM     22  C   LIG d   1       4.794   0.785  -1.851  0.00  0.00     0.013 C 
ATOM     23  H   LIG d   1       5.818   0.498  -1.612  0.00  0.00     0.030 H 
ATOM     24  H   LIG d   1       4.779   1.821  -2.192  0.00  0.00     0.030 H 
ATOM     25  H   LIG d   1       4.171   0.685  -0.963  0.00  0.00     0.030 H 
ENDBRANCH   1  22
BRANCH   1  26
ATOM     26  C   LIG d   1       2.730  -0.193  -2.862  0.00  0.00     0.013 C 
ATOM     27  H   LIG d   1       2.322   0.818  -2.836  0.00  0.00     0.030 H 
ATOM     28  H   LIG d   1       2.336  -0.721  -3.730  0.00  0.00     0.030 H 
ATOM     29  H   LIG d   1       2.448  -0.723  -1.954  0.00  0.00     0.030 H 
ENDBRANCH   1  26
TORSDOF 3
ENDMDL
MODEL 8
REMARK VINA RESULT:      -5.9      3.559      4.876
REMARK  3 active torsions:
REMARK  status: ('A' for Active; 'I' for Inactive)
REMARK    1  A    between atoms: C_1  and  C_2 
REMARK    2  A    between atoms: C_2  and  C_18 
REMARK    3  A    between atoms: C_7  and  C_8 
ROOT
ATOM      1  C   LIG d   1       9.378   2.174  -4.074  0.00  0.00     0.255 C 
ATOM      2  O   LIG d   1       9.595   1.148  -5.084  0.00  0.00    -0.419 OA
ATOM      3  C   LIG d   1       8.487   0.772  -5.781  0.00  0.00     0.349 C 
ATOM      4  O   LIG d   1       8.490   0.649  -6.990  0.00  0.00    -0.245 OA
ATOM      5  C   LIG d   1       7.274   0.523  -4.956  0.00  0.00     0.143 C 
ATOM      6  C   LIG d   1       6.349  -0.454  -5.264  0.00  0.00    -0.031 C 
ATOM      7  C   LIG d   1       7.137   1.418  -3.776  0.00  0.00     0.349 C 
ATOM      8  O   LIG d   1       6.058   1.814  -3.379  0.00  0.00    -0.245 OA
ATOM      9  O   LIG d   1       8.313   1.759  -3.172  0.00  0.00    -0.419 OA
ATOM     10  H   LIG d   1       6.423  -0.994  -6.196  0.00  0.00     0.064 H 
ENDROOT
BRANCH   6  11
ATOM     11  C   LIG d   1       5.266  -0.759  -4.326  0.00  0.00     0.011 A 
ATOM     12  C   LIG d   1       5.522  -1.520  -3.174  0.00  0.00     0.131 A 
ATOM     13  C   LIG d   1       4.492  -1.800  -2.296  0.00  0.00    -0.026 A 
ATOM     14  F   LIG d   1       6.770  -1.970  -2.922  0.00  0.00    -0.205 F 
ATOM     15  C   LIG d   1       3.215  -1.335  -2.551  0.00  0.00    -0.059 A 
ATOM     16  H   LIG d   1       4.684  -2.386  -1.409  0.00  0.00     0.065 H 
ATOM     17  C   LIG d   1       2.955  -0.583  -3.686  0.00  0.00    -0.061 A 
ATOM     18  H   LIG d   1       2.415  -1.556  -1.860  0.00  0.00     0.062 H 
ATOM     19  C   LIG d   1       3.968  -0.293  -4.573  0.00  0.00    -0.052 A 
ATOM     20  H   LIG d   1       1.955  -0.223  -3.876  0.00  0.00     0.062 H 
ATOM     21  H   LIG d   1       3.761   0.293  -5.457  0.00  0.00     0.062 H 
ENDBRANCH   6  11
BRANCH   1  22
ATOM     22  C   LIG d   1      10.667   2.384  -3.277  0.00  0.00     0.013 C 
ATOM     23  H   LIG d   1      10.761   3.437  -3.011  0.00  0.00     0.030 H 
ATOM     24  H   LIG d   1      10.634   1.782  -2.369  0.00  0.00     0.030 H 
ATOM     25  H   LIG d   1      11.522   2.084  -3.882  0.00  0.00     0.030 H 
ENDBRANCH   1  22
BRANCH   1  26
ATOM     26  C   LIG d   1       8.983   3.485  -4.758  0.00  0.00     0.013 C 
ATOM     27  H   LIG d   1       8.521   4.150  -4.028  0.00  0.00     0.030 H 
ATOM     28  H   LIG d   1       9.872   3.961  -5.171  0.00  0.00     0.030 H 
ATOM     29  H   LIG d   1       8.276   3.277  -5.560  0.00  0.00     0.030 H 
ENDBRANCH   1  26
TORSDOF 3
ENDMDL
MODEL 9
REMARK VINA RESULT:      -5.7      3.114      3.822
REMARK  3 active torsions:
REMARK  status: ('A' for Active; 'I' for Inactive)
REMARK    1  A    between atoms: C_1  and  C_2 
REMARK    2  A    between atoms: C_2  and  C_18 
REMARK    3  A    between atoms: C_7  and  C_8 
ROOT
ATOM      1  C   LIG d   1       8.630   1.053  -6.956  0.00  0.00     0.255 C 
ATOM      2  O   LIG d   1       9.499   0.527  -5.913  0.00  0.00    -0.419 OA
ATOM      3  C   LIG d   1       9.008  -0.542  -5.229  0.00  0.00     0.349 C 
ATOM      4  O   LIG d   1       9.677  -1.529  -4.992  0.00  0.00    -0.245 OA
ATOM      5  C   LIG d   1       7.591  -0.416  -4.789  0.00  0.00     0.143 C 
ATOM      6  C   LIG d   1       7.128  -0.943  -3.601  0.00  0.00    -0.031 C 
ATOM      7  C   LIG d   1       6.715   0.321  -5.739  0.00  0.00     0.349 C 
ATOM      8  O   LIG d   1       5.549   0.025  -5.914  0.00  0.00    -0.245 OA
ATOM      9  O   LIG d   1       7.319   1.353  -6.397  0.00  0.00    -0.419 OA
ATOM     10  H   LIG d   1       7.768  -1.576  -3.004  0.00  0.00     0.064 H 
ENDROOT
BRANCH   6  11
ATOM     11  C   LIG d   1       5.768  -0.644  -3.149  0.00  0.00     0.011 A 
ATOM     12  C   LIG d   1       4.764  -1.624  -3.231  0.00  0.00     0.131 A 
ATOM     13  C   LIG d   1       3.485  -1.331  -2.800  0.00  0.00    -0.026 A 
ATOM     14  F   LIG d   1       5.051  -2.849  -3.723  0.00  0.00    -0.205 F 
ATOM     15  C   LIG d   1       3.191  -0.079  -2.291  0.00  0.00    -0.059 A 
ATOM     16  H   LIG d   1       2.710  -2.081  -2.862  0.00  0.00     0.065 H 
ATOM     17  C   LIG d   1       4.177   0.893  -2.207  0.00  0.00    -0.061 A 
ATOM     18  H   LIG d   1       2.189   0.143  -1.956  0.00  0.00     0.062 H 
ATOM     19  C   LIG d   1       5.458   0.621  -2.631  0.00  0.00    -0.052 A 
ATOM     20  H   LIG d   1       3.938   1.867  -1.807  0.00  0.00     0.062 H 
ATOM     21  H   LIG d   1       6.223   1.381  -2.564  0.00  0.00     0.062 H 
ENDBRANCH   6  11
BRANCH   1  22
ATOM     22  C   LIG d   1       9.242   2.331  -7.532  0.00  0.00     0.013 C 
ATOM     23  H   LIG d   1       9.442   3.034  -6.724  0.00  0.00     0.030 H 
ATOM     24  H   LIG d   1      10.176   2.088  -8.041  0.00  0.00     0.030 H 
ATOM     25  H   LIG d   1       8.548   2.779  -8.242  0.00  0.00     0.030 H 
ENDBRANCH   1  22
BRANCH   1  26
ATOM     26  C   LIG d   1       8.482   0.013  -8.069  0.00  0.00     0.013 C 
ATOM     27  H   LIG d   1       8.907  -0.935  -7.738  0.00  0.00     0.030 H 
ATOM     28  H   LIG d   1       7.426  -0.124  -8.299  0.00  0.00     0.030 H 
ATOM     29  H   LIG d   1       9.008   0.357  -8.959  0.00  0.00     0.030 H 
ENDBRANCH   1  26
TORSDOF 3
ENDMDL
MODEL 10
REMARK VINA RESULT:      -5.6     10.457     11.783
REMARK  3 active torsions:
REMARK  status: ('A' for Active; 'I' for Inactive)
REMARK    1  A    between atoms: C_1  and  C_2 
REMARK    2  A    between atoms: C_2  and  C_18 
REMARK    3  A    between atoms: C_7  and  C_8 
ROOT
ATOM      1  C   LIG d   1       4.102 -11.811  -5.577  0.00  0.00     0.255 C 
ATOM      2  O   LIG d   1       3.170 -11.409  -4.533  0.00  0.00    -0.419 OA
ATOM      3  C   LIG d   1       3.655 -10.511  -3.632  0.00  0.00     0.349 C 
ATOM      4  O   LIG d   1       3.023  -9.533  -3.282  0.00  0.00    -0.245 OA
ATOM      5  C   LIG d   1       5.014 -10.813  -3.106  0.00  0.00     0.143 C 
ATOM      6  C   LIG d   1       5.393 -10.532  -1.810  0.00  0.00    -0.031 C 
ATOM      7  C   LIG d   1       5.932 -11.438  -4.096  0.00  0.00     0.349 C 
ATOM      8  O   LIG d   1       7.125 -11.203  -4.119  0.00  0.00    -0.245 OA
ATOM      9  O   LIG d   1       5.334 -12.297  -4.973  0.00  0.00    -0.419 OA
ATOM     10  H   LIG d   1       4.737  -9.965  -1.166  0.00  0.00     0.064 H 
ENDROOT
BRANCH   6  11
ATOM     11  C   LIG d   1       6.685 -11.001  -1.306  0.00  0.00     0.011 A 
ATOM     12  C   LIG d   1       7.751 -10.101  -1.147  0.00  0.00     0.131 A 
ATOM     13  C   LIG d   1       8.966 -10.555  -0.671  0.00  0.00    -0.026 A 
ATOM     14  F   LIG d   1       7.587  -8.795  -1.453  0.00  0.00    -0.205 F 
ATOM     15  C   LIG d   1       9.133 -11.891  -0.352  0.00  0.00    -0.059 A 
ATOM     16  H   LIG d   1       9.789  -9.866  -0.548  0.00  0.00     0.065 H 
ATOM     17  C   LIG d   1       8.085 -12.786  -0.507  0.00  0.00    -0.061 A 
ATOM     18  H   LIG d   1      10.084 -12.239   0.021  0.00  0.00     0.062 H 
ATOM     19  C   LIG d   1       6.867 -12.352  -0.980  0.00  0.00    -0.052 A 
ATOM     20  H   LIG d   1       8.225 -13.826  -0.254  0.00  0.00     0.062 H 
ATOM     21  H   LIG d   1       6.053 -13.053  -1.099  0.00  0.00     0.062 H 
ENDBRANCH   6  11
BRANCH   1  22
ATOM     22  C   LIG d   1       3.474 -12.924  -6.419  0.00  0.00     0.013 C 
ATOM     23  H   LIG d   1       3.846 -12.859  -7.441  0.00  0.00     0.030 H 
ATOM     24  H   LIG d   1       3.741 -13.893  -5.996  0.00  0.00     0.030 H 
ATOM     25  H   LIG d   1       2.390 -12.813  -6.418  0.00  0.00     0.030 H 
ENDBRANCH   1  22
BRANCH   1  26
ATOM     26  C   LIG d   1       4.412 -10.609  -6.472  0.00  0.00     0.013 C 
ATOM     27  H   LIG d   1       4.772 -10.961  -7.440  0.00  0.00     0.030 H 
ATOM     28  H   LIG d   1       3.507 -10.019  -6.614  0.00  0.00     0.030 H 
ATOM     29  H   LIG d   1       5.178  -9.995  -6.001  0.00  0.00     0.030 H 
ENDBRANCH   1  26
TORSDOF 3
ENDMDL
