MODEL 1
REMARK VINA RESULT:      -5.9      0.000      0.000
REMARK  5 active torsions:
REMARK  status: ('A' for Active; 'I' for Inactive)
REMARK    1  A    between atoms: C_1  and  C_2 
REMARK    2  A    between atoms: C_2  and  C_3 
REMARK    3  A    between atoms: C_3  and  O_5 
REMARK    4  A    between atoms: O_5  and  C_6 
REMARK    5  A    between atoms: C_6  and  C_7 
ROOT
ATOM      1  C   LIG d   1       2.434   0.598  -5.148  0.00  0.00     0.117 C 
ATOM      2  H   LIG d   1       1.675  -0.142  -5.400  0.00  0.00     0.075 H 
ATOM      3  H   LIG d   1       1.959   1.566  -4.987  0.00  0.00     0.075 H 
ENDROOT
BRANCH   1   4
ATOM      4  O   LIG d   1       3.388   0.703  -6.237  0.00  0.00    -0.460 OA
BRANCH   4   5
ATOM      5  C   LIG d   1       2.893   0.692  -7.485  0.00  0.00     0.307 C 
ATOM      6  O   LIG d   1       2.544  -0.350  -7.987  0.00  0.00    -0.251 OA
BRANCH   5   7
ATOM      7  C   LIG d   1       2.770   1.979  -8.259  0.00  0.00     0.042 C 
ATOM      8  H   LIG d   1       1.887   1.938  -8.896  0.00  0.00     0.037 H 
ATOM      9  H   LIG d   1       2.678   2.814  -7.564  0.00  0.00     0.037 H 
BRANCH   7  10
ATOM     10  C   LIG d   1       4.016   2.173  -9.127  0.00  0.00    -0.055 C 
ATOM     11  H   LIG d   1       4.815   1.526  -8.764  0.00  0.00     0.024 H 
ATOM     12  H   LIG d   1       3.782   1.916 -10.161  0.00  0.00     0.024 H 
ATOM     13  H   LIG d   1       4.338   3.212  -9.075  0.00  0.00     0.024 H 
ENDBRANCH   7  10
ENDBRANCH   5   7
ENDBRANCH   4   5
ENDBRANCH   1   4
BRANCH   1  14
ATOM     14  C   LIG d   1       3.151   0.176  -3.891  0.00  0.00    -0.010 A 
ATOM     15  C   LIG d   1       3.249  -1.164  -3.569  0.00  0.00    -0.055 A 
ATOM     16  C   LIG d   1       3.906  -1.552  -2.417  0.00  0.00    -0.061 A 
ATOM     17  H   LIG d   1       2.812  -1.910  -4.218  0.00  0.00     0.062 H 
ATOM     18  C   LIG d   1       4.465  -0.598  -1.586  0.00  0.00    -0.062 A 
ATOM     19  H   LIG d   1       3.983  -2.599  -2.164  0.00  0.00     0.062 H 
ATOM     20  C   LIG d   1       4.367   0.742  -1.908  0.00  0.00    -0.061 A 
ATOM     21  H   LIG d   1       4.978  -0.902  -0.685  0.00  0.00     0.062 H 
ATOM     22  C   LIG d   1       3.714   1.129  -3.063  0.00  0.00    -0.055 A 
ATOM     23  H   LIG d   1       4.804   1.487  -1.259  0.00  0.00     0.062 H 
ATOM     24  H   LIG d   1       3.641   2.176  -3.318  0.00  0.00     0.062 H 
ENDBRANCH   1  14
TORSDOF 5
ENDMDL
MODEL 2
REMARK VINA RESULT:      -5.9      0.050      1.383
REMARK  5 active torsions:
REMARK  status: ('A' for Active; 'I' for Inactive)
REMARK    1  A    between atoms: C_1  and  C_2 
REMARK    2  A    between atoms: C_2  and  C_3 
REMARK    3  A    between atoms: C_3  and  O_5 
REMARK    4  A    between atoms: O_5  and  C_6 
REMARK    5  A    between atoms: C_6  and  C_7 
ROOT
ATOM      1  C   LIG d   1       2.460   0.641  -5.146  0.00  0.00     0.117 C 
ATOM      2  H   LIG d   1       1.659  -0.062  -5.377  0.00  0.00     0.075 H 
ATOM      3  H   LIG d   1       2.039   1.635  -4.997  0.00  0.00     0.075 H 
ENDROOT
BRANCH   1   4
ATOM      4  O   LIG d   1       3.406   0.675  -6.246  0.00  0.00    -0.460 OA
BRANCH   4   5
ATOM      5  C   LIG d   1       2.898   0.638  -7.489  0.00  0.00     0.307 C 
ATOM      6  O   LIG d   1       2.528  -0.412  -7.958  0.00  0.00    -0.251 OA
BRANCH   5   7
ATOM      7  C   LIG d   1       2.789   1.905  -8.296  0.00  0.00     0.042 C 
ATOM      8  H   LIG d   1       1.943   1.829  -8.981  0.00  0.00     0.037 H 
ATOM      9  H   LIG d   1       2.639   2.752  -7.627  0.00  0.00     0.037 H 
BRANCH   7  10
ATOM     10  C   LIG d   1       4.076   2.110  -9.100  0.00  0.00    -0.055 C 
ATOM     11  H   LIG d   1       3.834   2.182 -10.161  0.00  0.00     0.024 H 
ATOM     12  H   LIG d   1       4.564   3.030  -8.776  0.00  0.00     0.024 H 
ATOM     13  H   LIG d   1       4.745   1.267  -8.936  0.00  0.00     0.024 H 
ENDBRANCH   7  10
ENDBRANCH   5   7
ENDBRANCH   4   5
ENDBRANCH   1   4
BRANCH   1  14
ATOM     14  C   LIG d   1       3.166   0.202  -3.889  0.00  0.00    -0.010 A 
ATOM     15  C   LIG d   1       3.718   1.144  -3.041  0.00  0.00    -0.055 A 
ATOM     16  C   LIG d   1       4.366   0.742  -1.889  0.00  0.00    -0.061 A 
ATOM     17  H   LIG d   1       3.642   2.195  -3.279  0.00  0.00     0.062 H 
ATOM     18  C   LIG d   1       4.462  -0.604  -1.584  0.00  0.00    -0.062 A 
ATOM     19  H   LIG d   1       4.796   1.477  -1.226  0.00  0.00     0.062 H 
ATOM     20  C   LIG d   1       3.911  -1.547  -2.432  0.00  0.00    -0.061 A 
ATOM     21  H   LIG d   1       4.969  -0.918  -0.683  0.00  0.00     0.062 H 
ATOM     22  C   LIG d   1       3.259  -1.143  -3.582  0.00  0.00    -0.055 A 
ATOM     23  H   LIG d   1       3.987  -2.597  -2.194  0.00  0.00     0.062 H 
ATOM     24  H   LIG d   1       2.824  -1.879  -4.242  0.00  0.00     0.062 H 
ENDBRANCH   1  14
TORSDOF 5
ENDMDL
MODEL 3
REMARK VINA RESULT:      -5.4      1.219      1.700
REMARK  5 active torsions:
REMARK  status: ('A' for Active; 'I' for Inactive)
REMARK    1  A    between atoms: C_1  and  C_2 
REMARK    2  A    between atoms: C_2  and  C_3 
REMARK    3  A    between atoms: C_3  and  O_5 
REMARK    4  A    between atoms: O_5  and  C_6 
REMARK    5  A    between atoms: C_6  and  C_7 
ROOT
ATOM      1  C   LIG d   1       2.333   0.823  -4.859  0.00  0.00     0.117 C 
ATOM      2  H   LIG d   1       1.273   0.860  -4.605  0.00  0.00     0.075 H 
ATOM      3  H   LIG d   1       2.692   1.830  -5.072  0.00  0.00     0.075 H 
ENDROOT
BRANCH   1   4
ATOM      4  O   LIG d   1       2.521  -0.015  -6.029  0.00  0.00    -0.460 OA
BRANCH   4   5
ATOM      5  C   LIG d   1       3.262   0.490  -7.028  0.00  0.00     0.307 C 
ATOM      6  O   LIG d   1       3.024   1.593  -7.459  0.00  0.00    -0.251 OA
BRANCH   5   7
ATOM      7  C   LIG d   1       4.392  -0.319  -7.611  0.00  0.00     0.042 C 
ATOM      8  H   LIG d   1       4.196  -0.509  -8.667  0.00  0.00     0.037 H 
ATOM      9  H   LIG d   1       5.326   0.233  -7.508  0.00  0.00     0.037 H 
BRANCH   7  10
ATOM     10  C   LIG d   1       4.502  -1.652  -6.867  0.00  0.00    -0.055 C 
ATOM     11  H   LIG d   1       5.020  -1.497  -5.920  0.00  0.00     0.024 H 
ATOM     12  H   LIG d   1       3.504  -2.045  -6.674  0.00  0.00     0.024 H 
ATOM     13  H   LIG d   1       5.062  -2.363  -7.474  0.00  0.00     0.024 H 
ENDBRANCH   7  10
ENDBRANCH   5   7
ENDBRANCH   4   5
ENDBRANCH   1   4
BRANCH   1  14
ATOM     14  C   LIG d   1       3.107   0.249  -3.700  0.00  0.00    -0.010 A 
ATOM     15  C   LIG d   1       3.105  -1.114  -3.474  0.00  0.00    -0.055 A 
ATOM     16  C   LIG d   1       3.815  -1.640  -2.412  0.00  0.00    -0.061 A 
ATOM     17  H   LIG d   1       2.548  -1.769  -4.128  0.00  0.00     0.062 H 
ATOM     18  C   LIG d   1       4.528  -0.802  -1.574  0.00  0.00    -0.062 A 
ATOM     19  H   LIG d   1       3.814  -2.705  -2.235  0.00  0.00     0.062 H 
ATOM     20  C   LIG d   1       4.531   0.562  -1.800  0.00  0.00    -0.061 A 
ATOM     21  H   LIG d   1       5.083  -1.213  -0.744  0.00  0.00     0.062 H 
ATOM     22  C   LIG d   1       3.824   1.087  -2.865  0.00  0.00    -0.055 A 
ATOM     23  H   LIG d   1       5.087   1.217  -1.146  0.00  0.00     0.062 H 
ATOM     24  H   LIG d   1       3.830   2.152  -3.045  0.00  0.00     0.062 H 
ENDBRANCH   1  14
TORSDOF 5
ENDMDL
MODEL 4
REMARK VINA RESULT:      -4.9      4.403      5.271
REMARK  5 active torsions:
REMARK  status: ('A' for Active; 'I' for Inactive)
REMARK    1  A    between atoms: C_1  and  C_2 
REMARK    2  A    between atoms: C_2  and  C_3 
REMARK    3  A    between atoms: C_3  and  O_5 
REMARK    4  A    between atoms: O_5  and  C_6 
REMARK    5  A    between atoms: C_6  and  C_7 
ROOT
ATOM      1  C   LIG d   1       7.553   0.764  -3.972  0.00  0.00     0.117 C 
ATOM      2  H   LIG d   1       8.412   0.112  -3.813  0.00  0.00     0.075 H 
ATOM      3  H   LIG d   1       7.341   0.834  -5.038  0.00  0.00     0.075 H 
ENDROOT
BRANCH   1   4
ATOM      4  O   LIG d   1       7.846   2.086  -3.449  0.00  0.00    -0.460 OA
BRANCH   4   5
ATOM      5  C   LIG d   1       9.028   2.626  -3.786  0.00  0.00     0.307 C 
ATOM      6  O   LIG d   1       9.998   2.438  -3.090  0.00  0.00    -0.251 OA
BRANCH   5   7
ATOM      7  C   LIG d   1       9.146   3.466  -5.031  0.00  0.00     0.042 C 
ATOM      8  H   LIG d   1       9.983   3.110  -5.632  0.00  0.00     0.037 H 
ATOM      9  H   LIG d   1       8.225   3.390  -5.610  0.00  0.00     0.037 H 
BRANCH   7  10
ATOM     10  C   LIG d   1       9.385   4.927  -4.641  0.00  0.00    -0.055 C 
ATOM     11  H   LIG d   1       9.879   4.967  -3.670  0.00  0.00     0.024 H 
ATOM     12  H   LIG d   1      10.017   5.405  -5.390  0.00  0.00     0.024 H 
ATOM     13  H   LIG d   1       8.430   5.449  -4.584  0.00  0.00     0.024 H 
ENDBRANCH   7  10
ENDBRANCH   5   7
ENDBRANCH   4   5
ENDBRANCH   1   4
BRANCH   1  14
ATOM     14  C   LIG d   1       6.352   0.197  -3.258  0.00  0.00    -0.010 A 
ATOM     15  C   LIG d   1       6.134  -1.168  -3.251  0.00  0.00    -0.055 A 
ATOM     16  C   LIG d   1       5.033  -1.688  -2.596  0.00  0.00    -0.061 A 
ATOM     17  H   LIG d   1       6.823  -1.828  -3.756  0.00  0.00     0.062 H 
ATOM     18  C   LIG d   1       4.150  -0.843  -1.949  0.00  0.00    -0.062 A 
ATOM     19  H   LIG d   1       4.862  -2.754  -2.590  0.00  0.00     0.062 H 
ATOM     20  C   LIG d   1       4.369   0.522  -1.956  0.00  0.00    -0.061 A 
ATOM     21  H   LIG d   1       3.290  -1.250  -1.438  0.00  0.00     0.062 H 
ATOM     22  C   LIG d   1       5.472   1.042  -2.607  0.00  0.00    -0.055 A 
ATOM     23  H   LIG d   1       3.680   1.182  -1.451  0.00  0.00     0.062 H 
ATOM     24  H   LIG d   1       5.646   2.108  -2.609  0.00  0.00     0.062 H 
ENDBRANCH   1  14
TORSDOF 5
ENDMDL
MODEL 5
REMARK VINA RESULT:      -4.8      3.031      4.222
REMARK  5 active torsions:
REMARK  status: ('A' for Active; 'I' for Inactive)
REMARK    1  A    between atoms: C_1  and  C_2 
REMARK    2  A    between atoms: C_2  and  C_3 
REMARK    3  A    between atoms: C_3  and  O_5 
REMARK    4  A    between atoms: O_5  and  C_6 
REMARK    5  A    between atoms: C_6  and  C_7 
ROOT
ATOM      1  C   LIG d   1       4.375  -2.623  -3.353  0.00  0.00     0.117 C 
ATOM      2  H   LIG d   1       5.020  -3.041  -2.580  0.00  0.00     0.075 H 
ATOM      3  H   LIG d   1       3.427  -3.160  -3.366  0.00  0.00     0.075 H 
ENDROOT
BRANCH   1   4
ATOM      4  O   LIG d   1       5.022  -2.753  -4.646  0.00  0.00    -0.460 OA
BRANCH   4   5
ATOM      5  C   LIG d   1       6.358  -2.893  -4.648  0.00  0.00     0.307 C 
ATOM      6  O   LIG d   1       6.850  -3.992  -4.745  0.00  0.00    -0.251 OA
BRANCH   5   7
ATOM      7  C   LIG d   1       7.242  -1.679  -4.531  0.00  0.00     0.042 C 
ATOM      8  H   LIG d   1       7.169  -1.271  -3.522  0.00  0.00     0.037 H 
ATOM      9  H   LIG d   1       8.276  -1.960  -4.734  0.00  0.00     0.037 H 
BRANCH   7  10
ATOM     10  C   LIG d   1       6.793  -0.620  -5.541  0.00  0.00    -0.055 C 
ATOM     11  H   LIG d   1       7.644   0.007  -5.811  0.00  0.00     0.024 H 
ATOM     12  H   LIG d   1       6.407  -1.111  -6.435  0.00  0.00     0.024 H 
ATOM     13  H   LIG d   1       6.013  -0.003  -5.098  0.00  0.00     0.024 H 
ENDBRANCH   7  10
ENDBRANCH   5   7
ENDBRANCH   4   5
ENDBRANCH   1   4
BRANCH   1  14
ATOM     14  C   LIG d   1       4.122  -1.166  -3.062  0.00  0.00    -0.010 A 
ATOM     15  C   LIG d   1       4.669  -0.580  -1.936  0.00  0.00    -0.055 A 
ATOM     16  C   LIG d   1       4.438   0.756  -1.670  0.00  0.00    -0.061 A 
ATOM     17  H   LIG d   1       5.279  -1.167  -1.265  0.00  0.00     0.062 H 
ATOM     18  C   LIG d   1       3.658   1.507  -2.530  0.00  0.00    -0.062 A 
ATOM     19  H   LIG d   1       4.865   1.214  -0.791  0.00  0.00     0.062 H 
ATOM     20  C   LIG d   1       3.110   0.922  -3.656  0.00  0.00    -0.061 A 
ATOM     21  H   LIG d   1       3.476   2.551  -2.321  0.00  0.00     0.062 H 
ATOM     22  C   LIG d   1       3.346  -0.413  -3.925  0.00  0.00    -0.055 A 
ATOM     23  H   LIG d   1       2.501   1.508  -4.328  0.00  0.00     0.062 H 
ATOM     24  H   LIG d   1       2.922  -0.870  -4.807  0.00  0.00     0.062 H 
ENDBRANCH   1  14
TORSDOF 5
ENDMDL
MODEL 6
REMARK VINA RESULT:      -4.7      1.415      5.740
REMARK  5 active torsions:
REMARK  status: ('A' for Active; 'I' for Inactive)
REMARK    1  A    between atoms: C_1  and  C_2 
REMARK    2  A    between atoms: C_2  and  C_3 
REMARK    3  A    between atoms: C_3  and  O_5 
REMARK    4  A    between atoms: O_5  and  C_6 
REMARK    5  A    between atoms: C_6  and  C_7 
ROOT
ATOM      1  C   LIG d   1       2.760   0.309  -6.639  0.00  0.00     0.117 C 
ATOM      2  H   LIG d   1       1.994   0.989  -6.266  0.00  0.00     0.075 H 
ATOM      3  H   LIG d   1       2.369  -0.708  -6.653  0.00  0.00     0.075 H 
ENDROOT
BRANCH   1   4
ATOM      4  O   LIG d   1       3.922   0.368  -5.771  0.00  0.00    -0.460 OA
BRANCH   4   5
ATOM      5  C   LIG d   1       3.783  -0.129  -4.531  0.00  0.00     0.307 C 
ATOM      6  O   LIG d   1       4.156  -1.251  -4.285  0.00  0.00    -0.251 OA
BRANCH   5   7
ATOM      7  C   LIG d   1       3.163   0.713  -3.447  0.00  0.00     0.042 C 
ATOM      8  H   LIG d   1       2.984   1.720  -3.826  0.00  0.00     0.037 H 
ATOM      9  H   LIG d   1       2.217   0.269  -3.137  0.00  0.00     0.037 H 
BRANCH   7  10
ATOM     10  C   LIG d   1       4.112   0.783  -2.248  0.00  0.00    -0.055 C 
ATOM     11  H   LIG d   1       5.102   1.089  -2.587  0.00  0.00     0.024 H 
ATOM     12  H   LIG d   1       3.735   1.508  -1.527  0.00  0.00     0.024 H 
ATOM     13  H   LIG d   1       4.177  -0.198  -1.778  0.00  0.00     0.024 H 
ENDBRANCH   7  10
ENDBRANCH   5   7
ENDBRANCH   4   5
ENDBRANCH   1   4
BRANCH   1  14
ATOM     14  C   LIG d   1       3.156   0.713  -8.036  0.00  0.00    -0.010 A 
ATOM     15  C   LIG d   1       3.580  -0.243  -8.938  0.00  0.00    -0.055 A 
ATOM     16  C   LIG d   1       3.942   0.127 -10.219  0.00  0.00    -0.061 A 
ATOM     17  H   LIG d   1       3.628  -1.281  -8.643  0.00  0.00     0.062 H 
ATOM     18  C   LIG d   1       3.881   1.456 -10.598  0.00  0.00    -0.062 A 
ATOM     19  H   LIG d   1       4.274  -0.620 -10.925  0.00  0.00     0.062 H 
ATOM     20  C   LIG d   1       3.456   2.413  -9.695  0.00  0.00    -0.061 A 
ATOM     21  H   LIG d   1       4.165   1.745 -11.599  0.00  0.00     0.062 H 
ATOM     22  C   LIG d   1       3.089   2.041  -8.416  0.00  0.00    -0.055 A 
ATOM     23  H   LIG d   1       3.409   3.450  -9.991  0.00  0.00     0.062 H 
ATOM     24  H   LIG d   1       2.753   2.788  -7.712  0.00  0.00     0.062 H 
ENDBRANCH   1  14
TORSDOF 5
ENDMDL
MODEL 7
REMARK VINA RESULT:      -4.7      2.893      3.802
REMARK  5 active torsions:
REMARK  status: ('A' for Active; 'I' for Inactive)
REMARK    1  A    between atoms: C_1  and  C_2 
REMARK    2  A    between atoms: C_2  and  C_3 
REMARK    3  A    between atoms: C_3  and  O_5 
REMARK    4  A    between atoms: O_5  and  C_6 
REMARK    5  A    between atoms: C_6  and  C_7 
ROOT
ATOM      1  C   LIG d   1       7.062  -1.956  -3.540  0.00  0.00     0.117 C 
ATOM      2  H   LIG d   1       7.892  -1.411  -3.990  0.00  0.00     0.075 H 
ATOM      3  H   LIG d   1       7.429  -2.557  -2.708  0.00  0.00     0.075 H 
ENDROOT
BRANCH   1   4
ATOM      4  O   LIG d   1       6.457  -2.824  -4.534  0.00  0.00    -0.460 OA
BRANCH   4   5
ATOM      5  C   LIG d   1       6.189  -2.283  -5.734  0.00  0.00     0.307 C 
ATOM      6  O   LIG d   1       7.086  -1.838  -6.410  0.00  0.00    -0.251 OA
BRANCH   5   7
ATOM      7  C   LIG d   1       4.770  -2.231  -6.236  0.00  0.00     0.042 C 
ATOM      8  H   LIG d   1       4.734  -2.592  -7.264  0.00  0.00     0.037 H 
ATOM      9  H   LIG d   1       4.138  -2.859  -5.608  0.00  0.00     0.037 H 
BRANCH   7  10
ATOM     10  C   LIG d   1       4.264  -0.787  -6.187  0.00  0.00    -0.055 C 
ATOM     11  H   LIG d   1       3.201  -0.783  -5.940  0.00  0.00     0.024 H 
ATOM     12  H   LIG d   1       4.815  -0.233  -5.427  0.00  0.00     0.024 H 
ATOM     13  H   LIG d   1       4.412  -0.316  -7.158  0.00  0.00     0.024 H 
ENDBRANCH   7  10
ENDBRANCH   5   7
ENDBRANCH   4   5
ENDBRANCH   1   4
BRANCH   1  14
ATOM     14  C   LIG d   1       6.032  -0.978  -3.035  0.00  0.00    -0.010 A 
ATOM     15  C   LIG d   1       4.884  -1.439  -2.421  0.00  0.00    -0.055 A 
ATOM     16  C   LIG d   1       3.940  -0.542  -1.957  0.00  0.00    -0.061 A 
ATOM     17  H   LIG d   1       4.723  -2.500  -2.302  0.00  0.00     0.062 H 
ATOM     18  C   LIG d   1       4.145   0.817  -2.109  0.00  0.00    -0.062 A 
ATOM     19  H   LIG d   1       3.042  -0.901  -1.477  0.00  0.00     0.062 H 
ATOM     20  C   LIG d   1       5.294   1.279  -2.723  0.00  0.00    -0.061 A 
ATOM     21  H   LIG d   1       3.407   1.518  -1.747  0.00  0.00     0.062 H 
ATOM     22  C   LIG d   1       6.240   0.382  -3.182  0.00  0.00    -0.055 A 
ATOM     23  H   LIG d   1       5.454   2.340  -2.842  0.00  0.00     0.062 H 
ATOM     24  H   LIG d   1       7.140   0.742  -3.658  0.00  0.00     0.062 H 
ENDBRANCH   1  14
TORSDOF 5
ENDMDL
MODEL 8
REMARK VINA RESULT:      -4.7      3.797      5.542
REMARK  5 active torsions:
REMARK  status: ('A' for Active; 'I' for Inactive)
REMARK    1  A    between atoms: C_1  and  C_2 
REMARK    2  A    between atoms: C_2  and  C_3 
REMARK    3  A    between atoms: C_3  and  O_5 
REMARK    4  A    between atoms: O_5  and  C_6 
REMARK    5  A    between atoms: C_6  and  C_7 
ROOT
ATOM      1  C   LIG d   1       4.597  -2.561  -4.671  0.00  0.00     0.117 C 
ATOM      2  H   LIG d   1       4.691  -1.505  -4.928  0.00  0.00     0.075 H 
ATOM      3  H   LIG d   1       4.002  -3.068  -5.430  0.00  0.00     0.075 H 
ENDROOT
BRANCH   1   4
ATOM      4  O   LIG d   1       3.945  -2.689  -3.380  0.00  0.00    -0.460 OA
BRANCH   4   5
ATOM      5  C   LIG d   1       3.575  -1.552  -2.769  0.00  0.00     0.307 C 
ATOM      6  O   LIG d   1       2.535  -1.016  -3.070  0.00  0.00    -0.251 OA
BRANCH   5   7
ATOM      7  C   LIG d   1       4.455  -0.946  -1.707  0.00  0.00     0.042 C 
ATOM      8  H   LIG d   1       4.094  -1.244  -0.722  0.00  0.00     0.037 H 
ATOM      9  H   LIG d   1       5.478  -1.296  -1.839  0.00  0.00     0.037 H 
BRANCH   7  10
ATOM     10  C   LIG d   1       4.418   0.580  -1.823  0.00  0.00    -0.055 C 
ATOM     11  H   LIG d   1       3.391   0.927  -1.702  0.00  0.00     0.024 H 
ATOM     12  H   LIG d   1       5.043   1.019  -1.045  0.00  0.00     0.024 H 
ATOM     13  H   LIG d   1       4.790   0.879  -2.801  0.00  0.00     0.024 H 
ENDBRANCH   7  10
ENDBRANCH   5   7
ENDBRANCH   4   5
ENDBRANCH   1   4
BRANCH   1  14
ATOM     14  C   LIG d   1       5.966  -3.186  -4.607  0.00  0.00    -0.010 A 
ATOM     15  C   LIG d   1       6.218  -4.370  -5.275  0.00  0.00    -0.055 A 
ATOM     16  C   LIG d   1       7.474  -4.944  -5.216  0.00  0.00    -0.061 A 
ATOM     17  H   LIG d   1       5.433  -4.847  -5.844  0.00  0.00     0.062 H 
ATOM     18  C   LIG d   1       8.479  -4.333  -4.489  0.00  0.00    -0.062 A 
ATOM     19  H   LIG d   1       7.671  -5.868  -5.738  0.00  0.00     0.062 H 
ATOM     20  C   LIG d   1       8.228  -3.149  -3.821  0.00  0.00    -0.061 A 
ATOM     21  H   LIG d   1       9.460  -4.782  -4.443  0.00  0.00     0.062 H 
ATOM     22  C   LIG d   1       6.973  -2.573  -3.884  0.00  0.00    -0.055 A 
ATOM     23  H   LIG d   1       9.013  -2.673  -3.252  0.00  0.00     0.062 H 
ATOM     24  H   LIG d   1       6.778  -1.646  -3.365  0.00  0.00     0.062 H 
ENDBRANCH   1  14
TORSDOF 5
ENDMDL
MODEL 9
REMARK VINA RESULT:      -4.7      4.358      6.233
REMARK  5 active torsions:
REMARK  status: ('A' for Active; 'I' for Inactive)
REMARK    1  A    between atoms: C_1  and  C_2 
REMARK    2  A    between atoms: C_2  and  C_3 
REMARK    3  A    between atoms: C_3  and  O_5 
REMARK    4  A    between atoms: O_5  and  C_6 
REMARK    5  A    between atoms: C_6  and  C_7 
ROOT
ATOM      1  C   LIG d   1       7.195  -1.585  -4.111  0.00  0.00     0.117 C 
ATOM      2  H   LIG d   1       6.718  -2.060  -4.969  0.00  0.00     0.075 H 
ATOM      3  H   LIG d   1       7.968  -0.900  -4.458  0.00  0.00     0.075 H 
ENDROOT
BRANCH   1   4
ATOM      4  O   LIG d   1       7.793  -2.603  -3.266  0.00  0.00    -0.460 OA
BRANCH   4   5
ATOM      5  C   LIG d   1       8.416  -3.620  -3.884  0.00  0.00     0.307 C 
ATOM      6  O   LIG d   1       7.858  -4.219  -4.772  0.00  0.00    -0.251 OA
BRANCH   5   7
ATOM      7  C   LIG d   1       9.810  -4.013  -3.470  0.00  0.00     0.042 C 
ATOM      8  H   LIG d   1      10.218  -4.721  -4.192  0.00  0.00     0.037 H 
ATOM      9  H   LIG d   1      10.443  -3.126  -3.434  0.00  0.00     0.037 H 
BRANCH   7  10
ATOM     10  C   LIG d   1       9.766  -4.666  -2.086  0.00  0.00    -0.055 C 
ATOM     11  H   LIG d   1       8.737  -4.936  -1.845  0.00  0.00     0.024 H 
ATOM     12  H   LIG d   1      10.386  -5.562  -2.087  0.00  0.00     0.024 H 
ATOM     13  H   LIG d   1      10.141  -3.965  -1.341  0.00  0.00     0.024 H 
ENDBRANCH   7  10
ENDBRANCH   5   7
ENDBRANCH   4   5
ENDBRANCH   1   4
BRANCH   1  14
ATOM     14  C   LIG d   1       6.164  -0.819  -3.322  0.00  0.00    -0.010 A 
ATOM     15  C   LIG d   1       6.204   0.561  -3.291  0.00  0.00    -0.055 A 
ATOM     16  C   LIG d   1       5.258   1.264  -2.567  0.00  0.00    -0.061 A 
ATOM     17  H   LIG d   1       6.973   1.093  -3.832  0.00  0.00     0.062 H 
ATOM     18  C   LIG d   1       4.273   0.584  -1.875  0.00  0.00    -0.062 A 
ATOM     19  H   LIG d   1       5.288   2.343  -2.543  0.00  0.00     0.062 H 
ATOM     20  C   LIG d   1       4.233  -0.797  -1.906  0.00  0.00    -0.061 A 
ATOM     21  H   LIG d   1       3.535   1.133  -1.309  0.00  0.00     0.062 H 
ATOM     22  C   LIG d   1       5.176  -1.499  -2.634  0.00  0.00    -0.055 A 
ATOM     23  H   LIG d   1       3.464  -1.328  -1.365  0.00  0.00     0.062 H 
ATOM     24  H   LIG d   1       5.143  -2.578  -2.662  0.00  0.00     0.062 H 
ENDBRANCH   1  14
TORSDOF 5
ENDMDL
MODEL 10
REMARK VINA RESULT:      -4.6      3.678      4.702
REMARK  5 active torsions:
REMARK  status: ('A' for Active; 'I' for Inactive)
REMARK    1  A    between atoms: C_1  and  C_2 
REMARK    2  A    between atoms: C_2  and  C_3 
REMARK    3  A    between atoms: C_3  and  O_5 
REMARK    4  A    between atoms: O_5  and  C_6 
REMARK    5  A    between atoms: C_6  and  C_7 
ROOT
ATOM      1  C   LIG d   1       4.328  -2.696  -3.461  0.00  0.00     0.117 C 
ATOM      2  H   LIG d   1       4.850  -3.389  -2.801  0.00  0.00     0.075 H 
ATOM      3  H   LIG d   1       3.252  -2.822  -3.344  0.00  0.00     0.075 H 
ENDROOT
BRANCH   1   4
ATOM      4  O   LIG d   1       4.699  -2.967  -4.838  0.00  0.00    -0.460 OA
BRANCH   4   5
ATOM      5  C   LIG d   1       5.020  -4.234  -5.145  0.00  0.00     0.307 C 
ATOM      6  O   LIG d   1       4.209  -5.117  -4.993  0.00  0.00    -0.251 OA
BRANCH   5   7
ATOM      7  C   LIG d   1       6.392  -4.556  -5.679  0.00  0.00     0.042 C 
ATOM      8  H   LIG d   1       6.528  -5.638  -5.706  0.00  0.00     0.037 H 
ATOM      9  H   LIG d   1       6.493  -4.153  -6.687  0.00  0.00     0.037 H 
BRANCH   7  10
ATOM     10  C   LIG d   1       7.453  -3.932  -4.770  0.00  0.00    -0.055 C 
ATOM     11  H   LIG d   1       8.355  -3.732  -5.350  0.00  0.00     0.024 H 
ATOM     12  H   LIG d   1       7.073  -2.998  -4.355  0.00  0.00     0.024 H 
ATOM     13  H   LIG d   1       7.688  -4.620  -3.959  0.00  0.00     0.024 H 
ENDBRANCH   7  10
ENDBRANCH   5   7
ENDBRANCH   4   5
ENDBRANCH   1   4
BRANCH   1  14
ATOM     14  C   LIG d   1       4.709  -1.281  -3.107  0.00  0.00    -0.010 A 
ATOM     15  C   LIG d   1       5.791  -0.682  -3.724  0.00  0.00    -0.055 A 
ATOM     16  C   LIG d   1       6.141   0.615  -3.400  0.00  0.00    -0.061 A 
ATOM     17  H   LIG d   1       6.364  -1.227  -4.460  0.00  0.00     0.062 H 
ATOM     18  C   LIG d   1       5.408   1.313  -2.457  0.00  0.00    -0.062 A 
ATOM     19  H   LIG d   1       6.985   1.084  -3.881  0.00  0.00     0.062 H 
ATOM     20  C   LIG d   1       4.325   0.714  -1.840  0.00  0.00    -0.061 A 
ATOM     21  H   LIG d   1       5.682   2.327  -2.204  0.00  0.00     0.062 H 
ATOM     22  C   LIG d   1       3.973  -0.582  -2.169  0.00  0.00    -0.055 A 
ATOM     23  H   LIG d   1       3.754   1.259  -1.104  0.00  0.00     0.062 H 
ATOM     24  H   LIG d   1       3.125  -1.049  -1.690  0.00  0.00     0.062 H 
ENDBRANCH   1  14
TORSDOF 5
ENDMDL
