MODEL 1
REMARK VINA RESULT:      -5.0      0.000      0.000
REMARK  11 active torsions:
REMARK  status: ('A' for Active; 'I' for Inactive)
REMARK    1  A    between atoms: C_1  and  O_2 
REMARK    2  A    between atoms: O_2  and  C_3 
REMARK    3  A    between atoms: C_9  and  C_13 
REMARK    4  A    between atoms: C_13  and  C_14 
REMARK    5  A    between atoms: C_14  and  N_15 
REMARK    6  A    between atoms: N_15  and  C_16 
REMARK    7  A    between atoms: C_16  and  C_17 
REMARK    8  A    between atoms: C_17  and  N_18 
REMARK    9  A    between atoms: N_18  and  C_19 
REMARK   10  A    between atoms: C_19  and  C_20 
REMARK   11  A    between atoms: C_20  and  S_21 
ROOT
ATOM      1  C   LIG d   1       4.552   0.281  -1.825  0.00  0.00    -0.013 C 
ATOM      2  H   LIG d   1       4.277   0.097  -0.786  0.00  0.00     0.033 H 
ATOM      3  H   LIG d   1       5.512   0.797  -1.861  0.00  0.00     0.033 H 
ENDROOT
BRANCH   1   4
ATOM      4  C   LIG d   1       4.657  -1.031  -2.557  0.00  0.00    -0.021 A 
ATOM      5  C   LIG d   1       5.769  -1.469  -3.406  0.00  0.00     0.006 A 
ATOM      6  C   LIG d   1       5.425  -2.751  -3.868  0.00  0.00     0.047 A 
ATOM      7  C   LIG d   1       6.983  -0.893  -3.785  0.00  0.00    -0.011 A 
ATOM      8  C   LIG d   1       6.297  -3.434  -4.708  0.00  0.00    -0.034 A 
ATOM      9  N   LIG d   1       4.191  -3.058  -3.332  0.00  0.00    -0.360 N 
ATOM     10  C   LIG d   1       7.489  -2.855  -5.081  0.00  0.00    -0.018 A 
ATOM     11  H   LIG d   1       6.040  -4.420  -5.069  0.00  0.00     0.064 H 
ATOM     12  C   LIG d   1       7.833  -1.584  -4.624  0.00  0.00     0.121 A 
ATOM     13  H   LIG d   1       8.162  -3.390  -5.733  0.00  0.00     0.066 H 
ATOM     14  C   LIG d   1       3.751  -2.021  -2.555  0.00  0.00     0.006 A 
ATOM     15  H   LIG d   1       3.707  -3.885  -3.485  0.00  0.00     0.165 HD
ATOM     16  H   LIG d   1       2.813  -2.003  -2.019  0.00  0.00     0.081 H 
ATOM     17  H   LIG d   1       7.253   0.090  -3.428  0.00  0.00     0.066 H 
BRANCH  12  18
ATOM     18  O   LIG d   1       9.015  -1.027  -5.001  0.00  0.00    -0.495 OA
BRANCH  18  19
ATOM     19  C   LIG d   1       8.974   0.318  -5.483  0.00  0.00     0.079 C 
ATOM     20  H   LIG d   1       8.131   0.840  -5.033  0.00  0.00     0.066 H 
ATOM     21  H   LIG d   1       9.900   0.827  -5.217  0.00  0.00     0.066 H 
ATOM     22  H   LIG d   1       8.860   0.311  -6.567  0.00  0.00     0.066 H 
ENDBRANCH  18  19
ENDBRANCH  12  18
ENDBRANCH   1   4
BRANCH   1  23
ATOM     23  C   LIG d   1       3.482   1.152  -2.488  0.00  0.00     0.000 C 
ATOM     24  H   LIG d   1       2.496   0.741  -2.274  0.00  0.00     0.043 H 
ATOM     25  H   LIG d   1       3.545   2.167  -2.096  0.00  0.00     0.043 H 
BRANCH  23  26
ATOM     26  N   LIG d   1       3.701   1.174  -3.941  0.00  0.00    -0.311 N 
ATOM     27  H   LIG d   1       3.999   2.086  -4.248  0.00  0.00     0.122 HD
BRANCH  26  28
ATOM     28  C   LIG d   1       2.495   0.744  -4.661  0.00  0.00     0.036 C 
ATOM     29  H   LIG d   1       2.084  -0.146  -4.184  0.00  0.00     0.048 H 
ATOM     30  H   LIG d   1       1.753   1.543  -4.637  0.00  0.00     0.048 H 
BRANCH  28  31
ATOM     31  C   LIG d   1       2.854   0.424  -6.113  0.00  0.00    -0.021 C 
ATOM     32  H   LIG d   1       1.942   0.362  -6.706  0.00  0.00     0.083 H 
ATOM     33  H   LIG d   1       3.493   1.211  -6.510  0.00  0.00     0.083 H 
BRANCH  31  34
ATOM     34  N   LIG d   1       3.563  -0.862  -6.171  0.00  0.00     0.228 N 
ATOM     35  H   LIG d   1       4.405  -0.806  -5.617  0.00  0.00     0.201 HD
ATOM     36  H   LIG d   1       2.968  -1.591  -5.807  0.00  0.00     0.201 HD
BRANCH  34  37
ATOM     37  C   LIG d   1       3.914  -1.164  -7.565  0.00  0.00    -0.025 C 
ATOM     38  H   LIG d   1       4.802  -0.599  -7.847  0.00  0.00     0.082 H 
ATOM     39  H   LIG d   1       4.114  -2.230  -7.666  0.00  0.00     0.082 H 
BRANCH  37  40
ATOM     40  C   LIG d   1       2.749  -0.776  -8.479  0.00  0.00     0.031 C 
ATOM     41  H   LIG d   1       1.916  -1.459  -8.317  0.00  0.00     0.043 H 
ATOM     42  H   LIG d   1       2.434   0.243  -8.251  0.00  0.00     0.043 H 
BRANCH  40  43
ATOM     43  S   LIG d   1       3.283  -0.870 -10.210  0.00  0.00    -0.173 SA
ATOM     44  H   LIG d   1       4.262   0.046 -10.300  0.00  0.00     0.102 HD
ENDBRANCH  40  43
ENDBRANCH  37  40
ENDBRANCH  34  37
ENDBRANCH  31  34
ENDBRANCH  28  31
ENDBRANCH  26  28
ENDBRANCH  23  26
ENDBRANCH   1  23
TORSDOF 11
ENDMDL
MODEL 2
REMARK VINA RESULT:      -4.9      2.141      2.996
REMARK  11 active torsions:
REMARK  status: ('A' for Active; 'I' for Inactive)
REMARK    1  A    between atoms: C_1  and  O_2 
REMARK    2  A    between atoms: O_2  and  C_3 
REMARK    3  A    between atoms: C_9  and  C_13 
REMARK    4  A    between atoms: C_13  and  C_14 
REMARK    5  A    between atoms: C_14  and  N_15 
REMARK    6  A    between atoms: N_15  and  C_16 
REMARK    7  A    between atoms: C_16  and  C_17 
REMARK    8  A    between atoms: C_17  and  N_18 
REMARK    9  A    between atoms: N_18  and  C_19 
REMARK   10  A    between atoms: C_19  and  C_20 
REMARK   11  A    between atoms: C_20  and  S_21 
ROOT
ATOM      1  C   LIG d   1       4.379  -0.322  -1.958  0.00  0.00    -0.013 C 
ATOM      2  H   LIG d   1       4.189  -1.117  -1.237  0.00  0.00     0.033 H 
ATOM      3  H   LIG d   1       4.642   0.594  -1.427  0.00  0.00     0.033 H 
ENDROOT
BRANCH   1   4
ATOM      4  C   LIG d   1       5.516  -0.724  -2.861  0.00  0.00    -0.021 A 
ATOM      5  C   LIG d   1       5.571  -1.912  -3.716  0.00  0.00     0.006 A 
ATOM      6  C   LIG d   1       6.815  -1.865  -4.369  0.00  0.00     0.047 A 
ATOM      7  C   LIG d   1       4.690  -2.965  -3.970  0.00  0.00    -0.011 A 
ATOM      8  C   LIG d   1       7.161  -2.874  -5.260  0.00  0.00    -0.034 A 
ATOM      9  N   LIG d   1       7.460  -0.725  -3.933  0.00  0.00    -0.360 N 
ATOM     10  C   LIG d   1       6.287  -3.911  -5.498  0.00  0.00    -0.018 A 
ATOM     11  H   LIG d   1       8.116  -2.846  -5.766  0.00  0.00     0.064 H 
ATOM     12  C   LIG d   1       5.053  -3.961  -4.854  0.00  0.00     0.121 A 
ATOM     13  H   LIG d   1       6.561  -4.693  -6.191  0.00  0.00     0.066 H 
ATOM     14  C   LIG d   1       6.669  -0.060  -3.036  0.00  0.00     0.006 A 
ATOM     15  H   LIG d   1       8.342  -0.440  -4.219  0.00  0.00     0.165 HD
ATOM     16  H   LIG d   1       6.936   0.863  -2.541  0.00  0.00     0.081 H 
ATOM     17  H   LIG d   1       3.731  -3.002  -3.474  0.00  0.00     0.066 H 
BRANCH  12  18
ATOM     18  O   LIG d   1       4.201  -4.992  -5.101  0.00  0.00    -0.495 OA
BRANCH  18  19
ATOM     19  C   LIG d   1       4.773  -6.197  -5.615  0.00  0.00     0.079 C 
ATOM     20  H   LIG d   1       3.979  -6.852  -5.970  0.00  0.00     0.066 H 
ATOM     21  H   LIG d   1       5.443  -5.958  -6.440  0.00  0.00     0.066 H 
ATOM     22  H   LIG d   1       5.332  -6.699  -4.825  0.00  0.00     0.066 H 
ENDBRANCH  18  19
ENDBRANCH  12  18
ENDBRANCH   1   4
BRANCH   1  23
ATOM     23  C   LIG d   1       3.121  -0.083  -2.796  0.00  0.00     0.000 C 
ATOM     24  H   LIG d   1       2.887  -0.983  -3.363  0.00  0.00     0.043 H 
ATOM     25  H   LIG d   1       2.287   0.159  -2.137  0.00  0.00     0.043 H 
BRANCH  23  26
ATOM     26  N   LIG d   1       3.354   1.035  -3.720  0.00  0.00    -0.311 N 
ATOM     27  H   LIG d   1       3.198   1.920  -3.264  0.00  0.00     0.122 HD
BRANCH  26  28
ATOM     28  C   LIG d   1       2.520   0.906  -4.922  0.00  0.00     0.036 C 
ATOM     29  H   LIG d   1       1.570   0.441  -4.657  0.00  0.00     0.048 H 
ATOM     30  H   LIG d   1       2.334   1.895  -5.343  0.00  0.00     0.048 H 
BRANCH  28  31
ATOM     31  C   LIG d   1       3.242   0.039  -5.955  0.00  0.00    -0.021 C 
ATOM     32  H   LIG d   1       4.269  -0.130  -5.632  0.00  0.00     0.083 H 
ATOM     33  H   LIG d   1       2.729  -0.917  -6.048  0.00  0.00     0.083 H 
BRANCH  31  34
ATOM     34  N   LIG d   1       3.244   0.724  -7.255  0.00  0.00     0.228 N 
ATOM     35  H   LIG d   1       2.297   0.801  -7.595  0.00  0.00     0.201 HD
ATOM     36  H   LIG d   1       3.641   1.645  -7.148  0.00  0.00     0.201 HD
BRANCH  34  37
ATOM     37  C   LIG d   1       4.048  -0.048  -8.213  0.00  0.00    -0.025 C 
ATOM     38  H   LIG d   1       3.429  -0.324  -9.066  0.00  0.00     0.082 H 
ATOM     39  H   LIG d   1       4.888   0.557  -8.553  0.00  0.00     0.082 H 
BRANCH  37  40
ATOM     40  C   LIG d   1       4.574  -1.313  -7.533  0.00  0.00     0.031 C 
ATOM     41  H   LIG d   1       5.663  -1.323  -7.575  0.00  0.00     0.043 H 
ATOM     42  H   LIG d   1       4.251  -1.327  -6.491  0.00  0.00     0.043 H 
BRANCH  40  43
ATOM     43  S   LIG d   1       3.922  -2.775  -8.387  0.00  0.00    -0.173 SA
ATOM     44  H   LIG d   1       2.638  -2.836  -7.992  0.00  0.00     0.102 HD
ENDBRANCH  40  43
ENDBRANCH  37  40
ENDBRANCH  34  37
ENDBRANCH  31  34
ENDBRANCH  28  31
ENDBRANCH  26  28
ENDBRANCH  23  26
ENDBRANCH   1  23
TORSDOF 11
ENDMDL
MODEL 3
REMARK VINA RESULT:      -4.9      1.722      2.607
REMARK  11 active torsions:
REMARK  status: ('A' for Active; 'I' for Inactive)
REMARK    1  A    between atoms: C_1  and  O_2 
REMARK    2  A    between atoms: O_2  and  C_3 
REMARK    3  A    between atoms: C_9  and  C_13 
REMARK    4  A    between atoms: C_13  and  C_14 
REMARK    5  A    between atoms: C_14  and  N_15 
REMARK    6  A    between atoms: N_15  and  C_16 
REMARK    7  A    between atoms: C_16  and  C_17 
REMARK    8  A    between atoms: C_17  and  N_18 
REMARK    9  A    between atoms: N_18  and  C_19 
REMARK   10  A    between atoms: C_19  and  C_20 
REMARK   11  A    between atoms: C_20  and  S_21 
ROOT
ATOM      1  C   LIG d   1       4.170  -1.005  -2.098  0.00  0.00    -0.013 C 
ATOM      2  H   LIG d   1       4.329  -2.078  -2.210  0.00  0.00     0.033 H 
ATOM      3  H   LIG d   1       4.155  -0.748  -1.039  0.00  0.00     0.033 H 
ENDROOT
BRANCH   1   4
ATOM      4  C   LIG d   1       5.285  -0.258  -2.782  0.00  0.00    -0.021 A 
ATOM      5  C   LIG d   1       6.399  -0.848  -3.530  0.00  0.00     0.006 A 
ATOM      6  C   LIG d   1       7.179   0.231  -3.982  0.00  0.00     0.047 A 
ATOM      7  C   LIG d   1       6.772  -2.157  -3.841  0.00  0.00    -0.011 A 
ATOM      8  C   LIG d   1       8.322  -0.017  -4.733  0.00  0.00    -0.034 A 
ATOM      9  N   LIG d   1       6.572   1.387  -3.535  0.00  0.00    -0.360 N 
ATOM     10  C   LIG d   1       8.684  -1.312  -5.029  0.00  0.00    -0.018 A 
ATOM     11  H   LIG d   1       8.928   0.807  -5.084  0.00  0.00     0.064 H 
ATOM     12  C   LIG d   1       7.913  -2.383  -4.582  0.00  0.00     0.121 A 
ATOM     13  H   LIG d   1       9.573  -1.499  -5.612  0.00  0.00     0.066 H 
ATOM     14  C   LIG d   1       5.446   1.074  -2.822  0.00  0.00     0.006 A 
ATOM     15  H   LIG d   1       6.896   2.286  -3.700  0.00  0.00     0.165 HD
ATOM     16  H   LIG d   1       4.786   1.794  -2.361  0.00  0.00     0.081 H 
ATOM     17  H   LIG d   1       6.173  -2.988  -3.499  0.00  0.00     0.066 H 
BRANCH  12  18
ATOM     18  O   LIG d   1       8.285  -3.656  -4.884  0.00  0.00    -0.495 OA
BRANCH  18  19
ATOM     19  C   LIG d   1       9.068  -4.351  -3.912  0.00  0.00     0.079 C 
ATOM     20  H   LIG d   1       9.905  -3.726  -3.605  0.00  0.00     0.066 H 
ATOM     21  H   LIG d   1       8.449  -4.581  -3.044  0.00  0.00     0.066 H 
ATOM     22  H   LIG d   1       9.445  -5.278  -4.345  0.00  0.00     0.066 H 
ENDBRANCH  18  19
ENDBRANCH  12  18
ENDBRANCH   1   4
BRANCH   1  23
ATOM     23  C   LIG d   1       2.832  -0.619  -2.735  0.00  0.00     0.000 C 
ATOM     24  H   LIG d   1       2.034  -1.211  -2.288  0.00  0.00     0.043 H 
ATOM     25  H   LIG d   1       2.640   0.440  -2.561  0.00  0.00     0.043 H 
BRANCH  23  26
ATOM     26  N   LIG d   1       2.885  -0.876  -4.180  0.00  0.00    -0.311 N 
ATOM     27  H   LIG d   1       3.810  -1.160  -4.463  0.00  0.00     0.122 HD
BRANCH  26  28
ATOM     28  C   LIG d   1       2.438   0.298  -4.940  0.00  0.00     0.036 C 
ATOM     29  H   LIG d   1       1.349   0.343  -4.933  0.00  0.00     0.048 H 
ATOM     30  H   LIG d   1       2.841   1.202  -4.482  0.00  0.00     0.048 H 
BRANCH  28  31
ATOM     31  C   LIG d   1       2.934   0.192  -6.383  0.00  0.00    -0.021 C 
ATOM     32  H   LIG d   1       2.518  -0.704  -6.844  0.00  0.00     0.083 H 
ATOM     33  H   LIG d   1       2.615   1.070  -6.942  0.00  0.00     0.083 H 
BRANCH  31  34
ATOM     34  N   LIG d   1       4.401   0.110  -6.392  0.00  0.00     0.228 N 
ATOM     35  H   LIG d   1       4.785   0.907  -5.906  0.00  0.00     0.201 HD
ATOM     36  H   LIG d   1       4.694  -0.738  -5.933  0.00  0.00     0.201 HD
BRANCH  34  37
ATOM     37  C   LIG d   1       4.882   0.107  -7.781  0.00  0.00    -0.025 C 
ATOM     38  H   LIG d   1       5.786   0.712  -7.854  0.00  0.00     0.082 H 
ATOM     39  H   LIG d   1       5.103  -0.915  -8.087  0.00  0.00     0.082 H 
BRANCH  37  40
ATOM     40  C   LIG d   1       3.802   0.690  -8.695  0.00  0.00     0.031 C 
ATOM     41  H   LIG d   1       3.635   0.017  -9.535  0.00  0.00     0.043 H 
ATOM     42  H   LIG d   1       2.875   0.808  -8.133  0.00  0.00     0.043 H 
BRANCH  40  43
ATOM     43  S   LIG d   1       4.344   2.307  -9.314  0.00  0.00    -0.173 SA
ATOM     44  H   LIG d   1       5.289   2.691  -8.438  0.00  0.00     0.102 HD
ENDBRANCH  40  43
ENDBRANCH  37  40
ENDBRANCH  34  37
ENDBRANCH  31  34
ENDBRANCH  28  31
ENDBRANCH  26  28
ENDBRANCH  23  26
ENDBRANCH   1  23
TORSDOF 11
ENDMDL
MODEL 4
REMARK VINA RESULT:      -4.8      6.410      8.328
REMARK  11 active torsions:
REMARK  status: ('A' for Active; 'I' for Inactive)
REMARK    1  A    between atoms: C_1  and  O_2 
REMARK    2  A    between atoms: O_2  and  C_3 
REMARK    3  A    between atoms: C_9  and  C_13 
REMARK    4  A    between atoms: C_13  and  C_14 
REMARK    5  A    between atoms: C_14  and  N_15 
REMARK    6  A    between atoms: N_15  and  C_16 
REMARK    7  A    between atoms: C_16  and  C_17 
REMARK    8  A    between atoms: C_17  and  N_18 
REMARK    9  A    between atoms: N_18  and  C_19 
REMARK   10  A    between atoms: C_19  and  C_20 
REMARK   11  A    between atoms: C_20  and  S_21 
ROOT
ATOM      1  C   LIG d   1       9.238   4.354  -4.435  0.00  0.00    -0.013 C 
ATOM      2  H   LIG d   1       8.196   4.627  -4.268  0.00  0.00     0.033 H 
ATOM      3  H   LIG d   1       9.679   5.032  -5.167  0.00  0.00     0.033 H 
ENDROOT
BRANCH   1   4
ATOM      4  C   LIG d   1       9.997   4.450  -3.138  0.00  0.00    -0.021 A 
ATOM      5  C   LIG d   1      10.025   5.598  -2.227  0.00  0.00     0.006 A 
ATOM      6  C   LIG d   1      10.859   5.227  -1.158  0.00  0.00     0.047 A 
ATOM      7  C   LIG d   1       9.424   6.858  -2.238  0.00  0.00    -0.011 A 
ATOM      8  C   LIG d   1      11.084   6.124  -0.120  0.00  0.00    -0.034 A 
ATOM      9  N   LIG d   1      11.299   3.944  -1.412  0.00  0.00    -0.360 N 
ATOM     10  C   LIG d   1      10.490   7.366  -0.144  0.00  0.00    -0.018 A 
ATOM     11  H   LIG d   1      11.724   5.847   0.705  0.00  0.00     0.064 H 
ATOM     12  C   LIG d   1       9.663   7.737  -1.202  0.00  0.00     0.121 A 
ATOM     13  H   LIG d   1      10.668   8.059   0.665  0.00  0.00     0.066 H 
ATOM     14  C   LIG d   1      10.775   3.500  -2.596  0.00  0.00     0.006 A 
ATOM     15  H   LIG d   1      11.893   3.435  -0.839  0.00  0.00     0.165 HD
ATOM     16  H   LIG d   1      10.960   2.527  -3.029  0.00  0.00     0.081 H 
ATOM     17  H   LIG d   1       8.778   7.145  -3.056  0.00  0.00     0.066 H 
BRANCH  12  18
ATOM     18  O   LIG d   1       9.084   8.967  -1.209  0.00  0.00    -0.495 OA
BRANCH  18  19
ATOM     19  C   LIG d   1       9.646   9.954  -0.340  0.00  0.00     0.079 C 
ATOM     20  H   LIG d   1       9.089   9.972   0.596  0.00  0.00     0.066 H 
ATOM     21  H   LIG d   1      10.688   9.709  -0.139  0.00  0.00     0.066 H 
ATOM     22  H   LIG d   1       9.587  10.932  -0.817  0.00  0.00     0.066 H 
ENDBRANCH  18  19
ENDBRANCH  12  18
ENDBRANCH   1   4
BRANCH   1  23
ATOM     23  C   LIG d   1       9.309   2.919  -4.963  0.00  0.00     0.000 C 
ATOM     24  H   LIG d   1       9.746   2.920  -5.961  0.00  0.00     0.043 H 
ATOM     25  H   LIG d   1       9.928   2.317  -4.297  0.00  0.00     0.043 H 
BRANCH  23  26
ATOM     26  N   LIG d   1       7.956   2.350  -5.020  0.00  0.00    -0.311 N 
ATOM     27  H   LIG d   1       7.260   3.077  -5.076  0.00  0.00     0.122 HD
BRANCH  26  28
ATOM     28  C   LIG d   1       7.706   1.470  -3.872  0.00  0.00     0.036 C 
ATOM     29  H   LIG d   1       8.656   1.117  -3.471  0.00  0.00     0.048 H 
ATOM     30  H   LIG d   1       7.170   2.022  -3.100  0.00  0.00     0.048 H 
BRANCH  28  31
ATOM     31  C   LIG d   1       6.866   0.273  -4.319  0.00  0.00    -0.021 C 
ATOM     32  H   LIG d   1       6.980   0.131  -5.394  0.00  0.00     0.083 H 
ATOM     33  H   LIG d   1       7.202  -0.622  -3.797  0.00  0.00     0.083 H 
BRANCH  31  34
ATOM     34  N   LIG d   1       5.452   0.522  -4.006  0.00  0.00     0.228 N 
ATOM     35  H   LIG d   1       5.086   1.220  -4.638  0.00  0.00     0.201 HD
ATOM     36  H   LIG d   1       4.929  -0.335  -4.111  0.00  0.00     0.201 HD
BRANCH  34  37
ATOM     37  C   LIG d   1       5.334   1.003  -2.623  0.00  0.00    -0.025 C 
ATOM     38  H   LIG d   1       6.318   1.007  -2.155  0.00  0.00     0.082 H 
ATOM     39  H   LIG d   1       4.926   2.013  -2.623  0.00  0.00     0.082 H 
BRANCH  37  40
ATOM     40  C   LIG d   1       4.400   0.077  -1.840  0.00  0.00     0.031 C 
ATOM     41  H   LIG d   1       4.992  -0.630  -1.260  0.00  0.00     0.043 H 
ATOM     42  H   LIG d   1       3.780   0.671  -1.168  0.00  0.00     0.043 H 
BRANCH  40  43
ATOM     43  S   LIG d   1       3.338  -0.830  -2.998  0.00  0.00    -0.173 SA
ATOM     44  H   LIG d   1       4.145  -1.098  -4.039  0.00  0.00     0.102 HD
ENDBRANCH  40  43
ENDBRANCH  37  40
ENDBRANCH  34  37
ENDBRANCH  31  34
ENDBRANCH  28  31
ENDBRANCH  26  28
ENDBRANCH  23  26
ENDBRANCH   1  23
TORSDOF 11
ENDMDL
MODEL 5
REMARK VINA RESULT:      -4.8      2.648      4.205
REMARK  11 active torsions:
REMARK  status: ('A' for Active; 'I' for Inactive)
REMARK    1  A    between atoms: C_1  and  O_2 
REMARK    2  A    between atoms: O_2  and  C_3 
REMARK    3  A    between atoms: C_9  and  C_13 
REMARK    4  A    between atoms: C_13  and  C_14 
REMARK    5  A    between atoms: C_14  and  N_15 
REMARK    6  A    between atoms: N_15  and  C_16 
REMARK    7  A    between atoms: C_16  and  C_17 
REMARK    8  A    between atoms: C_17  and  N_18 
REMARK    9  A    between atoms: N_18  and  C_19 
REMARK   10  A    between atoms: C_19  and  C_20 
REMARK   11  A    between atoms: C_20  and  S_21 
ROOT
ATOM      1  C   LIG d   1       7.735   0.259  -5.524  0.00  0.00    -0.013 C 
ATOM      2  H   LIG d   1       8.401   1.122  -5.514  0.00  0.00     0.033 H 
ATOM      3  H   LIG d   1       8.325  -0.656  -5.454  0.00  0.00     0.033 H 
ENDROOT
BRANCH   1   4
ATOM      4  C   LIG d   1       6.791   0.339  -4.353  0.00  0.00    -0.021 A 
ATOM      5  C   LIG d   1       5.861  -0.704  -3.911  0.00  0.00     0.006 A 
ATOM      6  C   LIG d   1       5.195  -0.181  -2.788  0.00  0.00     0.047 A 
ATOM      7  C   LIG d   1       5.562  -1.991  -4.362  0.00  0.00    -0.011 A 
ATOM      8  C   LIG d   1       4.237  -0.951  -2.139  0.00  0.00    -0.034 A 
ATOM      9  N   LIG d   1       5.693   1.088  -2.575  0.00  0.00    -0.360 N 
ATOM     10  C   LIG d   1       3.946  -2.217  -2.596  0.00  0.00    -0.018 A 
ATOM     11  H   LIG d   1       3.720  -0.557  -1.276  0.00  0.00     0.064 H 
ATOM     12  C   LIG d   1       4.605  -2.738  -3.708  0.00  0.00     0.121 A 
ATOM     13  H   LIG d   1       3.201  -2.811  -2.088  0.00  0.00     0.066 H 
ATOM     14  C   LIG d   1       6.641   1.379  -3.517  0.00  0.00     0.006 A 
ATOM     15  H   LIG d   1       5.411   1.685  -1.864  0.00  0.00     0.165 HD
ATOM     16  H   LIG d   1       7.189   2.308  -3.578  0.00  0.00     0.081 H 
ATOM     17  H   LIG d   1       6.075  -2.398  -5.221  0.00  0.00     0.066 H 
BRANCH  12  18
ATOM     18  O   LIG d   1       4.306  -3.990  -4.146  0.00  0.00    -0.495 OA
BRANCH  18  19
ATOM     19  C   LIG d   1       4.983  -4.447  -5.318  0.00  0.00     0.079 C 
ATOM     20  H   LIG d   1       4.810  -3.747  -6.134  0.00  0.00     0.066 H 
ATOM     21  H   LIG d   1       6.052  -4.514  -5.117  0.00  0.00     0.066 H 
ATOM     22  H   LIG d   1       4.603  -5.430  -5.596  0.00  0.00     0.066 H 
ENDBRANCH  18  19
ENDBRANCH  12  18
ENDBRANCH   1   4
BRANCH   1  23
ATOM     23  C   LIG d   1       6.933   0.250  -6.827  0.00  0.00     0.000 C 
ATOM     24  H   LIG d   1       7.361  -0.482  -7.512  0.00  0.00     0.043 H 
ATOM     25  H   LIG d   1       5.897  -0.015  -6.614  0.00  0.00     0.043 H 
BRANCH  23  26
ATOM     26  N   LIG d   1       6.981   1.583  -7.441  0.00  0.00    -0.311 N 
ATOM     27  H   LIG d   1       6.229   2.164  -7.106  0.00  0.00     0.122 HD
BRANCH  26  28
ATOM     28  C   LIG d   1       6.961   1.489  -8.907  0.00  0.00     0.036 C 
ATOM     29  H   LIG d   1       7.358   2.408  -9.336  0.00  0.00     0.048 H 
ATOM     30  H   LIG d   1       7.574   0.646  -9.225  0.00  0.00     0.048 H 
BRANCH  28  31
ATOM     31  C   LIG d   1       5.523   1.283  -9.385  0.00  0.00    -0.021 C 
ATOM     32  H   LIG d   1       5.510   1.201 -10.472  0.00  0.00     0.083 H 
ATOM     33  H   LIG d   1       5.122   0.369  -8.948  0.00  0.00     0.083 H 
BRANCH  31  34
ATOM     34  N   LIG d   1       4.699   2.427  -8.971  0.00  0.00     0.228 N 
ATOM     35  H   LIG d   1       5.079   2.826  -8.125  0.00  0.00     0.201 HD
ATOM     36  H   LIG d   1       4.699   3.123  -9.702  0.00  0.00     0.201 HD
BRANCH  34  37
ATOM     37  C   LIG d   1       3.323   1.975  -8.724  0.00  0.00    -0.025 C 
ATOM     38  H   LIG d   1       2.858   2.619  -7.978  0.00  0.00     0.082 H 
ATOM     39  H   LIG d   1       2.753   2.023  -9.651  0.00  0.00     0.082 H 
BRANCH  37  40
ATOM     40  C   LIG d   1       3.344   0.533  -8.213  0.00  0.00     0.031 C 
ATOM     41  H   LIG d   1       4.342   0.116  -8.344  0.00  0.00     0.043 H 
ATOM     42  H   LIG d   1       3.080   0.519  -7.155  0.00  0.00     0.043 H 
BRANCH  40  43
ATOM     43  S   LIG d   1       2.146  -0.457  -9.147  0.00  0.00    -0.173 SA
ATOM     44  H   LIG d   1       1.224  -0.802  -8.231  0.00  0.00     0.102 HD
ENDBRANCH  40  43
ENDBRANCH  37  40
ENDBRANCH  34  37
ENDBRANCH  31  34
ENDBRANCH  28  31
ENDBRANCH  26  28
ENDBRANCH  23  26
ENDBRANCH   1  23
TORSDOF 11
ENDMDL
MODEL 6
REMARK VINA RESULT:      -4.8      3.795      7.184
REMARK  11 active torsions:
REMARK  status: ('A' for Active; 'I' for Inactive)
REMARK    1  A    between atoms: C_1  and  O_2 
REMARK    2  A    between atoms: O_2  and  C_3 
REMARK    3  A    between atoms: C_9  and  C_13 
REMARK    4  A    between atoms: C_13  and  C_14 
REMARK    5  A    between atoms: C_14  and  N_15 
REMARK    6  A    between atoms: N_15  and  C_16 
REMARK    7  A    between atoms: C_16  and  C_17 
REMARK    8  A    between atoms: C_17  and  N_18 
REMARK    9  A    between atoms: N_18  and  C_19 
REMARK   10  A    between atoms: C_19  and  C_20 
REMARK   11  A    between atoms: C_20  and  S_21 
ROOT
ATOM      1  C   LIG d   1       2.847   1.289  -7.938  0.00  0.00    -0.013 C 
ATOM      2  H   LIG d   1       3.434   2.155  -7.634  0.00  0.00     0.033 H 
ATOM      3  H   LIG d   1       1.785   1.520  -7.847  0.00  0.00     0.033 H 
ENDROOT
BRANCH   1   4
ATOM      4  C   LIG d   1       3.165   0.943  -9.369  0.00  0.00    -0.021 A 
ATOM      5  C   LIG d   1       2.648  -0.200 -10.125  0.00  0.00     0.006 A 
ATOM      6  C   LIG d   1       3.218  -0.109 -11.408  0.00  0.00     0.047 A 
ATOM      7  C   LIG d   1       1.775  -1.247  -9.823  0.00  0.00    -0.011 A 
ATOM      8  C   LIG d   1       2.910  -1.070 -12.364  0.00  0.00    -0.034 A 
ATOM      9  N   LIG d   1       4.020   1.013 -11.417  0.00  0.00    -0.360 N 
ATOM     10  C   LIG d   1       2.053  -2.101 -12.053  0.00  0.00    -0.018 A 
ATOM     11  H   LIG d   1       3.344  -1.008 -13.352  0.00  0.00     0.064 H 
ATOM     12  C   LIG d   1       1.486  -2.194 -10.784  0.00  0.00     0.121 A 
ATOM     13  H   LIG d   1       1.817  -2.845 -12.800  0.00  0.00     0.066 H 
ATOM     14  C   LIG d   1       3.976   1.625 -10.194  0.00  0.00     0.006 A 
ATOM     15  H   LIG d   1       4.540   1.321 -12.176  0.00  0.00     0.165 HD
ATOM     16  H   LIG d   1       4.514   2.525  -9.932  0.00  0.00     0.081 H 
ATOM     17  H   LIG d   1       1.332  -1.318  -8.840  0.00  0.00     0.066 H 
BRANCH  12  18
ATOM     18  O   LIG d   1       0.641  -3.219 -10.493  0.00  0.00    -0.495 OA
BRANCH  18  19
ATOM     19  C   LIG d   1       1.173  -4.543 -10.577  0.00  0.00     0.079 C 
ATOM     20  H   LIG d   1       1.758  -4.642 -11.491  0.00  0.00     0.066 H 
ATOM     21  H   LIG d   1       1.812  -4.732  -9.715  0.00  0.00     0.066 H 
ATOM     22  H   LIG d   1       0.355  -5.263 -10.589  0.00  0.00     0.066 H 
ENDBRANCH  18  19
ENDBRANCH  12  18
ENDBRANCH   1   4
BRANCH   1  23
ATOM     23  C   LIG d   1       3.189   0.100  -7.037  0.00  0.00     0.000 C 
ATOM     24  H   LIG d   1       2.336  -0.576  -6.989  0.00  0.00     0.043 H 
ATOM     25  H   LIG d   1       4.049  -0.430  -7.448  0.00  0.00     0.043 H 
BRANCH  23  26
ATOM     26  N   LIG d   1       3.510   0.584  -5.688  0.00  0.00    -0.311 N 
ATOM     27  H   LIG d   1       4.331   0.126  -5.325  0.00  0.00     0.122 HD
BRANCH  26  28
ATOM     28  C   LIG d   1       2.367   0.412  -4.782  0.00  0.00     0.036 C 
ATOM     29  H   LIG d   1       1.983   1.390  -4.491  0.00  0.00     0.048 H 
ATOM     30  H   LIG d   1       1.582  -0.149  -5.290  0.00  0.00     0.048 H 
BRANCH  28  31
ATOM     31  C   LIG d   1       2.814  -0.352  -3.535  0.00  0.00    -0.021 C 
ATOM     32  H   LIG d   1       3.686   0.139  -3.102  0.00  0.00     0.083 H 
ATOM     33  H   LIG d   1       2.005  -0.362  -2.806  0.00  0.00     0.083 H 
BRANCH  31  34
ATOM     34  N   LIG d   1       3.162  -1.731  -3.902  0.00  0.00     0.228 N 
ATOM     35  H   LIG d   1       2.342  -2.315  -3.828  0.00  0.00     0.201 HD
ATOM     36  H   LIG d   1       3.505  -1.750  -4.851  0.00  0.00     0.201 HD
BRANCH  34  37
ATOM     37  C   LIG d   1       4.203  -2.232  -2.995  0.00  0.00    -0.025 C 
ATOM     38  H   LIG d   1       3.759  -2.468  -2.028  0.00  0.00     0.082 H 
ATOM     39  H   LIG d   1       4.654  -3.129  -3.418  0.00  0.00     0.082 H 
BRANCH  37  40
ATOM     40  C   LIG d   1       5.279  -1.159  -2.814  0.00  0.00     0.031 C 
ATOM     41  H   LIG d   1       4.822  -0.171  -2.870  0.00  0.00     0.043 H 
ATOM     42  H   LIG d   1       5.756  -1.283  -1.841  0.00  0.00     0.043 H 
BRANCH  40  43
ATOM     43  S   LIG d   1       6.525  -1.324  -4.123  0.00  0.00    -0.173 SA
ATOM     44  H   LIG d   1       7.322  -0.256  -3.951  0.00  0.00     0.102 HD
ENDBRANCH  40  43
ENDBRANCH  37  40
ENDBRANCH  34  37
ENDBRANCH  31  34
ENDBRANCH  28  31
ENDBRANCH  26  28
ENDBRANCH  23  26
ENDBRANCH   1  23
TORSDOF 11
ENDMDL
MODEL 7
REMARK VINA RESULT:      -4.7      4.624      6.874
REMARK  11 active torsions:
REMARK  status: ('A' for Active; 'I' for Inactive)
REMARK    1  A    between atoms: C_1  and  O_2 
REMARK    2  A    between atoms: O_2  and  C_3 
REMARK    3  A    between atoms: C_9  and  C_13 
REMARK    4  A    between atoms: C_13  and  C_14 
REMARK    5  A    between atoms: C_14  and  N_15 
REMARK    6  A    between atoms: N_15  and  C_16 
REMARK    7  A    between atoms: C_16  and  C_17 
REMARK    8  A    between atoms: C_17  and  N_18 
REMARK    9  A    between atoms: N_18  and  C_19 
REMARK   10  A    between atoms: C_19  and  C_20 
REMARK   11  A    between atoms: C_20  and  S_21 
ROOT
ATOM      1  C   LIG d   1       7.824   0.396  -5.137  0.00  0.00    -0.013 C 
ATOM      2  H   LIG d   1       8.327  -0.571  -5.149  0.00  0.00     0.033 H 
ATOM      3  H   LIG d   1       7.379   0.585  -6.114  0.00  0.00     0.033 H 
ENDROOT
BRANCH   1   4
ATOM      4  C   LIG d   1       6.744   0.387  -4.086  0.00  0.00    -0.021 A 
ATOM      5  C   LIG d   1       5.826  -0.716  -3.789  0.00  0.00     0.006 A 
ATOM      6  C   LIG d   1       5.005  -0.267  -2.739  0.00  0.00     0.047 A 
ATOM      7  C   LIG d   1       5.652  -1.999  -4.311  0.00  0.00    -0.011 A 
ATOM      8  C   LIG d   1       4.020  -1.106  -2.233  0.00  0.00    -0.034 A 
ATOM      9  N   LIG d   1       5.406   1.017  -2.430  0.00  0.00    -0.360 N 
ATOM     10  C   LIG d   1       3.853  -2.367  -2.759  0.00  0.00    -0.018 A 
ATOM     11  H   LIG d   1       3.384  -0.769  -1.426  0.00  0.00     0.064 H 
ATOM     12  C   LIG d   1       4.665  -2.816  -3.798  0.00  0.00     0.121 A 
ATOM     13  H   LIG d   1       3.085  -3.015  -2.361  0.00  0.00     0.066 H 
ATOM     14  C   LIG d   1       6.443   1.387  -3.244  0.00  0.00     0.006 A 
ATOM     15  H   LIG d   1       5.011   1.573  -1.741  0.00  0.00     0.165 HD
ATOM     16  H   LIG d   1       6.943   2.344  -3.211  0.00  0.00     0.081 H 
ATOM     17  H   LIG d   1       6.283  -2.349  -5.114  0.00  0.00     0.066 H 
BRANCH  12  18
ATOM     18  O   LIG d   1       4.486  -4.064  -4.306  0.00  0.00    -0.495 OA
BRANCH  18  19
ATOM     19  C   LIG d   1       4.704  -4.233  -5.708  0.00  0.00     0.079 C 
ATOM     20  H   LIG d   1       5.690  -3.850  -5.971  0.00  0.00     0.066 H 
ATOM     21  H   LIG d   1       4.647  -5.292  -5.960  0.00  0.00     0.066 H 
ATOM     22  H   LIG d   1       3.942  -3.685  -6.262  0.00  0.00     0.066 H 
ENDBRANCH  18  19
ENDBRANCH  12  18
ENDBRANCH   1   4
BRANCH   1  23
ATOM     23  C   LIG d   1       8.839   1.495  -4.817  0.00  0.00     0.000 C 
ATOM     24  H   LIG d   1       8.897   2.190  -5.655  0.00  0.00     0.043 H 
ATOM     25  H   LIG d   1       8.522   2.032  -3.922  0.00  0.00     0.043 H 
BRANCH  23  26
ATOM     26  N   LIG d   1      10.157   0.892  -4.585  0.00  0.00    -0.311 N 
ATOM     27  H   LIG d   1      10.076   0.031  -4.068  0.00  0.00     0.122 HD
BRANCH  26  28
ATOM     28  C   LIG d   1      11.054   1.834  -3.902  0.00  0.00     0.036 C 
ATOM     29  H   LIG d   1      11.731   1.283  -3.249  0.00  0.00     0.048 H 
ATOM     30  H   LIG d   1      11.634   2.386  -4.642  0.00  0.00     0.048 H 
BRANCH  28  31
ATOM     31  C   LIG d   1      10.226   2.813  -3.068  0.00  0.00    -0.021 C 
ATOM     32  H   LIG d   1       9.939   3.663  -3.687  0.00  0.00     0.083 H 
ATOM     33  H   LIG d   1       9.331   2.312  -2.702  0.00  0.00     0.083 H 
BRANCH  31  34
ATOM     34  N   LIG d   1      11.025   3.285  -1.929  0.00  0.00     0.228 N 
ATOM     35  H   LIG d   1      10.470   3.240  -1.088  0.00  0.00     0.201 HD
ATOM     36  H   LIG d   1      11.841   2.701  -1.826  0.00  0.00     0.201 HD
BRANCH  34  37
ATOM     37  C   LIG d   1      11.443   4.673  -2.166  0.00  0.00    -0.025 C 
ATOM     38  H   LIG d   1      12.494   4.788  -1.897  0.00  0.00     0.082 H 
ATOM     39  H   LIG d   1      11.310   4.919  -3.219  0.00  0.00     0.082 H 
BRANCH  37  40
ATOM     40  C   LIG d   1      10.592   5.615  -1.312  0.00  0.00     0.031 C 
ATOM     41  H   LIG d   1       9.843   5.037  -0.770  0.00  0.00     0.043 H 
ATOM     42  H   LIG d   1      11.232   6.138  -0.601  0.00  0.00     0.043 H 
BRANCH  40  43
ATOM     43  S   LIG d   1       9.765   6.822  -2.384  0.00  0.00    -0.173 SA
ATOM     44  H   LIG d   1       9.128   7.638  -1.525  0.00  0.00     0.102 HD
ENDBRANCH  40  43
ENDBRANCH  37  40
ENDBRANCH  34  37
ENDBRANCH  31  34
ENDBRANCH  28  31
ENDBRANCH  26  28
ENDBRANCH  23  26
ENDBRANCH   1  23
TORSDOF 11
ENDMDL
MODEL 8
REMARK VINA RESULT:      -4.7      1.875      2.412
REMARK  11 active torsions:
REMARK  status: ('A' for Active; 'I' for Inactive)
REMARK    1  A    between atoms: C_1  and  O_2 
REMARK    2  A    between atoms: O_2  and  C_3 
REMARK    3  A    between atoms: C_9  and  C_13 
REMARK    4  A    between atoms: C_13  and  C_14 
REMARK    5  A    between atoms: C_14  and  N_15 
REMARK    6  A    between atoms: N_15  and  C_16 
REMARK    7  A    between atoms: C_16  and  C_17 
REMARK    8  A    between atoms: C_17  and  N_18 
REMARK    9  A    between atoms: N_18  and  C_19 
REMARK   10  A    between atoms: C_19  and  C_20 
REMARK   11  A    between atoms: C_20  and  S_21 
ROOT
ATOM      1  C   LIG d   1       4.745   0.851  -1.978  0.00  0.00    -0.013 C 
ATOM      2  H   LIG d   1       4.707   0.496  -0.948  0.00  0.00     0.033 H 
ATOM      3  H   LIG d   1       5.163   1.858  -2.000  0.00  0.00     0.033 H 
ENDROOT
BRANCH   1   4
ATOM      4  C   LIG d   1       5.611  -0.071  -2.795  0.00  0.00    -0.021 A 
ATOM      5  C   LIG d   1       6.815   0.300  -3.544  0.00  0.00     0.006 A 
ATOM      6  C   LIG d   1       7.282  -0.883  -4.143  0.00  0.00     0.047 A 
ATOM      7  C   LIG d   1       7.506   1.499  -3.736  0.00  0.00    -0.011 A 
ATOM      8  C   LIG d   1       8.427  -0.848  -4.930  0.00  0.00    -0.034 A 
ATOM      9  N   LIG d   1       6.416  -1.893  -3.777  0.00  0.00    -0.360 N 
ATOM     10  C   LIG d   1       9.097   0.340  -5.118  0.00  0.00    -0.018 A 
ATOM     11  H   LIG d   1       8.792  -1.753  -5.395  0.00  0.00     0.064 H 
ATOM     12  C   LIG d   1       8.638   1.515  -4.525  0.00  0.00     0.121 A 
ATOM     13  H   LIG d   1       9.986   0.362  -5.730  0.00  0.00     0.066 H 
ATOM     14  C   LIG d   1       5.428  -1.388  -2.975  0.00  0.00     0.006 A 
ATOM     15  H   LIG d   1       6.494  -2.820  -4.049  0.00  0.00     0.165 HD
ATOM     16  H   LIG d   1       4.621  -1.966  -2.549  0.00  0.00     0.081 H 
ATOM     17  H   LIG d   1       7.153   2.409  -3.274  0.00  0.00     0.066 H 
BRANCH  12  18
ATOM     18  O   LIG d   1       9.312   2.680  -4.721  0.00  0.00    -0.495 OA
BRANCH  18  19
ATOM     19  C   LIG d   1       9.575   3.479  -3.566  0.00  0.00     0.079 C 
ATOM     20  H   LIG d   1       9.638   2.839  -2.687  0.00  0.00     0.066 H 
ATOM     21  H   LIG d   1      10.519   4.008  -3.698  0.00  0.00     0.066 H 
ATOM     22  H   LIG d   1       8.769   4.201  -3.433  0.00  0.00     0.066 H 
ENDBRANCH  18  19
ENDBRANCH  12  18
ENDBRANCH   1   4
BRANCH   1  23
ATOM     23  C   LIG d   1       3.331   0.874  -2.562  0.00  0.00     0.000 C 
ATOM     24  H   LIG d   1       2.870  -0.106  -2.436  0.00  0.00     0.043 H 
ATOM     25  H   LIG d   1       2.735   1.624  -2.041  0.00  0.00     0.043 H 
BRANCH  23  26
ATOM     26  N   LIG d   1       3.397   1.206  -3.991  0.00  0.00    -0.311 N 
ATOM     27  H   LIG d   1       3.256   2.193  -4.140  0.00  0.00     0.122 HD
BRANCH  26  28
ATOM     28  C   LIG d   1       2.428   0.415  -4.761  0.00  0.00     0.036 C 
ATOM     29  H   LIG d   1       2.293  -0.557  -4.285  0.00  0.00     0.048 H 
ATOM     30  H   LIG d   1       1.472   0.939  -4.791  0.00  0.00     0.048 H 
BRANCH  28  31
ATOM     31  C   LIG d   1       2.947   0.217  -6.186  0.00  0.00    -0.021 C 
ATOM     32  H   LIG d   1       2.570  -0.726  -6.582  0.00  0.00     0.083 H 
ATOM     33  H   LIG d   1       2.605   1.038  -6.814  0.00  0.00     0.083 H 
BRANCH  31  34
ATOM     34  N   LIG d   1       4.416   0.188  -6.173  0.00  0.00     0.228 N 
ATOM     35  H   LIG d   1       4.770   1.131  -6.106  0.00  0.00     0.201 HD
ATOM     36  H   LIG d   1       4.735  -0.348  -5.381  0.00  0.00     0.201 HD
BRANCH  34  37
ATOM     37  C   LIG d   1       4.904  -0.431  -7.413  0.00  0.00    -0.025 C 
ATOM     38  H   LIG d   1       4.840   0.290  -8.228  0.00  0.00     0.082 H 
ATOM     39  H   LIG d   1       5.941  -0.740  -7.282  0.00  0.00     0.082 H 
BRANCH  37  40
ATOM     40  C   LIG d   1       4.046  -1.654  -7.744  0.00  0.00     0.031 C 
ATOM     41  H   LIG d   1       3.030  -1.493  -7.384  0.00  0.00     0.043 H 
ATOM     42  H   LIG d   1       4.030  -1.805  -8.823  0.00  0.00     0.043 H 
BRANCH  40  43
ATOM     43  S   LIG d   1       4.748  -3.120  -6.939  0.00  0.00    -0.173 SA
ATOM     44  H   LIG d   1       5.964  -3.248  -7.498  0.00  0.00     0.102 HD
ENDBRANCH  40  43
ENDBRANCH  37  40
ENDBRANCH  34  37
ENDBRANCH  31  34
ENDBRANCH  28  31
ENDBRANCH  26  28
ENDBRANCH  23  26
ENDBRANCH   1  23
TORSDOF 11
ENDMDL
MODEL 9
REMARK VINA RESULT:      -4.7      2.518      4.021
REMARK  11 active torsions:
REMARK  status: ('A' for Active; 'I' for Inactive)
REMARK    1  A    between atoms: C_1  and  O_2 
REMARK    2  A    between atoms: O_2  and  C_3 
REMARK    3  A    between atoms: C_9  and  C_13 
REMARK    4  A    between atoms: C_13  and  C_14 
REMARK    5  A    between atoms: C_14  and  N_15 
REMARK    6  A    between atoms: N_15  and  C_16 
REMARK    7  A    between atoms: C_16  and  C_17 
REMARK    8  A    between atoms: C_17  and  N_18 
REMARK    9  A    between atoms: N_18  and  C_19 
REMARK   10  A    between atoms: C_19  and  C_20 
REMARK   11  A    between atoms: C_20  and  S_21 
ROOT
ATOM      1  C   LIG d   1       4.027   0.094  -7.299  0.00  0.00    -0.013 C 
ATOM      2  H   LIG d   1       5.006   0.564  -7.207  0.00  0.00     0.033 H 
ATOM      3  H   LIG d   1       4.130  -0.860  -7.817  0.00  0.00     0.033 H 
ENDROOT
BRANCH   1   4
ATOM      4  C   LIG d   1       3.450  -0.137  -5.927  0.00  0.00    -0.021 A 
ATOM      5  C   LIG d   1       4.148  -0.712  -4.774  0.00  0.00     0.006 A 
ATOM      6  C   LIG d   1       3.214  -0.730  -3.723  0.00  0.00     0.047 A 
ATOM      7  C   LIG d   1       5.444  -1.188  -4.564  0.00  0.00    -0.011 A 
ATOM      8  C   LIG d   1       3.589  -1.228  -2.481  0.00  0.00    -0.034 A 
ATOM      9  N   LIG d   1       2.038  -0.201  -4.215  0.00  0.00    -0.360 N 
ATOM     10  C   LIG d   1       4.868  -1.700  -2.286  0.00  0.00    -0.018 A 
ATOM     11  H   LIG d   1       2.878  -1.246  -1.667  0.00  0.00     0.064 H 
ATOM     12  C   LIG d   1       5.796  -1.684  -3.325  0.00  0.00     0.121 A 
ATOM     13  H   LIG d   1       5.154  -2.086  -1.319  0.00  0.00     0.066 H 
ATOM     14  C   LIG d   1       2.200   0.146  -5.529  0.00  0.00     0.006 A 
ATOM     15  H   LIG d   1       1.220  -0.093  -3.706  0.00  0.00     0.165 HD
ATOM     16  H   LIG d   1       1.433   0.582  -6.153  0.00  0.00     0.081 H 
ATOM     17  H   LIG d   1       6.165  -1.172  -5.367  0.00  0.00     0.066 H 
BRANCH  12  18
ATOM     18  O   LIG d   1       7.055  -2.153  -3.115  0.00  0.00    -0.495 OA
BRANCH  18  19
ATOM     19  C   LIG d   1       7.708  -2.776  -4.223  0.00  0.00     0.079 C 
ATOM     20  H   LIG d   1       7.073  -3.565  -4.623  0.00  0.00     0.066 H 
ATOM     21  H   LIG d   1       7.896  -2.033  -4.998  0.00  0.00     0.066 H 
ATOM     22  H   LIG d   1       8.655  -3.204  -3.892  0.00  0.00     0.066 H 
ENDBRANCH  18  19
ENDBRANCH  12  18
ENDBRANCH   1   4
BRANCH   1  23
ATOM     23  C   LIG d   1       3.096   1.010  -8.097  0.00  0.00     0.000 C 
ATOM     24  H   LIG d   1       2.693   0.464  -8.950  0.00  0.00     0.043 H 
ATOM     25  H   LIG d   1       2.276   1.339  -7.458  0.00  0.00     0.043 H 
BRANCH  23  26
ATOM     26  N   LIG d   1       3.847   2.179  -8.572  0.00  0.00    -0.311 N 
ATOM     27  H   LIG d   1       3.227   2.942  -8.793  0.00  0.00     0.122 HD
BRANCH  26  28
ATOM     28  C   LIG d   1       4.687   1.832  -9.725  0.00  0.00     0.036 C 
ATOM     29  H   LIG d   1       5.242   2.712 -10.050  0.00  0.00     0.048 H 
ATOM     30  H   LIG d   1       5.388   1.046  -9.441  0.00  0.00     0.048 H 
BRANCH  28  31
ATOM     31  C   LIG d   1       3.802   1.336 -10.871  0.00  0.00    -0.021 C 
ATOM     32  H   LIG d   1       2.921   0.842 -10.461  0.00  0.00     0.083 H 
ATOM     33  H   LIG d   1       3.492   2.183 -11.482  0.00  0.00     0.083 H 
BRANCH  31  34
ATOM     34  N   LIG d   1       4.557   0.384 -11.697  0.00  0.00     0.228 N 
ATOM     35  H   LIG d   1       4.638   0.746 -12.636  0.00  0.00     0.201 HD
ATOM     36  H   LIG d   1       5.477   0.254 -11.305  0.00  0.00     0.201 HD
BRANCH  34  37
ATOM     37  C   LIG d   1       3.850  -0.904 -11.728  0.00  0.00    -0.025 C 
ATOM     38  H   LIG d   1       3.918  -1.331 -12.729  0.00  0.00     0.082 H 
ATOM     39  H   LIG d   1       4.305  -1.586 -11.011  0.00  0.00     0.082 H 
BRANCH  37  40
ATOM     40  C   LIG d   1       2.380  -0.687 -11.365  0.00  0.00     0.031 C 
ATOM     41  H   LIG d   1       2.259   0.295 -10.906  0.00  0.00     0.043 H 
ATOM     42  H   LIG d   1       1.770  -0.744 -12.267  0.00  0.00     0.043 H 
BRANCH  40  43
ATOM     43  S   LIG d   1       1.851  -1.970 -10.196  0.00  0.00    -0.173 SA
ATOM     44  H   LIG d   1       0.921  -2.665 -10.875  0.00  0.00     0.102 HD
ENDBRANCH  40  43
ENDBRANCH  37  40
ENDBRANCH  34  37
ENDBRANCH  31  34
ENDBRANCH  28  31
ENDBRANCH  26  28
ENDBRANCH  23  26
ENDBRANCH   1  23
TORSDOF 11
ENDMDL
MODEL 10
REMARK VINA RESULT:      -4.7      3.327      6.345
REMARK  11 active torsions:
REMARK  status: ('A' for Active; 'I' for Inactive)
REMARK    1  A    between atoms: C_1  and  O_2 
REMARK    2  A    between atoms: O_2  and  C_3 
REMARK    3  A    between atoms: C_9  and  C_13 
REMARK    4  A    between atoms: C_13  and  C_14 
REMARK    5  A    between atoms: C_14  and  N_15 
REMARK    6  A    between atoms: N_15  and  C_16 
REMARK    7  A    between atoms: C_16  and  C_17 
REMARK    8  A    between atoms: C_17  and  N_18 
REMARK    9  A    between atoms: N_18  and  C_19 
REMARK   10  A    between atoms: C_19  and  C_20 
REMARK   11  A    between atoms: C_20  and  S_21 
ROOT
ATOM      1  C   LIG d   1       4.736  -4.170  -7.932  0.00  0.00    -0.013 C 
ATOM      2  H   LIG d   1       5.288  -4.866  -8.565  0.00  0.00     0.033 H 
ATOM      3  H   LIG d   1       5.404  -3.376  -7.597  0.00  0.00     0.033 H 
ENDROOT
BRANCH   1   4
ATOM      4  C   LIG d   1       3.597  -3.574  -8.716  0.00  0.00    -0.021 A 
ATOM      5  C   LIG d   1       3.281  -2.149  -8.848  0.00  0.00     0.006 A 
ATOM      6  C   LIG d   1       2.142  -2.076  -9.669  0.00  0.00     0.047 A 
ATOM      7  C   LIG d   1       3.862  -0.978  -8.354  0.00  0.00    -0.011 A 
ATOM      8  C   LIG d   1       1.599  -0.835  -9.978  0.00  0.00    -0.034 A 
ATOM      9  N   LIG d   1       1.801  -3.370 -10.005  0.00  0.00    -0.360 N 
ATOM     10  C   LIG d   1       2.175   0.313  -9.482  0.00  0.00    -0.018 A 
ATOM     11  H   LIG d   1       0.723  -0.770 -10.608  0.00  0.00     0.064 H 
ATOM     12  C   LIG d   1       3.305   0.244  -8.668  0.00  0.00     0.121 A 
ATOM     13  H   LIG d   1       1.749   1.274  -9.725  0.00  0.00     0.066 H 
ATOM     14  C   LIG d   1       2.679  -4.246  -9.428  0.00  0.00     0.006 A 
ATOM     15  H   LIG d   1       1.049  -3.620 -10.565  0.00  0.00     0.165 HD
ATOM     16  H   LIG d   1       2.638  -5.321  -9.530  0.00  0.00     0.081 H 
ATOM     17  H   LIG d   1       4.740  -1.030  -7.727  0.00  0.00     0.066 H 
BRANCH  12  18
ATOM     18  O   LIG d   1       3.862   1.387  -8.187  0.00  0.00    -0.495 OA
BRANCH  18  19
ATOM     19  C   LIG d   1       3.944   2.497  -9.084  0.00  0.00     0.079 C 
ATOM     20  H   LIG d   1       2.962   2.690  -9.514  0.00  0.00     0.066 H 
ATOM     21  H   LIG d   1       4.282   3.379  -8.540  0.00  0.00     0.066 H 
ATOM     22  H   LIG d   1       4.652   2.268  -9.880  0.00  0.00     0.066 H 
ENDBRANCH  18  19
ENDBRANCH  12  18
ENDBRANCH   1   4
BRANCH   1  23
ATOM     23  C   LIG d   1       4.183  -4.917  -6.716  0.00  0.00     0.000 C 
ATOM     24  H   LIG d   1       3.276  -5.450  -6.999  0.00  0.00     0.043 H 
ATOM     25  H   LIG d   1       4.926  -5.631  -6.359  0.00  0.00     0.043 H 
BRANCH  23  26
ATOM     26  N   LIG d   1       3.876  -3.956  -5.649  0.00  0.00    -0.311 N 
ATOM     27  H   LIG d   1       3.454  -3.121  -6.024  0.00  0.00     0.122 HD
BRANCH  26  28
ATOM     28  C   LIG d   1       5.079  -3.633  -4.870  0.00  0.00     0.036 C 
ATOM     29  H   LIG d   1       5.452  -4.535  -4.386  0.00  0.00     0.048 H 
ATOM     30  H   LIG d   1       5.846  -3.234  -5.534  0.00  0.00     0.048 H 
BRANCH  28  31
ATOM     31  C   LIG d   1       4.733  -2.590  -3.806  0.00  0.00    -0.021 C 
ATOM     32  H   LIG d   1       4.622  -3.081  -2.839  0.00  0.00     0.083 H 
ATOM     33  H   LIG d   1       5.532  -1.852  -3.748  0.00  0.00     0.083 H 
BRANCH  31  34
ATOM     34  N   LIG d   1       3.473  -1.923  -4.163  0.00  0.00     0.228 N 
ATOM     35  H   LIG d   1       3.146  -2.276  -5.051  0.00  0.00     0.201 HD
ATOM     36  H   LIG d   1       2.782  -2.107  -3.452  0.00  0.00     0.201 HD
BRANCH  34  37
ATOM     37  C   LIG d   1       3.698  -0.475  -4.265  0.00  0.00    -0.025 C 
ATOM     38  H   LIG d   1       3.829  -0.201  -5.312  0.00  0.00     0.082 H 
ATOM     39  H   LIG d   1       2.840   0.056  -3.855  0.00  0.00     0.082 H 
BRANCH  37  40
ATOM     40  C   LIG d   1       4.955  -0.098  -3.478  0.00  0.00     0.031 C 
ATOM     41  H   LIG d   1       5.491  -1.003  -3.193  0.00  0.00     0.043 H 
ATOM     42  H   LIG d   1       5.599   0.526  -4.099  0.00  0.00     0.043 H 
BRANCH  40  43
ATOM     43  S   LIG d   1       4.481   0.820  -1.987  0.00  0.00    -0.173 SA
ATOM     44  H   LIG d   1       3.761  -0.065  -1.275  0.00  0.00     0.102 HD
ENDBRANCH  40  43
ENDBRANCH  37  40
ENDBRANCH  34  37
ENDBRANCH  31  34
ENDBRANCH  28  31
ENDBRANCH  26  28
ENDBRANCH  23  26
ENDBRANCH   1  23
TORSDOF 11
ENDMDL
