MODEL 1
REMARK VINA RESULT:      -6.1      0.000      0.000
REMARK  6 active torsions:
REMARK  status: ('A' for Active; 'I' for Inactive)
REMARK    1  A    between atoms: C_3  and  C_9 
REMARK    2  A    between atoms: C_4  and  O_8 
REMARK    3  A    between atoms: C_6  and  O_7 
REMARK    4  A    between atoms: C_10  and  O_22 
REMARK    5  A    between atoms: C_14  and  O_21 
REMARK    6  A    between atoms: C_16  and  O_20 
ROOT
ATOM      1  C   LIG d   1       3.996  -0.510  -7.099  0.00  0.00     0.184 A 
ATOM      2  C   LIG d   1       5.013   0.124  -7.751  0.00  0.00     0.208 A 
ATOM      3  C   LIG d   1       4.940   0.299  -9.155  0.00  0.00     0.238 A 
ATOM      4  O   LIG d   1       5.830   0.862  -9.772  0.00  0.00    -0.283 OA
ATOM      5  C   LIG d   1       3.747  -0.223  -9.842  0.00  0.00     0.109 A 
ATOM      6  C   LIG d   1       3.592  -0.094 -11.228  0.00  0.00     0.135 A 
ATOM      7  C   LIG d   1       2.458  -0.598 -11.837  0.00  0.00     0.022 A 
ATOM      8  C   LIG d   1       1.478  -1.229 -11.076  0.00  0.00     0.124 A 
ATOM      9  C   LIG d   1       1.625  -1.360  -9.704  0.00  0.00     0.023 A 
ATOM     10  C   LIG d   1       2.756  -0.861  -9.075  0.00  0.00     0.146 A 
ATOM     11  O   LIG d   1       2.915  -0.987  -7.741  0.00  0.00    -0.451 OA
ATOM     12  H   LIG d   1       2.332  -0.503 -12.905  0.00  0.00     0.069 H 
ATOM     13  H   LIG d   1       0.857  -1.851  -9.124  0.00  0.00     0.069 H 
ENDROOT
BRANCH   1  14
ATOM     14  C   LIG d   1       4.088  -0.684  -5.640  0.00  0.00     0.063 A 
ATOM     15  C   LIG d   1       4.866  -1.715  -5.104  0.00  0.00    -0.044 A 
ATOM     16  C   LIG d   1       4.949  -1.874  -3.739  0.00  0.00    -0.019 A 
ATOM     17  H   LIG d   1       5.401  -2.385  -5.760  0.00  0.00     0.063 H 
ATOM     18  C   LIG d   1       4.263  -1.014  -2.890  0.00  0.00     0.120 A 
ATOM     19  H   LIG d   1       5.547  -2.674  -3.326  0.00  0.00     0.065 H 
ATOM     20  C   LIG d   1       3.488   0.013  -3.412  0.00  0.00     0.022 A 
ATOM     21  C   LIG d   1       3.395   0.183  -4.781  0.00  0.00     0.131 A 
ATOM     22  H   LIG d   1       2.955   0.678  -2.748  0.00  0.00     0.069 H 
BRANCH  18  23
ATOM     23  O   LIG d   1       4.350  -1.178  -1.545  0.00  0.00    -0.507 OA
ATOM     24  H   LIG d   1       3.701  -0.666  -1.044  0.00  0.00     0.292 HD
ENDBRANCH  18  23
BRANCH  21  25
ATOM     25  O   LIG d   1       2.637   1.186  -5.293  0.00  0.00    -0.506 OA
ATOM     26  H   LIG d   1       2.362   1.843  -4.638  0.00  0.00     0.292 HD
ENDBRANCH  21  25
ENDBRANCH   1  14
BRANCH   2  27
ATOM     27  O   LIG d   1       6.090   0.585  -7.058  0.00  0.00    -0.501 OA
ATOM     28  H   LIG d   1       6.031   1.519  -6.815  0.00  0.00     0.292 HD
ENDBRANCH   2  27
BRANCH   6  29
ATOM     29  O   LIG d   1       4.548   0.522 -11.968  0.00  0.00    -0.506 OA
ATOM     30  H   LIG d   1       4.889   1.335 -11.573  0.00  0.00     0.292 HD
ENDBRANCH   6  29
BRANCH   8  31
ATOM     31  O   LIG d   1       0.368  -1.720 -11.684  0.00  0.00    -0.506 OA
ATOM     32  H   LIG d   1       0.143  -1.275 -12.511  0.00  0.00     0.292 HD
ENDBRANCH   8  31
TORSDOF 6
ENDMDL
MODEL 2
REMARK VINA RESULT:      -6.0      4.412      5.863
REMARK  6 active torsions:
REMARK  status: ('A' for Active; 'I' for Inactive)
REMARK    1  A    between atoms: C_3  and  C_9 
REMARK    2  A    between atoms: C_4  and  O_8 
REMARK    3  A    between atoms: C_6  and  O_7 
REMARK    4  A    between atoms: C_10  and  O_22 
REMARK    5  A    between atoms: C_14  and  O_21 
REMARK    6  A    between atoms: C_16  and  O_20 
ROOT
ATOM      1  C   LIG d   1       5.437  -2.864  -4.300  0.00  0.00     0.184 A 
ATOM      2  C   LIG d   1       6.797  -2.944  -4.345  0.00  0.00     0.208 A 
ATOM      3  C   LIG d   1       7.410  -4.087  -4.917  0.00  0.00     0.238 A 
ATOM      4  O   LIG d   1       8.625  -4.194  -4.976  0.00  0.00    -0.283 OA
ATOM      5  C   LIG d   1       6.525  -5.141  -5.438  0.00  0.00     0.109 A 
ATOM      6  C   LIG d   1       7.044  -6.305  -6.020  0.00  0.00     0.135 A 
ATOM      7  C   LIG d   1       6.181  -7.273  -6.497  0.00  0.00     0.022 A 
ATOM      8  C   LIG d   1       4.805  -7.090  -6.400  0.00  0.00     0.124 A 
ATOM      9  C   LIG d   1       4.283  -5.941  -5.827  0.00  0.00     0.023 A 
ATOM     10  C   LIG d   1       5.134  -4.959  -5.342  0.00  0.00     0.146 A 
ATOM     11  O   LIG d   1       4.641  -3.838  -4.775  0.00  0.00    -0.451 OA
ATOM     12  H   LIG d   1       6.574  -8.173  -6.946  0.00  0.00     0.069 H 
ATOM     13  H   LIG d   1       3.213  -5.810  -5.758  0.00  0.00     0.069 H 
ENDROOT
BRANCH   1  14
ATOM     14  C   LIG d   1       4.816  -1.670  -3.702  0.00  0.00     0.063 A 
ATOM     15  C   LIG d   1       4.996  -1.391  -2.344  0.00  0.00    -0.044 A 
ATOM     16  C   LIG d   1       4.414  -0.273  -1.789  0.00  0.00    -0.019 A 
ATOM     17  H   LIG d   1       5.592  -2.051  -1.731  0.00  0.00     0.063 H 
ATOM     18  C   LIG d   1       3.648   0.580  -2.574  0.00  0.00     0.120 A 
ATOM     19  H   LIG d   1       4.551  -0.060  -0.739  0.00  0.00     0.065 H 
ATOM     20  C   LIG d   1       3.462   0.312  -3.923  0.00  0.00     0.022 A 
ATOM     21  C   LIG d   1       4.041  -0.808  -4.492  0.00  0.00     0.131 A 
ATOM     22  H   LIG d   1       2.865   0.978  -4.529  0.00  0.00     0.069 H 
BRANCH  18  23
ATOM     23  O   LIG d   1       3.077   1.680  -2.019  0.00  0.00    -0.507 OA
ATOM     24  H   LIG d   1       2.240   1.938  -2.429  0.00  0.00     0.292 HD
ENDBRANCH  18  23
BRANCH  21  25
ATOM     25  O   LIG d   1       3.861  -1.071  -5.812  0.00  0.00    -0.506 OA
ATOM     26  H   LIG d   1       3.367  -1.884  -5.987  0.00  0.00     0.292 HD
ENDBRANCH  21  25
ENDBRANCH   1  14
BRANCH   2  27
ATOM     27  O   LIG d   1       7.561  -1.935  -3.846  0.00  0.00    -0.501 OA
ATOM     28  H   LIG d   1       8.035  -1.429  -4.521  0.00  0.00     0.292 HD
ENDBRANCH   2  27
BRANCH   6  29
ATOM     29  O   LIG d   1       8.387  -6.481  -6.113  0.00  0.00    -0.506 OA
ATOM     30  H   LIG d   1       8.660  -7.033  -6.857  0.00  0.00     0.292 HD
ENDBRANCH   6  29
BRANCH   8  31
ATOM     31  O   LIG d   1       3.965  -8.046  -6.873  0.00  0.00    -0.506 OA
ATOM     32  H   LIG d   1       3.168  -7.697  -7.294  0.00  0.00     0.292 HD
ENDBRANCH   8  31
TORSDOF 6
ENDMDL
MODEL 3
REMARK VINA RESULT:      -5.9      5.354      7.689
REMARK  6 active torsions:
REMARK  status: ('A' for Active; 'I' for Inactive)
REMARK    1  A    between atoms: C_3  and  C_9 
REMARK    2  A    between atoms: C_4  and  O_8 
REMARK    3  A    between atoms: C_6  and  O_7 
REMARK    4  A    between atoms: C_10  and  O_22 
REMARK    5  A    between atoms: C_14  and  O_21 
REMARK    6  A    between atoms: C_16  and  O_20 
ROOT
ATOM      1  C   LIG d   1       6.875  -2.642  -3.768  0.00  0.00     0.184 A 
ATOM      2  C   LIG d   1       6.483  -3.315  -4.887  0.00  0.00     0.208 A 
ATOM      3  C   LIG d   1       7.300  -4.354  -5.398  0.00  0.00     0.238 A 
ATOM      4  O   LIG d   1       6.981  -4.979  -6.398  0.00  0.00    -0.283 OA
ATOM      5  C   LIG d   1       8.548  -4.652  -4.677  0.00  0.00     0.109 A 
ATOM      6  C   LIG d   1       9.416  -5.662  -5.112  0.00  0.00     0.135 A 
ATOM      7  C   LIG d   1      10.579  -5.911  -4.409  0.00  0.00     0.022 A 
ATOM      8  C   LIG d   1      10.885  -5.163  -3.276  0.00  0.00     0.124 A 
ATOM      9  C   LIG d   1      10.031  -4.162  -2.840  0.00  0.00     0.023 A 
ATOM     10  C   LIG d   1       8.860  -3.897  -3.533  0.00  0.00     0.146 A 
ATOM     11  O   LIG d   1       8.022  -2.921  -3.123  0.00  0.00    -0.451 OA
ATOM     12  H   LIG d   1      11.253  -6.688  -4.739  0.00  0.00     0.069 H 
ATOM     13  H   LIG d   1      10.279  -3.588  -1.959  0.00  0.00     0.069 H 
ENDROOT
BRANCH   1  14
ATOM     14  C   LIG d   1       6.015  -1.565  -3.250  0.00  0.00     0.063 A 
ATOM     15  C   LIG d   1       4.754  -1.865  -2.726  0.00  0.00    -0.044 A 
ATOM     16  C   LIG d   1       3.953  -0.855  -2.242  0.00  0.00    -0.019 A 
ATOM     17  H   LIG d   1       4.409  -2.888  -2.700  0.00  0.00     0.063 H 
ATOM     18  C   LIG d   1       4.393   0.463  -2.272  0.00  0.00     0.120 A 
ATOM     19  H   LIG d   1       2.977  -1.087  -1.841  0.00  0.00     0.065 H 
ATOM     20  C   LIG d   1       5.644   0.772  -2.790  0.00  0.00     0.022 A 
ATOM     21  C   LIG d   1       6.457  -0.234  -3.280  0.00  0.00     0.131 A 
ATOM     22  H   LIG d   1       5.981   1.798  -2.812  0.00  0.00     0.069 H 
BRANCH  18  23
ATOM     23  O   LIG d   1       3.597   1.454  -1.794  0.00  0.00    -0.507 OA
ATOM     24  H   LIG d   1       3.630   1.555  -0.832  0.00  0.00     0.292 HD
ENDBRANCH  18  23
BRANCH  21  25
ATOM     25  O   LIG d   1       7.680   0.067  -3.786  0.00  0.00    -0.506 OA
ATOM     26  H   LIG d   1       7.690   0.854  -4.349  0.00  0.00     0.292 HD
ENDBRANCH  21  25
ENDBRANCH   1  14
BRANCH   2  27
ATOM     27  O   LIG d   1       5.316  -2.992  -5.508  0.00  0.00    -0.501 OA
ATOM     28  H   LIG d   1       4.937  -2.150  -5.221  0.00  0.00     0.292 HD
ENDBRANCH   2  27
BRANCH   6  29
ATOM     29  O   LIG d   1       9.116  -6.391  -6.217  0.00  0.00    -0.506 OA
ATOM     30  H   LIG d   1       8.418  -6.007  -6.765  0.00  0.00     0.292 HD
ENDBRANCH   6  29
BRANCH   8  31
ATOM     31  O   LIG d   1      12.029  -5.416  -2.592  0.00  0.00    -0.506 OA
ATOM     32  H   LIG d   1      12.059  -6.292  -2.185  0.00  0.00     0.292 HD
ENDBRANCH   8  31
TORSDOF 6
ENDMDL
MODEL 4
REMARK VINA RESULT:      -5.9     11.613     14.180
REMARK  6 active torsions:
REMARK  status: ('A' for Active; 'I' for Inactive)
REMARK    1  A    between atoms: C_3  and  C_9 
REMARK    2  A    between atoms: C_4  and  O_8 
REMARK    3  A    between atoms: C_6  and  O_7 
REMARK    4  A    between atoms: C_10  and  O_22 
REMARK    5  A    between atoms: C_14  and  O_21 
REMARK    6  A    between atoms: C_16  and  O_20 
ROOT
ATOM      1  C   LIG d   1      10.084   9.603  -2.604  0.00  0.00     0.184 A 
ATOM      2  C   LIG d   1       9.920   8.506  -3.399  0.00  0.00     0.208 A 
ATOM      3  C   LIG d   1      10.093   7.213  -2.848  0.00  0.00     0.238 A 
ATOM      4  O   LIG d   1       9.954   6.208  -3.528  0.00  0.00    -0.283 OA
ATOM      5  C   LIG d   1      10.448   7.125  -1.422  0.00  0.00     0.109 A 
ATOM      6  C   LIG d   1      10.639   5.888  -0.795  0.00  0.00     0.135 A 
ATOM      7  C   LIG d   1      10.972   5.847   0.546  0.00  0.00     0.022 A 
ATOM      8  C   LIG d   1      11.116   7.029   1.266  0.00  0.00     0.124 A 
ATOM      9  C   LIG d   1      10.928   8.257   0.653  0.00  0.00     0.023 A 
ATOM     10  C   LIG d   1      10.594   8.318  -0.692  0.00  0.00     0.146 A 
ATOM     11  O   LIG d   1      10.414   9.507  -1.305  0.00  0.00    -0.451 OA
ATOM     12  H   LIG d   1      11.122   4.896   1.036  0.00  0.00     0.069 H 
ATOM     13  H   LIG d   1      11.042   9.168   1.222  0.00  0.00     0.069 H 
ENDROOT
BRANCH   1  14
ATOM     14  C   LIG d   1       9.900  10.940  -3.193  0.00  0.00     0.063 A 
ATOM     15  C   LIG d   1      10.939  11.538  -3.912  0.00  0.00    -0.044 A 
ATOM     16  C   LIG d   1      10.763  12.789  -4.461  0.00  0.00    -0.019 A 
ATOM     17  H   LIG d   1      11.878  11.020  -4.037  0.00  0.00     0.063 H 
ATOM     18  C   LIG d   1       9.555  13.459  -4.303  0.00  0.00     0.120 A 
ATOM     19  H   LIG d   1      11.568  13.253  -5.013  0.00  0.00     0.065 H 
ATOM     20  C   LIG d   1       8.518  12.874  -3.592  0.00  0.00     0.022 A 
ATOM     21  C   LIG d   1       8.683  11.618  -3.034  0.00  0.00     0.131 A 
ATOM     22  H   LIG d   1       7.582  13.399  -3.471  0.00  0.00     0.069 H 
BRANCH  18  23
ATOM     23  O   LIG d   1       9.390  14.692  -4.848  0.00  0.00    -0.507 OA
ATOM     24  H   LIG d   1      10.208  15.201  -4.925  0.00  0.00     0.292 HD
ENDBRANCH  18  23
BRANCH  21  25
ATOM     25  O   LIG d   1       7.668  11.045  -2.338  0.00  0.00    -0.506 OA
ATOM     26  H   LIG d   1       7.950  10.329  -1.751  0.00  0.00     0.292 HD
ENDBRANCH  21  25
ENDBRANCH   1  14
BRANCH   2  27
ATOM     27  O   LIG d   1       9.591   8.654  -4.711  0.00  0.00    -0.501 OA
ATOM     28  H   LIG d   1       9.937   7.956  -5.285  0.00  0.00     0.292 HD
ENDBRANCH   2  27
BRANCH   6  29
ATOM     29  O   LIG d   1      10.498   4.736  -1.499  0.00  0.00    -0.506 OA
ATOM     30  H   LIG d   1      10.843   4.781  -2.400  0.00  0.00     0.292 HD
ENDBRANCH   6  29
BRANCH   8  31
ATOM     31  O   LIG d   1      11.442   6.978   2.583  0.00  0.00    -0.506 OA
ATOM     32  H   LIG d   1      10.858   6.418   3.112  0.00  0.00     0.292 HD
ENDBRANCH   8  31
TORSDOF 6
ENDMDL
MODEL 5
REMARK VINA RESULT:      -5.8      1.976      2.865
REMARK  6 active torsions:
REMARK  status: ('A' for Active; 'I' for Inactive)
REMARK    1  A    between atoms: C_3  and  C_9 
REMARK    2  A    between atoms: C_4  and  O_8 
REMARK    3  A    between atoms: C_6  and  O_7 
REMARK    4  A    between atoms: C_10  and  O_22 
REMARK    5  A    between atoms: C_14  and  O_21 
REMARK    6  A    between atoms: C_16  and  O_20 
ROOT
ATOM      1  C   LIG d   1       4.358  -0.953  -6.268  0.00  0.00     0.184 A 
ATOM      2  C   LIG d   1       4.224  -2.305  -6.383  0.00  0.00     0.208 A 
ATOM      3  C   LIG d   1       4.115  -2.890  -7.669  0.00  0.00     0.238 A 
ATOM      4  O   LIG d   1       3.994  -4.096  -7.810  0.00  0.00    -0.283 OA
ATOM      5  C   LIG d   1       4.156  -1.985  -8.830  0.00  0.00     0.109 A 
ATOM      6  C   LIG d   1       4.055  -2.477 -10.137  0.00  0.00     0.135 A 
ATOM      7  C   LIG d   1       4.096  -1.595 -11.202  0.00  0.00     0.022 A 
ATOM      8  C   LIG d   1       4.236  -0.230 -10.973  0.00  0.00     0.124 A 
ATOM      9  C   LIG d   1       4.337   0.263  -9.682  0.00  0.00     0.023 A 
ATOM     10  C   LIG d   1       4.297  -0.605  -8.601  0.00  0.00     0.146 A 
ATOM     11  O   LIG d   1       4.387  -0.139  -7.338  0.00  0.00    -0.451 OA
ATOM     12  H   LIG d   1       4.019  -1.967 -12.213  0.00  0.00     0.069 H 
ATOM     13  H   LIG d   1       4.446   1.325  -9.517  0.00  0.00     0.069 H 
ENDROOT
BRANCH   1  14
ATOM     14  C   LIG d   1       4.469  -0.362  -4.924  0.00  0.00     0.063 A 
ATOM     15  C   LIG d   1       5.724  -0.200  -4.331  0.00  0.00    -0.044 A 
ATOM     16  C   LIG d   1       5.823   0.354  -3.073  0.00  0.00    -0.019 A 
ATOM     17  H   LIG d   1       6.615  -0.507  -4.857  0.00  0.00     0.063 H 
ATOM     18  C   LIG d   1       4.679   0.753  -2.392  0.00  0.00     0.120 A 
ATOM     19  H   LIG d   1       6.793   0.475  -2.614  0.00  0.00     0.065 H 
ATOM     20  C   LIG d   1       3.428   0.597  -2.973  0.00  0.00     0.022 A 
ATOM     21  C   LIG d   1       3.315   0.041  -4.234  0.00  0.00     0.131 A 
ATOM     22  H   LIG d   1       2.542   0.907  -2.438  0.00  0.00     0.069 H 
BRANCH  18  23
ATOM     23  O   LIG d   1       4.785   1.298  -1.153  0.00  0.00    -0.507 OA
ATOM     24  H   LIG d   1       4.559   2.238  -1.116  0.00  0.00     0.292 HD
ENDBRANCH  18  23
BRANCH  21  25
ATOM     25  O   LIG d   1       2.092  -0.112  -4.803  0.00  0.00    -0.506 OA
ATOM     26  H   LIG d   1       1.490   0.628  -4.646  0.00  0.00     0.292 HD
ENDBRANCH  21  25
ENDBRANCH   1  14
BRANCH   2  27
ATOM     27  O   LIG d   1       4.194  -3.088  -5.270  0.00  0.00    -0.501 OA
ATOM     28  H   LIG d   1       3.389  -3.617  -5.182  0.00  0.00     0.292 HD
ENDBRANCH   2  27
BRANCH   6  29
ATOM     29  O   LIG d   1       3.919  -3.808 -10.358  0.00  0.00    -0.506 OA
ATOM     30  H   LIG d   1       3.436  -4.275  -9.664  0.00  0.00     0.292 HD
ENDBRANCH   6  29
BRANCH   8  31
ATOM     31  O   LIG d   1       4.277   0.627 -12.025  0.00  0.00    -0.506 OA
ATOM     32  H   LIG d   1       4.868   0.349 -12.737  0.00  0.00     0.292 HD
ENDBRANCH   8  31
TORSDOF 6
ENDMDL
MODEL 6
REMARK VINA RESULT:      -5.8      3.218      4.292
REMARK  6 active torsions:
REMARK  status: ('A' for Active; 'I' for Inactive)
REMARK    1  A    between atoms: C_3  and  C_9 
REMARK    2  A    between atoms: C_4  and  O_8 
REMARK    3  A    between atoms: C_6  and  O_7 
REMARK    4  A    between atoms: C_10  and  O_22 
REMARK    5  A    between atoms: C_14  and  O_21 
REMARK    6  A    between atoms: C_16  and  O_20 
ROOT
ATOM      1  C   LIG d   1       4.667  -2.952  -6.641  0.00  0.00     0.184 A 
ATOM      2  C   LIG d   1       4.670  -1.898  -5.774  0.00  0.00     0.208 A 
ATOM      3  C   LIG d   1       4.118  -0.659  -6.181  0.00  0.00     0.238 A 
ATOM      4  O   LIG d   1       4.102   0.306  -5.432  0.00  0.00    -0.283 OA
ATOM      5  C   LIG d   1       3.561  -0.578  -7.541  0.00  0.00     0.109 A 
ATOM      6  C   LIG d   1       2.995   0.608  -8.026  0.00  0.00     0.135 A 
ATOM      7  C   LIG d   1       2.484   0.644  -9.309  0.00  0.00     0.022 A 
ATOM      8  C   LIG d   1       2.532  -0.491 -10.113  0.00  0.00     0.124 A 
ATOM      9  C   LIG d   1       3.089  -1.668  -9.640  0.00  0.00     0.023 A 
ATOM     10  C   LIG d   1       3.608  -1.724  -8.355  0.00  0.00     0.146 A 
ATOM     11  O   LIG d   1       4.161  -2.861  -7.883  0.00  0.00    -0.451 OA
ATOM     12  H   LIG d   1       2.046   1.555  -9.690  0.00  0.00     0.069 H 
ATOM     13  H   LIG d   1       3.120  -2.543 -10.273  0.00  0.00     0.069 H 
ENDROOT
BRANCH   1  14
ATOM     14  C   LIG d   1       5.246  -4.232  -6.203  0.00  0.00     0.063 A 
ATOM     15  C   LIG d   1       6.624  -4.345  -5.996  0.00  0.00    -0.044 A 
ATOM     16  C   LIG d   1       7.162  -5.545  -5.586  0.00  0.00    -0.019 A 
ATOM     17  H   LIG d   1       7.267  -3.492  -6.157  0.00  0.00     0.063 H 
ATOM     18  C   LIG d   1       6.339  -6.646  -5.376  0.00  0.00     0.120 A 
ATOM     19  H   LIG d   1       8.227  -5.633  -5.430  0.00  0.00     0.065 H 
ATOM     20  C   LIG d   1       4.969  -6.544  -5.579  0.00  0.00     0.022 A 
ATOM     21  C   LIG d   1       4.418  -5.345  -5.992  0.00  0.00     0.131 A 
ATOM     22  H   LIG d   1       4.334  -7.403  -5.415  0.00  0.00     0.069 H 
BRANCH  18  23
ATOM     23  O   LIG d   1       6.876  -7.826  -4.972  0.00  0.00    -0.507 OA
ATOM     24  H   LIG d   1       7.516  -8.200  -5.594  0.00  0.00     0.292 HD
ENDBRANCH  18  23
BRANCH  21  25
ATOM     25  O   LIG d   1       3.078  -5.244  -6.189  0.00  0.00    -0.506 OA
ATOM     26  H   LIG d   1       2.795  -5.474  -7.085  0.00  0.00     0.292 HD
ENDBRANCH  21  25
ENDBRANCH   1  14
BRANCH   2  27
ATOM     27  O   LIG d   1       5.200  -2.037  -4.528  0.00  0.00    -0.501 OA
ATOM     28  H   LIG d   1       6.167  -2.017  -4.507  0.00  0.00     0.292 HD
ENDBRANCH   2  27
BRANCH   6  29
ATOM     29  O   LIG d   1       2.950   1.714  -7.241  0.00  0.00    -0.506 OA
ATOM     30  H   LIG d   1       3.806   2.143  -7.114  0.00  0.00     0.292 HD
ENDBRANCH   6  29
BRANCH   8  31
ATOM     31  O   LIG d   1       2.026  -0.445 -11.371  0.00  0.00    -0.506 OA
ATOM     32  H   LIG d   1       1.306  -1.070 -11.530  0.00  0.00     0.292 HD
ENDBRANCH   8  31
TORSDOF 6
ENDMDL
MODEL 7
REMARK VINA RESULT:      -5.5     12.309     14.764
REMARK  6 active torsions:
REMARK  status: ('A' for Active; 'I' for Inactive)
REMARK    1  A    between atoms: C_3  and  C_9 
REMARK    2  A    between atoms: C_4  and  O_8 
REMARK    3  A    between atoms: C_6  and  O_7 
REMARK    4  A    between atoms: C_10  and  O_22 
REMARK    5  A    between atoms: C_14  and  O_21 
REMARK    6  A    between atoms: C_16  and  O_20 
ROOT
ATOM      1  C   LIG d   1      10.330  10.317  -1.689  0.00  0.00     0.184 A 
ATOM      2  C   LIG d   1      10.670  10.554  -0.390  0.00  0.00     0.208 A 
ATOM      3  C   LIG d   1      10.935   9.462   0.473  0.00  0.00     0.238 A 
ATOM      4  O   LIG d   1      11.243   9.635   1.642  0.00  0.00    -0.283 OA
ATOM      5  C   LIG d   1      10.825   8.108  -0.095  0.00  0.00     0.109 A 
ATOM      6  C   LIG d   1      11.068   6.971   0.685  0.00  0.00     0.135 A 
ATOM      7  C   LIG d   1      10.954   5.716   0.116  0.00  0.00     0.022 A 
ATOM      8  C   LIG d   1      10.600   5.587  -1.223  0.00  0.00     0.124 A 
ATOM      9  C   LIG d   1      10.358   6.707  -2.002  0.00  0.00     0.023 A 
ATOM     10  C   LIG d   1      10.467   7.974  -1.448  0.00  0.00     0.146 A 
ATOM     11  O   LIG d   1      10.228   9.075  -2.192  0.00  0.00    -0.451 OA
ATOM     12  H   LIG d   1      11.140   4.835   0.712  0.00  0.00     0.069 H 
ATOM     13  H   LIG d   1      10.084   6.594  -3.040  0.00  0.00     0.069 H 
ENDROOT
BRANCH   1  14
ATOM     14  C   LIG d   1      10.058  11.464  -2.572  0.00  0.00     0.063 A 
ATOM     15  C   LIG d   1      11.116  12.211  -3.097  0.00  0.00    -0.044 A 
ATOM     16  C   LIG d   1      10.858  13.283  -3.923  0.00  0.00    -0.019 A 
ATOM     17  H   LIG d   1      12.135  11.948  -2.857  0.00  0.00     0.063 H 
ATOM     18  C   LIG d   1       9.547  13.625  -4.236  0.00  0.00     0.120 A 
ATOM     19  H   LIG d   1      11.676  13.862  -4.325  0.00  0.00     0.065 H 
ATOM     20  C   LIG d   1       8.489  12.889  -3.720  0.00  0.00     0.022 A 
ATOM     21  C   LIG d   1       8.736  11.812  -2.889  0.00  0.00     0.131 A 
ATOM     22  H   LIG d   1       7.473  13.160  -3.966  0.00  0.00     0.069 H 
BRANCH  18  23
ATOM     23  O   LIG d   1       9.300  14.683  -5.051  0.00  0.00    -0.507 OA
ATOM     24  H   LIG d   1       9.396  15.543  -4.618  0.00  0.00     0.292 HD
ENDBRANCH  18  23
BRANCH  21  25
ATOM     25  O   LIG d   1       7.702  11.091  -2.383  0.00  0.00    -0.506 OA
ATOM     26  H   LIG d   1       7.823  10.133  -2.446  0.00  0.00     0.292 HD
ENDBRANCH  21  25
ENDBRANCH   1  14
BRANCH   2  27
ATOM     27  O   LIG d   1      10.756  11.831   0.075  0.00  0.00    -0.501 OA
ATOM     28  H   LIG d   1      10.003  12.103   0.618  0.00  0.00     0.292 HD
ENDBRANCH   2  27
BRANCH   6  29
ATOM     29  O   LIG d   1      11.414   7.099   1.991  0.00  0.00    -0.506 OA
ATOM     30  H   LIG d   1      12.367   7.110   2.147  0.00  0.00     0.292 HD
ENDBRANCH   6  29
BRANCH   8  31
ATOM     31  O   LIG d   1      10.491   4.350  -1.773  0.00  0.00    -0.506 OA
ATOM     32  H   LIG d   1      11.115   4.183  -2.492  0.00  0.00     0.292 HD
ENDBRANCH   8  31
TORSDOF 6
ENDMDL
MODEL 8
REMARK VINA RESULT:      -5.5      9.743     11.412
REMARK  6 active torsions:
REMARK  status: ('A' for Active; 'I' for Inactive)
REMARK    1  A    between atoms: C_3  and  C_9 
REMARK    2  A    between atoms: C_4  and  O_8 
REMARK    3  A    between atoms: C_6  and  O_7 
REMARK    4  A    between atoms: C_10  and  O_22 
REMARK    5  A    between atoms: C_14  and  O_21 
REMARK    6  A    between atoms: C_16  and  O_20 
ROOT
ATOM      1  C   LIG d   1       9.989   7.516  -2.490  0.00  0.00     0.184 A 
ATOM      2  C   LIG d   1      10.090   6.264  -1.957  0.00  0.00     0.208 A 
ATOM      3  C   LIG d   1      10.101   5.139  -2.818  0.00  0.00     0.238 A 
ATOM      4  O   LIG d   1      10.190   4.004  -2.377  0.00  0.00    -0.283 OA
ATOM      5  C   LIG d   1      10.002   5.390  -4.265  0.00  0.00     0.109 A 
ATOM      6  C   LIG d   1      10.005   4.337  -5.188  0.00  0.00     0.135 A 
ATOM      7  C   LIG d   1       9.909   4.614  -6.539  0.00  0.00     0.022 A 
ATOM      8  C   LIG d   1       9.811   5.931  -6.976  0.00  0.00     0.124 A 
ATOM      9  C   LIG d   1       9.807   6.978  -6.070  0.00  0.00     0.023 A 
ATOM     10  C   LIG d   1       9.902   6.721  -4.710  0.00  0.00     0.146 A 
ATOM     11  O   LIG d   1       9.893   7.730  -3.814  0.00  0.00    -0.451 OA
ATOM     12  H   LIG d   1       9.911   3.806  -7.256  0.00  0.00     0.069 H 
ATOM     13  H   LIG d   1       9.731   7.997  -6.421  0.00  0.00     0.069 H 
ENDROOT
BRANCH   1  14
ATOM     14  C   LIG d   1       9.978   8.675  -1.582  0.00  0.00     0.063 A 
ATOM     15  C   LIG d   1      11.108   9.492  -1.474  0.00  0.00    -0.044 A 
ATOM     16  C   LIG d   1      11.093  10.576  -0.624  0.00  0.00    -0.019 A 
ATOM     17  H   LIG d   1      11.990   9.275  -2.058  0.00  0.00     0.063 H 
ATOM     18  C   LIG d   1       9.960  10.860   0.128  0.00  0.00     0.120 A 
ATOM     19  H   LIG d   1      11.968  11.204  -0.539  0.00  0.00     0.065 H 
ATOM     20  C   LIG d   1       8.833  10.056   0.028  0.00  0.00     0.022 A 
ATOM     21  C   LIG d   1       8.835   8.964  -0.822  0.00  0.00     0.131 A 
ATOM     22  H   LIG d   1       7.955  10.281   0.615  0.00  0.00     0.069 H 
BRANCH  18  23
ATOM     23  O   LIG d   1       9.953  11.930   0.964  0.00  0.00    -0.507 OA
ATOM     24  H   LIG d   1       9.304  11.868   1.678  0.00  0.00     0.292 HD
ENDBRANCH  18  23
BRANCH  21  25
ATOM     25  O   LIG d   1       7.734   8.176  -0.920  0.00  0.00    -0.506 OA
ATOM     26  H   LIG d   1       6.940   8.646  -1.210  0.00  0.00     0.292 HD
ENDBRANCH  21  25
ENDBRANCH   1  14
BRANCH   2  27
ATOM     27  O   LIG d   1      10.179   6.098  -0.610  0.00  0.00    -0.501 OA
ATOM     28  H   LIG d   1      10.868   5.477  -0.334  0.00  0.00     0.292 HD
ENDBRANCH   2  27
BRANCH   6  29
ATOM     29  O   LIG d   1      10.101   3.053  -4.759  0.00  0.00    -0.506 OA
ATOM     30  H   LIG d   1      10.386   2.965  -3.839  0.00  0.00     0.292 HD
ENDBRANCH   6  29
BRANCH   8  31
ATOM     31  O   LIG d   1       9.718   6.192  -8.305  0.00  0.00    -0.506 OA
ATOM     32  H   LIG d   1      10.418   5.788  -8.836  0.00  0.00     0.292 HD
ENDBRANCH   8  31
TORSDOF 6
ENDMDL
MODEL 9
REMARK VINA RESULT:      -5.5      9.830     11.495
REMARK  6 active torsions:
REMARK  status: ('A' for Active; 'I' for Inactive)
REMARK    1  A    between atoms: C_3  and  C_9 
REMARK    2  A    between atoms: C_4  and  O_8 
REMARK    3  A    between atoms: C_6  and  O_7 
REMARK    4  A    between atoms: C_10  and  O_22 
REMARK    5  A    between atoms: C_14  and  O_21 
REMARK    6  A    between atoms: C_16  and  O_20 
ROOT
ATOM      1  C   LIG d   1       9.966   7.774  -2.691  0.00  0.00     0.184 A 
ATOM      2  C   LIG d   1       9.776   8.102  -4.001  0.00  0.00     0.208 A 
ATOM      3  C   LIG d   1       9.682   7.073  -4.971  0.00  0.00     0.238 A 
ATOM      4  O   LIG d   1       9.512   7.328  -6.153  0.00  0.00    -0.283 OA
ATOM      5  C   LIG d   1       9.796   5.684  -4.498  0.00  0.00     0.109 A 
ATOM      6  C   LIG d   1       9.715   4.604  -5.387  0.00  0.00     0.135 A 
ATOM      7  C   LIG d   1       9.828   3.314  -4.905  0.00  0.00     0.022 A 
ATOM      8  C   LIG d   1      10.021   3.091  -3.545  0.00  0.00     0.124 A 
ATOM      9  C   LIG d   1      10.101   4.153  -2.659  0.00  0.00     0.023 A 
ATOM     10  C   LIG d   1       9.991   5.455  -3.124  0.00  0.00     0.146 A 
ATOM     11  O   LIG d   1      10.074   6.501  -2.275  0.00  0.00    -0.451 OA
ATOM     12  H   LIG d   1       9.767   2.477  -5.585  0.00  0.00     0.069 H 
ATOM     13  H   LIG d   1      10.250   3.968  -1.606  0.00  0.00     0.069 H 
ENDROOT
BRANCH   1  14
ATOM     14  C   LIG d   1      10.062   8.856  -1.696  0.00  0.00     0.063 A 
ATOM     15  C   LIG d   1      11.225   9.626  -1.608  0.00  0.00    -0.044 A 
ATOM     16  C   LIG d   1      11.311  10.638  -0.676  0.00  0.00    -0.019 A 
ATOM     17  H   LIG d   1      12.055   9.430  -2.270  0.00  0.00     0.063 H 
ATOM     18  C   LIG d   1      10.244  10.894   0.178  0.00  0.00     0.120 A 
ATOM     19  H   LIG d   1      12.211  11.230  -0.606  0.00  0.00     0.065 H 
ATOM     20  C   LIG d   1       9.085  10.135   0.099  0.00  0.00     0.022 A 
ATOM     21  C   LIG d   1       8.987   9.116  -0.832  0.00  0.00     0.131 A 
ATOM     22  H   LIG d   1       8.260  10.338   0.765  0.00  0.00     0.069 H 
BRANCH  18  23
ATOM     23  O   LIG d   1      10.337  11.892   1.094  0.00  0.00    -0.507 OA
ATOM     24  H   LIG d   1       9.727  12.627   0.938  0.00  0.00     0.292 HD
ENDBRANCH  18  23
BRANCH  21  25
ATOM     25  O   LIG d   1       7.854   8.373  -0.911  0.00  0.00    -0.506 OA
ATOM     26  H   LIG d   1       7.521   8.259  -1.812  0.00  0.00     0.292 HD
ENDBRANCH  21  25
ENDBRANCH   1  14
BRANCH   2  27
ATOM     27  O   LIG d   1       9.678   9.407  -4.375  0.00  0.00    -0.501 OA
ATOM     28  H   LIG d   1       9.973   9.581  -5.279  0.00  0.00     0.292 HD
ENDBRANCH   2  27
BRANCH   6  29
ATOM     29  O   LIG d   1       9.528   4.824  -6.713  0.00  0.00    -0.506 OA
ATOM     30  H   LIG d   1       9.957   4.174  -7.285  0.00  0.00     0.292 HD
ENDBRANCH   6  29
BRANCH   8  31
ATOM     31  O   LIG d   1      10.129   1.819  -3.082  0.00  0.00    -0.506 OA
ATOM     32  H   LIG d   1      10.995   1.418  -3.233  0.00  0.00     0.292 HD
ENDBRANCH   8  31
TORSDOF 6
ENDMDL
MODEL 10
REMARK VINA RESULT:      -5.4      9.838     12.775
REMARK  6 active torsions:
REMARK  status: ('A' for Active; 'I' for Inactive)
REMARK    1  A    between atoms: C_3  and  C_9 
REMARK    2  A    between atoms: C_4  and  O_8 
REMARK    3  A    between atoms: C_6  and  O_7 
REMARK    4  A    between atoms: C_10  and  O_22 
REMARK    5  A    between atoms: C_14  and  O_21 
REMARK    6  A    between atoms: C_16  and  O_20 
ROOT
ATOM      1  C   LIG d   1      10.331   6.000  -2.284  0.00  0.00     0.184 A 
ATOM      2  C   LIG d   1      10.972   5.490  -1.193  0.00  0.00     0.208 A 
ATOM      3  C   LIG d   1      11.271   6.340  -0.100  0.00  0.00     0.238 A 
ATOM      4  O   LIG d   1      11.844   5.919   0.893  0.00  0.00    -0.283 OA
ATOM      5  C   LIG d   1      10.866   7.751  -0.207  0.00  0.00     0.109 A 
ATOM      6  C   LIG d   1      11.122   8.661   0.825  0.00  0.00     0.135 A 
ATOM      7  C   LIG d   1      10.726   9.979   0.687  0.00  0.00     0.022 A 
ATOM      8  C   LIG d   1      10.077  10.395  -0.471  0.00  0.00     0.124 A 
ATOM      9  C   LIG d   1       9.819   9.500  -1.497  0.00  0.00     0.023 A 
ATOM     10  C   LIG d   1      10.209   8.174  -1.377  0.00  0.00     0.146 A 
ATOM     11  O   LIG d   1       9.971   7.292  -2.370  0.00  0.00    -0.451 OA
ATOM     12  H   LIG d   1      10.921  10.686   1.479  0.00  0.00     0.069 H 
ATOM     13  H   LIG d   1       9.314   9.834  -2.391  0.00  0.00     0.069 H 
ENDROOT
BRANCH   1  14
ATOM     14  C   LIG d   1      10.027   5.103  -3.412  0.00  0.00     0.063 A 
ATOM     15  C   LIG d   1       9.433   3.859  -3.178  0.00  0.00    -0.044 A 
ATOM     16  C   LIG d   1       9.150   3.023  -4.236  0.00  0.00    -0.019 A 
ATOM     17  H   LIG d   1       9.196   3.554  -2.170  0.00  0.00     0.063 H 
ATOM     18  C   LIG d   1       9.453   3.412  -5.536  0.00  0.00     0.120 A 
ATOM     19  H   LIG d   1       8.696   2.060  -4.055  0.00  0.00     0.065 H 
ATOM     20  C   LIG d   1      10.042   4.645  -5.779  0.00  0.00     0.022 A 
ATOM     21  C   LIG d   1      10.332   5.493  -4.725  0.00  0.00     0.131 A 
ATOM     22  H   LIG d   1      10.276   4.942  -6.790  0.00  0.00     0.069 H 
BRANCH  18  23
ATOM     23  O   LIG d   1       9.171   2.582  -6.573  0.00  0.00    -0.507 OA
ATOM     24  H   LIG d   1       9.946   2.134  -6.940  0.00  0.00     0.292 HD
ENDBRANCH  18  23
BRANCH  21  25
ATOM     25  O   LIG d   1      10.908   6.699  -4.961  0.00  0.00    -0.506 OA
ATOM     26  H   LIG d   1      10.514   7.427  -4.460  0.00  0.00     0.292 HD
ENDBRANCH  21  25
ENDBRANCH   1  14
BRANCH   2  27
ATOM     27  O   LIG d   1      11.320   4.175  -1.155  0.00  0.00    -0.501 OA
ATOM     28  H   LIG d   1      10.730   3.596  -1.656  0.00  0.00     0.292 HD
ENDBRANCH   2  27
BRANCH   6  29
ATOM     29  O   LIG d   1      11.755   8.254   1.954  0.00  0.00    -0.506 OA
ATOM     30  H   LIG d   1      12.718   8.321   1.912  0.00  0.00     0.292 HD
ENDBRANCH   6  29
BRANCH   8  31
ATOM     31  O   LIG d   1       9.691  11.690  -0.597  0.00  0.00    -0.506 OA
ATOM     32  H   LIG d   1      10.058  12.137  -1.372  0.00  0.00     0.292 HD
ENDBRANCH   8  31
TORSDOF 6
ENDMDL
