MODEL 1
REMARK VINA RESULT:      -7.2      0.000      0.000
REMARK  0 active torsions:
REMARK  status: ('A' for Active; 'I' for Inactive)
ROOT
ATOM      1  C   LIG d   1       2.284  -0.123  -7.858  0.00  0.00    -0.043 A 
ATOM      2  C   LIG d   1       2.598  -0.903  -8.968  0.00  0.00     0.001 A 
ATOM      3  C   LIG d   1       1.828  -0.853 -10.147  0.00  0.00    -0.048 A 
ATOM      4  C   LIG d   1       2.186  -1.645 -11.204  0.00  0.00    -0.025 A 
ATOM      5  C   LIG d   1       3.295  -2.481 -11.116  0.00  0.00     0.045 A 
ATOM      6  N   LIG d   1       4.027  -2.540 -10.020  0.00  0.00    -0.251 NA
ATOM      7  C   LIG d   1       3.752  -1.808  -8.936  0.00  0.00     0.073 A 
ATOM      8  C   LIG d   1       4.541  -1.891  -7.789  0.00  0.00    -0.010 A 
ATOM      9  C   LIG d   1       4.229  -1.112  -6.676  0.00  0.00     0.073 A 
ATOM     10  C   LIG d   1       3.074  -0.209  -6.714  0.00  0.00     0.001 A 
ATOM     11  C   LIG d   1       2.797   0.561  -5.566  0.00  0.00    -0.048 A 
ATOM     12  C   LIG d   1       3.612   0.433  -4.472  0.00  0.00    -0.025 A 
ATOM     13  C   LIG d   1       4.691  -0.446  -4.496  0.00  0.00     0.045 A 
ATOM     14  N   LIG d   1       4.965  -1.171  -5.561  0.00  0.00    -0.251 NA
ATOM     15  C   LIG d   1       5.607  -0.620  -3.308  0.00  0.00    -0.010 C 
ATOM     16  C   LIG d   1       5.462   0.552  -2.340  0.00  0.00    -0.047 C 
ATOM     17  C   LIG d   1       3.974   0.736  -2.022  0.00  0.00    -0.049 C 
ATOM     18  C   LIG d   1       3.281   1.279  -3.269  0.00  0.00    -0.026 C 
ATOM     19  C   LIG d   1       3.729  -3.360 -12.264  0.00  0.00    -0.010 C 
ATOM     20  C   LIG d   1       2.592  -3.533 -13.268  0.00  0.00    -0.047 C 
ATOM     21  C   LIG d   1       2.066  -2.143 -13.647  0.00  0.00    -0.049 C 
ATOM     22  C   LIG d   1       1.327  -1.566 -12.441  0.00  0.00    -0.026 C 
ATOM     23  H   LIG d   1       1.434   0.542  -7.883  0.00  0.00     0.063 H 
ATOM     24  H   LIG d   1       0.969  -0.200 -10.215  0.00  0.00     0.063 H 
ATOM     25  H   LIG d   1       5.391  -2.556  -7.765  0.00  0.00     0.066 H 
ATOM     26  H   LIG d   1       1.957   1.240  -5.549  0.00  0.00     0.063 H 
ATOM     27  H   LIG d   1       6.638  -0.674  -3.654  0.00  0.00     0.033 H 
ATOM     28  H   LIG d   1       5.352  -1.545  -2.791  0.00  0.00     0.033 H 
ATOM     29  H   LIG d   1       6.010   0.340  -1.422  0.00  0.00     0.027 H 
ATOM     30  H   LIG d   1       5.855   1.459  -2.801  0.00  0.00     0.027 H 
ATOM     31  H   LIG d   1       3.535  -0.224  -1.746  0.00  0.00     0.027 H 
ATOM     32  H   LIG d   1       3.858   1.442  -1.200  0.00  0.00     0.027 H 
ATOM     33  H   LIG d   1       2.202   1.274  -3.112  0.00  0.00     0.031 H 
ATOM     34  H   LIG d   1       3.612   2.302  -3.447  0.00  0.00     0.031 H 
ATOM     35  H   LIG d   1       4.583  -2.905 -12.763  0.00  0.00     0.033 H 
ATOM     36  H   LIG d   1       4.018  -4.338 -11.879  0.00  0.00     0.033 H 
ATOM     37  H   LIG d   1       2.964  -4.039 -14.160  0.00  0.00     0.027 H 
ATOM     38  H   LIG d   1       1.791  -4.120 -12.820  0.00  0.00     0.027 H 
ATOM     39  H   LIG d   1       2.900  -1.493 -13.912  0.00  0.00     0.027 H 
ATOM     40  H   LIG d   1       1.382  -2.227 -14.492  0.00  0.00     0.027 H 
ATOM     41  H   LIG d   1       1.078  -0.524 -12.639  0.00  0.00     0.031 H 
ATOM     42  H   LIG d   1       0.409  -2.130 -12.278  0.00  0.00     0.031 H 
ENDROOT
TORSDOF 0
ENDMDL
MODEL 2
REMARK VINA RESULT:      -7.2      0.011      7.619
REMARK  0 active torsions:
REMARK  status: ('A' for Active; 'I' for Inactive)
ROOT
ATOM      1  C   LIG d   1       2.287  -0.124  -7.858  0.00  0.00    -0.043 A 
ATOM      2  C   LIG d   1       3.075  -0.209  -6.713  0.00  0.00     0.001 A 
ATOM      3  C   LIG d   1       2.796   0.559  -5.565  0.00  0.00    -0.048 A 
ATOM      4  C   LIG d   1       3.609   0.433  -4.472  0.00  0.00    -0.025 A 
ATOM      5  C   LIG d   1       4.690  -0.443  -4.493  0.00  0.00     0.045 A 
ATOM      6  N   LIG d   1       4.966  -1.170  -5.559  0.00  0.00    -0.251 NA
ATOM      7  C   LIG d   1       4.232  -1.111  -6.675  0.00  0.00     0.073 A 
ATOM      8  C   LIG d   1       4.547  -1.888  -7.789  0.00  0.00    -0.010 A 
ATOM      9  C   LIG d   1       3.760  -1.805  -8.936  0.00  0.00     0.073 A 
ATOM     10  C   LIG d   1       2.604  -0.902  -8.969  0.00  0.00     0.001 A 
ATOM     11  C   LIG d   1       1.836  -0.851 -10.149  0.00  0.00    -0.048 A 
ATOM     12  C   LIG d   1       2.198  -1.641 -11.208  0.00  0.00    -0.025 A 
ATOM     13  C   LIG d   1       3.309  -2.475 -11.118  0.00  0.00     0.045 A 
ATOM     14  N   LIG d   1       4.037  -2.536 -10.021  0.00  0.00    -0.251 NA
ATOM     15  C   LIG d   1       3.745  -3.355 -12.266  0.00  0.00    -0.010 C 
ATOM     16  C   LIG d   1       2.611  -3.524 -13.274  0.00  0.00    -0.047 C 
ATOM     17  C   LIG d   1       2.087  -2.134 -13.652  0.00  0.00    -0.049 C 
ATOM     18  C   LIG d   1       1.345  -1.558 -12.448  0.00  0.00    -0.026 C 
ATOM     19  C   LIG d   1       5.602  -0.620  -3.303  0.00  0.00    -0.010 C 
ATOM     20  C   LIG d   1       5.457   0.552  -2.336  0.00  0.00    -0.047 C 
ATOM     21  C   LIG d   1       3.969   0.737  -2.021  0.00  0.00    -0.049 C 
ATOM     22  C   LIG d   1       3.277   1.281  -3.270  0.00  0.00    -0.026 C 
ATOM     23  H   LIG d   1       1.436   0.541  -7.884  0.00  0.00     0.063 H 
ATOM     24  H   LIG d   1       1.954   1.236  -5.548  0.00  0.00     0.063 H 
ATOM     25  H   LIG d   1       5.397  -2.553  -7.761  0.00  0.00     0.066 H 
ATOM     26  H   LIG d   1       0.976  -0.201 -10.218  0.00  0.00     0.063 H 
ATOM     27  H   LIG d   1       4.032  -4.332 -11.880  0.00  0.00     0.033 H 
ATOM     28  H   LIG d   1       4.601  -2.898 -12.762  0.00  0.00     0.033 H 
ATOM     29  H   LIG d   1       2.984  -4.030 -14.164  0.00  0.00     0.027 H 
ATOM     30  H   LIG d   1       1.808  -4.111 -12.828  0.00  0.00     0.027 H 
ATOM     31  H   LIG d   1       2.923  -1.484 -13.913  0.00  0.00     0.027 H 
ATOM     32  H   LIG d   1       1.406  -2.215 -14.499  0.00  0.00     0.027 H 
ATOM     33  H   LIG d   1       1.097  -0.514 -12.644  0.00  0.00     0.031 H 
ATOM     34  H   LIG d   1       0.425  -2.121 -12.290  0.00  0.00     0.031 H 
ATOM     35  H   LIG d   1       5.346  -1.545  -2.788  0.00  0.00     0.033 H 
ATOM     36  H   LIG d   1       6.635  -0.675  -3.647  0.00  0.00     0.033 H 
ATOM     37  H   LIG d   1       6.003   0.339  -1.417  0.00  0.00     0.027 H 
ATOM     38  H   LIG d   1       5.851   1.459  -2.795  0.00  0.00     0.027 H 
ATOM     39  H   LIG d   1       3.528  -0.221  -1.745  0.00  0.00     0.027 H 
ATOM     40  H   LIG d   1       3.852   1.445  -1.199  0.00  0.00     0.027 H 
ATOM     41  H   LIG d   1       2.199   1.277  -3.114  0.00  0.00     0.031 H 
ATOM     42  H   LIG d   1       3.611   2.303  -3.449  0.00  0.00     0.031 H 
ENDROOT
TORSDOF 0
ENDMDL
MODEL 3
REMARK VINA RESULT:      -6.9      0.933      2.231
REMARK  0 active torsions:
REMARK  status: ('A' for Active; 'I' for Inactive)
ROOT
ATOM      1  C   LIG d   1       4.421  -2.108  -7.549  0.00  0.00    -0.043 A 
ATOM      2  C   LIG d   1       3.677  -1.977  -8.720  0.00  0.00     0.001 A 
ATOM      3  C   LIG d   1       3.881  -2.831  -9.822  0.00  0.00    -0.048 A 
ATOM      4  C   LIG d   1       3.121  -2.651 -10.946  0.00  0.00    -0.025 A 
ATOM      5  C   LIG d   1       2.161  -1.644 -10.995  0.00  0.00     0.045 A 
ATOM      6  N   LIG d   1       1.957  -0.837  -9.972  0.00  0.00    -0.251 NA
ATOM      7  C   LIG d   1       2.654  -0.933  -8.835  0.00  0.00     0.073 A 
ATOM      8  C   LIG d   1       2.420  -0.065  -7.770  0.00  0.00    -0.010 A 
ATOM      9  C   LIG d   1       3.162  -0.193  -6.596  0.00  0.00     0.073 A 
ATOM     10  C   LIG d   1       4.185  -1.239  -6.486  0.00  0.00     0.001 A 
ATOM     11  C   LIG d   1       4.910  -1.333  -5.281  0.00  0.00    -0.048 A 
ATOM     12  C   LIG d   1       4.631  -0.449  -4.272  0.00  0.00    -0.025 A 
ATOM     13  C   LIG d   1       3.651   0.526  -4.439  0.00  0.00     0.045 A 
ATOM     14  N   LIG d   1       2.963   0.626  -5.558  0.00  0.00    -0.251 NA
ATOM     15  C   LIG d   1       3.321   1.522  -3.353  0.00  0.00    -0.010 C 
ATOM     16  C   LIG d   1       3.846   1.040  -2.003  0.00  0.00    -0.047 C 
ATOM     17  C   LIG d   1       5.328   0.681  -2.159  0.00  0.00    -0.049 C 
ATOM     18  C   LIG d   1       5.427  -0.590  -3.000  0.00  0.00    -0.026 C 
ATOM     19  C   LIG d   1       1.295  -1.423 -12.211  0.00  0.00    -0.010 C 
ATOM     20  C   LIG d   1       1.906  -2.096 -13.437  0.00  0.00    -0.047 C 
ATOM     21  C   LIG d   1       2.209  -3.557 -13.085  0.00  0.00    -0.049 C 
ATOM     22  C   LIG d   1       3.380  -3.581 -12.104  0.00  0.00    -0.026 C 
ATOM     23  H   LIG d   1       5.174  -2.877  -7.465  0.00  0.00     0.063 H 
ATOM     24  H   LIG d   1       4.624  -3.614  -9.781  0.00  0.00     0.063 H 
ATOM     25  H   LIG d   1       1.666   0.704  -7.853  0.00  0.00     0.066 H 
ATOM     26  H   LIG d   1       5.672  -2.088  -5.156  0.00  0.00     0.063 H 
ATOM     27  H   LIG d   1       2.240   1.645  -3.295  0.00  0.00     0.033 H 
ATOM     28  H   LIG d   1       3.779   2.481  -3.594  0.00  0.00     0.033 H 
ATOM     29  H   LIG d   1       3.737   1.832  -1.262  0.00  0.00     0.027 H 
ATOM     30  H   LIG d   1       3.287   0.160  -1.684  0.00  0.00     0.027 H 
ATOM     31  H   LIG d   1       5.852   1.495  -2.661  0.00  0.00     0.027 H 
ATOM     32  H   LIG d   1       5.771   0.509  -1.179  0.00  0.00     0.027 H 
ATOM     33  H   LIG d   1       6.473  -0.776  -3.249  0.00  0.00     0.031 H 
ATOM     34  H   LIG d   1       5.041  -1.432  -2.425  0.00  0.00     0.031 H 
ATOM     35  H   LIG d   1       0.304  -1.839 -12.029  0.00  0.00     0.033 H 
ATOM     36  H   LIG d   1       1.204  -0.352 -12.398  0.00  0.00     0.033 H 
ATOM     37  H   LIG d   1       1.200  -2.058 -14.267  0.00  0.00     0.027 H 
ATOM     38  H   LIG d   1       2.828  -1.586 -13.716  0.00  0.00     0.027 H 
ATOM     39  H   LIG d   1       1.334  -4.014 -12.624  0.00  0.00     0.027 H 
ATOM     40  H   LIG d   1       2.476  -4.105 -13.990  0.00  0.00     0.027 H 
ATOM     41  H   LIG d   1       3.512  -4.595 -11.728  0.00  0.00     0.031 H 
ATOM     42  H   LIG d   1       4.288  -3.268 -12.620  0.00  0.00     0.031 H 
ENDROOT
TORSDOF 0
ENDMDL
MODEL 4
REMARK VINA RESULT:      -6.9      5.924      8.382
REMARK  0 active torsions:
REMARK  status: ('A' for Active; 'I' for Inactive)
ROOT
ATOM      1  C   LIG d   1       8.075   2.168  -3.831  0.00  0.00    -0.043 A 
ATOM      2  C   LIG d   1       7.218   1.074  -3.729  0.00  0.00     0.001 A 
ATOM      3  C   LIG d   1       5.979   1.167  -3.065  0.00  0.00    -0.048 A 
ATOM      4  C   LIG d   1       5.182   0.057  -2.995  0.00  0.00    -0.025 A 
ATOM      5  C   LIG d   1       5.589  -1.141  -3.575  0.00  0.00     0.045 A 
ATOM      6  N   LIG d   1       6.745  -1.246  -4.200  0.00  0.00    -0.251 NA
ATOM      7  C   LIG d   1       7.592  -0.217  -4.315  0.00  0.00     0.073 A 
ATOM      8  C   LIG d   1       8.810  -0.355  -4.978  0.00  0.00    -0.010 A 
ATOM      9  C   LIG d   1       9.670   0.737  -5.083  0.00  0.00     0.073 A 
ATOM     10  C   LIG d   1       9.291   2.027  -4.495  0.00  0.00     0.001 A 
ATOM     11  C   LIG d   1      10.191   3.104  -4.626  0.00  0.00    -0.048 A 
ATOM     12  C   LIG d   1      11.371   2.903  -5.290  0.00  0.00    -0.025 A 
ATOM     13  C   LIG d   1      11.676   1.653  -5.823  0.00  0.00     0.045 A 
ATOM     14  N   LIG d   1      10.846   0.636  -5.711  0.00  0.00    -0.251 NA
ATOM     15  C   LIG d   1      12.970   1.390  -6.556  0.00  0.00    -0.010 C 
ATOM     16  C   LIG d   1      13.618   2.702  -6.992  0.00  0.00    -0.047 C 
ATOM     17  C   LIG d   1      13.710   3.626  -5.772  0.00  0.00    -0.049 C 
ATOM     18  C   LIG d   1      12.299   4.084  -5.410  0.00  0.00    -0.026 C 
ATOM     19  C   LIG d   1       4.733  -2.384  -3.531  0.00  0.00    -0.010 C 
ATOM     20  C   LIG d   1       3.670  -2.266  -2.441  0.00  0.00    -0.047 C 
ATOM     21  C   LIG d   1       2.923  -0.942  -2.634  0.00  0.00    -0.049 C 
ATOM     22  C   LIG d   1       3.869   0.200  -2.268  0.00  0.00    -0.026 C 
ATOM     23  H   LIG d   1       7.799   3.118  -3.398  0.00  0.00     0.063 H 
ATOM     24  H   LIG d   1       5.663   2.099  -2.618  0.00  0.00     0.063 H 
ATOM     25  H   LIG d   1       9.086  -1.305  -5.411  0.00  0.00     0.066 H 
ATOM     26  H   LIG d   1       9.953   4.072  -4.209  0.00  0.00     0.063 H 
ATOM     27  H   LIG d   1      12.767   0.780  -7.435  0.00  0.00     0.033 H 
ATOM     28  H   LIG d   1      13.653   0.855  -5.896  0.00  0.00     0.033 H 
ATOM     29  H   LIG d   1      14.617   2.507  -7.381  0.00  0.00     0.027 H 
ATOM     30  H   LIG d   1      13.009   3.173  -7.764  0.00  0.00     0.027 H 
ATOM     31  H   LIG d   1      14.147   3.084  -4.933  0.00  0.00     0.027 H 
ATOM     32  H   LIG d   1      14.328   4.491  -6.012  0.00  0.00     0.027 H 
ATOM     33  H   LIG d   1      12.328   4.617  -4.459  0.00  0.00     0.031 H 
ATOM     34  H   LIG d   1      11.930   4.755  -6.186  0.00  0.00     0.031 H 
ATOM     35  H   LIG d   1       4.244  -2.519  -4.495  0.00  0.00     0.033 H 
ATOM     36  H   LIG d   1       5.364  -3.248  -3.324  0.00  0.00     0.033 H 
ATOM     37  H   LIG d   1       2.969  -3.097  -2.521  0.00  0.00     0.027 H 
ATOM     38  H   LIG d   1       4.146  -2.280  -1.460  0.00  0.00     0.027 H 
ATOM     39  H   LIG d   1       2.614  -0.842  -3.675  0.00  0.00     0.027 H 
ATOM     40  H   LIG d   1       2.047  -0.916  -1.985  0.00  0.00     0.027 H 
ATOM     41  H   LIG d   1       3.409   1.149  -2.541  0.00  0.00     0.031 H 
ATOM     42  H   LIG d   1       4.051   0.185  -1.193  0.00  0.00     0.031 H 
ENDROOT
TORSDOF 0
ENDMDL
MODEL 5
REMARK VINA RESULT:      -6.9      5.893      8.310
REMARK  0 active torsions:
REMARK  status: ('A' for Active; 'I' for Inactive)
ROOT
ATOM      1  C   LIG d   1       8.108   2.206  -3.880  0.00  0.00    -0.043 A 
ATOM      2  C   LIG d   1       9.309   2.081  -4.574  0.00  0.00     0.001 A 
ATOM      3  C   LIG d   1      10.202   3.163  -4.705  0.00  0.00    -0.048 A 
ATOM      4  C   LIG d   1      11.365   2.979  -5.403  0.00  0.00    -0.025 A 
ATOM      5  C   LIG d   1      11.662   1.742  -5.967  0.00  0.00     0.045 A 
ATOM      6  N   LIG d   1      10.838   0.718  -5.854  0.00  0.00    -0.251 NA
ATOM      7  C   LIG d   1       9.676   0.804  -5.196  0.00  0.00     0.073 A 
ATOM      8  C   LIG d   1       8.822  -0.293  -5.094  0.00  0.00    -0.010 A 
ATOM      9  C   LIG d   1       7.619  -0.171  -4.399  0.00  0.00     0.073 A 
ATOM     10  C   LIG d   1       7.257   1.108  -3.779  0.00  0.00     0.001 A 
ATOM     11  C   LIG d   1       6.032   1.185  -3.085  0.00  0.00    -0.048 A 
ATOM     12  C   LIG d   1       5.238   0.070  -3.021  0.00  0.00    -0.025 A 
ATOM     13  C   LIG d   1       5.635  -1.114  -3.634  0.00  0.00     0.045 A 
ATOM     14  N   LIG d   1       6.778  -1.204  -4.285  0.00  0.00    -0.251 NA
ATOM     15  C   LIG d   1       4.784  -2.362  -3.591  0.00  0.00    -0.010 C 
ATOM     16  C   LIG d   1       3.745  -2.266  -2.477  0.00  0.00    -0.047 C 
ATOM     17  C   LIG d   1       2.990  -0.941  -2.631  0.00  0.00    -0.049 C 
ATOM     18  C   LIG d   1       3.941   0.197  -2.264  0.00  0.00    -0.026 C 
ATOM     19  C   LIG d   1      12.940   1.496  -6.732  0.00  0.00    -0.010 C 
ATOM     20  C   LIG d   1      13.572   2.816  -7.161  0.00  0.00    -0.047 C 
ATOM     21  C   LIG d   1      13.690   3.720  -5.928  0.00  0.00    -0.049 C 
ATOM     22  C   LIG d   1      12.286   4.166  -5.525  0.00  0.00    -0.026 C 
ATOM     23  H   LIG d   1       7.839   3.146  -3.423  0.00  0.00     0.063 H 
ATOM     24  H   LIG d   1       9.973   4.122  -4.263  0.00  0.00     0.063 H 
ATOM     25  H   LIG d   1       9.091  -1.233  -5.550  0.00  0.00     0.066 H 
ATOM     26  H   LIG d   1       5.725   2.106  -2.613  0.00  0.00     0.063 H 
ATOM     27  H   LIG d   1       5.423  -3.226  -3.414  0.00  0.00     0.033 H 
ATOM     28  H   LIG d   1       4.275  -2.481  -4.547  0.00  0.00     0.033 H 
ATOM     29  H   LIG d   1       3.045  -3.098  -2.555  0.00  0.00     0.027 H 
ATOM     30  H   LIG d   1       4.243  -2.295  -1.507  0.00  0.00     0.027 H 
ATOM     31  H   LIG d   1       2.659  -0.824  -3.663  0.00  0.00     0.027 H 
ATOM     32  H   LIG d   1       2.129  -0.929  -1.965  0.00  0.00     0.027 H 
ATOM     33  H   LIG d   1       3.472   1.151  -2.511  0.00  0.00     0.031 H 
ATOM     34  H   LIG d   1       4.144   0.165  -1.194  0.00  0.00     0.031 H 
ATOM     35  H   LIG d   1      13.639   0.951  -6.099  0.00  0.00     0.033 H 
ATOM     36  H   LIG d   1      12.719   0.899  -7.618  0.00  0.00     0.033 H 
ATOM     37  H   LIG d   1      14.564   2.631  -7.575  0.00  0.00     0.027 H 
ATOM     38  H   LIG d   1      12.945   3.299  -7.911  0.00  0.00     0.027 H 
ATOM     39  H   LIG d   1      14.148   3.166  -5.109  0.00  0.00     0.027 H 
ATOM     40  H   LIG d   1      14.299   4.593  -6.168  0.00  0.00     0.027 H 
ATOM     41  H   LIG d   1      12.335   4.683  -4.567  0.00  0.00     0.031 H 
ATOM     42  H   LIG d   1      11.895   4.848  -6.281  0.00  0.00     0.031 H 
ENDROOT
TORSDOF 0
ENDMDL
MODEL 6
REMARK VINA RESULT:      -6.9      6.067      8.687
REMARK  0 active torsions:
REMARK  status: ('A' for Active; 'I' for Inactive)
ROOT
ATOM      1  C   LIG d   1       8.945  -0.356  -4.972  0.00  0.00    -0.043 A 
ATOM      2  C   LIG d   1       7.720  -0.177  -4.334  0.00  0.00     0.001 A 
ATOM      3  C   LIG d   1       6.803  -1.238  -4.186  0.00  0.00    -0.048 A 
ATOM      4  C   LIG d   1       5.614  -0.999  -3.552  0.00  0.00    -0.025 A 
ATOM      5  C   LIG d   1       5.319   0.269  -3.059  0.00  0.00     0.045 A 
ATOM      6  N   LIG d   1       6.166   1.272  -3.188  0.00  0.00    -0.251 NA
ATOM      7  C   LIG d   1       7.349   1.136  -3.797  0.00  0.00     0.073 A 
ATOM      8  C   LIG d   1       8.224   2.213  -3.923  0.00  0.00    -0.010 A 
ATOM      9  C   LIG d   1       9.451   2.038  -4.560  0.00  0.00     0.073 A 
ATOM     10  C   LIG d   1       9.818   0.723  -5.096  0.00  0.00     0.001 A 
ATOM     11  C   LIG d   1      11.069   0.591  -5.732  0.00  0.00    -0.048 A 
ATOM     12  C   LIG d   1      11.883   1.689  -5.822  0.00  0.00    -0.025 A 
ATOM     13  C   LIG d   1      11.476   2.913  -5.298  0.00  0.00     0.045 A 
ATOM     14  N   LIG d   1      10.311   3.053  -4.699  0.00  0.00    -0.251 NA
ATOM     15  C   LIG d   1      12.343   4.147  -5.384  0.00  0.00    -0.010 C 
ATOM     16  C   LIG d   1      13.790   3.768  -5.685  0.00  0.00    -0.047 C 
ATOM     17  C   LIG d   1      13.806   2.848  -6.911  0.00  0.00    -0.049 C 
ATOM     18  C   LIG d   1      13.213   1.500  -6.505  0.00  0.00    -0.026 C 
ATOM     19  C   LIG d   1       4.024   0.568  -2.343  0.00  0.00    -0.010 C 
ATOM     20  C   LIG d   1       2.984  -0.508  -2.640  0.00  0.00    -0.047 C 
ATOM     21  C   LIG d   1       3.610  -1.878  -2.353  0.00  0.00    -0.049 C 
ATOM     22  C   LIG d   1       4.660  -2.160  -3.425  0.00  0.00    -0.026 C 
ATOM     23  H   LIG d   1       9.217  -1.323  -5.368  0.00  0.00     0.063 H 
ATOM     24  H   LIG d   1       7.035  -2.222  -4.567  0.00  0.00     0.063 H 
ATOM     25  H   LIG d   1       7.952   3.181  -3.526  0.00  0.00     0.066 H 
ATOM     26  H   LIG d   1      11.380  -0.359  -6.141  0.00  0.00     0.063 H 
ATOM     27  H   LIG d   1      12.301   4.682  -4.436  0.00  0.00     0.033 H 
ATOM     28  H   LIG d   1      11.968   4.793  -6.179  0.00  0.00     0.033 H 
ATOM     29  H   LIG d   1      14.369   4.668  -5.895  0.00  0.00     0.027 H 
ATOM     30  H   LIG d   1      14.219   3.247  -4.829  0.00  0.00     0.027 H 
ATOM     31  H   LIG d   1      13.206   3.288  -7.709  0.00  0.00     0.027 H 
ATOM     32  H   LIG d   1      14.830   2.710  -7.255  0.00  0.00     0.027 H 
ATOM     33  H   LIG d   1      13.076   0.885  -7.396  0.00  0.00     0.031 H 
ATOM     34  H   LIG d   1      13.899   0.996  -5.824  0.00  0.00     0.031 H 
ATOM     35  H   LIG d   1       4.207   0.605  -1.269  0.00  0.00     0.033 H 
ATOM     36  H   LIG d   1       3.645   1.535  -2.675  0.00  0.00     0.033 H 
ATOM     37  H   LIG d   1       2.112  -0.363  -2.001  0.00  0.00     0.027 H 
ATOM     38  H   LIG d   1       2.686  -0.453  -3.687  0.00  0.00     0.027 H 
ATOM     39  H   LIG d   1       4.082  -1.868  -1.370  0.00  0.00     0.027 H 
ATOM     40  H   LIG d   1       2.838  -2.648  -2.383  0.00  0.00     0.027 H 
ATOM     41  H   LIG d   1       5.219  -3.055  -3.154  0.00  0.00     0.031 H 
ATOM     42  H   LIG d   1       4.163  -2.322  -4.382  0.00  0.00     0.031 H 
ENDROOT
TORSDOF 0
ENDMDL
MODEL 7
REMARK VINA RESULT:      -6.9      6.106      8.661
REMARK  0 active torsions:
REMARK  status: ('A' for Active; 'I' for Inactive)
ROOT
ATOM      1  C   LIG d   1       9.044  -0.240  -5.083  0.00  0.00    -0.043 A 
ATOM      2  C   LIG d   1       9.895   0.855  -5.212  0.00  0.00     0.001 A 
ATOM      3  C   LIG d   1      11.127   0.757  -5.888  0.00  0.00    -0.048 A 
ATOM      4  C   LIG d   1      11.921   1.868  -5.978  0.00  0.00    -0.025 A 
ATOM      5  C   LIG d   1      11.514   3.074  -5.415  0.00  0.00     0.045 A 
ATOM      6  N   LIG d   1      10.364   3.184  -4.779  0.00  0.00    -0.251 NA
ATOM      7  C   LIG d   1       9.524   2.153  -4.636  0.00  0.00     0.073 A 
ATOM      8  C   LIG d   1       8.315   2.294  -3.957  0.00  0.00    -0.010 A 
ATOM      9  C   LIG d   1       7.461   1.201  -3.827  0.00  0.00     0.073 A 
ATOM     10  C   LIG d   1       7.836  -0.095  -4.404  0.00  0.00     0.001 A 
ATOM     11  C   LIG d   1       6.941  -1.173  -4.250  0.00  0.00    -0.048 A 
ATOM     12  C   LIG d   1       5.769  -0.967  -3.572  0.00  0.00    -0.025 A 
ATOM     13  C   LIG d   1       5.472   0.285  -3.043  0.00  0.00     0.045 A 
ATOM     14  N   LIG d   1       6.296   1.304  -3.180  0.00  0.00    -0.251 NA
ATOM     15  C   LIG d   1       4.193   0.550  -2.284  0.00  0.00    -0.010 C 
ATOM     16  C   LIG d   1       3.163  -0.540  -2.569  0.00  0.00    -0.047 C 
ATOM     17  C   LIG d   1       3.820  -1.904  -2.327  0.00  0.00    -0.049 C 
ATOM     18  C   LIG d   1       4.841  -2.147  -3.437  0.00  0.00    -0.026 C 
ATOM     19  C   LIG d   1      12.356   4.324  -5.505  0.00  0.00    -0.010 C 
ATOM     20  C   LIG d   1      13.800   3.976  -5.854  0.00  0.00    -0.047 C 
ATOM     21  C   LIG d   1      13.794   3.079  -7.098  0.00  0.00    -0.049 C 
ATOM     22  C   LIG d   1      13.235   1.714  -6.701  0.00  0.00    -0.026 C 
ATOM     23  H   LIG d   1       9.318  -1.195  -5.507  0.00  0.00     0.063 H 
ATOM     24  H   LIG d   1      11.440  -0.179  -6.327  0.00  0.00     0.063 H 
ATOM     25  H   LIG d   1       8.041   3.249  -3.534  0.00  0.00     0.066 H 
ATOM     26  H   LIG d   1       7.176  -2.145  -4.659  0.00  0.00     0.063 H 
ATOM     27  H   LIG d   1       3.789   1.515  -2.586  0.00  0.00     0.033 H 
ATOM     28  H   LIG d   1       4.408   0.569  -1.215  0.00  0.00     0.033 H 
ATOM     29  H   LIG d   1       2.309  -0.421  -1.902  0.00  0.00     0.027 H 
ATOM     30  H   LIG d   1       2.832  -0.470  -3.605  0.00  0.00     0.027 H 
ATOM     31  H   LIG d   1       4.323  -1.903  -1.359  0.00  0.00     0.027 H 
ATOM     32  H   LIG d   1       3.062  -2.686  -2.347  0.00  0.00     0.027 H 
ATOM     33  H   LIG d   1       5.424  -3.038  -3.200  0.00  0.00     0.031 H 
ATOM     34  H   LIG d   1       4.316  -2.302  -4.379  0.00  0.00     0.031 H 
ATOM     35  H   LIG d   1      11.947   4.979  -6.274  0.00  0.00     0.033 H 
ATOM     36  H   LIG d   1      12.334   4.842  -4.545  0.00  0.00     0.033 H 
ATOM     37  H   LIG d   1      14.357   4.890  -6.064  0.00  0.00     0.027 H 
ATOM     38  H   LIG d   1      14.263   3.447  -5.021  0.00  0.00     0.027 H 
ATOM     39  H   LIG d   1      13.165   3.524  -7.869  0.00  0.00     0.027 H 
ATOM     40  H   LIG d   1      14.812   2.965  -7.473  0.00  0.00     0.027 H 
ATOM     41  H   LIG d   1      13.083   1.115  -7.598  0.00  0.00     0.031 H 
ATOM     42  H   LIG d   1      13.948   1.210  -6.049  0.00  0.00     0.031 H 
ENDROOT
TORSDOF 0
ENDMDL
MODEL 8
REMARK VINA RESULT:      -6.7      5.288      8.675
REMARK  0 active torsions:
REMARK  status: ('A' for Active; 'I' for Inactive)
ROOT
ATOM      1  C   LIG d   1       7.027  -4.049  -5.231  0.00  0.00    -0.043 A 
ATOM      2  C   LIG d   1       6.206  -3.123  -4.591  0.00  0.00     0.001 A 
ATOM      3  C   LIG d   1       6.709  -1.893  -4.120  0.00  0.00    -0.048 A 
ATOM      4  C   LIG d   1       5.853  -1.026  -3.497  0.00  0.00    -0.025 A 
ATOM      5  C   LIG d   1       4.510  -1.353  -3.336  0.00  0.00     0.045 A 
ATOM      6  N   LIG d   1       4.023  -2.499  -3.770  0.00  0.00    -0.251 NA
ATOM      7  C   LIG d   1       4.783  -3.411  -4.387  0.00  0.00     0.073 A 
ATOM      8  C   LIG d   1       4.244  -4.616  -4.834  0.00  0.00    -0.010 A 
ATOM      9  C   LIG d   1       5.062  -5.545  -5.475  0.00  0.00     0.073 A 
ATOM     10  C   LIG d   1       6.485  -5.252  -5.677  0.00  0.00     0.001 A 
ATOM     11  C   LIG d   1       7.274  -6.220  -6.331  0.00  0.00    -0.048 A 
ATOM     12  C   LIG d   1       6.683  -7.384  -6.747  0.00  0.00    -0.025 A 
ATOM     13  C   LIG d   1       5.328  -7.605  -6.522  0.00  0.00     0.045 A 
ATOM     14  N   LIG d   1       4.575  -6.711  -5.914  0.00  0.00    -0.251 NA
ATOM     15  C   LIG d   1       4.642  -8.878  -6.959  0.00  0.00    -0.010 C 
ATOM     16  C   LIG d   1       5.480  -9.609  -8.004  0.00  0.00    -0.047 C 
ATOM     17  C   LIG d   1       6.905  -9.764  -7.461  0.00  0.00    -0.049 C 
ATOM     18  C   LIG d   1       7.564  -8.387  -7.446  0.00  0.00    -0.026 C 
ATOM     19  C   LIG d   1       3.533  -0.417  -2.665  0.00  0.00    -0.010 C 
ATOM     20  C   LIG d   1       4.273   0.633  -1.841  0.00  0.00    -0.047 C 
ATOM     21  C   LIG d   1       5.330   1.293  -2.735  0.00  0.00    -0.049 C 
ATOM     22  C   LIG d   1       6.436   0.273  -3.002  0.00  0.00    -0.026 C 
ATOM     23  H   LIG d   1       8.075  -3.836  -5.380  0.00  0.00     0.063 H 
ATOM     24  H   LIG d   1       7.751  -1.639  -4.249  0.00  0.00     0.063 H 
ATOM     25  H   LIG d   1       3.196  -4.829  -4.685  0.00  0.00     0.066 H 
ATOM     26  H   LIG d   1       8.327  -6.046  -6.502  0.00  0.00     0.063 H 
ATOM     27  H   LIG d   1       3.669  -8.634  -7.384  0.00  0.00     0.033 H 
ATOM     28  H   LIG d   1       4.504  -9.526  -6.093  0.00  0.00     0.033 H 
ATOM     29  H   LIG d   1       5.052 -10.593  -8.196  0.00  0.00     0.027 H 
ATOM     30  H   LIG d   1       5.500  -9.031  -8.929  0.00  0.00     0.027 H 
ATOM     31  H   LIG d   1       6.871 -10.166  -6.448  0.00  0.00     0.027 H 
ATOM     32  H   LIG d   1       7.473 -10.436  -8.104  0.00  0.00     0.027 H 
ATOM     33  H   LIG d   1       8.520  -8.451  -6.925  0.00  0.00     0.031 H 
ATOM     34  H   LIG d   1       7.737  -8.060  -8.472  0.00  0.00     0.031 H 
ATOM     35  H   LIG d   1       2.932   0.080  -3.425  0.00  0.00     0.033 H 
ATOM     36  H   LIG d   1       2.878  -0.991  -2.009  0.00  0.00     0.033 H 
ATOM     37  H   LIG d   1       3.569   1.387  -1.489  0.00  0.00     0.027 H 
ATOM     38  H   LIG d   1       4.758   0.157  -0.989  0.00  0.00     0.027 H 
ATOM     39  H   LIG d   1       4.876   1.597  -3.678  0.00  0.00     0.027 H 
ATOM     40  H   LIG d   1       5.747   2.164  -2.229  0.00  0.00     0.027 H 
ATOM     41  H   LIG d   1       7.117   0.671  -3.753  0.00  0.00     0.031 H 
ATOM     42  H   LIG d   1       6.987   0.091  -2.078  0.00  0.00     0.031 H 
ENDROOT
TORSDOF 0
ENDMDL
MODEL 9
REMARK VINA RESULT:      -6.7      5.301      6.134
REMARK  0 active torsions:
REMARK  status: ('A' for Active; 'I' for Inactive)
ROOT
ATOM      1  C   LIG d   1       7.047  -4.112  -5.248  0.00  0.00    -0.043 A 
ATOM      2  C   LIG d   1       6.499  -5.312  -5.695  0.00  0.00     0.001 A 
ATOM      3  C   LIG d   1       7.283  -6.281  -6.353  0.00  0.00    -0.048 A 
ATOM      4  C   LIG d   1       6.686  -7.439  -6.772  0.00  0.00    -0.025 A 
ATOM      5  C   LIG d   1       5.330  -7.656  -6.547  0.00  0.00     0.045 A 
ATOM      6  N   LIG d   1       4.582  -6.760  -5.933  0.00  0.00    -0.251 NA
ATOM      7  C   LIG d   1       5.074  -5.598  -5.492  0.00  0.00     0.073 A 
ATOM      8  C   LIG d   1       4.261  -4.666  -4.849  0.00  0.00    -0.010 A 
ATOM      9  C   LIG d   1       4.806  -3.464  -4.399  0.00  0.00     0.073 A 
ATOM     10  C   LIG d   1       6.231  -3.183  -4.604  0.00  0.00     0.001 A 
ATOM     11  C   LIG d   1       6.739  -1.956  -4.132  0.00  0.00    -0.048 A 
ATOM     12  C   LIG d   1       5.887  -1.085  -3.508  0.00  0.00    -0.025 A 
ATOM     13  C   LIG d   1       4.542  -1.407  -3.347  0.00  0.00     0.045 A 
ATOM     14  N   LIG d   1       4.051  -2.550  -3.780  0.00  0.00    -0.251 NA
ATOM     15  C   LIG d   1       3.571  -0.469  -2.670  0.00  0.00    -0.010 C 
ATOM     16  C   LIG d   1       4.317   0.578  -1.848  0.00  0.00    -0.047 C 
ATOM     17  C   LIG d   1       5.373   1.235  -2.745  0.00  0.00    -0.049 C 
ATOM     18  C   LIG d   1       6.475   0.212  -3.015  0.00  0.00    -0.026 C 
ATOM     19  C   LIG d   1       4.639  -8.926  -6.982  0.00  0.00    -0.010 C 
ATOM     20  C   LIG d   1       5.470  -9.657  -8.033  0.00  0.00    -0.047 C 
ATOM     21  C   LIG d   1       6.896  -9.819  -7.495  0.00  0.00    -0.049 C 
ATOM     22  C   LIG d   1       7.561  -8.443  -7.478  0.00  0.00    -0.026 C 
ATOM     23  H   LIG d   1       8.095  -3.903  -5.398  0.00  0.00     0.063 H 
ATOM     24  H   LIG d   1       8.336  -6.113  -6.523  0.00  0.00     0.063 H 
ATOM     25  H   LIG d   1       3.213  -4.876  -4.698  0.00  0.00     0.066 H 
ATOM     26  H   LIG d   1       7.782  -1.708  -4.261  0.00  0.00     0.063 H 
ATOM     27  H   LIG d   1       2.917  -1.042  -2.014  0.00  0.00     0.033 H 
ATOM     28  H   LIG d   1       2.969   0.032  -3.428  0.00  0.00     0.033 H 
ATOM     29  H   LIG d   1       3.617   1.334  -1.493  0.00  0.00     0.027 H 
ATOM     30  H   LIG d   1       4.803   0.099  -0.998  0.00  0.00     0.027 H 
ATOM     31  H   LIG d   1       4.917   1.541  -3.687  0.00  0.00     0.027 H 
ATOM     32  H   LIG d   1       5.794   2.104  -2.241  0.00  0.00     0.027 H 
ATOM     33  H   LIG d   1       7.156   0.609  -3.770  0.00  0.00     0.031 H 
ATOM     34  H   LIG d   1       7.029   0.030  -2.094  0.00  0.00     0.031 H 
ATOM     35  H   LIG d   1       4.500  -9.575  -6.118  0.00  0.00     0.033 H 
ATOM     36  H   LIG d   1       3.665  -8.678  -7.404  0.00  0.00     0.033 H 
ATOM     37  H   LIG d   1       5.037 -10.640  -8.225  0.00  0.00     0.027 H 
ATOM     38  H   LIG d   1       5.488  -9.077  -8.956  0.00  0.00     0.027 H 
ATOM     39  H   LIG d   1       6.865 -10.224  -6.484  0.00  0.00     0.027 H 
ATOM     40  H   LIG d   1       7.460 -10.491  -8.144  0.00  0.00     0.027 H 
ATOM     41  H   LIG d   1       8.517  -8.513  -6.961  0.00  0.00     0.031 H 
ATOM     42  H   LIG d   1       7.730  -8.113  -8.504  0.00  0.00     0.031 H 
ENDROOT
TORSDOF 0
ENDMDL
MODEL 10
REMARK VINA RESULT:      -6.7      5.200      8.047
REMARK  0 active torsions:
REMARK  status: ('A' for Active; 'I' for Inactive)
ROOT
ATOM      1  C   LIG d   1       7.816   2.291  -3.837  0.00  0.00    -0.043 A 
ATOM      2  C   LIG d   1       7.032   1.150  -3.994  0.00  0.00     0.001 A 
ATOM      3  C   LIG d   1       6.239   0.650  -2.941  0.00  0.00    -0.048 A 
ATOM      4  C   LIG d   1       5.492  -0.477  -3.156  0.00  0.00    -0.025 A 
ATOM      5  C   LIG d   1       5.512  -1.112  -4.394  0.00  0.00     0.045 A 
ATOM      6  N   LIG d   1       6.248  -0.657  -5.390  0.00  0.00    -0.251 NA
ATOM      7  C   LIG d   1       7.014   0.433  -5.273  0.00  0.00     0.073 A 
ATOM      8  C   LIG d   1       7.784   0.892  -6.340  0.00  0.00    -0.010 A 
ATOM      9  C   LIG d   1       8.570   2.033  -6.187  0.00  0.00     0.073 A 
ATOM     10  C   LIG d   1       8.585   2.747  -4.906  0.00  0.00     0.001 A 
ATOM     11  C   LIG d   1       9.393   3.896  -4.796  0.00  0.00    -0.048 A 
ATOM     12  C   LIG d   1      10.126   4.294  -5.883  0.00  0.00    -0.025 A 
ATOM     13  C   LIG d   1      10.074   3.572  -7.071  0.00  0.00     0.045 A 
ATOM     14  N   LIG d   1       9.322   2.496  -7.191  0.00  0.00    -0.251 NA
ATOM     15  C   LIG d   1      10.872   3.976  -8.288  0.00  0.00    -0.010 C 
ATOM     16  C   LIG d   1      11.333   5.426  -8.173  0.00  0.00    -0.047 C 
ATOM     17  C   LIG d   1      12.030   5.607  -6.820  0.00  0.00    -0.049 C 
ATOM     18  C   LIG d   1      10.971   5.531  -5.722  0.00  0.00    -0.026 C 
ATOM     19  C   LIG d   1       4.692  -2.348  -4.673  0.00  0.00    -0.010 C 
ATOM     20  C   LIG d   1       4.253  -3.008  -3.369  0.00  0.00    -0.047 C 
ATOM     21  C   LIG d   1       3.586  -1.944  -2.489  0.00  0.00    -0.049 C 
ATOM     22  C   LIG d   1       4.667  -0.982  -2.000  0.00  0.00    -0.026 C 
ATOM     23  H   LIG d   1       7.829   2.817  -2.894  0.00  0.00     0.063 H 
ATOM     24  H   LIG d   1       6.222   1.146  -1.982  0.00  0.00     0.063 H 
ATOM     25  H   LIG d   1       7.771   0.365  -7.283  0.00  0.00     0.066 H 
ATOM     26  H   LIG d   1       9.434   4.453  -3.872  0.00  0.00     0.063 H 
ATOM     27  H   LIG d   1      10.252   3.865  -9.177  0.00  0.00     0.033 H 
ATOM     28  H   LIG d   1      11.745   3.328  -8.376  0.00  0.00     0.033 H 
ATOM     29  H   LIG d   1      12.031   5.655  -8.978  0.00  0.00     0.027 H 
ATOM     30  H   LIG d   1      10.471   6.091  -8.234  0.00  0.00     0.027 H 
ATOM     31  H   LIG d   1      12.765   4.814  -6.676  0.00  0.00     0.027 H 
ATOM     32  H   LIG d   1      12.525   6.577  -6.788  0.00  0.00     0.027 H 
ATOM     33  H   LIG d   1      11.464   5.506  -4.749  0.00  0.00     0.031 H 
ATOM     34  H   LIG d   1      10.333   6.414  -5.777  0.00  0.00     0.031 H 
ATOM     35  H   LIG d   1       3.811  -2.073  -5.251  0.00  0.00     0.033 H 
ATOM     36  H   LIG d   1       5.291  -3.055  -5.248  0.00  0.00     0.033 H 
ATOM     37  H   LIG d   1       3.540  -3.805  -3.583  0.00  0.00     0.027 H 
ATOM     38  H   LIG d   1       5.121  -3.420  -2.854  0.00  0.00     0.027 H 
ATOM     39  H   LIG d   1       2.844  -1.398  -3.071  0.00  0.00     0.027 H 
ATOM     40  H   LIG d   1       3.106  -2.422  -1.635  0.00  0.00     0.027 H 
ATOM     41  H   LIG d   1       4.195  -0.137  -1.499  0.00  0.00     0.031 H 
ATOM     42  H   LIG d   1       5.317  -1.500  -1.294  0.00  0.00     0.031 H 
ENDROOT
TORSDOF 0
ENDMDL
