MODEL 1
REMARK VINA RESULT:      -6.0      0.000      0.000
REMARK  9 active torsions:
REMARK  status: ('A' for Active; 'I' for Inactive)
REMARK    1  A    between atoms: C_1  and  C_2 
REMARK    2  A    between atoms: C_2  and  O_3 
REMARK    3  A    between atoms: O_3  and  C_4 
REMARK    4  A    between atoms: C_4  and  C_6 
REMARK    5  A    between atoms: C_6  and  C_7 
REMARK    6  A    between atoms: C_7  and  C_8 
REMARK    7  A    between atoms: C_8  and  C_10 
REMARK    8  A    between atoms: C_8  and  C_16 
REMARK    9  A    between atoms: C_16  and  C_18 
ROOT
ATOM      1  C   LIG d   1       3.498  -0.210  -6.780  0.00  0.00     0.048 C 
ATOM      2  H   LIG d   1       2.964  -1.055  -6.818  0.00  0.00     0.043 H 
ENDROOT
BRANCH   1   3
ATOM      3  C   LIG d   1       2.794   0.797  -5.869  0.00  0.00    -0.029 C 
ATOM      4  H   LIG d   1       3.453   1.647  -5.689  0.00  0.00     0.028 H 
ATOM      5  H   LIG d   1       1.878   1.144  -6.349  0.00  0.00     0.028 H 
BRANCH   3   6
ATOM      6  C   LIG d   1       2.450   0.127  -4.537  0.00  0.00     0.046 C 
ATOM      7  H   LIG d   1       1.378   0.202  -4.359  0.00  0.00     0.038 H 
ATOM      8  H   LIG d   1       2.741  -0.922  -4.573  0.00  0.00     0.038 H 
BRANCH   6   9
ATOM      9  C   LIG d   1       3.193   0.817  -3.421  0.00  0.00     0.307 C 
ATOM     10  O   LIG d   1       3.604   1.943  -3.575  0.00  0.00    -0.251 OA
BRANCH   9  11
ATOM     11  O   LIG d   1       3.398   0.180  -2.258  0.00  0.00    -0.465 OA
BRANCH  11  12
ATOM     12  C   LIG d   1       4.474  -0.794  -2.220  0.00  0.00     0.090 C 
ATOM     13  H   LIG d   1       5.169  -0.599  -3.038  0.00  0.00     0.069 H 
ATOM     14  H   LIG d   1       5.002  -0.715  -1.269  0.00  0.00     0.069 H 
BRANCH  12  15
ATOM     15  C   LIG d   1       3.895  -2.201  -2.366  0.00  0.00    -0.031 C 
ATOM     16  H   LIG d   1       3.798  -2.446  -3.424  0.00  0.00     0.026 H 
ATOM     17  H   LIG d   1       4.561  -2.920  -1.887  0.00  0.00     0.026 H 
ATOM     18  H   LIG d   1       2.914  -2.242  -1.892  0.00  0.00     0.026 H 
ENDBRANCH  12  15
ENDBRANCH  11  12
ENDBRANCH   9  11
ENDBRANCH   6   9
ENDBRANCH   3   6
ENDBRANCH   1   3
BRANCH   1  19
ATOM     19  C   LIG d   1       3.624   0.367  -8.166  0.00  0.00    -0.037 A 
ATOM     20  C   LIG d   1       3.248   1.674  -8.408  0.00  0.00    -0.058 A 
ATOM     21  C   LIG d   1       3.364   2.204  -9.678  0.00  0.00    -0.061 A 
ATOM     22  H   LIG d   1       2.863   2.282  -7.602  0.00  0.00     0.062 H 
ATOM     23  C   LIG d   1       3.857   1.426 -10.709  0.00  0.00    -0.062 A 
ATOM     24  H   LIG d   1       3.069   3.226  -9.867  0.00  0.00     0.062 H 
ATOM     25  C   LIG d   1       4.235   0.118 -10.469  0.00  0.00    -0.061 A 
ATOM     26  H   LIG d   1       3.948   1.840 -11.702  0.00  0.00     0.062 H 
ATOM     27  C   LIG d   1       4.122  -0.410  -9.196  0.00  0.00    -0.058 A 
ATOM     28  H   LIG d   1       4.619  -0.490 -11.273  0.00  0.00     0.062 H 
ATOM     29  H   LIG d   1       4.420  -1.431  -9.007  0.00  0.00     0.062 H 
ENDBRANCH   1  19
BRANCH   1  30
ATOM     30  C   LIG d   1       4.870  -0.509  -6.233  0.00  0.00     0.171 C 
ATOM     31  O   LIG d   1       5.667   0.390  -6.071  0.00  0.00    -0.291 OA
BRANCH  30  32
ATOM     32  C   LIG d   1       5.243  -1.892  -5.895  0.00  0.00     0.018 A 
ATOM     33  C   LIG d   1       4.454  -2.960  -6.333  0.00  0.00    -0.051 A 
ATOM     34  C   LIG d   1       4.807  -4.252  -6.009  0.00  0.00    -0.061 A 
ATOM     35  H   LIG d   1       3.567  -2.773  -6.921  0.00  0.00     0.062 H 
ATOM     36  C   LIG d   1       5.943  -4.494  -5.256  0.00  0.00    -0.062 A 
ATOM     37  H   LIG d   1       4.196  -5.078  -6.343  0.00  0.00     0.062 H 
ATOM     38  C   LIG d   1       6.732  -3.443  -4.822  0.00  0.00    -0.061 A 
ATOM     39  H   LIG d   1       6.214  -5.510  -5.004  0.00  0.00     0.062 H 
ATOM     40  C   LIG d   1       6.391  -2.145  -5.139  0.00  0.00    -0.051 A 
ATOM     41  H   LIG d   1       7.616  -3.641  -4.234  0.00  0.00     0.062 H 
ATOM     42  H   LIG d   1       7.008  -1.326  -4.799  0.00  0.00     0.062 H 
ENDBRANCH  30  32
ENDBRANCH   1  30
TORSDOF 9
ENDMDL
MODEL 2
REMARK VINA RESULT:      -5.7      2.332      6.102
REMARK  9 active torsions:
REMARK  status: ('A' for Active; 'I' for Inactive)
REMARK    1  A    between atoms: C_1  and  C_2 
REMARK    2  A    between atoms: C_2  and  O_3 
REMARK    3  A    between atoms: O_3  and  C_4 
REMARK    4  A    between atoms: C_4  and  C_6 
REMARK    5  A    between atoms: C_6  and  C_7 
REMARK    6  A    between atoms: C_7  and  C_8 
REMARK    7  A    between atoms: C_8  and  C_10 
REMARK    8  A    between atoms: C_8  and  C_16 
REMARK    9  A    between atoms: C_16  and  C_18 
ROOT
ATOM      1  C   LIG d   1       4.304  -1.541  -5.835  0.00  0.00     0.048 C 
ATOM      2  H   LIG d   1       3.378  -1.489  -6.210  0.00  0.00     0.043 H 
ENDROOT
BRANCH   1   3
ATOM      3  C   LIG d   1       4.809  -2.983  -5.922  0.00  0.00    -0.029 C 
ATOM      4  H   LIG d   1       5.898  -2.986  -5.949  0.00  0.00     0.028 H 
ATOM      5  H   LIG d   1       4.466  -3.541  -5.049  0.00  0.00     0.028 H 
BRANCH   3   6
ATOM      6  C   LIG d   1       4.264  -3.639  -7.192  0.00  0.00     0.046 C 
ATOM      7  H   LIG d   1       3.419  -3.060  -7.566  0.00  0.00     0.038 H 
ATOM      8  H   LIG d   1       5.046  -3.669  -7.950  0.00  0.00     0.038 H 
BRANCH   6   9
ATOM      9  C   LIG d   1       3.812  -5.042  -6.879  0.00  0.00     0.307 C 
ATOM     10  O   LIG d   1       3.290  -5.714  -7.737  0.00  0.00    -0.251 OA
BRANCH   9  11
ATOM     11  O   LIG d   1       3.989  -5.545  -5.647  0.00  0.00    -0.465 OA
BRANCH  11  12
ATOM     12  C   LIG d   1       4.790  -6.750  -5.536  0.00  0.00     0.090 C 
ATOM     13  H   LIG d   1       4.625  -7.207  -4.559  0.00  0.00     0.069 H 
ATOM     14  H   LIG d   1       4.501  -7.452  -6.318  0.00  0.00     0.069 H 
BRANCH  12  15
ATOM     15  C   LIG d   1       6.270  -6.396  -5.690  0.00  0.00    -0.031 C 
ATOM     16  H   LIG d   1       6.734  -7.076  -6.404  0.00  0.00     0.026 H 
ATOM     17  H   LIG d   1       6.362  -5.371  -6.052  0.00  0.00     0.026 H 
ATOM     18  H   LIG d   1       6.768  -6.487  -4.725  0.00  0.00     0.026 H 
ENDBRANCH  12  15
ENDBRANCH  11  12
ENDBRANCH   9  11
ENDBRANCH   6   9
ENDBRANCH   3   6
ENDBRANCH   1   3
BRANCH   1  19
ATOM     19  C   LIG d   1       4.288  -1.099  -4.395  0.00  0.00    -0.037 A 
ATOM     20  C   LIG d   1       4.506  -2.019  -3.387  0.00  0.00    -0.058 A 
ATOM     21  C   LIG d   1       4.493  -1.613  -2.066  0.00  0.00    -0.061 A 
ATOM     22  H   LIG d   1       4.688  -3.055  -3.632  0.00  0.00     0.062 H 
ATOM     23  C   LIG d   1       4.261  -0.287  -1.752  0.00  0.00    -0.062 A 
ATOM     24  H   LIG d   1       4.663  -2.333  -1.277  0.00  0.00     0.062 H 
ATOM     25  C   LIG d   1       4.043   0.634  -2.760  0.00  0.00    -0.061 A 
ATOM     26  H   LIG d   1       4.249   0.030  -0.720  0.00  0.00     0.062 H 
ATOM     27  C   LIG d   1       4.061   0.228  -4.081  0.00  0.00    -0.058 A 
ATOM     28  H   LIG d   1       3.861   1.669  -2.516  0.00  0.00     0.062 H 
ATOM     29  H   LIG d   1       3.894   0.948  -4.869  0.00  0.00     0.062 H 
ENDBRANCH   1  19
BRANCH   1  30
ATOM     30  C   LIG d   1       5.217  -0.641  -6.627  0.00  0.00     0.171 C 
ATOM     31  O   LIG d   1       6.417  -0.702  -6.466  0.00  0.00    -0.291 OA
BRANCH  30  32
ATOM     32  C   LIG d   1       4.653   0.312  -7.596  0.00  0.00     0.018 A 
ATOM     33  C   LIG d   1       5.497   1.031  -8.449  0.00  0.00    -0.051 A 
ATOM     34  C   LIG d   1       4.962   1.924  -9.351  0.00  0.00    -0.061 A 
ATOM     35  H   LIG d   1       6.567   0.890  -8.397  0.00  0.00     0.062 H 
ATOM     36  C   LIG d   1       3.591   2.108  -9.418  0.00  0.00    -0.062 A 
ATOM     37  H   LIG d   1       5.612   2.484 -10.007  0.00  0.00     0.062 H 
ATOM     38  C   LIG d   1       2.748   1.397  -8.582  0.00  0.00    -0.061 A 
ATOM     39  H   LIG d   1       3.177   2.811 -10.128  0.00  0.00     0.062 H 
ATOM     40  C   LIG d   1       3.270   0.499  -7.674  0.00  0.00    -0.051 A 
ATOM     41  H   LIG d   1       1.680   1.547  -8.640  0.00  0.00     0.062 H 
ATOM     42  H   LIG d   1       2.610  -0.054  -7.021  0.00  0.00     0.062 H 
ENDBRANCH  30  32
ENDBRANCH   1  30
TORSDOF 9
ENDMDL
MODEL 3
REMARK VINA RESULT:      -5.7      1.848      6.333
REMARK  9 active torsions:
REMARK  status: ('A' for Active; 'I' for Inactive)
REMARK    1  A    between atoms: C_1  and  C_2 
REMARK    2  A    between atoms: C_2  and  O_3 
REMARK    3  A    between atoms: O_3  and  C_4 
REMARK    4  A    between atoms: C_4  and  C_6 
REMARK    5  A    between atoms: C_6  and  C_7 
REMARK    6  A    between atoms: C_7  and  C_8 
REMARK    7  A    between atoms: C_8  and  C_10 
REMARK    8  A    between atoms: C_8  and  C_16 
REMARK    9  A    between atoms: C_16  and  C_18 
ROOT
ATOM      1  C   LIG d   1       5.566  -2.512  -5.202  0.00  0.00     0.048 C 
ATOM      2  H   LIG d   1       5.110  -2.960  -5.970  0.00  0.00     0.043 H 
ENDROOT
BRANCH   1   3
ATOM      3  C   LIG d   1       6.011  -1.109  -5.619  0.00  0.00    -0.029 C 
ATOM      4  H   LIG d   1       5.363  -0.368  -5.151  0.00  0.00     0.028 H 
ATOM      5  H   LIG d   1       7.041  -0.944  -5.300  0.00  0.00     0.028 H 
BRANCH   3   6
ATOM      6  C   LIG d   1       5.922  -0.978  -7.141  0.00  0.00     0.046 C 
ATOM      7  H   LIG d   1       6.779  -0.413  -7.508  0.00  0.00     0.038 H 
ATOM      8  H   LIG d   1       5.920  -1.970  -7.592  0.00  0.00     0.038 H 
BRANCH   6   9
ATOM      9  C   LIG d   1       4.651  -0.256  -7.509  0.00  0.00     0.307 C 
ATOM     10  O   LIG d   1       3.626  -0.878  -7.663  0.00  0.00    -0.251 OA
BRANCH   9  11
ATOM     11  O   LIG d   1       4.657   1.077  -7.667  0.00  0.00    -0.465 OA
BRANCH  11  12
ATOM     12  C   LIG d   1       5.003   1.583  -8.983  0.00  0.00     0.090 C 
ATOM     13  H   LIG d   1       5.931   2.153  -8.921  0.00  0.00     0.069 H 
ATOM     14  H   LIG d   1       5.136   0.747  -9.671  0.00  0.00     0.069 H 
BRANCH  12  15
ATOM     15  C   LIG d   1       3.881   2.489  -9.493  0.00  0.00    -0.031 C 
ATOM     16  H   LIG d   1       4.040   3.503  -9.129  0.00  0.00     0.026 H 
ATOM     17  H   LIG d   1       3.882   2.490 -10.583  0.00  0.00     0.026 H 
ATOM     18  H   LIG d   1       2.922   2.118  -9.131  0.00  0.00     0.026 H 
ENDBRANCH  12  15
ENDBRANCH  11  12
ENDBRANCH   9  11
ENDBRANCH   6   9
ENDBRANCH   3   6
ENDBRANCH   1   3
BRANCH   1  19
ATOM     19  C   LIG d   1       6.770  -3.320  -4.792  0.00  0.00    -0.037 A 
ATOM     20  C   LIG d   1       6.988  -4.567  -5.347  0.00  0.00    -0.058 A 
ATOM     21  C   LIG d   1       8.092  -5.308  -4.973  0.00  0.00    -0.061 A 
ATOM     22  H   LIG d   1       6.294  -4.962  -6.075  0.00  0.00     0.062 H 
ATOM     23  C   LIG d   1       8.980  -4.803  -4.042  0.00  0.00    -0.062 A 
ATOM     24  H   LIG d   1       8.262  -6.283  -5.406  0.00  0.00     0.062 H 
ATOM     25  C   LIG d   1       8.764  -3.555  -3.486  0.00  0.00    -0.061 A 
ATOM     26  H   LIG d   1       9.843  -5.382  -3.748  0.00  0.00     0.062 H 
ATOM     27  C   LIG d   1       7.661  -2.812  -3.865  0.00  0.00    -0.058 A 
ATOM     28  H   LIG d   1       9.457  -3.160  -2.759  0.00  0.00     0.062 H 
ATOM     29  H   LIG d   1       7.494  -1.836  -3.433  0.00  0.00     0.062 H 
ENDBRANCH   1  19
BRANCH   1  30
ATOM     30  C   LIG d   1       4.611  -2.411  -4.040  0.00  0.00     0.171 C 
ATOM     31  O   LIG d   1       4.102  -3.413  -3.585  0.00  0.00    -0.291 OA
BRANCH  30  32
ATOM     32  C   LIG d   1       4.296  -1.097  -3.458  0.00  0.00     0.018 A 
ATOM     33  C   LIG d   1       4.918  -0.685  -2.274  0.00  0.00    -0.051 A 
ATOM     34  C   LIG d   1       4.616   0.546  -1.733  0.00  0.00    -0.061 A 
ATOM     35  H   LIG d   1       5.630  -1.332  -1.783  0.00  0.00     0.062 H 
ATOM     36  C   LIG d   1       3.702   1.376  -2.360  0.00  0.00    -0.062 A 
ATOM     37  H   LIG d   1       5.091   0.864  -0.817  0.00  0.00     0.062 H 
ATOM     38  C   LIG d   1       3.086   0.978  -3.534  0.00  0.00    -0.061 A 
ATOM     39  H   LIG d   1       3.468   2.340  -1.930  0.00  0.00     0.062 H 
ATOM     40  C   LIG d   1       3.379  -0.250  -4.088  0.00  0.00    -0.051 A 
ATOM     41  H   LIG d   1       2.374   1.632  -4.017  0.00  0.00     0.062 H 
ATOM     42  H   LIG d   1       2.897  -0.559  -5.004  0.00  0.00     0.062 H 
ENDBRANCH  30  32
ENDBRANCH   1  30
TORSDOF 9
ENDMDL
MODEL 4
REMARK VINA RESULT:      -5.6      2.288      4.729
REMARK  9 active torsions:
REMARK  status: ('A' for Active; 'I' for Inactive)
REMARK    1  A    between atoms: C_1  and  C_2 
REMARK    2  A    between atoms: C_2  and  O_3 
REMARK    3  A    between atoms: O_3  and  C_4 
REMARK    4  A    between atoms: C_4  and  C_6 
REMARK    5  A    between atoms: C_6  and  C_7 
REMARK    6  A    between atoms: C_7  and  C_8 
REMARK    7  A    between atoms: C_8  and  C_10 
REMARK    8  A    between atoms: C_8  and  C_16 
REMARK    9  A    between atoms: C_16  and  C_18 
ROOT
ATOM      1  C   LIG d   1       5.250  -0.690  -7.260  0.00  0.00     0.048 C 
ATOM      2  H   LIG d   1       6.072  -0.991  -7.743  0.00  0.00     0.043 H 
ENDROOT
BRANCH   1   3
ATOM      3  C   LIG d   1       4.230  -1.830  -7.231  0.00  0.00    -0.029 C 
ATOM      4  H   LIG d   1       4.361  -2.413  -6.320  0.00  0.00     0.028 H 
ATOM      5  H   LIG d   1       3.221  -1.416  -7.256  0.00  0.00     0.028 H 
BRANCH   3   6
ATOM      6  C   LIG d   1       4.440  -2.733  -8.449  0.00  0.00     0.046 C 
ATOM      7  H   LIG d   1       5.117  -2.246  -9.151  0.00  0.00     0.038 H 
ATOM      8  H   LIG d   1       4.871  -3.681  -8.128  0.00  0.00     0.038 H 
BRANCH   6   9
ATOM      9  C   LIG d   1       3.115  -2.985  -9.122  0.00  0.00     0.307 C 
ATOM     10  O   LIG d   1       2.794  -4.110  -9.423  0.00  0.00    -0.251 OA
BRANCH   9  11
ATOM     11  O   LIG d   1       2.292  -1.958  -9.389  0.00  0.00    -0.465 OA
BRANCH  11  12
ATOM     12  C   LIG d   1       2.019  -1.678 -10.787  0.00  0.00     0.090 C 
ATOM     13  H   LIG d   1       2.201  -2.576 -11.380  0.00  0.00     0.069 H 
ATOM     14  H   LIG d   1       0.978  -1.374 -10.900  0.00  0.00     0.069 H 
BRANCH  12  15
ATOM     15  C   LIG d   1       2.935  -0.553 -11.271  0.00  0.00    -0.031 C 
ATOM     16  H   LIG d   1       2.456  -0.023 -12.094  0.00  0.00     0.026 H 
ATOM     17  H   LIG d   1       3.120   0.142 -10.451  0.00  0.00     0.026 H 
ATOM     18  H   LIG d   1       3.881  -0.975 -11.610  0.00  0.00     0.026 H 
ENDBRANCH  12  15
ENDBRANCH  11  12
ENDBRANCH   9  11
ENDBRANCH   6   9
ENDBRANCH   3   6
ENDBRANCH   1   3
BRANCH   1  19
ATOM     19  C   LIG d   1       4.656   0.498  -7.972  0.00  0.00    -0.037 A 
ATOM     20  C   LIG d   1       5.446   1.276  -8.797  0.00  0.00    -0.058 A 
ATOM     21  C   LIG d   1       4.901   2.365  -9.449  0.00  0.00    -0.061 A 
ATOM     22  H   LIG d   1       6.489   1.031  -8.932  0.00  0.00     0.062 H 
ATOM     23  C   LIG d   1       3.566   2.677  -9.277  0.00  0.00    -0.062 A 
ATOM     24  H   LIG d   1       5.519   2.974 -10.094  0.00  0.00     0.062 H 
ATOM     25  C   LIG d   1       2.774   1.899  -8.453  0.00  0.00    -0.061 A 
ATOM     26  H   LIG d   1       3.140   3.529  -9.787  0.00  0.00     0.062 H 
ATOM     27  C   LIG d   1       3.319   0.807  -7.803  0.00  0.00    -0.058 A 
ATOM     28  H   LIG d   1       1.732   2.143  -8.317  0.00  0.00     0.062 H 
ATOM     29  H   LIG d   1       2.700   0.197  -7.161  0.00  0.00     0.062 H 
ENDBRANCH   1  19
BRANCH   1  30
ATOM     30  C   LIG d   1       5.609  -0.303  -5.849  0.00  0.00     0.171 C 
ATOM     31  O   LIG d   1       6.584   0.387  -5.639  0.00  0.00    -0.291 OA
BRANCH  30  32
ATOM     32  C   LIG d   1       4.777  -0.760  -4.725  0.00  0.00     0.018 A 
ATOM     33  C   LIG d   1       5.130  -1.911  -4.011  0.00  0.00    -0.051 A 
ATOM     34  C   LIG d   1       4.344  -2.336  -2.963  0.00  0.00    -0.061 A 
ATOM     35  H   LIG d   1       6.015  -2.467  -4.284  0.00  0.00     0.062 H 
ATOM     36  C   LIG d   1       3.209  -1.625  -2.612  0.00  0.00    -0.062 A 
ATOM     37  H   LIG d   1       4.612  -3.226  -2.413  0.00  0.00     0.062 H 
ATOM     38  C   LIG d   1       2.855  -0.483  -3.310  0.00  0.00    -0.061 A 
ATOM     39  H   LIG d   1       2.596  -1.964  -1.789  0.00  0.00     0.062 H 
ATOM     40  C   LIG d   1       3.632  -0.046  -4.361  0.00  0.00    -0.051 A 
ATOM     41  H   LIG d   1       1.967   0.065  -3.030  0.00  0.00     0.062 H 
ATOM     42  H   LIG d   1       3.354   0.845  -4.905  0.00  0.00     0.062 H 
ENDBRANCH  30  32
ENDBRANCH   1  30
TORSDOF 9
ENDMDL
MODEL 5
REMARK VINA RESULT:      -5.6      2.225      4.076
REMARK  9 active torsions:
REMARK  status: ('A' for Active; 'I' for Inactive)
REMARK    1  A    between atoms: C_1  and  C_2 
REMARK    2  A    between atoms: C_2  and  O_3 
REMARK    3  A    between atoms: O_3  and  C_4 
REMARK    4  A    between atoms: C_4  and  C_6 
REMARK    5  A    between atoms: C_6  and  C_7 
REMARK    6  A    between atoms: C_7  and  C_8 
REMARK    7  A    between atoms: C_8  and  C_10 
REMARK    8  A    between atoms: C_8  and  C_16 
REMARK    9  A    between atoms: C_16  and  C_18 
ROOT
ATOM      1  C   LIG d   1       5.210  -0.844  -7.239  0.00  0.00     0.048 C 
ATOM      2  H   LIG d   1       6.030  -1.163  -7.714  0.00  0.00     0.043 H 
ENDROOT
BRANCH   1   3
ATOM      3  C   LIG d   1       4.186  -1.979  -7.171  0.00  0.00    -0.029 C 
ATOM      4  H   LIG d   1       3.737  -2.006  -6.178  0.00  0.00     0.028 H 
ATOM      5  H   LIG d   1       3.407  -1.811  -7.917  0.00  0.00     0.028 H 
BRANCH   3   6
ATOM      6  C   LIG d   1       4.883  -3.312  -7.453  0.00  0.00     0.046 C 
ATOM      7  H   LIG d   1       5.410  -3.253  -8.405  0.00  0.00     0.038 H 
ATOM      8  H   LIG d   1       5.595  -3.525  -6.657  0.00  0.00     0.038 H 
BRANCH   6   9
ATOM      9  C   LIG d   1       3.855  -4.413  -7.516  0.00  0.00     0.307 C 
ATOM     10  O   LIG d   1       3.338  -4.696  -8.571  0.00  0.00    -0.251 OA
BRANCH   9  11
ATOM     11  O   LIG d   1       3.514  -5.077  -6.401  0.00  0.00    -0.465 OA
BRANCH  11  12
ATOM     12  C   LIG d   1       4.587  -5.433  -5.491  0.00  0.00     0.090 C 
ATOM     13  H   LIG d   1       5.460  -4.813  -5.697  0.00  0.00     0.069 H 
ATOM     14  H   LIG d   1       4.262  -5.271  -4.463  0.00  0.00     0.069 H 
BRANCH  12  15
ATOM     15  C   LIG d   1       4.952  -6.906  -5.683  0.00  0.00    -0.031 C 
ATOM     16  H   LIG d   1       4.075  -7.456  -6.024  0.00  0.00     0.026 H 
ATOM     17  H   LIG d   1       5.744  -6.990  -6.428  0.00  0.00     0.026 H 
ATOM     18  H   LIG d   1       5.298  -7.322  -4.737  0.00  0.00     0.026 H 
ENDBRANCH  12  15
ENDBRANCH  11  12
ENDBRANCH   9  11
ENDBRANCH   6   9
ENDBRANCH   3   6
ENDBRANCH   1   3
BRANCH   1  19
ATOM     19  C   LIG d   1       4.618   0.323  -7.986  0.00  0.00    -0.037 A 
ATOM     20  C   LIG d   1       3.256   0.550  -7.948  0.00  0.00    -0.058 A 
ATOM     21  C   LIG d   1       2.714   1.621  -8.633  0.00  0.00    -0.061 A 
ATOM     22  H   LIG d   1       2.615  -0.110  -7.382  0.00  0.00     0.062 H 
ATOM     23  C   LIG d   1       3.534   2.465  -9.357  0.00  0.00    -0.062 A 
ATOM     24  H   LIG d   1       1.648   1.798  -8.603  0.00  0.00     0.062 H 
ATOM     25  C   LIG d   1       4.897   2.239  -9.396  0.00  0.00    -0.061 A 
ATOM     26  H   LIG d   1       3.110   3.301  -9.893  0.00  0.00     0.062 H 
ATOM     27  C   LIG d   1       5.440   1.170  -8.707  0.00  0.00    -0.058 A 
ATOM     28  H   LIG d   1       5.538   2.897  -9.962  0.00  0.00     0.062 H 
ATOM     29  H   LIG d   1       6.505   0.995  -8.734  0.00  0.00     0.062 H 
ENDBRANCH   1  19
BRANCH   1  30
ATOM     30  C   LIG d   1       5.574  -0.413  -5.841  0.00  0.00     0.171 C 
ATOM     31  O   LIG d   1       6.563   0.262  -5.654  0.00  0.00    -0.291 OA
BRANCH  30  32
ATOM     32  C   LIG d   1       4.728  -0.811  -4.704  0.00  0.00     0.018 A 
ATOM     33  C   LIG d   1       3.596  -0.058  -4.373  0.00  0.00    -0.051 A 
ATOM     34  C   LIG d   1       2.811  -0.434  -3.305  0.00  0.00    -0.061 A 
ATOM     35  H   LIG d   1       3.340   0.818  -4.951  0.00  0.00     0.062 H 
ATOM     36  C   LIG d   1       3.138  -1.556  -2.563  0.00  0.00    -0.062 A 
ATOM     37  H   LIG d   1       1.939   0.148  -3.045  0.00  0.00     0.062 H 
ATOM     38  C   LIG d   1       4.254  -2.308  -2.886  0.00  0.00    -0.061 A 
ATOM     39  H   LIG d   1       2.519  -1.845  -1.725  0.00  0.00     0.062 H 
ATOM     40  C   LIG d   1       5.049  -1.945  -3.953  0.00  0.00    -0.051 A 
ATOM     41  H   LIG d   1       4.502  -3.182  -2.301  0.00  0.00     0.062 H 
ATOM     42  H   LIG d   1       5.919  -2.533  -4.204  0.00  0.00     0.062 H 
ENDBRANCH  30  32
ENDBRANCH   1  30
TORSDOF 9
ENDMDL
MODEL 6
REMARK VINA RESULT:      -5.5      2.210      6.036
REMARK  9 active torsions:
REMARK  status: ('A' for Active; 'I' for Inactive)
REMARK    1  A    between atoms: C_1  and  C_2 
REMARK    2  A    between atoms: C_2  and  O_3 
REMARK    3  A    between atoms: O_3  and  C_4 
REMARK    4  A    between atoms: C_4  and  C_6 
REMARK    5  A    between atoms: C_6  and  C_7 
REMARK    6  A    between atoms: C_7  and  C_8 
REMARK    7  A    between atoms: C_8  and  C_10 
REMARK    8  A    between atoms: C_8  and  C_16 
REMARK    9  A    between atoms: C_16  and  C_18 
ROOT
ATOM      1  C   LIG d   1       5.587  -2.492  -5.191  0.00  0.00     0.048 C 
ATOM      2  H   LIG d   1       5.132  -2.917  -5.973  0.00  0.00     0.043 H 
ENDROOT
BRANCH   1   3
ATOM      3  C   LIG d   1       6.054  -1.086  -5.573  0.00  0.00    -0.029 C 
ATOM      4  H   LIG d   1       5.408  -0.346  -5.101  0.00  0.00     0.028 H 
ATOM      5  H   LIG d   1       7.081  -0.940  -5.235  0.00  0.00     0.028 H 
BRANCH   3   6
ATOM      6  C   LIG d   1       5.990  -0.924  -7.094  0.00  0.00     0.046 C 
ATOM      7  H   LIG d   1       6.712  -0.171  -7.409  0.00  0.00     0.038 H 
ATOM      8  H   LIG d   1       6.225  -1.875  -7.570  0.00  0.00     0.038 H 
BRANCH   6   9
ATOM      9  C   LIG d   1       4.604  -0.489  -7.494  0.00  0.00     0.307 C 
ATOM     10  O   LIG d   1       4.267   0.663  -7.351  0.00  0.00    -0.251 OA
BRANCH   9  11
ATOM     11  O   LIG d   1       3.743  -1.381  -8.008  0.00  0.00    -0.465 OA
BRANCH  11  12
ATOM     12  C   LIG d   1       4.311  -2.503  -8.733  0.00  0.00     0.090 C 
ATOM     13  H   LIG d   1       4.021  -2.442  -9.783  0.00  0.00     0.069 H 
ATOM     14  H   LIG d   1       5.398  -2.474  -8.654  0.00  0.00     0.069 H 
BRANCH  12  15
ATOM     15  C   LIG d   1       3.790  -3.812  -8.137  0.00  0.00    -0.031 C 
ATOM     16  H   LIG d   1       4.184  -4.653  -8.708  0.00  0.00     0.026 H 
ATOM     17  H   LIG d   1       4.117  -3.893  -7.100  0.00  0.00     0.026 H 
ATOM     18  H   LIG d   1       2.702  -3.822  -8.177  0.00  0.00     0.026 H 
ENDBRANCH  12  15
ENDBRANCH  11  12
ENDBRANCH   9  11
ENDBRANCH   6   9
ENDBRANCH   3   6
ENDBRANCH   1   3
BRANCH   1  19
ATOM     19  C   LIG d   1       6.776  -3.325  -4.787  0.00  0.00    -0.037 A 
ATOM     20  C   LIG d   1       7.679  -2.839  -3.861  0.00  0.00    -0.058 A 
ATOM     21  C   LIG d   1       8.769  -3.603  -3.491  0.00  0.00    -0.061 A 
ATOM     22  H   LIG d   1       7.532  -1.861  -3.426  0.00  0.00     0.062 H 
ATOM     23  C   LIG d   1       8.957  -4.854  -4.047  0.00  0.00    -0.062 A 
ATOM     24  H   LIG d   1       9.475  -3.223  -2.767  0.00  0.00     0.062 H 
ATOM     25  C   LIG d   1       8.054  -5.342  -4.973  0.00  0.00    -0.061 A 
ATOM     26  H   LIG d   1       9.809  -5.451  -3.759  0.00  0.00     0.062 H 
ATOM     27  C   LIG d   1       6.961  -4.579  -5.340  0.00  0.00    -0.058 A 
ATOM     28  H   LIG d   1       8.201  -6.318  -5.409  0.00  0.00     0.062 H 
ATOM     29  H   LIG d   1       6.254  -4.961  -6.062  0.00  0.00     0.062 H 
ENDBRANCH   1  19
BRANCH   1  30
ATOM     30  C   LIG d   1       4.621  -2.403  -4.036  0.00  0.00     0.171 C 
ATOM     31  O   LIG d   1       4.109  -3.409  -3.596  0.00  0.00    -0.291 OA
BRANCH  30  32
ATOM     32  C   LIG d   1       4.301  -1.095  -3.443  0.00  0.00     0.018 A 
ATOM     33  C   LIG d   1       3.379  -0.247  -4.066  0.00  0.00    -0.051 A 
ATOM     34  C   LIG d   1       3.087   0.978  -3.508  0.00  0.00    -0.061 A 
ATOM     35  H   LIG d   1       2.900  -0.550  -4.986  0.00  0.00     0.062 H 
ATOM     36  C   LIG d   1       3.701   1.369  -2.330  0.00  0.00    -0.062 A 
ATOM     37  H   LIG d   1       2.379   1.636  -3.989  0.00  0.00     0.062 H 
ATOM     38  C   LIG d   1       4.611   0.535  -1.704  0.00  0.00    -0.061 A 
ATOM     39  H   LIG d   1       3.468   2.332  -1.897  0.00  0.00     0.062 H 
ATOM     40  C   LIG d   1       4.913  -0.695  -2.252  0.00  0.00    -0.051 A 
ATOM     41  H   LIG d   1       5.086   0.848  -0.786  0.00  0.00     0.062 H 
ATOM     42  H   LIG d   1       5.623  -1.344  -1.763  0.00  0.00     0.062 H 
ENDBRANCH  30  32
ENDBRANCH   1  30
TORSDOF 9
ENDMDL
MODEL 7
REMARK VINA RESULT:      -5.5      2.275      5.868
REMARK  9 active torsions:
REMARK  status: ('A' for Active; 'I' for Inactive)
REMARK    1  A    between atoms: C_1  and  C_2 
REMARK    2  A    between atoms: C_2  and  O_3 
REMARK    3  A    between atoms: O_3  and  C_4 
REMARK    4  A    between atoms: C_4  and  C_6 
REMARK    5  A    between atoms: C_6  and  C_7 
REMARK    6  A    between atoms: C_7  and  C_8 
REMARK    7  A    between atoms: C_8  and  C_10 
REMARK    8  A    between atoms: C_8  and  C_16 
REMARK    9  A    between atoms: C_16  and  C_18 
ROOT
ATOM      1  C   LIG d   1       4.397  -1.348  -5.464  0.00  0.00     0.048 C 
ATOM      2  H   LIG d   1       3.501  -1.775  -5.588  0.00  0.00     0.043 H 
ENDROOT
BRANCH   1   3
ATOM      3  C   LIG d   1       5.467  -2.435  -5.341  0.00  0.00    -0.029 C 
ATOM      4  H   LIG d   1       5.905  -2.626  -6.321  0.00  0.00     0.028 H 
ATOM      5  H   LIG d   1       6.246  -2.102  -4.654  0.00  0.00     0.028 H 
BRANCH   3   6
ATOM      6  C   LIG d   1       4.830  -3.720  -4.807  0.00  0.00     0.046 C 
ATOM      7  H   LIG d   1       5.508  -4.193  -4.097  0.00  0.00     0.038 H 
ATOM      8  H   LIG d   1       3.892  -3.480  -4.309  0.00  0.00     0.038 H 
BRANCH   6   9
ATOM      9  C   LIG d   1       4.566  -4.663  -5.952  0.00  0.00     0.307 C 
ATOM     10  O   LIG d   1       3.489  -5.201  -6.056  0.00  0.00    -0.251 OA
BRANCH   9  11
ATOM     11  O   LIG d   1       5.528  -4.907  -6.857  0.00  0.00    -0.465 OA
BRANCH  11  12
ATOM     12  C   LIG d   1       5.184  -4.713  -8.254  0.00  0.00     0.090 C 
ATOM     13  H   LIG d   1       5.261  -5.664  -8.783  0.00  0.00     0.069 H 
ATOM     14  H   LIG d   1       4.162  -4.339  -8.328  0.00  0.00     0.069 H 
BRANCH  12  15
ATOM     15  C   LIG d   1       6.144  -3.701  -8.881  0.00  0.00    -0.031 C 
ATOM     16  H   LIG d   1       7.126  -4.158  -9.000  0.00  0.00     0.026 H 
ATOM     17  H   LIG d   1       5.765  -3.397  -9.857  0.00  0.00     0.026 H 
ATOM     18  H   LIG d   1       6.224  -2.827  -8.234  0.00  0.00     0.026 H 
ENDBRANCH  12  15
ENDBRANCH  11  12
ENDBRANCH   9  11
ENDBRANCH   6   9
ENDBRANCH   3   6
ENDBRANCH   1   3
BRANCH   1  19
ATOM     19  C   LIG d   1       4.385  -0.510  -4.212  0.00  0.00    -0.037 A 
ATOM     20  C   LIG d   1       3.210   0.075  -3.782  0.00  0.00    -0.058 A 
ATOM     21  C   LIG d   1       3.199   0.843  -2.634  0.00  0.00    -0.061 A 
ATOM     22  H   LIG d   1       2.298  -0.070  -4.344  0.00  0.00     0.062 H 
ATOM     23  C   LIG d   1       4.365   1.028  -1.915  0.00  0.00    -0.062 A 
ATOM     24  H   LIG d   1       2.280   1.301  -2.298  0.00  0.00     0.062 H 
ATOM     25  C   LIG d   1       5.542   0.443  -2.344  0.00  0.00    -0.061 A 
ATOM     26  H   LIG d   1       4.357   1.629  -1.018  0.00  0.00     0.062 H 
ATOM     27  C   LIG d   1       5.551  -0.329  -3.491  0.00  0.00    -0.058 A 
ATOM     28  H   LIG d   1       6.453   0.588  -1.784  0.00  0.00     0.062 H 
ATOM     29  H   LIG d   1       6.470  -0.789  -3.824  0.00  0.00     0.062 H 
ENDBRANCH   1  19
BRANCH   1  30
ATOM     30  C   LIG d   1       4.703  -0.473  -6.652  0.00  0.00     0.171 C 
ATOM     31  O   LIG d   1       5.749   0.137  -6.701  0.00  0.00    -0.291 OA
BRANCH  30  32
ATOM     32  C   LIG d   1       3.733  -0.360  -7.753  0.00  0.00     0.018 A 
ATOM     33  C   LIG d   1       3.309   0.900  -8.190  0.00  0.00    -0.051 A 
ATOM     34  C   LIG d   1       2.397   0.998  -9.218  0.00  0.00    -0.061 A 
ATOM     35  H   LIG d   1       3.692   1.793  -7.718  0.00  0.00     0.062 H 
ATOM     36  C   LIG d   1       1.905  -0.146  -9.823  0.00  0.00    -0.062 A 
ATOM     37  H   LIG d   1       2.065   1.970  -9.554  0.00  0.00     0.062 H 
ATOM     38  C   LIG d   1       2.323  -1.396  -9.400  0.00  0.00    -0.061 A 
ATOM     39  H   LIG d   1       1.189  -0.062 -10.628  0.00  0.00     0.062 H 
ATOM     40  C   LIG d   1       3.235  -1.510  -8.372  0.00  0.00    -0.051 A 
ATOM     41  H   LIG d   1       1.933  -2.283  -9.876  0.00  0.00     0.062 H 
ATOM     42  H   LIG d   1       3.560  -2.486  -8.043  0.00  0.00     0.062 H 
ENDBRANCH  30  32
ENDBRANCH   1  30
TORSDOF 9
ENDMDL
MODEL 8
REMARK VINA RESULT:      -5.5      2.244      4.100
REMARK  9 active torsions:
REMARK  status: ('A' for Active; 'I' for Inactive)
REMARK    1  A    between atoms: C_1  and  C_2 
REMARK    2  A    between atoms: C_2  and  O_3 
REMARK    3  A    between atoms: O_3  and  C_4 
REMARK    4  A    between atoms: C_4  and  C_6 
REMARK    5  A    between atoms: C_6  and  C_7 
REMARK    6  A    between atoms: C_7  and  C_8 
REMARK    7  A    between atoms: C_8  and  C_10 
REMARK    8  A    between atoms: C_8  and  C_16 
REMARK    9  A    between atoms: C_16  and  C_18 
ROOT
ATOM      1  C   LIG d   1       5.836  -1.201  -4.030  0.00  0.00     0.048 C 
ATOM      2  H   LIG d   1       5.070  -1.305  -4.664  0.00  0.00     0.043 H 
ENDROOT
BRANCH   1   3
ATOM      3  C   LIG d   1       5.302  -0.937  -2.621  0.00  0.00    -0.029 C 
ATOM      4  H   LIG d   1       5.534  -1.787  -1.979  0.00  0.00     0.028 H 
ATOM      5  H   LIG d   1       5.770  -0.038  -2.218  0.00  0.00     0.028 H 
BRANCH   3   6
ATOM      6  C   LIG d   1       3.785  -0.740  -2.680  0.00  0.00     0.046 C 
ATOM      7  H   LIG d   1       3.377  -1.314  -3.512  0.00  0.00     0.038 H 
ATOM      8  H   LIG d   1       3.339  -1.084  -1.748  0.00  0.00     0.038 H 
BRANCH   6   9
ATOM      9  C   LIG d   1       3.476   0.721  -2.878  0.00  0.00     0.307 C 
ATOM     10  O   LIG d   1       3.475   1.472  -1.932  0.00  0.00    -0.251 OA
BRANCH   9  11
ATOM     11  O   LIG d   1       3.200   1.188  -4.106  0.00  0.00    -0.465 OA
BRANCH  11  12
ATOM     12  C   LIG d   1       2.419   0.329  -4.978  0.00  0.00     0.090 C 
ATOM     13  H   LIG d   1       2.247  -0.629  -4.486  0.00  0.00     0.069 H 
ATOM     14  H   LIG d   1       1.461   0.804  -5.194  0.00  0.00     0.069 H 
BRANCH  12  15
ATOM     15  C   LIG d   1       3.180   0.101  -6.285  0.00  0.00    -0.031 C 
ATOM     16  H   LIG d   1       4.248   0.040  -6.077  0.00  0.00     0.026 H 
ATOM     17  H   LIG d   1       2.846  -0.831  -6.741  0.00  0.00     0.026 H 
ATOM     18  H   LIG d   1       2.989   0.929  -6.967  0.00  0.00     0.026 H 
ENDBRANCH  12  15
ENDBRANCH  11  12
ENDBRANCH   9  11
ENDBRANCH   6   9
ENDBRANCH   3   6
ENDBRANCH   1   3
BRANCH   1  19
ATOM     19  C   LIG d   1       6.695  -0.043  -4.468  0.00  0.00    -0.037 A 
ATOM     20  C   LIG d   1       7.093   0.064  -5.787  0.00  0.00    -0.058 A 
ATOM     21  C   LIG d   1       7.880   1.127  -6.188  0.00  0.00    -0.061 A 
ATOM     22  H   LIG d   1       6.787  -0.683  -6.504  0.00  0.00     0.062 H 
ATOM     23  C   LIG d   1       8.270   2.083  -5.270  0.00  0.00    -0.062 A 
ATOM     24  H   LIG d   1       8.191   1.210  -7.219  0.00  0.00     0.062 H 
ATOM     25  C   LIG d   1       7.873   1.978  -3.950  0.00  0.00    -0.061 A 
ATOM     26  H   LIG d   1       8.886   2.913  -5.583  0.00  0.00     0.062 H 
ATOM     27  C   LIG d   1       7.082   0.917  -3.550  0.00  0.00    -0.058 A 
ATOM     28  H   LIG d   1       8.178   2.724  -3.232  0.00  0.00     0.062 H 
ATOM     29  H   LIG d   1       6.768   0.836  -2.519  0.00  0.00     0.062 H 
ENDBRANCH   1  19
BRANCH   1  30
ATOM     30  C   LIG d   1       6.660  -2.463  -4.027  0.00  0.00     0.171 C 
ATOM     31  O   LIG d   1       7.687  -2.515  -3.385  0.00  0.00    -0.291 OA
BRANCH  30  32
ATOM     32  C   LIG d   1       6.217  -3.633  -4.802  0.00  0.00     0.018 A 
ATOM     33  C   LIG d   1       4.879  -3.752  -5.193  0.00  0.00    -0.051 A 
ATOM     34  C   LIG d   1       4.471  -4.852  -5.916  0.00  0.00    -0.061 A 
ATOM     35  H   LIG d   1       4.167  -2.985  -4.926  0.00  0.00     0.062 H 
ATOM     36  C   LIG d   1       5.382  -5.836  -6.259  0.00  0.00    -0.062 A 
ATOM     37  H   LIG d   1       3.437  -4.948  -6.215  0.00  0.00     0.062 H 
ATOM     38  C   LIG d   1       6.708  -5.724  -5.880  0.00  0.00    -0.061 A 
ATOM     39  H   LIG d   1       5.055  -6.697  -6.825  0.00  0.00     0.062 H 
ATOM     40  C   LIG d   1       7.132  -4.629  -5.157  0.00  0.00    -0.051 A 
ATOM     41  H   LIG d   1       7.413  -6.497  -6.150  0.00  0.00     0.062 H 
ATOM     42  H   LIG d   1       8.167  -4.543  -4.861  0.00  0.00     0.062 H 
ENDBRANCH  30  32
ENDBRANCH   1  30
TORSDOF 9
ENDMDL
MODEL 9
REMARK VINA RESULT:      -5.5      2.214      6.072
REMARK  9 active torsions:
REMARK  status: ('A' for Active; 'I' for Inactive)
REMARK    1  A    between atoms: C_1  and  C_2 
REMARK    2  A    between atoms: C_2  and  O_3 
REMARK    3  A    between atoms: O_3  and  C_4 
REMARK    4  A    between atoms: C_4  and  C_6 
REMARK    5  A    between atoms: C_6  and  C_7 
REMARK    6  A    between atoms: C_7  and  C_8 
REMARK    7  A    between atoms: C_8  and  C_10 
REMARK    8  A    between atoms: C_8  and  C_16 
REMARK    9  A    between atoms: C_16  and  C_18 
ROOT
ATOM      1  C   LIG d   1       5.009  -0.913  -6.066  0.00  0.00     0.048 C 
ATOM      2  H   LIG d   1       5.137  -1.839  -6.421  0.00  0.00     0.043 H 
ENDROOT
BRANCH   1   3
ATOM      3  C   LIG d   1       6.248  -0.072  -6.376  0.00  0.00    -0.029 C 
ATOM      4  H   LIG d   1       5.989   0.987  -6.336  0.00  0.00     0.028 H 
ATOM      5  H   LIG d   1       7.025  -0.284  -5.641  0.00  0.00     0.028 H 
BRANCH   3   6
ATOM      6  C   LIG d   1       6.763  -0.418  -7.776  0.00  0.00     0.046 C 
ATOM      7  H   LIG d   1       7.829  -0.635  -7.727  0.00  0.00     0.038 H 
ATOM      8  H   LIG d   1       6.231  -1.291  -8.152  0.00  0.00     0.038 H 
BRANCH   6   9
ATOM      9  C   LIG d   1       6.531   0.750  -8.699  0.00  0.00     0.307 C 
ATOM     10  O   LIG d   1       6.270   1.838  -8.243  0.00  0.00    -0.251 OA
BRANCH   9  11
ATOM     11  O   LIG d   1       6.613   0.581 -10.028  0.00  0.00    -0.465 OA
BRANCH  11  12
ATOM     12  C   LIG d   1       5.726  -0.402 -10.624  0.00  0.00     0.090 C 
ATOM     13  H   LIG d   1       6.293  -1.034 -11.309  0.00  0.00     0.069 H 
ATOM     14  H   LIG d   1       5.288  -1.019  -9.839  0.00  0.00     0.069 H 
BRANCH  12  15
ATOM     15  C   LIG d   1       4.613   0.313 -11.392  0.00  0.00    -0.031 C 
ATOM     16  H   LIG d   1       4.945   0.511 -12.411  0.00  0.00     0.026 H 
ATOM     17  H   LIG d   1       3.725  -0.319 -11.416  0.00  0.00     0.026 H 
ATOM     18  H   LIG d   1       4.377   1.254 -10.897  0.00  0.00     0.026 H 
ENDBRANCH  12  15
ENDBRANCH  11  12
ENDBRANCH   9  11
ENDBRANCH   6   9
ENDBRANCH   3   6
ENDBRANCH   1   3
BRANCH   1  19
ATOM     19  C   LIG d   1       4.800  -0.971  -4.575  0.00  0.00    -0.037 A 
ATOM     20  C   LIG d   1       4.086  -2.014  -4.017  0.00  0.00    -0.058 A 
ATOM     21  C   LIG d   1       3.895  -2.067  -2.649  0.00  0.00    -0.061 A 
ATOM     22  H   LIG d   1       3.678  -2.788  -4.649  0.00  0.00     0.062 H 
ATOM     23  C   LIG d   1       4.418  -1.076  -1.839  0.00  0.00    -0.062 A 
ATOM     24  H   LIG d   1       3.336  -2.882  -2.212  0.00  0.00     0.062 H 
ATOM     25  C   LIG d   1       5.132  -0.033  -2.397  0.00  0.00    -0.061 A 
ATOM     26  H   LIG d   1       4.268  -1.117  -0.771  0.00  0.00     0.062 H 
ATOM     27  C   LIG d   1       5.327   0.018  -3.765  0.00  0.00    -0.058 A 
ATOM     28  H   LIG d   1       5.540   0.742  -1.765  0.00  0.00     0.062 H 
ATOM     29  H   LIG d   1       5.888   0.832  -4.201  0.00  0.00     0.062 H 
ENDBRANCH   1  19
BRANCH   1  30
ATOM     30  C   LIG d   1       3.802  -0.289  -6.719  0.00  0.00     0.171 C 
ATOM     31  O   LIG d   1       3.342   0.743  -6.281  0.00  0.00    -0.291 OA
BRANCH  30  32
ATOM     32  C   LIG d   1       3.182  -0.932  -7.889  0.00  0.00     0.018 A 
ATOM     33  C   LIG d   1       2.184  -0.268  -8.610  0.00  0.00    -0.051 A 
ATOM     34  C   LIG d   1       1.606  -0.878  -9.702  0.00  0.00    -0.061 A 
ATOM     35  H   LIG d   1       1.864   0.719  -8.309  0.00  0.00     0.062 H 
ATOM     36  C   LIG d   1       2.013  -2.144 -10.088  0.00  0.00    -0.062 A 
ATOM     37  H   LIG d   1       0.832  -0.369 -10.257  0.00  0.00     0.062 H 
ATOM     38  C   LIG d   1       3.004  -2.805  -9.384  0.00  0.00    -0.061 A 
ATOM     39  H   LIG d   1       1.556  -2.617 -10.945  0.00  0.00     0.062 H 
ATOM     40  C   LIG d   1       3.592  -2.208  -8.289  0.00  0.00    -0.051 A 
ATOM     41  H   LIG d   1       3.315  -3.793  -9.691  0.00  0.00     0.062 H 
ATOM     42  H   LIG d   1       4.364  -2.726  -7.740  0.00  0.00     0.062 H 
ENDBRANCH  30  32
ENDBRANCH   1  30
TORSDOF 9
ENDMDL
MODEL 10
REMARK VINA RESULT:      -5.5      1.978      5.287
REMARK  9 active torsions:
REMARK  status: ('A' for Active; 'I' for Inactive)
REMARK    1  A    between atoms: C_1  and  C_2 
REMARK    2  A    between atoms: C_2  and  O_3 
REMARK    3  A    between atoms: O_3  and  C_4 
REMARK    4  A    between atoms: C_4  and  C_6 
REMARK    5  A    between atoms: C_6  and  C_7 
REMARK    6  A    between atoms: C_7  and  C_8 
REMARK    7  A    between atoms: C_8  and  C_10 
REMARK    8  A    between atoms: C_8  and  C_16 
REMARK    9  A    between atoms: C_16  and  C_18 
ROOT
ATOM      1  C   LIG d   1       3.161  -0.183  -6.543  0.00  0.00     0.048 C 
ATOM      2  H   LIG d   1       2.474  -0.907  -6.599  0.00  0.00     0.043 H 
ENDROOT
BRANCH   1   3
ATOM      3  C   LIG d   1       2.985   0.779  -7.720  0.00  0.00    -0.029 C 
ATOM      4  H   LIG d   1       2.343   1.608  -7.420  0.00  0.00     0.028 H 
ATOM      5  H   LIG d   1       3.960   1.166  -8.022  0.00  0.00     0.028 H 
BRANCH   3   6
ATOM      6  C   LIG d   1       2.345   0.037  -8.894  0.00  0.00     0.046 C 
ATOM      7  H   LIG d   1       2.218  -1.014  -8.634  0.00  0.00     0.038 H 
ATOM      8  H   LIG d   1       1.372   0.476  -9.115  0.00  0.00     0.038 H 
BRANCH   6   9
ATOM      9  C   LIG d   1       3.234   0.149 -10.105  0.00  0.00     0.307 C 
ATOM     10  O   LIG d   1       2.792  -0.087 -11.204  0.00  0.00    -0.251 OA
BRANCH   9  11
ATOM     11  O   LIG d   1       4.519   0.512  -9.963  0.00  0.00    -0.465 OA
BRANCH  11  12
ATOM     12  C   LIG d   1       5.481  -0.104 -10.859  0.00  0.00     0.090 C 
ATOM     13  H   LIG d   1       4.990  -0.363 -11.798  0.00  0.00     0.069 H 
ATOM     14  H   LIG d   1       6.294   0.596 -11.056  0.00  0.00     0.069 H 
BRANCH  12  15
ATOM     15  C   LIG d   1       6.044  -1.370 -10.212  0.00  0.00    -0.031 C 
ATOM     16  H   LIG d   1       6.586  -1.950 -10.959  0.00  0.00     0.026 H 
ATOM     17  H   LIG d   1       6.723  -1.094  -9.404  0.00  0.00     0.026 H 
ATOM     18  H   LIG d   1       5.226  -1.968  -9.810  0.00  0.00     0.026 H 
ENDBRANCH  12  15
ENDBRANCH  11  12
ENDBRANCH   9  11
ENDBRANCH   6   9
ENDBRANCH   3   6
ENDBRANCH   1   3
BRANCH   1  19
ATOM     19  C   LIG d   1       4.538  -0.792  -6.594  0.00  0.00    -0.037 A 
ATOM     20  C   LIG d   1       4.686  -2.166  -6.636  0.00  0.00    -0.058 A 
ATOM     21  C   LIG d   1       5.948  -2.724  -6.682  0.00  0.00    -0.061 A 
ATOM     22  H   LIG d   1       3.813  -2.802  -6.633  0.00  0.00     0.062 H 
ATOM     23  C   LIG d   1       7.065  -1.910  -6.687  0.00  0.00    -0.062 A 
ATOM     24  H   LIG d   1       6.064  -3.799  -6.715  0.00  0.00     0.062 H 
ATOM     25  C   LIG d   1       6.919  -0.536  -6.645  0.00  0.00    -0.061 A 
ATOM     26  H   LIG d   1       8.052  -2.347  -6.722  0.00  0.00     0.062 H 
ATOM     27  C   LIG d   1       5.655   0.023  -6.603  0.00  0.00    -0.058 A 
ATOM     28  H   LIG d   1       7.791   0.101  -6.648  0.00  0.00     0.062 H 
ATOM     29  H   LIG d   1       5.541   1.097  -6.574  0.00  0.00     0.062 H 
ENDBRANCH   1  19
BRANCH   1  30
ATOM     30  C   LIG d   1       2.993   0.571  -5.249  0.00  0.00     0.171 C 
ATOM     31  O   LIG d   1       2.441   1.650  -5.243  0.00  0.00    -0.291 OA
BRANCH  30  32
ATOM     32  C   LIG d   1       3.498  -0.003  -3.992  0.00  0.00     0.018 A 
ATOM     33  C   LIG d   1       4.305   0.763  -3.143  0.00  0.00    -0.051 A 
ATOM     34  C   LIG d   1       4.778   0.217  -1.970  0.00  0.00    -0.061 A 
ATOM     35  H   LIG d   1       4.561   1.778  -3.410  0.00  0.00     0.062 H 
ATOM     36  C   LIG d   1       4.453  -1.084  -1.627  0.00  0.00    -0.062 A 
ATOM     37  H   LIG d   1       5.405   0.805  -1.315  0.00  0.00     0.062 H 
ATOM     38  C   LIG d   1       3.651  -1.847  -2.458  0.00  0.00    -0.061 A 
ATOM     39  H   LIG d   1       4.827  -1.507  -0.705  0.00  0.00     0.062 H 
ATOM     40  C   LIG d   1       3.170  -1.315  -3.636  0.00  0.00    -0.051 A 
ATOM     41  H   LIG d   1       3.403  -2.862  -2.184  0.00  0.00     0.062 H 
ATOM     42  H   LIG d   1       2.545  -1.911  -4.284  0.00  0.00     0.062 H 
ENDBRANCH  30  32
ENDBRANCH   1  30
TORSDOF 9
ENDMDL
