MODEL 1
REMARK VINA RESULT:      -8.0      0.000      0.000
REMARK  5 active torsions:
REMARK  status: ('A' for Active; 'I' for Inactive)
REMARK    1  A    between atoms: C_6  and  N_11 
REMARK       I    between atoms: N_11  and  C_12 
REMARK    2  A    between atoms: C_12  and  C_14 
REMARK    3  A    between atoms: C_14  and  C_16 
REMARK    4  A    between atoms: C_14  and  N_44 
REMARK    5  A    between atoms: C_16  and  C_17 
ROOT
ATOM      1  C   LIG d   1       9.811   3.172  -5.018  0.00  0.00     0.058 C 
ATOM      2  H   LIG d   1      10.677   2.744  -4.512  0.00  0.00     0.095 H 
ENDROOT
BRANCH   1   3
ATOM      3  C   LIG d   1       8.624   2.261  -4.840  0.00  0.00     0.266 C 
ATOM      4  N   LIG d   1       8.447   1.607  -3.676  0.00  0.00    -0.281 N 
ATOM      5  H   LIG d   1       9.038   1.779  -2.926  0.00  0.00     0.155 HD
ATOM      6  O   LIG d   1       7.829   2.118  -5.744  0.00  0.00    -0.269 OA
BRANCH   4   7
ATOM      7  C   LIG d   1       7.408   0.678  -3.547  0.00  0.00     0.034 A 
ATOM      8  C   LIG d   1       6.153   1.105  -3.177  0.00  0.00    -0.033 A 
ATOM      9  C   LIG d   1       5.113   0.170  -3.049  0.00  0.00    -0.016 A 
ATOM     10  H   LIG d   1       5.969   2.152  -2.986  0.00  0.00     0.064 H 
ATOM     11  C   LIG d   1       3.818   0.567  -2.673  0.00  0.00    -0.054 A 
ATOM     12  C   LIG d   1       5.373  -1.200  -3.303  0.00  0.00    -0.018 A 
ATOM     13  C   LIG d   1       2.832  -0.365  -2.565  0.00  0.00    -0.061 A 
ATOM     14  H   LIG d   1       3.605   1.608  -2.477  0.00  0.00     0.062 H 
ATOM     15  C   LIG d   1       3.090  -1.712  -2.809  0.00  0.00    -0.061 A 
ATOM     16  H   LIG d   1       1.837  -0.056  -2.280  0.00  0.00     0.062 H 
ATOM     17  C   LIG d   1       4.332  -2.134  -3.174  0.00  0.00    -0.054 A 
ATOM     18  H   LIG d   1       2.291  -2.432  -2.712  0.00  0.00     0.062 H 
ATOM     19  H   LIG d   1       4.514  -3.181  -3.365  0.00  0.00     0.062 H 
ATOM     20  C   LIG d   1       6.667  -1.602  -3.679  0.00  0.00    -0.052 A 
ATOM     21  C   LIG d   1       7.657  -0.677  -3.796  0.00  0.00    -0.040 A 
ATOM     22  H   LIG d   1       6.875  -2.644  -3.875  0.00  0.00     0.062 H 
ATOM     23  H   LIG d   1       8.648  -0.993  -4.085  0.00  0.00     0.064 H 
ENDBRANCH   4   7
ENDBRANCH   1   3
BRANCH   1  24
ATOM     24  C   LIG d   1       9.497   4.543  -4.417  0.00  0.00     0.026 C 
ATOM     25  H   LIG d   1       9.869   5.325  -5.080  0.00  0.00     0.037 H 
ATOM     26  H   LIG d   1       8.419   4.649  -4.297  0.00  0.00     0.037 H 
BRANCH  24  27
ATOM     27  C   LIG d   1      10.165   4.667  -3.071  0.00  0.00    -0.017 A 
ATOM     28  C   LIG d   1      10.106   5.822  -2.171  0.00  0.00     0.003 A 
ATOM     29  C   LIG d   1      10.875   5.477  -1.045  0.00  0.00     0.047 A 
ATOM     30  C   LIG d   1       9.484   7.070  -2.234  0.00  0.00    -0.052 A 
ATOM     31  N   LIG d   1      11.360   4.206  -1.258  0.00  0.00    -0.360 N 
ATOM     32  C   LIG d   1      11.006   6.390  -0.004  0.00  0.00    -0.038 A 
ATOM     33  C   LIG d   1      10.923   3.738  -2.468  0.00  0.00     0.006 A 
ATOM     34  H   LIG d   1      11.925   3.714  -0.641  0.00  0.00     0.165 HD
ATOM     35  H   LIG d   1      11.154   2.765  -2.876  0.00  0.00     0.081 H 
ATOM     36  C   LIG d   1      10.384   7.616  -0.087  0.00  0.00    -0.060 A 
ATOM     37  H   LIG d   1      11.595   6.138   0.866  0.00  0.00     0.064 H 
ATOM     38  C   LIG d   1       9.627   7.952  -1.200  0.00  0.00    -0.061 A 
ATOM     39  H   LIG d   1      10.487   8.324   0.723  0.00  0.00     0.062 H 
ATOM     40  H   LIG d   1       9.145   8.917  -1.249  0.00  0.00     0.062 H 
ATOM     41  H   LIG d   1       8.892   7.338  -3.098  0.00  0.00     0.062 H 
ENDBRANCH  24  27
ENDBRANCH   1  24
BRANCH   1  42
ATOM     42  N   LIG d   1      10.124   3.337  -6.449  0.00  0.00     0.228 N 
ATOM     43  H   LIG d   1      10.093   2.433  -6.919  0.00  0.00     0.200 HD
ATOM     44  H   LIG d   1       9.453   3.968  -6.882  0.00  0.00     0.200 HD
ATOM     45  H   LIG d   1      11.066   3.732  -6.545  0.00  0.00     0.200 HD
ENDBRANCH   1  42
TORSDOF 5
ENDMDL
MODEL 2
REMARK VINA RESULT:      -7.6      2.615      7.700
REMARK  5 active torsions:
REMARK  status: ('A' for Active; 'I' for Inactive)
REMARK    1  A    between atoms: C_6  and  N_11 
REMARK       I    between atoms: N_11  and  C_12 
REMARK    2  A    between atoms: C_12  and  C_14 
REMARK    3  A    between atoms: C_14  and  C_16 
REMARK    4  A    between atoms: C_14  and  N_44 
REMARK    5  A    between atoms: C_16  and  C_17 
ROOT
ATOM      1  C   LIG d   1       8.048  -1.982  -5.184  0.00  0.00     0.058 C 
ATOM      2  H   LIG d   1       7.368  -2.342  -5.956  0.00  0.00     0.095 H 
ENDROOT
BRANCH   1   3
ATOM      3  C   LIG d   1       8.170  -0.483  -5.281  0.00  0.00     0.266 C 
ATOM      4  N   LIG d   1       9.266   0.136  -4.800  0.00  0.00    -0.281 N 
ATOM      5  H   LIG d   1      10.010  -0.387  -4.462  0.00  0.00     0.155 HD
ATOM      6  O   LIG d   1       7.282   0.166  -5.792  0.00  0.00    -0.269 OA
BRANCH   4   7
ATOM      7  C   LIG d   1       9.332   1.533  -4.790  0.00  0.00     0.034 A 
ATOM      8  C   LIG d   1       9.567   2.214  -5.964  0.00  0.00    -0.033 A 
ATOM      9  C   LIG d   1       9.633   3.616  -5.950  0.00  0.00    -0.016 A 
ATOM     10  H   LIG d   1       9.700   1.672  -6.889  0.00  0.00     0.064 H 
ATOM     11  C   LIG d   1       9.870   4.346  -7.127  0.00  0.00    -0.054 A 
ATOM     12  C   LIG d   1       9.455   4.310  -4.725  0.00  0.00    -0.018 A 
ATOM     13  C   LIG d   1       9.921   5.706  -7.078  0.00  0.00    -0.061 A 
ATOM     14  H   LIG d   1      10.006   3.832  -8.067  0.00  0.00     0.062 H 
ATOM     15  C   LIG d   1       9.753   6.387  -5.874  0.00  0.00    -0.061 A 
ATOM     16  H   LIG d   1      10.099   6.264  -7.985  0.00  0.00     0.062 H 
ATOM     17  C   LIG d   1       9.522   5.713  -4.713  0.00  0.00    -0.054 A 
ATOM     18  H   LIG d   1       9.803   7.465  -5.862  0.00  0.00     0.062 H 
ATOM     19  H   LIG d   1       9.389   6.255  -3.790  0.00  0.00     0.062 H 
ATOM     20  C   LIG d   1       9.218   3.583  -3.545  0.00  0.00    -0.052 A 
ATOM     21  C   LIG d   1       9.159   2.226  -3.585  0.00  0.00    -0.040 A 
ATOM     22  H   LIG d   1       9.082   4.103  -2.609  0.00  0.00     0.062 H 
ATOM     23  H   LIG d   1       8.976   1.674  -2.675  0.00  0.00     0.064 H 
ENDBRANCH   4   7
ENDBRANCH   1   3
BRANCH   1  24
ATOM     24  C   LIG d   1       7.499  -2.360  -3.806  0.00  0.00     0.026 C 
ATOM     25  H   LIG d   1       7.757  -3.396  -3.585  0.00  0.00     0.037 H 
ATOM     26  H   LIG d   1       7.934  -1.707  -3.050  0.00  0.00     0.037 H 
BRANCH  24  27
ATOM     27  C   LIG d   1       6.000  -2.204  -3.802  0.00  0.00    -0.017 A 
ATOM     28  C   LIG d   1       5.242  -1.084  -3.237  0.00  0.00     0.003 A 
ATOM     29  C   LIG d   1       3.886  -1.376  -3.469  0.00  0.00     0.047 A 
ATOM     30  C   LIG d   1       5.598   0.095  -2.580  0.00  0.00    -0.052 A 
ATOM     31  N   LIG d   1       3.838  -2.586  -4.126  0.00  0.00    -0.360 N 
ATOM     32  C   LIG d   1       2.913  -0.481  -3.038  0.00  0.00    -0.038 A 
ATOM     33  C   LIG d   1       5.106  -3.061  -4.319  0.00  0.00     0.006 A 
ATOM     34  H   LIG d   1       3.025  -3.033  -4.412  0.00  0.00     0.165 HD
ATOM     35  H   LIG d   1       5.352  -3.989  -4.815  0.00  0.00     0.081 H 
ATOM     36  C   LIG d   1       3.286   0.677  -2.391  0.00  0.00    -0.060 A 
ATOM     37  H   LIG d   1       1.867  -0.694  -3.209  0.00  0.00     0.064 H 
ATOM     38  C   LIG d   1       4.625   0.960  -2.164  0.00  0.00    -0.061 A 
ATOM     39  H   LIG d   1       2.528   1.370  -2.057  0.00  0.00     0.062 H 
ATOM     40  H   LIG d   1       4.901   1.872  -1.655  0.00  0.00     0.062 H 
ATOM     41  H   LIG d   1       6.639   0.323  -2.400  0.00  0.00     0.062 H 
ENDBRANCH  24  27
ENDBRANCH   1  24
BRANCH   1  42
ATOM     42  N   LIG d   1       9.364  -2.619  -5.366  0.00  0.00     0.228 N 
ATOM     43  H   LIG d   1       9.246  -3.611  -5.564  0.00  0.00     0.200 HD
ATOM     44  H   LIG d   1       9.862  -2.176  -6.136  0.00  0.00     0.200 HD
ATOM     45  H   LIG d   1       9.913  -2.512  -4.506  0.00  0.00     0.200 HD
ENDBRANCH   1  42
TORSDOF 5
ENDMDL
MODEL 3
REMARK VINA RESULT:      -7.1      2.421      3.520
REMARK  5 active torsions:
REMARK  status: ('A' for Active; 'I' for Inactive)
REMARK    1  A    between atoms: C_6  and  N_11 
REMARK       I    between atoms: N_11  and  C_12 
REMARK    2  A    between atoms: C_12  and  C_14 
REMARK    3  A    between atoms: C_14  and  C_16 
REMARK    4  A    between atoms: C_14  and  N_44 
REMARK    5  A    between atoms: C_16  and  C_17 
ROOT
ATOM      1  C   LIG d   1      10.153   2.757  -5.300  0.00  0.00     0.058 C 
ATOM      2  H   LIG d   1      10.395   3.348  -4.417  0.00  0.00     0.095 H 
ENDROOT
BRANCH   1   3
ATOM      3  C   LIG d   1       8.873   1.998  -5.063  0.00  0.00     0.266 C 
ATOM      4  N   LIG d   1       8.713   1.286  -3.930  0.00  0.00    -0.281 N 
ATOM      5  H   LIG d   1       9.387   1.323  -3.234  0.00  0.00     0.155 HD
ATOM      6  O   LIG d   1       7.988   2.029  -5.891  0.00  0.00    -0.269 OA
BRANCH   4   7
ATOM      7  C   LIG d   1       7.573   0.494  -3.757  0.00  0.00     0.034 A 
ATOM      8  C   LIG d   1       6.406   1.067  -3.305  0.00  0.00    -0.033 A 
ATOM      9  C   LIG d   1       5.264   0.268  -3.133  0.00  0.00    -0.016 A 
ATOM     10  H   LIG d   1       6.369   2.123  -3.083  0.00  0.00     0.064 H 
ATOM     11  C   LIG d   1       4.054   0.816  -2.674  0.00  0.00    -0.054 A 
ATOM     12  C   LIG d   1       5.331  -1.117  -3.429  0.00  0.00    -0.018 A 
ATOM     13  C   LIG d   1       2.964   0.015  -2.524  0.00  0.00    -0.061 A 
ATOM     14  H   LIG d   1       3.987   1.870  -2.445  0.00  0.00     0.062 H 
ATOM     15  C   LIG d   1       3.033  -1.348  -2.809  0.00  0.00    -0.061 A 
ATOM     16  H   LIG d   1       2.035   0.439  -2.175  0.00  0.00     0.062 H 
ATOM     17  C   LIG d   1       4.187  -1.914  -3.256  0.00  0.00    -0.054 A 
ATOM     18  H   LIG d   1       2.154  -1.963  -2.678  0.00  0.00     0.062 H 
ATOM     19  H   LIG d   1       4.222  -2.970  -3.477  0.00  0.00     0.062 H 
ATOM     20  C   LIG d   1       6.539  -1.669  -3.889  0.00  0.00    -0.052 A 
ATOM     21  C   LIG d   1       7.631  -0.875  -4.047  0.00  0.00    -0.040 A 
ATOM     22  H   LIG d   1       6.600  -2.723  -4.117  0.00  0.00     0.062 H 
ATOM     23  H   LIG d   1       8.556  -1.306  -4.401  0.00  0.00     0.064 H 
ENDBRANCH   4   7
ENDBRANCH   1   3
BRANCH   1  24
ATOM     24  C   LIG d   1       9.978   3.687  -6.503  0.00  0.00     0.026 C 
ATOM     25  H   LIG d   1      10.859   3.623  -7.142  0.00  0.00     0.037 H 
ATOM     26  H   LIG d   1       9.096   3.389  -7.068  0.00  0.00     0.037 H 
BRANCH  24  27
ATOM     27  C   LIG d   1       9.810   5.105  -6.021  0.00  0.00    -0.017 A 
ATOM     28  C   LIG d   1       9.642   6.296  -6.858  0.00  0.00     0.003 A 
ATOM     29  C   LIG d   1       9.523   7.382  -5.971  0.00  0.00     0.047 A 
ATOM     30  C   LIG d   1       9.585   6.514  -8.235  0.00  0.00    -0.052 A 
ATOM     31  N   LIG d   1       9.615   6.874  -4.693  0.00  0.00    -0.360 N 
ATOM     32  C   LIG d   1       9.350   8.663  -6.481  0.00  0.00    -0.038 A 
ATOM     33  C   LIG d   1       9.780   5.516  -4.743  0.00  0.00     0.006 A 
ATOM     34  H   LIG d   1       9.565   7.400  -3.879  0.00  0.00     0.165 HD
ATOM     35  H   LIG d   1       9.874   4.871  -3.882  0.00  0.00     0.081 H 
ATOM     36  C   LIG d   1       9.298   8.856  -7.844  0.00  0.00    -0.060 A 
ATOM     37  H   LIG d   1       9.259   9.506  -5.811  0.00  0.00     0.064 H 
ATOM     38  C   LIG d   1       9.416   7.782  -8.715  0.00  0.00    -0.061 A 
ATOM     39  H   LIG d   1       9.164   9.852  -8.239  0.00  0.00     0.062 H 
ATOM     40  H   LIG d   1       9.373   7.950  -9.781  0.00  0.00     0.062 H 
ATOM     41  H   LIG d   1       9.676   5.683  -8.920  0.00  0.00     0.062 H 
ENDBRANCH  24  27
ENDBRANCH   1  24
BRANCH   1  42
ATOM     42  N   LIG d   1      11.261   1.825  -5.573  0.00  0.00     0.228 N 
ATOM     43  H   LIG d   1      10.966   0.868  -5.388  0.00  0.00     0.200 HD
ATOM     44  H   LIG d   1      11.556   1.908  -6.544  0.00  0.00     0.200 HD
ATOM     45  H   LIG d   1      12.053   2.055  -4.962  0.00  0.00     0.200 HD
ENDBRANCH   1  42
TORSDOF 5
ENDMDL
MODEL 4
REMARK VINA RESULT:      -7.1      6.865     11.332
REMARK  5 active torsions:
REMARK  status: ('A' for Active; 'I' for Inactive)
REMARK    1  A    between atoms: C_6  and  N_11 
REMARK       I    between atoms: N_11  and  C_12 
REMARK    2  A    between atoms: C_12  and  C_14 
REMARK    3  A    between atoms: C_14  and  C_16 
REMARK    4  A    between atoms: C_14  and  N_44 
REMARK    5  A    between atoms: C_16  and  C_17 
ROOT
ATOM      1  C   LIG d   1       5.216  -7.121  -6.526  0.00  0.00     0.058 C 
ATOM      2  H   LIG d   1       4.393  -7.835  -6.526  0.00  0.00     0.095 H 
ENDROOT
BRANCH   1   3
ATOM      3  C   LIG d   1       4.701  -5.759  -6.137  0.00  0.00     0.266 C 
ATOM      4  N   LIG d   1       5.558  -4.730  -5.994  0.00  0.00    -0.281 N 
ATOM      5  H   LIG d   1       6.496  -4.845  -6.215  0.00  0.00     0.155 HD
ATOM      6  O   LIG d   1       3.514  -5.590  -5.954  0.00  0.00    -0.269 OA
BRANCH   4   7
ATOM      7  C   LIG d   1       5.097  -3.495  -5.526  0.00  0.00     0.034 A 
ATOM      8  C   LIG d   1       5.027  -3.262  -4.171  0.00  0.00    -0.033 A 
ATOM      9  C   LIG d   1       4.563  -2.021  -3.705  0.00  0.00    -0.016 A 
ATOM     10  H   LIG d   1       5.326  -4.028  -3.471  0.00  0.00     0.064 H 
ATOM     11  C   LIG d   1       4.478  -1.745  -2.330  0.00  0.00    -0.054 A 
ATOM     12  C   LIG d   1       4.174  -1.027  -4.639  0.00  0.00    -0.018 A 
ATOM     13  C   LIG d   1       4.029  -0.530  -1.913  0.00  0.00    -0.061 A 
ATOM     14  H   LIG d   1       4.771  -2.492  -1.607  0.00  0.00     0.062 H 
ATOM     15  C   LIG d   1       3.641   0.445  -2.831  0.00  0.00    -0.061 A 
ATOM     16  H   LIG d   1       3.969  -0.318  -0.856  0.00  0.00     0.062 H 
ATOM     17  C   LIG d   1       3.710   0.213  -4.171  0.00  0.00    -0.054 A 
ATOM     18  H   LIG d   1       3.285   1.400  -2.474  0.00  0.00     0.062 H 
ATOM     19  H   LIG d   1       3.411   0.980  -4.869  0.00  0.00     0.062 H 
ATOM     20  C   LIG d   1       4.258  -1.299  -6.016  0.00  0.00    -0.052 A 
ATOM     21  C   LIG d   1       4.711  -2.509  -6.442  0.00  0.00    -0.040 A 
ATOM     22  H   LIG d   1       3.965  -0.548  -6.734  0.00  0.00     0.062 H 
ATOM     23  H   LIG d   1       4.772  -2.711  -7.500  0.00  0.00     0.064 H 
ENDBRANCH   4   7
ENDBRANCH   1   3
BRANCH   1  24
ATOM     24  C   LIG d   1       6.279  -7.570  -5.521  0.00  0.00     0.026 C 
ATOM     25  H   LIG d   1       7.157  -7.930  -6.058  0.00  0.00     0.037 H 
ATOM     26  H   LIG d   1       6.560  -6.728  -4.889  0.00  0.00     0.037 H 
BRANCH  24  27
ATOM     27  C   LIG d   1       5.724  -8.678  -4.664  0.00  0.00    -0.017 A 
ATOM     28  C   LIG d   1       6.366  -9.279  -3.492  0.00  0.00     0.003 A 
ATOM     29  C   LIG d   1       5.478 -10.265  -3.024  0.00  0.00     0.047 A 
ATOM     30  C   LIG d   1       7.577  -9.062  -2.832  0.00  0.00    -0.052 A 
ATOM     31  N   LIG d   1       4.383 -10.254  -3.860  0.00  0.00    -0.360 N 
ATOM     32  C   LIG d   1       5.821 -11.015  -1.905  0.00  0.00    -0.038 A 
ATOM     33  C   LIG d   1       4.545  -9.300  -4.827  0.00  0.00     0.006 A 
ATOM     34  H   LIG d   1       3.610 -10.834  -3.773  0.00  0.00     0.165 HD
ATOM     35  H   LIG d   1       3.831  -9.079  -5.607  0.00  0.00     0.081 H 
ATOM     36  C   LIG d   1       7.021 -10.785  -1.268  0.00  0.00    -0.060 A 
ATOM     37  H   LIG d   1       5.148 -11.776  -1.536  0.00  0.00     0.064 H 
ATOM     38  C   LIG d   1       7.894  -9.812  -1.734  0.00  0.00    -0.061 A 
ATOM     39  H   LIG d   1       7.286 -11.369  -0.399  0.00  0.00     0.062 H 
ATOM     40  H   LIG d   1       8.831  -9.644  -1.223  0.00  0.00     0.062 H 
ATOM     41  H   LIG d   1       8.261  -8.306  -3.188  0.00  0.00     0.062 H 
ENDBRANCH  24  27
ENDBRANCH   1  24
BRANCH   1  42
ATOM     42  N   LIG d   1       5.816  -7.079  -7.871  0.00  0.00     0.228 N 
ATOM     43  H   LIG d   1       6.747  -7.493  -7.851  0.00  0.00     0.200 HD
ATOM     44  H   LIG d   1       5.232  -7.591  -8.530  0.00  0.00     0.200 HD
ATOM     45  H   LIG d   1       5.891  -6.103  -8.177  0.00  0.00     0.200 HD
ENDBRANCH   1  42
TORSDOF 5
ENDMDL
MODEL 5
REMARK VINA RESULT:      -7.0      6.659      9.051
REMARK  5 active torsions:
REMARK  status: ('A' for Active; 'I' for Inactive)
REMARK    1  A    between atoms: C_6  and  N_11 
REMARK       I    between atoms: N_11  and  C_12 
REMARK    2  A    between atoms: C_12  and  C_14 
REMARK    3  A    between atoms: C_14  and  C_16 
REMARK    4  A    between atoms: C_14  and  N_44 
REMARK    5  A    between atoms: C_16  and  C_17 
ROOT
ATOM      1  C   LIG d   1       5.613  -6.801  -6.014  0.00  0.00     0.058 C 
ATOM      2  H   LIG d   1       5.510  -7.529  -5.209  0.00  0.00     0.095 H 
ENDROOT
BRANCH   1   3
ATOM      3  C   LIG d   1       5.008  -5.489  -5.585  0.00  0.00     0.266 C 
ATOM      4  N   LIG d   1       5.645  -4.333  -5.855  0.00  0.00    -0.281 N 
ATOM      5  H   LIG d   1       6.454  -4.338  -6.391  0.00  0.00     0.155 HD
ATOM      6  O   LIG d   1       3.947  -5.475  -4.997  0.00  0.00    -0.269 OA
BRANCH   4   7
ATOM      7  C   LIG d   1       5.141  -3.125  -5.362  0.00  0.00     0.034 A 
ATOM      8  C   LIG d   1       5.203  -2.860  -4.012  0.00  0.00    -0.033 A 
ATOM      9  C   LIG d   1       4.697  -1.647  -3.520  0.00  0.00    -0.016 A 
ATOM     10  H   LIG d   1       5.639  -3.581  -3.336  0.00  0.00     0.064 H 
ATOM     11  C   LIG d   1       4.743  -1.340  -2.149  0.00  0.00    -0.054 A 
ATOM     12  C   LIG d   1       4.128  -0.712  -4.423  0.00  0.00    -0.018 A 
ATOM     13  C   LIG d   1       4.248  -0.151  -1.708  0.00  0.00    -0.061 A 
ATOM     14  H   LIG d   1       5.173  -2.041  -1.450  0.00  0.00     0.062 H 
ATOM     15  C   LIG d   1       3.683   0.764  -2.594  0.00  0.00    -0.061 A 
ATOM     16  H   LIG d   1       4.288   0.084  -0.655  0.00  0.00     0.062 H 
ATOM     17  C   LIG d   1       3.621   0.501  -3.929  0.00  0.00    -0.054 A 
ATOM     18  H   LIG d   1       3.294   1.698  -2.218  0.00  0.00     0.062 H 
ATOM     19  H   LIG d   1       3.186   1.223  -4.603  0.00  0.00     0.062 H 
ATOM     20  C   LIG d   1       4.080  -1.015  -5.795  0.00  0.00    -0.052 A 
ATOM     21  C   LIG d   1       4.578  -2.197  -6.246  0.00  0.00    -0.040 A 
ATOM     22  H   LIG d   1       3.650  -0.310  -6.490  0.00  0.00     0.062 H 
ATOM     23  H   LIG d   1       4.538  -2.423  -7.301  0.00  0.00     0.064 H 
ENDBRANCH   4   7
ENDBRANCH   1   3
BRANCH   1  24
ATOM     24  C   LIG d   1       7.096  -6.599  -6.330  0.00  0.00     0.026 C 
ATOM     25  H   LIG d   1       7.387  -7.258  -7.148  0.00  0.00     0.037 H 
ATOM     26  H   LIG d   1       7.268  -5.562  -6.619  0.00  0.00     0.037 H 
BRANCH  24  27
ATOM     27  C   LIG d   1       7.919  -6.922  -5.109  0.00  0.00    -0.017 A 
ATOM     28  C   LIG d   1       8.553  -5.958  -4.205  0.00  0.00     0.003 A 
ATOM     29  C   LIG d   1       9.205  -6.720  -3.219  0.00  0.00     0.047 A 
ATOM     30  C   LIG d   1       8.612  -4.564  -4.160  0.00  0.00    -0.052 A 
ATOM     31  N   LIG d   1       8.978  -8.047  -3.515  0.00  0.00    -0.360 N 
ATOM     32  C   LIG d   1       9.905  -6.071  -2.208  0.00  0.00    -0.038 A 
ATOM     33  C   LIG d   1       8.206  -8.146  -4.641  0.00  0.00     0.006 A 
ATOM     34  H   LIG d   1       9.312  -8.798  -2.999  0.00  0.00     0.165 HD
ATOM     35  H   LIG d   1       7.877  -9.074  -5.086  0.00  0.00     0.081 H 
ATOM     36  C   LIG d   1       9.951  -4.695  -2.183  0.00  0.00    -0.060 A 
ATOM     37  H   LIG d   1      10.412  -6.645  -1.445  0.00  0.00     0.064 H 
ATOM     38  C   LIG d   1       9.306  -3.947  -3.157  0.00  0.00    -0.061 A 
ATOM     39  H   LIG d   1      10.496  -4.193  -1.396  0.00  0.00     0.062 H 
ATOM     40  H   LIG d   1       9.353  -2.869  -3.123  0.00  0.00     0.062 H 
ATOM     41  H   LIG d   1       8.112  -3.975  -4.915  0.00  0.00     0.062 H 
ENDBRANCH  24  27
ENDBRANCH   1  24
BRANCH   1  42
ATOM     42  N   LIG d   1       4.933  -7.314  -7.216  0.00  0.00     0.228 N 
ATOM     43  H   LIG d   1       5.460  -7.060  -8.050  0.00  0.00     0.200 HD
ATOM     44  H   LIG d   1       4.848  -8.327  -7.163  0.00  0.00     0.200 HD
ATOM     45  H   LIG d   1       3.995  -6.901  -7.275  0.00  0.00     0.200 HD
ENDBRANCH   1  42
TORSDOF 5
ENDMDL
MODEL 6
REMARK VINA RESULT:      -7.0      5.088      7.545
REMARK  5 active torsions:
REMARK  status: ('A' for Active; 'I' for Inactive)
REMARK    1  A    between atoms: C_6  and  N_11 
REMARK       I    between atoms: N_11  and  C_12 
REMARK    2  A    between atoms: C_12  and  C_14 
REMARK    3  A    between atoms: C_14  and  C_16 
REMARK    4  A    between atoms: C_14  and  N_44 
REMARK    5  A    between atoms: C_16  and  C_17 
ROOT
ATOM      1  C   LIG d   1       8.072  -1.396  -4.904  0.00  0.00     0.058 C 
ATOM      2  H   LIG d   1       9.035  -1.793  -5.226  0.00  0.00     0.095 H 
ENDROOT
BRANCH   1   3
ATOM      3  C   LIG d   1       7.116  -1.390  -6.069  0.00  0.00     0.266 C 
ATOM      4  N   LIG d   1       6.352  -0.307  -6.307  0.00  0.00    -0.281 N 
ATOM      5  H   LIG d   1       6.470   0.497  -5.777  0.00  0.00     0.155 HD
ATOM      6  O   LIG d   1       7.037  -2.360  -6.792  0.00  0.00    -0.269 OA
BRANCH   4   7
ATOM      7  C   LIG d   1       5.387  -0.341  -7.320  0.00  0.00     0.034 A 
ATOM      8  C   LIG d   1       5.766  -0.155  -8.630  0.00  0.00    -0.033 A 
ATOM      9  C   LIG d   1       4.795  -0.190  -9.644  0.00  0.00    -0.016 A 
ATOM     10  H   LIG d   1       6.804   0.016  -8.877  0.00  0.00     0.064 H 
ATOM     11  C   LIG d   1       5.143  -0.006 -10.993  0.00  0.00    -0.054 A 
ATOM     12  C   LIG d   1       3.438  -0.416  -9.300  0.00  0.00    -0.018 A 
ATOM     13  C   LIG d   1       4.177  -0.052 -11.950  0.00  0.00    -0.061 A 
ATOM     14  H   LIG d   1       6.173   0.166 -11.269  0.00  0.00     0.062 H 
ATOM     15  C   LIG d   1       2.843  -0.268 -11.612  0.00  0.00    -0.061 A 
ATOM     16  H   LIG d   1       4.448   0.085 -12.987  0.00  0.00     0.062 H 
ATOM     17  C   LIG d   1       2.468  -0.450 -10.316  0.00  0.00    -0.054 A 
ATOM     18  H   LIG d   1       2.095  -0.296 -12.391  0.00  0.00     0.062 H 
ATOM     19  H   LIG d   1       1.431  -0.621 -10.071  0.00  0.00     0.062 H 
ATOM     20  C   LIG d   1       3.085  -0.600  -7.952  0.00  0.00    -0.052 A 
ATOM     21  C   LIG d   1       4.044  -0.563  -6.989  0.00  0.00    -0.040 A 
ATOM     22  H   LIG d   1       2.054  -0.774  -7.681  0.00  0.00     0.062 H 
ATOM     23  H   LIG d   1       3.766  -0.705  -5.956  0.00  0.00     0.064 H 
ENDBRANCH   4   7
ENDBRANCH   1   3
BRANCH   1  24
ATOM     24  C   LIG d   1       7.507  -2.275  -3.786  0.00  0.00     0.026 C 
ATOM     25  H   LIG d   1       7.770  -3.317  -3.974  0.00  0.00     0.037 H 
ATOM     26  H   LIG d   1       7.926  -1.961  -2.830  0.00  0.00     0.037 H 
BRANCH  24  27
ATOM     27  C   LIG d   1       6.007  -2.136  -3.747  0.00  0.00    -0.017 A 
ATOM     28  C   LIG d   1       5.250  -1.011  -3.188  0.00  0.00     0.003 A 
ATOM     29  C   LIG d   1       3.892  -1.324  -3.379  0.00  0.00     0.047 A 
ATOM     30  C   LIG d   1       5.609   0.186  -2.567  0.00  0.00    -0.052 A 
ATOM     31  N   LIG d   1       3.842  -2.549  -4.006  0.00  0.00    -0.360 N 
ATOM     32  C   LIG d   1       2.920  -0.431  -2.943  0.00  0.00    -0.038 A 
ATOM     33  C   LIG d   1       5.111  -3.015  -4.221  0.00  0.00     0.006 A 
ATOM     34  H   LIG d   1       3.027  -3.012  -4.261  0.00  0.00     0.165 HD
ATOM     35  H   LIG d   1       5.354  -3.951  -4.702  0.00  0.00     0.081 H 
ATOM     36  C   LIG d   1       3.295   0.746  -2.332  0.00  0.00    -0.060 A 
ATOM     37  H   LIG d   1       1.873  -0.659  -3.082  0.00  0.00     0.064 H 
ATOM     38  C   LIG d   1       4.637   1.049  -2.146  0.00  0.00    -0.061 A 
ATOM     39  H   LIG d   1       2.538   1.438  -1.994  0.00  0.00     0.062 H 
ATOM     40  H   LIG d   1       4.914   1.976  -1.665  0.00  0.00     0.062 H 
ATOM     41  H   LIG d   1       6.651   0.430  -2.420  0.00  0.00     0.062 H 
ENDBRANCH  24  27
ENDBRANCH   1  24
BRANCH   1  42
ATOM     42  N   LIG d   1       8.264  -0.030  -4.388  0.00  0.00     0.228 N 
ATOM     43  H   LIG d   1       7.362   0.391  -4.169  0.00  0.00     0.200 HD
ATOM     44  H   LIG d   1       8.841  -0.051  -3.549  0.00  0.00     0.200 HD
ATOM     45  H   LIG d   1       8.733   0.538  -5.103  0.00  0.00     0.200 HD
ENDBRANCH   1  42
TORSDOF 5
ENDMDL
MODEL 7
REMARK VINA RESULT:      -7.0      2.760      8.169
REMARK  5 active torsions:
REMARK  status: ('A' for Active; 'I' for Inactive)
REMARK    1  A    between atoms: C_6  and  N_11 
REMARK       I    between atoms: N_11  and  C_12 
REMARK    2  A    between atoms: C_12  and  C_14 
REMARK    3  A    between atoms: C_14  and  C_16 
REMARK    4  A    between atoms: C_14  and  N_44 
REMARK    5  A    between atoms: C_16  and  C_17 
ROOT
ATOM      1  C   LIG d   1       8.776   0.676  -4.982  0.00  0.00     0.058 C 
ATOM      2  H   LIG d   1       8.361  -0.124  -5.595  0.00  0.00     0.095 H 
ENDROOT
BRANCH   1   3
ATOM      3  C   LIG d   1       8.782   1.961  -5.770  0.00  0.00     0.266 C 
ATOM      4  N   LIG d   1       9.827   2.806  -5.671  0.00  0.00    -0.281 N 
ATOM      5  H   LIG d   1      10.609   2.554  -5.155  0.00  0.00     0.155 HD
ATOM      6  O   LIG d   1       7.847   2.233  -6.492  0.00  0.00    -0.269 OA
BRANCH   4   7
ATOM      7  C   LIG d   1       9.785   4.048  -6.314  0.00  0.00     0.034 A 
ATOM      8  C   LIG d   1       9.601   5.194  -5.573  0.00  0.00    -0.033 A 
ATOM      9  C   LIG d   1       9.560   6.438  -6.222  0.00  0.00    -0.016 A 
ATOM     10  H   LIG d   1       9.490   5.135  -4.501  0.00  0.00     0.064 H 
ATOM     11  C   LIG d   1       9.375   7.630  -5.501  0.00  0.00    -0.054 A 
ATOM     12  C   LIG d   1       9.708   6.495  -7.631  0.00  0.00    -0.018 A 
ATOM     13  C   LIG d   1       9.346   8.820  -6.161  0.00  0.00    -0.061 A 
ATOM     14  H   LIG d   1       9.262   7.603  -4.427  0.00  0.00     0.062 H 
ATOM     15  C   LIG d   1       9.485   8.875  -7.546  0.00  0.00    -0.061 A 
ATOM     16  H   LIG d   1       9.208   9.735  -5.603  0.00  0.00     0.062 H 
ATOM     17  C   LIG d   1       9.665   7.741  -8.278  0.00  0.00    -0.054 A 
ATOM     18  H   LIG d   1       9.454   9.831  -8.046  0.00  0.00     0.062 H 
ATOM     19  H   LIG d   1       9.777   7.801  -9.350  0.00  0.00     0.062 H 
ATOM     20  C   LIG d   1       9.892   5.305  -8.357  0.00  0.00    -0.052 A 
ATOM     21  C   LIG d   1       9.930   4.112  -7.706  0.00  0.00    -0.040 A 
ATOM     22  H   LIG d   1      10.007   5.338  -9.430  0.00  0.00     0.062 H 
ATOM     23  H   LIG d   1      10.072   3.202  -8.269  0.00  0.00     0.064 H 
ENDBRANCH   4   7
ENDBRANCH   1   3
BRANCH   1  24
ATOM     24  C   LIG d   1       7.920   0.852  -3.726  0.00  0.00     0.026 C 
ATOM     25  H   LIG d   1       8.564   0.866  -2.846  0.00  0.00     0.037 H 
ATOM     26  H   LIG d   1       7.371   1.791  -3.789  0.00  0.00     0.037 H 
BRANCH  24  27
ATOM     27  C   LIG d   1       6.946  -0.293  -3.617  0.00  0.00    -0.017 A 
ATOM     28  C   LIG d   1       5.535  -0.203  -3.230  0.00  0.00     0.003 A 
ATOM     29  C   LIG d   1       5.037  -1.518  -3.272  0.00  0.00     0.047 A 
ATOM     30  C   LIG d   1       4.694   0.850  -2.868  0.00  0.00    -0.052 A 
ATOM     31  N   LIG d   1       6.078  -2.335  -3.655  0.00  0.00    -0.360 N 
ATOM     32  C   LIG d   1       3.705  -1.752  -2.948  0.00  0.00    -0.038 A 
ATOM     33  C   LIG d   1       7.205  -1.587  -3.861  0.00  0.00     0.006 A 
ATOM     34  H   LIG d   1       6.019  -3.297  -3.767  0.00  0.00     0.165 HD
ATOM     35  H   LIG d   1       8.161  -1.980  -4.174  0.00  0.00     0.081 H 
ATOM     36  C   LIG d   1       2.891  -0.699  -2.593  0.00  0.00    -0.060 A 
ATOM     37  H   LIG d   1       3.310  -2.757  -2.975  0.00  0.00     0.064 H 
ATOM     38  C   LIG d   1       3.388   0.596  -2.553  0.00  0.00    -0.061 A 
ATOM     39  H   LIG d   1       1.857  -0.883  -2.342  0.00  0.00     0.062 H 
ATOM     40  H   LIG d   1       2.737   1.411  -2.272  0.00  0.00     0.062 H 
ATOM     41  H   LIG d   1       5.073   1.861  -2.835  0.00  0.00     0.062 H 
ENDBRANCH  24  27
ENDBRANCH   1  24
BRANCH   1  42
ATOM     42  N   LIG d   1      10.146   0.312  -4.580  0.00  0.00     0.228 N 
ATOM     43  H   LIG d   1      10.814   0.647  -5.273  0.00  0.00     0.200 HD
ATOM     44  H   LIG d   1      10.364   0.721  -3.674  0.00  0.00     0.200 HD
ATOM     45  H   LIG d   1      10.218  -0.710  -4.513  0.00  0.00     0.200 HD
ENDBRANCH   1  42
TORSDOF 5
ENDMDL
MODEL 8
REMARK VINA RESULT:      -6.9      2.547      4.099
REMARK  5 active torsions:
REMARK  status: ('A' for Active; 'I' for Inactive)
REMARK    1  A    between atoms: C_6  and  N_11 
REMARK       I    between atoms: N_11  and  C_12 
REMARK    2  A    between atoms: C_12  and  C_14 
REMARK    3  A    between atoms: C_14  and  C_16 
REMARK    4  A    between atoms: C_14  and  N_44 
REMARK    5  A    between atoms: C_16  and  C_17 
ROOT
ATOM      1  C   LIG d   1       9.774   4.352  -4.165  0.00  0.00     0.058 C 
ATOM      2  H   LIG d   1       9.023   5.053  -4.528  0.00  0.00     0.095 H 
ENDROOT
BRANCH   1   3
ATOM      3  C   LIG d   1       9.142   2.998  -3.965  0.00  0.00     0.266 C 
ATOM      4  N   LIG d   1       8.011   2.679  -4.624  0.00  0.00    -0.281 N 
ATOM      5  H   LIG d   1       7.645   3.289  -5.284  0.00  0.00     0.155 HD
ATOM      6  O   LIG d   1       9.653   2.197  -3.212  0.00  0.00    -0.269 OA
BRANCH   4   7
ATOM      7  C   LIG d   1       7.364   1.468  -4.357  0.00  0.00     0.034 A 
ATOM      8  C   LIG d   1       6.399   1.412  -3.377  0.00  0.00    -0.033 A 
ATOM      9  C   LIG d   1       5.751   0.195  -3.111  0.00  0.00    -0.016 A 
ATOM     10  H   LIG d   1       6.141   2.299  -2.816  0.00  0.00     0.064 H 
ATOM     11  C   LIG d   1       4.760   0.098  -2.119  0.00  0.00    -0.054 A 
ATOM     12  C   LIG d   1       6.103  -0.958  -3.858  0.00  0.00    -0.018 A 
ATOM     13  C   LIG d   1       4.149  -1.096  -1.892  0.00  0.00    -0.061 A 
ATOM     14  H   LIG d   1       4.481   0.968  -1.544  0.00  0.00     0.062 H 
ATOM     15  C   LIG d   1       4.499  -2.231  -2.621  0.00  0.00    -0.061 A 
ATOM     16  H   LIG d   1       3.384  -1.167  -1.133  0.00  0.00     0.062 H 
ATOM     17  C   LIG d   1       5.454  -2.175  -3.590  0.00  0.00    -0.054 A 
ATOM     18  H   LIG d   1       4.001  -3.168  -2.419  0.00  0.00     0.062 H 
ATOM     19  H   LIG d   1       5.710  -3.062  -4.150  0.00  0.00     0.062 H 
ATOM     20  C   LIG d   1       7.094  -0.866  -4.850  0.00  0.00    -0.052 A 
ATOM     21  C   LIG d   1       7.706   0.325  -5.089  0.00  0.00    -0.040 A 
ATOM     22  H   LIG d   1       7.367  -1.739  -5.425  0.00  0.00     0.062 H 
ATOM     23  H   LIG d   1       8.466   0.388  -5.853  0.00  0.00     0.064 H 
ENDBRANCH   4   7
ENDBRANCH   1   3
BRANCH   1  24
ATOM     24  C   LIG d   1      10.905   4.241  -5.190  0.00  0.00     0.026 C 
ATOM     25  H   LIG d   1      11.738   4.874  -4.882  0.00  0.00     0.037 H 
ATOM     26  H   LIG d   1      11.238   3.206  -5.253  0.00  0.00     0.037 H 
BRANCH  24  27
ATOM     27  C   LIG d   1      10.405   4.690  -6.539  0.00  0.00    -0.017 A 
ATOM     28  C   LIG d   1       9.932   6.031  -6.891  0.00  0.00     0.003 A 
ATOM     29  C   LIG d   1       9.573   5.973  -8.250  0.00  0.00     0.047 A 
ATOM     30  C   LIG d   1       9.791   7.227  -6.185  0.00  0.00    -0.052 A 
ATOM     31  N   LIG d   1       9.815   4.686  -8.679  0.00  0.00    -0.360 N 
ATOM     32  C   LIG d   1       9.080   7.114  -8.874  0.00  0.00    -0.038 A 
ATOM     33  C   LIG d   1      10.315   3.938  -7.648  0.00  0.00     0.006 A 
ATOM     34  H   LIG d   1       9.658   4.360  -9.580  0.00  0.00     0.165 HD
ATOM     35  H   LIG d   1      10.595   2.897  -7.716  0.00  0.00     0.081 H 
ATOM     36  C   LIG d   1       8.949   8.283  -8.159  0.00  0.00    -0.060 A 
ATOM     37  H   LIG d   1       8.800   7.082  -9.918  0.00  0.00     0.064 H 
ATOM     38  C   LIG d   1       9.304   8.336  -6.818  0.00  0.00    -0.061 A 
ATOM     39  H   LIG d   1       8.566   9.168  -8.646  0.00  0.00     0.062 H 
ATOM     40  H   LIG d   1       9.195   9.260  -6.271  0.00  0.00     0.062 H 
ATOM     41  H   LIG d   1      10.066   7.276  -5.141  0.00  0.00     0.062 H 
ENDBRANCH  24  27
ENDBRANCH   1  24
BRANCH   1  42
ATOM     42  N   LIG d   1      10.327   4.855  -2.895  0.00  0.00     0.228 N 
ATOM     43  H   LIG d   1      10.392   4.096  -2.218  0.00  0.00     0.200 HD
ATOM     44  H   LIG d   1      11.252   5.251  -3.050  0.00  0.00     0.200 HD
ATOM     45  H   LIG d   1       9.707   5.583  -2.523  0.00  0.00     0.200 HD
ENDBRANCH   1  42
TORSDOF 5
ENDMDL
MODEL 9
REMARK VINA RESULT:      -6.8      1.990      7.898
REMARK  5 active torsions:
REMARK  status: ('A' for Active; 'I' for Inactive)
REMARK    1  A    between atoms: C_6  and  N_11 
REMARK       I    between atoms: N_11  and  C_12 
REMARK    2  A    between atoms: C_12  and  C_14 
REMARK    3  A    between atoms: C_14  and  C_16 
REMARK    4  A    between atoms: C_14  and  N_44 
REMARK    5  A    between atoms: C_16  and  C_17 
ROOT
ATOM      1  C   LIG d   1       7.673   0.599  -6.682  0.00  0.00     0.058 C 
ATOM      2  H   LIG d   1       6.848   1.013  -7.262  0.00  0.00     0.095 H 
ENDROOT
BRANCH   1   3
ATOM      3  C   LIG d   1       8.055   1.566  -5.591  0.00  0.00     0.266 C 
ATOM      4  N   LIG d   1       9.243   2.200  -5.638  0.00  0.00    -0.281 N 
ATOM      5  H   LIG d   1       9.819   2.094  -6.411  0.00  0.00     0.155 HD
ATOM      6  O   LIG d   1       7.292   1.774  -4.671  0.00  0.00    -0.269 OA
BRANCH   4   7
ATOM      7  C   LIG d   1       9.645   3.012  -4.572  0.00  0.00     0.034 A 
ATOM      8  C   LIG d   1       9.346   4.356  -4.589  0.00  0.00    -0.033 A 
ATOM      9  C   LIG d   1       9.751   5.169  -3.517  0.00  0.00    -0.016 A 
ATOM     10  H   LIG d   1       8.804   4.783  -5.420  0.00  0.00     0.064 H 
ATOM     11  C   LIG d   1       9.464   6.544  -3.497  0.00  0.00    -0.054 A 
ATOM     12  C   LIG d   1      10.461   4.591  -2.435  0.00  0.00    -0.018 A 
ATOM     13  C   LIG d   1       9.867   7.301  -2.440  0.00  0.00    -0.061 A 
ATOM     14  H   LIG d   1       8.924   6.998  -4.314  0.00  0.00     0.062 H 
ATOM     15  C   LIG d   1      10.570   6.734  -1.379  0.00  0.00    -0.061 A 
ATOM     16  H   LIG d   1       9.641   8.357  -2.425  0.00  0.00     0.062 H 
ATOM     17  C   LIG d   1      10.866   5.405  -1.364  0.00  0.00    -0.054 A 
ATOM     18  H   LIG d   1      10.881   7.358  -0.554  0.00  0.00     0.062 H 
ATOM     19  H   LIG d   1      11.407   4.980  -0.532  0.00  0.00     0.062 H 
ATOM     20  C   LIG d   1      10.750   3.215  -2.451  0.00  0.00    -0.052 A 
ATOM     21  C   LIG d   1      10.347   2.450  -3.499  0.00  0.00    -0.040 A 
ATOM     22  H   LIG d   1      11.290   2.766  -1.630  0.00  0.00     0.062 H 
ATOM     23  H   LIG d   1      10.572   1.394  -3.505  0.00  0.00     0.064 H 
ENDBRANCH   4   7
ENDBRANCH   1   3
BRANCH   1  24
ATOM     24  C   LIG d   1       7.242  -0.730  -6.057  0.00  0.00     0.026 C 
ATOM     25  H   LIG d   1       7.449  -1.542  -6.754  0.00  0.00     0.037 H 
ATOM     26  H   LIG d   1       7.794  -0.893  -5.133  0.00  0.00     0.037 H 
BRANCH  24  27
ATOM     27  C   LIG d   1       5.765  -0.688  -5.759  0.00  0.00    -0.017 A 
ATOM     28  C   LIG d   1       5.128  -0.968  -4.469  0.00  0.00     0.003 A 
ATOM     29  C   LIG d   1       3.746  -0.804  -4.675  0.00  0.00     0.047 A 
ATOM     30  C   LIG d   1       5.607  -1.329  -3.209  0.00  0.00    -0.052 A 
ATOM     31  N   LIG d   1       3.570  -0.452  -5.995  0.00  0.00    -0.360 N 
ATOM     32  C   LIG d   1       2.871  -1.006  -3.613  0.00  0.00    -0.038 A 
ATOM     33  C   LIG d   1       4.784  -0.384  -6.624  0.00  0.00     0.006 A 
ATOM     34  H   LIG d   1       2.714  -0.276  -6.415  0.00  0.00     0.165 HD
ATOM     35  H   LIG d   1       4.931  -0.123  -7.661  0.00  0.00     0.081 H 
ATOM     36  C   LIG d   1       3.364  -1.363  -2.377  0.00  0.00    -0.060 A 
ATOM     37  H   LIG d   1       1.807  -0.884  -3.758  0.00  0.00     0.064 H 
ATOM     38  C   LIG d   1       4.728  -1.523  -2.180  0.00  0.00    -0.061 A 
ATOM     39  H   LIG d   1       2.683  -1.519  -1.554  0.00  0.00     0.062 H 
ATOM     40  H   LIG d   1       5.099  -1.803  -1.205  0.00  0.00     0.062 H 
ATOM     41  H   LIG d   1       6.668  -1.455  -3.048  0.00  0.00     0.062 H 
ENDBRANCH  24  27
ENDBRANCH   1  24
BRANCH   1  42
ATOM     42  N   LIG d   1       8.817   0.357  -7.579  0.00  0.00     0.228 N 
ATOM     43  H   LIG d   1       9.592   0.971  -7.330  0.00  0.00     0.200 HD
ATOM     44  H   LIG d   1       9.116  -0.613  -7.508  0.00  0.00     0.200 HD
ATOM     45  H   LIG d   1       8.534   0.552  -8.546  0.00  0.00     0.200 HD
ENDBRANCH   1  42
TORSDOF 5
ENDMDL
MODEL 10
REMARK VINA RESULT:      -6.7      1.772      2.223
REMARK  5 active torsions:
REMARK  status: ('A' for Active; 'I' for Inactive)
REMARK    1  A    between atoms: C_6  and  N_11 
REMARK       I    between atoms: N_11  and  C_12 
REMARK    2  A    between atoms: C_12  and  C_14 
REMARK    3  A    between atoms: C_14  and  C_16 
REMARK    4  A    between atoms: C_14  and  N_44 
REMARK    5  A    between atoms: C_16  and  C_17 
ROOT
ATOM      1  C   LIG d   1      10.039   4.337  -3.966  0.00  0.00     0.058 C 
ATOM      2  H   LIG d   1      10.973   4.203  -4.512  0.00  0.00     0.095 H 
ENDROOT
BRANCH   1   3
ATOM      3  C   LIG d   1       9.367   3.001  -3.786  0.00  0.00     0.266 C 
ATOM      4  N   LIG d   1       8.213   2.735  -4.428  0.00  0.00    -0.281 N 
ATOM      5  H   LIG d   1       7.854   3.373  -5.066  0.00  0.00     0.155 HD
ATOM      6  O   LIG d   1       9.864   2.165  -3.062  0.00  0.00    -0.269 OA
BRANCH   4   7
ATOM      7  C   LIG d   1       7.531   1.540  -4.177  0.00  0.00     0.034 A 
ATOM      8  C   LIG d   1       6.473   1.531  -3.295  0.00  0.00    -0.033 A 
ATOM      9  C   LIG d   1       5.791   0.329  -3.044  0.00  0.00    -0.016 A 
ATOM     10  H   LIG d   1       6.171   2.441  -2.799  0.00  0.00     0.064 H 
ATOM     11  C   LIG d   1       4.707   0.280  -2.152  0.00  0.00    -0.054 A 
ATOM     12  C   LIG d   1       6.203  -0.856  -3.705  0.00  0.00    -0.018 A 
ATOM     13  C   LIG d   1       4.064  -0.901  -1.937  0.00  0.00    -0.061 A 
ATOM     14  H   LIG d   1       4.381   1.175  -1.643  0.00  0.00     0.062 H 
ATOM     15  C   LIG d   1       4.473  -2.067  -2.581  0.00  0.00    -0.061 A 
ATOM     16  H   LIG d   1       3.228  -0.935  -1.254  0.00  0.00     0.062 H 
ATOM     17  C   LIG d   1       5.519  -2.057  -3.452  0.00  0.00    -0.054 A 
ATOM     18  H   LIG d   1       3.948  -2.992  -2.390  0.00  0.00     0.062 H 
ATOM     19  H   LIG d   1       5.820  -2.968  -3.947  0.00  0.00     0.062 H 
ATOM     20  C   LIG d   1       7.287  -0.811  -4.598  0.00  0.00    -0.052 A 
ATOM     21  C   LIG d   1       7.931   0.365  -4.824  0.00  0.00    -0.040 A 
ATOM     22  H   LIG d   1       7.607  -1.709  -5.106  0.00  0.00     0.062 H 
ATOM     23  H   LIG d   1       8.763   0.392  -5.512  0.00  0.00     0.064 H 
ENDBRANCH   4   7
ENDBRANCH   1   3
BRANCH   1  24
ATOM     24  C   LIG d   1      10.334   4.949  -2.595  0.00  0.00     0.026 C 
ATOM     25  H   LIG d   1       9.430   4.928  -1.986  0.00  0.00     0.037 H 
ATOM     26  H   LIG d   1      11.118   4.375  -2.102  0.00  0.00     0.037 H 
BRANCH  24  27
ATOM     27  C   LIG d   1      10.789   6.375  -2.769  0.00  0.00    -0.017 A 
ATOM     28  C   LIG d   1      10.211   7.559  -2.127  0.00  0.00     0.003 A 
ATOM     29  C   LIG d   1      10.961   8.657  -2.588  0.00  0.00     0.047 A 
ATOM     30  C   LIG d   1       9.158   7.761  -1.234  0.00  0.00    -0.052 A 
ATOM     31  N   LIG d   1      11.919   8.162  -3.445  0.00  0.00    -0.360 N 
ATOM     32  C   LIG d   1      10.640   9.935  -2.145  0.00  0.00    -0.038 A 
ATOM     33  C   LIG d   1      11.804   6.801  -3.536  0.00  0.00     0.006 A 
ATOM     34  H   LIG d   1      12.580   8.699  -3.912  0.00  0.00     0.165 HD
ATOM     35  H   LIG d   1      12.437   6.165  -4.138  0.00  0.00     0.081 H 
ATOM     36  C   LIG d   1       9.597  10.112  -1.263  0.00  0.00    -0.060 A 
ATOM     37  H   LIG d   1      11.208  10.787  -2.492  0.00  0.00     0.064 H 
ATOM     38  C   LIG d   1       8.859   9.027  -0.812  0.00  0.00    -0.061 A 
ATOM     39  H   LIG d   1       9.349  11.106  -0.921  0.00  0.00     0.062 H 
ATOM     40  H   LIG d   1       8.044   9.183  -0.121  0.00  0.00     0.062 H 
ATOM     41  H   LIG d   1       8.579   6.921  -0.878  0.00  0.00     0.062 H 
ENDBRANCH  24  27
ENDBRANCH   1  24
BRANCH   1  42
ATOM     42  N   LIG d   1       9.168   5.254  -4.722  0.00  0.00     0.228 N 
ATOM     43  H   LIG d   1       8.773   5.955  -4.097  0.00  0.00     0.200 HD
ATOM     44  H   LIG d   1       9.702   5.716  -5.456  0.00  0.00     0.200 HD
ATOM     45  H   LIG d   1       8.404   4.718  -5.149  0.00  0.00     0.200 HD
ENDBRANCH   1  42
TORSDOF 5
ENDMDL
