MODEL 1
REMARK VINA RESULT:      -6.7      0.000      0.000
REMARK  12 active torsions:
REMARK  status: ('A' for Active; 'I' for Inactive)
REMARK    1  A    between atoms: C_1  and  C_2 
REMARK    2  A    between atoms: C_2  and  C_3 
REMARK    3  A    between atoms: C_2  and  O_4 
REMARK    4  A    between atoms: O_4  and  C_5 
REMARK    5  A    between atoms: C_8  and  C_11 
REMARK    6  A    between atoms: C_11  and  N_61 
REMARK    7  A    between atoms: C_12  and  C_13 
REMARK    8  A    between atoms: C_12  and  N_61 
REMARK    9  A    between atoms: C_13  and  C_14 
REMARK   10  A    between atoms: C_14  and  C_16 
REMARK   11  A    between atoms: C_14  and  C_23 
REMARK   12  A    between atoms: C_16  and  C_17 
ROOT
ATOM      1  C   LIG d   1       6.612  -2.640  -4.529  0.00  0.00    -0.005 C 
ATOM      2  H   LIG d   1       7.022  -3.635  -4.706  0.00  0.00     0.032 H 
ATOM      3  H   LIG d   1       6.749  -2.373  -3.481  0.00  0.00     0.032 H 
ENDROOT
BRANCH   1   4
ATOM      4  C   LIG d   1       7.336  -1.625  -5.414  0.00  0.00    -0.033 C 
ATOM      5  H   LIG d   1       8.226  -1.264  -4.898  0.00  0.00     0.081 H 
ATOM      6  H   LIG d   1       7.627  -2.101  -6.350  0.00  0.00     0.081 H 
BRANCH   4   7
ATOM      7  N   LIG d   1       6.432  -0.494  -5.693  0.00  0.00     0.230 N 
ATOM      8  H   LIG d   1       5.465  -0.774  -5.488  0.00  0.00     0.202 HD
ATOM      9  H   LIG d   1       6.691   0.302  -5.098  0.00  0.00     0.202 HD
BRANCH   7  10
ATOM     10  C   LIG d   1       6.531  -0.095  -7.109  0.00  0.00    -0.008 C 
ATOM     11  H   LIG d   1       6.759   0.970  -7.174  0.00  0.00     0.087 H 
ATOM     12  H   LIG d   1       7.322  -0.665  -7.596  0.00  0.00     0.087 H 
BRANCH  10  13
ATOM     13  C   LIG d   1       5.217  -0.371  -7.794  0.00  0.00    -0.003 A 
ATOM     14  C   LIG d   1       4.031  -0.029  -7.172  0.00  0.00    -0.050 A 
ATOM     15  C   LIG d   1       2.825  -0.281  -7.798  0.00  0.00    -0.019 A 
ATOM     16  H   LIG d   1       4.046   0.435  -6.197  0.00  0.00     0.062 H 
ATOM     17  C   LIG d   1       2.806  -0.877  -9.051  0.00  0.00     0.121 A 
ATOM     18  H   LIG d   1       1.898  -0.013  -7.312  0.00  0.00     0.065 H 
ATOM     19  C   LIG d   1       3.999  -1.218  -9.672  0.00  0.00    -0.019 A 
ATOM     20  C   LIG d   1       5.202  -0.959  -9.044  0.00  0.00    -0.050 A 
ATOM     21  H   LIG d   1       3.986  -1.683 -10.646  0.00  0.00     0.065 H 
ATOM     22  H   LIG d   1       6.131  -1.221  -9.530  0.00  0.00     0.062 H 
BRANCH  17  23
ATOM     23  O   LIG d   1       1.621  -1.126  -9.668  0.00  0.00    -0.489 OA
BRANCH  23  24
ATOM     24  C   LIG d   1       1.652  -1.987 -10.807  0.00  0.00     0.095 C 
ATOM     25  H   LIG d   1       2.684  -2.139 -11.121  0.00  0.00     0.073 H 
BRANCH  24  26
ATOM     26  C   LIG d   1       1.025  -3.335 -10.444  0.00  0.00    -0.028 C 
ATOM     27  H   LIG d   1      -0.039  -3.202 -10.254  0.00  0.00     0.026 H 
ATOM     28  H   LIG d   1       1.163  -4.034 -11.269  0.00  0.00     0.026 H 
ATOM     29  H   LIG d   1       1.507  -3.730  -9.549  0.00  0.00     0.026 H 
ENDBRANCH  24  26
BRANCH  24  30
ATOM     30  C   LIG d   1       0.860  -1.349 -11.950  0.00  0.00    -0.028 C 
ATOM     31  H   LIG d   1       1.174  -1.786 -12.898  0.00  0.00     0.026 H 
ATOM     32  H   LIG d   1      -0.205  -1.531 -11.801  0.00  0.00     0.026 H 
ATOM     33  H   LIG d   1       1.046  -0.275 -11.967  0.00  0.00     0.026 H 
ENDBRANCH  24  30
ENDBRANCH  23  24
ENDBRANCH  17  23
ENDBRANCH  10  13
ENDBRANCH   7  10
ENDBRANCH   4   7
ENDBRANCH   1   4
BRANCH   1  34
ATOM     34  C   LIG d   1       5.119  -2.638  -4.864  0.00  0.00    -0.007 C 
ATOM     35  H   LIG d   1       4.881  -1.751  -5.452  0.00  0.00     0.035 H 
BRANCH  34  36
ATOM     36  C   LIG d   1       4.305  -2.625  -3.569  0.00  0.00    -0.021 C 
ATOM     37  H   LIG d   1       3.339  -3.100  -3.743  0.00  0.00     0.032 H 
ATOM     38  H   LIG d   1       4.844  -3.171  -2.795  0.00  0.00     0.032 H 
BRANCH  36  39
ATOM     39  C   LIG d   1       4.091  -1.201  -3.124  0.00  0.00    -0.047 A 
ATOM     40  C   LIG d   1       4.709  -0.734  -1.980  0.00  0.00    -0.059 A 
ATOM     41  C   LIG d   1       4.513   0.573  -1.572  0.00  0.00    -0.061 A 
ATOM     42  H   LIG d   1       5.345  -1.389  -1.404  0.00  0.00     0.062 H 
ATOM     43  C   LIG d   1       3.699   1.412  -2.310  0.00  0.00    -0.062 A 
ATOM     44  H   LIG d   1       4.996   0.938  -0.678  0.00  0.00     0.062 H 
ATOM     45  C   LIG d   1       3.082   0.945  -3.455  0.00  0.00    -0.061 A 
ATOM     46  H   LIG d   1       3.547   2.433  -1.993  0.00  0.00     0.062 H 
ATOM     47  C   LIG d   1       3.282  -0.360  -3.865  0.00  0.00    -0.059 A 
ATOM     48  H   LIG d   1       2.446   1.600  -4.032  0.00  0.00     0.062 H 
ATOM     49  H   LIG d   1       2.803  -0.724  -4.763  0.00  0.00     0.062 H 
ENDBRANCH  36  39
ENDBRANCH  34  36
BRANCH  34  50
ATOM     50  C   LIG d   1       4.780  -3.873  -5.659  0.00  0.00    -0.040 A 
ATOM     51  C   LIG d   1       4.936  -5.123  -5.090  0.00  0.00    -0.013 A 
ATOM     52  C   LIG d   1       4.619  -6.259  -5.817  0.00  0.00     0.167 A 
ATOM     53  H   LIG d   1       5.302  -5.214  -4.079  0.00  0.00     0.066 H 
ATOM     54  C   LIG d   1       4.154  -6.139  -7.124  0.00  0.00     0.166 A 
ATOM     55  O   LIG d   1       4.679  -7.585  -5.496  0.00  0.00    -0.453 OA
ATOM     56  C   LIG d   1       4.003  -4.882  -7.689  0.00  0.00    -0.016 A 
ATOM     57  O   LIG d   1       3.921  -7.388  -7.621  0.00  0.00    -0.453 OA
ATOM     58  C   LIG d   1       4.317  -3.752  -6.956  0.00  0.00    -0.055 A 
ATOM     59  H   LIG d   1       3.644  -4.785  -8.702  0.00  0.00     0.066 H 
ATOM     60  H   LIG d   1       4.201  -2.774  -7.398  0.00  0.00     0.062 H 
ATOM     61  C   LIG d   1       4.634  -8.287  -6.752  0.00  0.00     0.233 C 
ATOM     62  H   LIG d   1       5.642  -8.464  -7.127  0.00  0.00     0.117 H 
ATOM     63  H   LIG d   1       4.093  -9.227  -6.646  0.00  0.00     0.117 H 
ENDBRANCH  34  50
ENDBRANCH   1  34
TORSDOF 12
ENDMDL
MODEL 2
REMARK VINA RESULT:      -6.6      1.951      2.684
REMARK  12 active torsions:
REMARK  status: ('A' for Active; 'I' for Inactive)
REMARK    1  A    between atoms: C_1  and  C_2 
REMARK    2  A    between atoms: C_2  and  C_3 
REMARK    3  A    between atoms: C_2  and  O_4 
REMARK    4  A    between atoms: O_4  and  C_5 
REMARK    5  A    between atoms: C_8  and  C_11 
REMARK    6  A    between atoms: C_11  and  N_61 
REMARK    7  A    between atoms: C_12  and  C_13 
REMARK    8  A    between atoms: C_12  and  N_61 
REMARK    9  A    between atoms: C_13  and  C_14 
REMARK   10  A    between atoms: C_14  and  C_16 
REMARK   11  A    between atoms: C_14  and  C_23 
REMARK   12  A    between atoms: C_16  and  C_17 
ROOT
ATOM      1  C   LIG d   1       6.946  -3.142  -4.072  0.00  0.00    -0.005 C 
ATOM      2  H   LIG d   1       7.157  -4.129  -4.485  0.00  0.00     0.032 H 
ATOM      3  H   LIG d   1       6.952  -3.195  -2.983  0.00  0.00     0.032 H 
ENDROOT
BRANCH   1   4
ATOM      4  C   LIG d   1       8.016  -2.154  -4.541  0.00  0.00    -0.033 C 
ATOM      5  H   LIG d   1       8.965  -2.394  -4.062  0.00  0.00     0.081 H 
ATOM      6  H   LIG d   1       8.127  -2.225  -5.623  0.00  0.00     0.081 H 
BRANCH   4   7
ATOM      7  N   LIG d   1       7.607  -0.786  -4.172  0.00  0.00     0.230 N 
ATOM      8  H   LIG d   1       6.620  -0.650  -4.420  0.00  0.00     0.202 HD
ATOM      9  H   LIG d   1       7.728  -0.658  -3.161  0.00  0.00     0.202 HD
BRANCH   7  10
ATOM     10  C   LIG d   1       8.429   0.206  -4.890  0.00  0.00    -0.008 C 
ATOM     11  H   LIG d   1       8.560   1.092  -4.268  0.00  0.00     0.087 H 
ATOM     12  H   LIG d   1       9.404  -0.223  -5.120  0.00  0.00     0.087 H 
BRANCH  10  13
ATOM     13  C   LIG d   1       7.734   0.589  -6.171  0.00  0.00    -0.003 A 
ATOM     14  C   LIG d   1       8.306   1.526  -7.012  0.00  0.00    -0.050 A 
ATOM     15  C   LIG d   1       7.670   1.878  -8.188  0.00  0.00    -0.019 A 
ATOM     16  H   LIG d   1       9.250   1.981  -6.751  0.00  0.00     0.062 H 
ATOM     17  C   LIG d   1       6.459   1.292  -8.522  0.00  0.00     0.121 A 
ATOM     18  H   LIG d   1       8.118   2.610  -8.846  0.00  0.00     0.065 H 
ATOM     19  C   LIG d   1       5.888   0.353  -7.676  0.00  0.00    -0.019 A 
ATOM     20  C   LIG d   1       6.529  -0.001  -6.505  0.00  0.00    -0.050 A 
ATOM     21  H   LIG d   1       4.944  -0.104  -7.934  0.00  0.00     0.065 H 
ATOM     22  H   LIG d   1       6.087  -0.736  -5.848  0.00  0.00     0.062 H 
BRANCH  17  23
ATOM     23  O   LIG d   1       5.831   1.638  -9.678  0.00  0.00    -0.489 OA
BRANCH  23  24
ATOM     24  C   LIG d   1       4.422   1.414  -9.743  0.00  0.00     0.095 C 
ATOM     25  H   LIG d   1       4.139   0.658  -9.010  0.00  0.00     0.073 H 
BRANCH  24  26
ATOM     26  C   LIG d   1       3.684   2.719  -9.440  0.00  0.00    -0.028 C 
ATOM     27  H   LIG d   1       2.656   2.498  -9.152  0.00  0.00     0.026 H 
ATOM     28  H   LIG d   1       4.185   3.240  -8.624  0.00  0.00     0.026 H 
ATOM     29  H   LIG d   1       3.684   3.351 -10.329  0.00  0.00     0.026 H 
ENDBRANCH  24  26
BRANCH  24  30
ATOM     30  C   LIG d   1       4.047   0.930 -11.145  0.00  0.00    -0.028 C 
ATOM     31  H   LIG d   1       4.135  -0.155 -11.191  0.00  0.00     0.026 H 
ATOM     32  H   LIG d   1       3.020   1.221 -11.367  0.00  0.00     0.026 H 
ATOM     33  H   LIG d   1       4.718   1.380 -11.877  0.00  0.00     0.026 H 
ENDBRANCH  24  30
ENDBRANCH  23  24
ENDBRANCH  17  23
ENDBRANCH  10  13
ENDBRANCH   7  10
ENDBRANCH   4   7
ENDBRANCH   1   4
BRANCH   1  34
ATOM     34  C   LIG d   1       5.572  -2.671  -4.552  0.00  0.00    -0.007 C 
ATOM     35  H   LIG d   1       5.665  -1.688  -5.012  0.00  0.00     0.035 H 
BRANCH  34  36
ATOM     36  C   LIG d   1       4.616  -2.588  -3.360  0.00  0.00    -0.021 C 
ATOM     37  H   LIG d   1       3.709  -3.150  -3.582  0.00  0.00     0.032 H 
ATOM     38  H   LIG d   1       5.098  -3.009  -2.478  0.00  0.00     0.032 H 
BRANCH  36  39
ATOM     39  C   LIG d   1       4.262  -1.146  -3.099  0.00  0.00    -0.047 A 
ATOM     40  C   LIG d   1       4.712  -0.520  -1.953  0.00  0.00    -0.059 A 
ATOM     41  C   LIG d   1       4.388   0.803  -1.715  0.00  0.00    -0.061 A 
ATOM     42  H   LIG d   1       5.318  -1.063  -1.243  0.00  0.00     0.062 H 
ATOM     43  C   LIG d   1       3.613   1.499  -2.624  0.00  0.00    -0.062 A 
ATOM     44  H   LIG d   1       4.740   1.293  -0.819  0.00  0.00     0.062 H 
ATOM     45  C   LIG d   1       3.164   0.872  -3.771  0.00  0.00    -0.061 A 
ATOM     46  H   LIG d   1       3.361   2.532  -2.439  0.00  0.00     0.062 H 
ATOM     47  C   LIG d   1       3.492  -0.448  -4.012  0.00  0.00    -0.059 A 
ATOM     48  H   LIG d   1       2.559   1.416  -4.482  0.00  0.00     0.062 H 
ATOM     49  H   LIG d   1       3.145  -0.937  -4.910  0.00  0.00     0.062 H 
ENDBRANCH  36  39
ENDBRANCH  34  36
BRANCH  34  50
ATOM     50  C   LIG d   1       5.030  -3.649  -5.562  0.00  0.00    -0.040 A 
ATOM     51  C   LIG d   1       5.044  -5.003  -5.288  0.00  0.00    -0.013 A 
ATOM     52  C   LIG d   1       4.540  -5.903  -6.214  0.00  0.00     0.167 A 
ATOM     53  H   LIG d   1       5.444  -5.361  -4.351  0.00  0.00     0.066 H 
ATOM     54  C   LIG d   1       4.031  -5.440  -7.424  0.00  0.00     0.166 A 
ATOM     55  O   LIG d   1       4.437  -7.264  -6.189  0.00  0.00    -0.453 OA
ATOM     56  C   LIG d   1       4.023  -4.081  -7.694  0.00  0.00    -0.016 A 
ATOM     57  O   LIG d   1       3.607  -6.511  -8.157  0.00  0.00    -0.453 OA
ATOM     58  C   LIG d   1       4.523  -3.188  -6.764  0.00  0.00    -0.055 A 
ATOM     59  H   LIG d   1       3.630  -3.719  -8.632  0.00  0.00     0.066 H 
ATOM     60  H   LIG d   1       4.518  -2.130  -6.976  0.00  0.00     0.062 H 
ATOM     61  C   LIG d   1       4.235  -7.660  -7.558  0.00  0.00     0.233 C 
ATOM     62  H   LIG d   1       5.190  -7.869  -8.041  0.00  0.00     0.117 H 
ATOM     63  H   LIG d   1       3.578  -8.527  -7.614  0.00  0.00     0.117 H 
ENDBRANCH  34  50
ENDBRANCH   1  34
TORSDOF 12
ENDMDL
MODEL 3
REMARK VINA RESULT:      -6.2      2.191      3.689
REMARK  12 active torsions:
REMARK  status: ('A' for Active; 'I' for Inactive)
REMARK    1  A    between atoms: C_1  and  C_2 
REMARK    2  A    between atoms: C_2  and  C_3 
REMARK    3  A    between atoms: C_2  and  O_4 
REMARK    4  A    between atoms: O_4  and  C_5 
REMARK    5  A    between atoms: C_8  and  C_11 
REMARK    6  A    between atoms: C_11  and  N_61 
REMARK    7  A    between atoms: C_12  and  C_13 
REMARK    8  A    between atoms: C_12  and  N_61 
REMARK    9  A    between atoms: C_13  and  C_14 
REMARK   10  A    between atoms: C_14  and  C_16 
REMARK   11  A    between atoms: C_14  and  C_23 
REMARK   12  A    between atoms: C_16  and  C_17 
ROOT
ATOM      1  C   LIG d   1       6.760  -3.791  -5.196  0.00  0.00    -0.005 C 
ATOM      2  H   LIG d   1       6.624  -4.198  -6.199  0.00  0.00     0.032 H 
ATOM      3  H   LIG d   1       6.489  -4.547  -4.458  0.00  0.00     0.032 H 
ENDROOT
BRANCH   1   4
ATOM      4  C   LIG d   1       8.224  -3.391  -5.003  0.00  0.00    -0.033 C 
ATOM      5  H   LIG d   1       8.287  -2.597  -4.259  0.00  0.00     0.081 H 
ATOM      6  H   LIG d   1       8.795  -4.255  -4.663  0.00  0.00     0.081 H 
BRANCH   4   7
ATOM      7  N   LIG d   1       8.767  -2.911  -6.287  0.00  0.00     0.230 N 
ATOM      8  H   LIG d   1       9.602  -3.459  -6.527  0.00  0.00     0.202 HD
ATOM      9  H   LIG d   1       8.058  -3.028  -7.020  0.00  0.00     0.202 HD
BRANCH   7  10
ATOM     10  C   LIG d   1       9.135  -1.486  -6.188  0.00  0.00    -0.008 C 
ATOM     11  H   LIG d   1       8.942  -1.128  -5.176  0.00  0.00     0.087 H 
ATOM     12  H   LIG d   1      10.192  -1.362  -6.421  0.00  0.00     0.087 H 
BRANCH  10  13
ATOM     13  C   LIG d   1       8.308  -0.693  -7.168  0.00  0.00    -0.003 A 
ATOM     14  C   LIG d   1       7.859  -1.290  -8.331  0.00  0.00    -0.050 A 
ATOM     15  C   LIG d   1       7.100  -0.566  -9.231  0.00  0.00    -0.019 A 
ATOM     16  H   LIG d   1       8.100  -2.323  -8.537  0.00  0.00     0.062 H 
ATOM     17  C   LIG d   1       6.790   0.760  -8.966  0.00  0.00     0.121 A 
ATOM     18  H   LIG d   1       6.748  -1.033 -10.140  0.00  0.00     0.065 H 
ATOM     19  C   LIG d   1       7.243   1.355  -7.798  0.00  0.00    -0.019 A 
ATOM     20  C   LIG d   1       7.996   0.626  -6.899  0.00  0.00    -0.050 A 
ATOM     21  H   LIG d   1       7.004   2.388  -7.590  0.00  0.00     0.065 H 
ATOM     22  H   LIG d   1       8.344   1.088  -5.987  0.00  0.00     0.062 H 
BRANCH  17  23
ATOM     23  O   LIG d   1       6.045   1.474  -9.851  0.00  0.00    -0.489 OA
BRANCH  23  24
ATOM     24  C   LIG d   1       4.625   1.360  -9.743  0.00  0.00     0.095 C 
ATOM     25  H   LIG d   1       4.376   0.595  -9.007  0.00  0.00     0.073 H 
BRANCH  24  26
ATOM     26  C   LIG d   1       4.038   2.703  -9.301  0.00  0.00    -0.028 C 
ATOM     27  H   LIG d   1       3.032   2.549  -8.913  0.00  0.00     0.026 H 
ATOM     28  H   LIG d   1       4.666   3.135  -8.521  0.00  0.00     0.026 H 
ATOM     29  H   LIG d   1       3.999   3.380 -10.154  0.00  0.00     0.026 H 
ENDBRANCH  24  26
BRANCH  24  30
ATOM     30  C   LIG d   1       4.039   0.971 -11.101  0.00  0.00    -0.028 C 
ATOM     31  H   LIG d   1       2.951   0.991 -11.047  0.00  0.00     0.026 H 
ATOM     32  H   LIG d   1       4.379   1.677 -11.859  0.00  0.00     0.026 H 
ATOM     33  H   LIG d   1       4.371  -0.033 -11.366  0.00  0.00     0.026 H 
ENDBRANCH  24  30
ENDBRANCH  23  24
ENDBRANCH  17  23
ENDBRANCH  10  13
ENDBRANCH   7  10
ENDBRANCH   4   7
ENDBRANCH   1   4
BRANCH   1  34
ATOM     34  C   LIG d   1       5.866  -2.563  -5.019  0.00  0.00    -0.007 C 
ATOM     35  H   LIG d   1       6.488  -1.677  -4.890  0.00  0.00     0.035 H 
BRANCH  34  36
ATOM     36  C   LIG d   1       4.982  -2.749  -3.784  0.00  0.00    -0.021 C 
ATOM     37  H   LIG d   1       4.077  -3.289  -4.064  0.00  0.00     0.032 H 
ATOM     38  H   LIG d   1       5.525  -3.317  -3.030  0.00  0.00     0.032 H 
BRANCH  36  39
ATOM     39  C   LIG d   1       4.608  -1.400  -3.226  0.00  0.00    -0.047 A 
ATOM     40  C   LIG d   1       3.278  -1.061  -3.069  0.00  0.00    -0.059 A 
ATOM     41  C   LIG d   1       2.936   0.177  -2.555  0.00  0.00    -0.061 A 
ATOM     42  H   LIG d   1       2.505  -1.762  -3.347  0.00  0.00     0.062 H 
ATOM     43  C   LIG d   1       3.925   1.075  -2.200  0.00  0.00    -0.062 A 
ATOM     44  H   LIG d   1       1.896   0.442  -2.433  0.00  0.00     0.062 H 
ATOM     45  C   LIG d   1       5.255   0.735  -2.357  0.00  0.00    -0.061 A 
ATOM     46  H   LIG d   1       3.658   2.041  -1.798  0.00  0.00     0.062 H 
ATOM     47  C   LIG d   1       5.598  -0.504  -2.864  0.00  0.00    -0.059 A 
ATOM     48  H   LIG d   1       6.029   1.436  -2.078  0.00  0.00     0.062 H 
ATOM     49  H   LIG d   1       6.637  -0.771  -2.983  0.00  0.00     0.062 H 
ENDBRANCH  36  39
ENDBRANCH  34  36
BRANCH  34  50
ATOM     50  C   LIG d   1       4.997  -2.392  -6.238  0.00  0.00    -0.040 A 
ATOM     51  C   LIG d   1       4.693  -3.486  -7.026  0.00  0.00    -0.013 A 
ATOM     52  C   LIG d   1       3.888  -3.333  -8.144  0.00  0.00     0.167 A 
ATOM     53  H   LIG d   1       5.078  -4.461  -6.769  0.00  0.00     0.066 H 
ATOM     54  C   LIG d   1       3.398  -2.073  -8.477  0.00  0.00     0.166 A 
ATOM     55  O   LIG d   1       3.445  -4.232  -9.070  0.00  0.00    -0.453 OA
ATOM     56  C   LIG d   1       3.711  -0.980  -7.685  0.00  0.00    -0.016 A 
ATOM     57  O   LIG d   1       2.646  -2.183  -9.611  0.00  0.00    -0.453 OA
ATOM     58  C   LIG d   1       4.510  -1.141  -6.568  0.00  0.00    -0.055 A 
ATOM     59  H   LIG d   1       3.333  -0.001  -7.941  0.00  0.00     0.066 H 
ATOM     60  H   LIG d   1       4.754  -0.288  -5.953  0.00  0.00     0.062 H 
ATOM     61  C   LIG d   1       3.016  -3.445 -10.197  0.00  0.00     0.233 C 
ATOM     62  H   LIG d   1       3.834  -3.313 -10.905  0.00  0.00     0.117 H 
ATOM     63  H   LIG d   1       2.158  -3.907 -10.684  0.00  0.00     0.117 H 
ENDBRANCH  34  50
ENDBRANCH   1  34
TORSDOF 12
ENDMDL
MODEL 4
REMARK VINA RESULT:      -6.2      3.205      6.644
REMARK  12 active torsions:
REMARK  status: ('A' for Active; 'I' for Inactive)
REMARK    1  A    between atoms: C_1  and  C_2 
REMARK    2  A    between atoms: C_2  and  C_3 
REMARK    3  A    between atoms: C_2  and  O_4 
REMARK    4  A    between atoms: O_4  and  C_5 
REMARK    5  A    between atoms: C_8  and  C_11 
REMARK    6  A    between atoms: C_11  and  N_61 
REMARK    7  A    between atoms: C_12  and  C_13 
REMARK    8  A    between atoms: C_12  and  N_61 
REMARK    9  A    between atoms: C_13  and  C_14 
REMARK   10  A    between atoms: C_14  and  C_16 
REMARK   11  A    between atoms: C_14  and  C_23 
REMARK   12  A    between atoms: C_16  and  C_17 
ROOT
ATOM      1  C   LIG d   1       6.656  -2.858  -4.273  0.00  0.00    -0.005 C 
ATOM      2  H   LIG d   1       6.841  -3.902  -4.020  0.00  0.00     0.032 H 
ATOM      3  H   LIG d   1       6.821  -2.236  -3.393  0.00  0.00     0.032 H 
ENDROOT
BRANCH   1   4
ATOM      4  C   LIG d   1       7.609  -2.427  -5.388  0.00  0.00    -0.033 C 
ATOM      5  H   LIG d   1       7.067  -2.382  -6.332  0.00  0.00     0.081 H 
ATOM      6  H   LIG d   1       8.018  -1.442  -5.157  0.00  0.00     0.081 H 
BRANCH   4   7
ATOM      7  N   LIG d   1       8.707  -3.407  -5.493  0.00  0.00     0.230 N 
ATOM      8  H   LIG d   1       8.311  -4.350  -5.584  0.00  0.00     0.202 HD
ATOM      9  H   LIG d   1       9.275  -3.192  -6.321  0.00  0.00     0.202 HD
BRANCH   7  10
ATOM     10  C   LIG d   1       9.559  -3.352  -4.290  0.00  0.00    -0.008 C 
ATOM     11  H   LIG d   1      10.586  -3.127  -4.579  0.00  0.00     0.087 H 
ATOM     12  H   LIG d   1       9.194  -2.576  -3.617  0.00  0.00     0.087 H 
BRANCH  10  13
ATOM     13  C   LIG d   1       9.514  -4.687  -3.592  0.00  0.00    -0.003 A 
ATOM     14  C   LIG d   1       9.849  -4.776  -2.253  0.00  0.00    -0.050 A 
ATOM     15  C   LIG d   1       9.808  -5.998  -1.611  0.00  0.00    -0.019 A 
ATOM     16  H   LIG d   1      10.142  -3.890  -1.710  0.00  0.00     0.062 H 
ATOM     17  C   LIG d   1       9.430  -7.135  -2.309  0.00  0.00     0.121 A 
ATOM     18  H   LIG d   1      10.069  -6.068  -0.564  0.00  0.00     0.065 H 
ATOM     19  C   LIG d   1       9.095  -7.042  -3.652  0.00  0.00    -0.019 A 
ATOM     20  C   LIG d   1       9.132  -5.817  -4.289  0.00  0.00    -0.050 A 
ATOM     21  H   LIG d   1       8.801  -7.927  -4.199  0.00  0.00     0.065 H 
ATOM     22  H   LIG d   1       8.866  -5.743  -5.333  0.00  0.00     0.062 H 
BRANCH  17  23
ATOM     23  O   LIG d   1       9.390  -8.340  -1.679  0.00  0.00    -0.489 OA
BRANCH  23  24
ATOM     24  C   LIG d   1       8.613  -9.368  -2.295  0.00  0.00     0.095 C 
ATOM     25  H   LIG d   1       8.330  -9.058  -3.301  0.00  0.00     0.073 H 
BRANCH  24  26
ATOM     26  C   LIG d   1       9.440 -10.654  -2.373  0.00  0.00    -0.028 C 
ATOM     27  H   LIG d   1       8.936 -11.444  -1.817  0.00  0.00     0.026 H 
ATOM     28  H   LIG d   1       9.548 -10.955  -3.415  0.00  0.00     0.026 H 
ATOM     29  H   LIG d   1      10.426 -10.478  -1.941  0.00  0.00     0.026 H 
ENDBRANCH  24  26
BRANCH  24  30
ATOM     30  C   LIG d   1       7.353  -9.622  -1.466  0.00  0.00    -0.028 C 
ATOM     31  H   LIG d   1       7.607 -10.228  -0.596  0.00  0.00     0.026 H 
ATOM     32  H   LIG d   1       6.936  -8.670  -1.137  0.00  0.00     0.026 H 
ATOM     33  H   LIG d   1       6.618 -10.151  -2.074  0.00  0.00     0.026 H 
ENDBRANCH  24  30
ENDBRANCH  23  24
ENDBRANCH  17  23
ENDBRANCH  10  13
ENDBRANCH   7  10
ENDBRANCH   4   7
ENDBRANCH   1   4
BRANCH   1  34
ATOM     34  C   LIG d   1       5.210  -2.697  -4.747  0.00  0.00    -0.007 C 
ATOM     35  H   LIG d   1       5.117  -1.776  -5.323  0.00  0.00     0.035 H 
BRANCH  34  36
ATOM     36  C   LIG d   1       4.279  -2.636  -3.534  0.00  0.00    -0.021 C 
ATOM     37  H   LIG d   1       3.321  -3.089  -3.788  0.00  0.00     0.032 H 
ATOM     38  H   LIG d   1       4.728  -3.180  -2.703  0.00  0.00     0.032 H 
BRANCH  36  39
ATOM     39  C   LIG d   1       4.065  -1.198  -3.137  0.00  0.00    -0.047 A 
ATOM     40  C   LIG d   1       3.293  -0.370  -3.929  0.00  0.00    -0.059 A 
ATOM     41  C   LIG d   1       3.096   0.949  -3.564  0.00  0.00    -0.061 A 
ATOM     42  H   LIG d   1       2.844  -0.752  -4.833  0.00  0.00     0.062 H 
ATOM     43  C   LIG d   1       3.671   1.439  -2.406  0.00  0.00    -0.062 A 
ATOM     44  H   LIG d   1       2.493   1.597  -4.182  0.00  0.00     0.062 H 
ATOM     45  C   LIG d   1       4.443   0.610  -1.614  0.00  0.00    -0.061 A 
ATOM     46  H   LIG d   1       3.517   2.469  -2.120  0.00  0.00     0.062 H 
ATOM     47  C   LIG d   1       4.636  -0.710  -1.976  0.00  0.00    -0.059 A 
ATOM     48  H   LIG d   1       4.892   0.992  -0.709  0.00  0.00     0.062 H 
ATOM     49  H   LIG d   1       5.235  -1.359  -1.354  0.00  0.00     0.062 H 
ENDBRANCH  36  39
ENDBRANCH  34  36
BRANCH  34  50
ATOM     50  C   LIG d   1       4.831  -3.871  -5.612  0.00  0.00    -0.040 A 
ATOM     51  C   LIG d   1       4.953  -5.157  -5.122  0.00  0.00    -0.013 A 
ATOM     52  C   LIG d   1       4.599  -6.238  -5.914  0.00  0.00     0.167 A 
ATOM     53  H   LIG d   1       5.322  -5.321  -4.121  0.00  0.00     0.066 H 
ATOM     54  C   LIG d   1       4.131  -6.024  -7.208  0.00  0.00     0.166 A 
ATOM     55  O   LIG d   1       4.622  -7.581  -5.675  0.00  0.00    -0.453 OA
ATOM     56  C   LIG d   1       4.014  -4.732  -7.695  0.00  0.00    -0.016 A 
ATOM     57  O   LIG d   1       3.859  -7.233  -7.779  0.00  0.00    -0.453 OA
ATOM     58  C   LIG d   1       4.365  -3.658  -6.897  0.00  0.00    -0.055 A 
ATOM     59  H   LIG d   1       3.652  -4.563  -8.698  0.00  0.00     0.066 H 
ATOM     60  H   LIG d   1       4.275  -2.652  -7.277  0.00  0.00     0.062 H 
ATOM     61  C   LIG d   1       4.550  -8.204  -6.971  0.00  0.00     0.233 C 
ATOM     62  H   LIG d   1       5.551  -8.387  -7.364  0.00  0.00     0.117 H 
ATOM     63  H   LIG d   1       3.983  -9.133  -6.920  0.00  0.00     0.117 H 
ENDBRANCH  34  50
ENDBRANCH   1  34
TORSDOF 12
ENDMDL
MODEL 5
REMARK VINA RESULT:      -6.1      3.952      7.671
REMARK  12 active torsions:
REMARK  status: ('A' for Active; 'I' for Inactive)
REMARK    1  A    between atoms: C_1  and  C_2 
REMARK    2  A    between atoms: C_2  and  C_3 
REMARK    3  A    between atoms: C_2  and  O_4 
REMARK    4  A    between atoms: O_4  and  C_5 
REMARK    5  A    between atoms: C_8  and  C_11 
REMARK    6  A    between atoms: C_11  and  N_61 
REMARK    7  A    between atoms: C_12  and  C_13 
REMARK    8  A    between atoms: C_12  and  N_61 
REMARK    9  A    between atoms: C_13  and  C_14 
REMARK   10  A    between atoms: C_14  and  C_16 
REMARK   11  A    between atoms: C_14  and  C_23 
REMARK   12  A    between atoms: C_16  and  C_17 
ROOT
ATOM      1  C   LIG d   1       8.827   0.019  -8.378  0.00  0.00    -0.005 C 
ATOM      2  H   LIG d   1       9.643   0.741  -8.340  0.00  0.00     0.032 H 
ATOM      3  H   LIG d   1       8.604  -0.223  -9.417  0.00  0.00     0.032 H 
ENDROOT
BRANCH   1   4
ATOM      4  C   LIG d   1       9.237  -1.253  -7.634  0.00  0.00    -0.033 C 
ATOM      5  H   LIG d   1      10.225  -1.567  -7.970  0.00  0.00     0.081 H 
ATOM      6  H   LIG d   1       9.263  -1.055  -6.562  0.00  0.00     0.081 H 
BRANCH   4   7
ATOM      7  N   LIG d   1       8.255  -2.317  -7.917  0.00  0.00     0.230 N 
ATOM      8  H   LIG d   1       7.319  -1.902  -7.992  0.00  0.00     0.202 HD
ATOM      9  H   LIG d   1       8.499  -2.775  -8.803  0.00  0.00     0.202 HD
BRANCH   7  10
ATOM     10  C   LIG d   1       8.258  -3.319  -6.834  0.00  0.00    -0.008 C 
ATOM     11  H   LIG d   1       7.863  -4.264  -7.209  0.00  0.00     0.087 H 
ATOM     12  H   LIG d   1       9.276  -3.468  -6.476  0.00  0.00     0.087 H 
BRANCH  10  13
ATOM     13  C   LIG d   1       7.394  -2.825  -5.703  0.00  0.00    -0.003 A 
ATOM     14  C   LIG d   1       7.935  -2.666  -4.441  0.00  0.00    -0.050 A 
ATOM     15  C   LIG d   1       7.145  -2.213  -3.402  0.00  0.00    -0.019 A 
ATOM     16  H   LIG d   1       8.976  -2.895  -4.267  0.00  0.00     0.062 H 
ATOM     17  C   LIG d   1       5.808  -1.918  -3.626  0.00  0.00     0.121 A 
ATOM     18  H   LIG d   1       7.568  -2.087  -2.416  0.00  0.00     0.065 H 
ATOM     19  C   LIG d   1       5.268  -2.080  -4.894  0.00  0.00    -0.019 A 
ATOM     20  C   LIG d   1       6.063  -2.527  -5.931  0.00  0.00    -0.050 A 
ATOM     21  H   LIG d   1       4.227  -1.852  -5.071  0.00  0.00     0.065 H 
ATOM     22  H   LIG d   1       5.644  -2.648  -6.919  0.00  0.00     0.062 H 
BRANCH  17  23
ATOM     23  O   LIG d   1       5.028  -1.473  -2.605  0.00  0.00    -0.489 OA
BRANCH  23  24
ATOM     24  C   LIG d   1       4.254  -0.297  -2.846  0.00  0.00     0.095 C 
ATOM     25  H   LIG d   1       4.521   0.123  -3.816  0.00  0.00     0.073 H 
BRANCH  24  26
ATOM     26  C   LIG d   1       2.766  -0.656  -2.838  0.00  0.00    -0.028 C 
ATOM     27  H   LIG d   1       2.552  -1.296  -1.983  0.00  0.00     0.026 H 
ATOM     28  H   LIG d   1       2.173   0.256  -2.766  0.00  0.00     0.026 H 
ATOM     29  H   LIG d   1       2.515  -1.182  -3.759  0.00  0.00     0.026 H 
ENDBRANCH  24  26
BRANCH  24  30
ATOM     30  C   LIG d   1       4.536   0.732  -1.750  0.00  0.00    -0.028 C 
ATOM     31  H   LIG d   1       4.046   0.423  -0.827  0.00  0.00     0.026 H 
ATOM     32  H   LIG d   1       5.611   0.803  -1.585  0.00  0.00     0.026 H 
ATOM     33  H   LIG d   1       4.150   1.705  -2.057  0.00  0.00     0.026 H 
ENDBRANCH  24  30
ENDBRANCH  23  24
ENDBRANCH  17  23
ENDBRANCH  10  13
ENDBRANCH   7  10
ENDBRANCH   4   7
ENDBRANCH   1   4
BRANCH   1  34
ATOM     34  C   LIG d   1       7.584   0.619  -7.718  0.00  0.00    -0.007 C 
ATOM     35  H   LIG d   1       6.870  -0.175  -7.498  0.00  0.00     0.035 H 
BRANCH  34  36
ATOM     36  C   LIG d   1       6.942   1.634  -8.666  0.00  0.00    -0.021 C 
ATOM     37  H   LIG d   1       7.170   2.644  -8.324  0.00  0.00     0.032 H 
ATOM     38  H   LIG d   1       7.338   1.494  -9.671  0.00  0.00     0.032 H 
BRANCH  36  39
ATOM     39  C   LIG d   1       5.449   1.433  -8.680  0.00  0.00    -0.047 A 
ATOM     40  C   LIG d   1       4.627   2.392  -9.241  0.00  0.00    -0.059 A 
ATOM     41  C   LIG d   1       3.257   2.207  -9.256  0.00  0.00    -0.061 A 
ATOM     42  H   LIG d   1       5.056   3.286  -9.670  0.00  0.00     0.062 H 
ATOM     43  C   LIG d   1       2.709   1.062  -8.708  0.00  0.00    -0.062 A 
ATOM     44  H   LIG d   1       2.615   2.956  -9.694  0.00  0.00     0.062 H 
ATOM     45  C   LIG d   1       3.531   0.103  -8.147  0.00  0.00    -0.061 A 
ATOM     46  H   LIG d   1       1.639   0.917  -8.719  0.00  0.00     0.062 H 
ATOM     47  C   LIG d   1       4.901   0.285  -8.138  0.00  0.00    -0.059 A 
ATOM     48  H   LIG d   1       3.103  -0.792  -7.719  0.00  0.00     0.062 H 
ATOM     49  H   LIG d   1       5.544  -0.467  -7.704  0.00  0.00     0.062 H 
ENDBRANCH  36  39
ENDBRANCH  34  36
BRANCH  34  50
ATOM     50  C   LIG d   1       7.979   1.308  -6.436  0.00  0.00    -0.040 A 
ATOM     51  C   LIG d   1       8.895   2.342  -6.463  0.00  0.00    -0.013 A 
ATOM     52  C   LIG d   1       9.254   2.981  -5.287  0.00  0.00     0.167 A 
ATOM     53  H   LIG d   1       9.329   2.655  -7.401  0.00  0.00     0.066 H 
ATOM     54  C   LIG d   1       8.698   2.571  -4.078  0.00  0.00     0.166 A 
ATOM     55  O   LIG d   1      10.118   4.010  -5.043  0.00  0.00    -0.453 OA
ATOM     56  C   LIG d   1       7.782   1.531  -4.058  0.00  0.00    -0.016 A 
ATOM     57  O   LIG d   1       9.211   3.343  -3.077  0.00  0.00    -0.453 OA
ATOM     58  C   LIG d   1       7.425   0.901  -5.236  0.00  0.00    -0.055 A 
ATOM     59  H   LIG d   1       7.350   1.210  -3.123  0.00  0.00     0.066 H 
ATOM     60  H   LIG d   1       6.713   0.090  -5.219  0.00  0.00     0.062 H 
ATOM     61  C   LIG d   1      10.391   3.956  -3.631  0.00  0.00     0.233 C 
ATOM     62  H   LIG d   1      11.269   3.341  -3.434  0.00  0.00     0.117 H 
ATOM     63  H   LIG d   1      10.526   4.959  -3.228  0.00  0.00     0.117 H 
ENDBRANCH  34  50
ENDBRANCH   1  34
TORSDOF 12
ENDMDL
MODEL 6
REMARK VINA RESULT:      -6.0      1.649      2.441
REMARK  12 active torsions:
REMARK  status: ('A' for Active; 'I' for Inactive)
REMARK    1  A    between atoms: C_1  and  C_2 
REMARK    2  A    between atoms: C_2  and  C_3 
REMARK    3  A    between atoms: C_2  and  O_4 
REMARK    4  A    between atoms: O_4  and  C_5 
REMARK    5  A    between atoms: C_8  and  C_11 
REMARK    6  A    between atoms: C_11  and  N_61 
REMARK    7  A    between atoms: C_12  and  C_13 
REMARK    8  A    between atoms: C_12  and  N_61 
REMARK    9  A    between atoms: C_13  and  C_14 
REMARK   10  A    between atoms: C_14  and  C_16 
REMARK   11  A    between atoms: C_14  and  C_23 
REMARK   12  A    between atoms: C_16  and  C_17 
ROOT
ATOM      1  C   LIG d   1       6.646  -0.457  -7.585  0.00  0.00    -0.005 C 
ATOM      2  H   LIG d   1       6.641  -1.181  -8.400  0.00  0.00     0.032 H 
ATOM      3  H   LIG d   1       7.621  -0.467  -7.097  0.00  0.00     0.032 H 
ENDROOT
BRANCH   1   4
ATOM      4  C   LIG d   1       6.369   0.940  -8.143  0.00  0.00    -0.033 C 
ATOM      5  H   LIG d   1       6.977   1.670  -7.610  0.00  0.00     0.081 H 
ATOM      6  H   LIG d   1       6.618   0.964  -9.204  0.00  0.00     0.081 H 
BRANCH   4   7
ATOM      7  N   LIG d   1       4.940   1.259  -7.962  0.00  0.00     0.230 N 
ATOM      8  H   LIG d   1       4.425   0.395  -7.751  0.00  0.00     0.202 HD
ATOM      9  H   LIG d   1       4.836   1.918  -7.182  0.00  0.00     0.202 HD
BRANCH   7  10
ATOM     10  C   LIG d   1       4.390   1.865  -9.189  0.00  0.00    -0.008 C 
ATOM     11  H   LIG d   1       3.807   2.750  -8.930  0.00  0.00     0.087 H 
ATOM     12  H   LIG d   1       5.206   2.150  -9.854  0.00  0.00     0.087 H 
BRANCH  10  13
ATOM     13  C   LIG d   1       3.504   0.862  -9.881  0.00  0.00    -0.003 A 
ATOM     14  C   LIG d   1       3.866   0.360 -11.117  0.00  0.00    -0.050 A 
ATOM     15  C   LIG d   1       3.055  -0.561 -11.753  0.00  0.00    -0.019 A 
ATOM     16  H   LIG d   1       4.783   0.685 -11.585  0.00  0.00     0.062 H 
ATOM     17  C   LIG d   1       1.877  -0.979 -11.151  0.00  0.00     0.121 A 
ATOM     18  H   LIG d   1       3.338  -0.954 -12.719  0.00  0.00     0.065 H 
ATOM     19  C   LIG d   1       1.517  -0.472  -9.911  0.00  0.00    -0.019 A 
ATOM     20  C   LIG d   1       2.334   0.443  -9.276  0.00  0.00    -0.050 A 
ATOM     21  H   LIG d   1       0.600  -0.796  -9.440  0.00  0.00     0.065 H 
ATOM     22  H   LIG d   1       2.056   0.834  -8.308  0.00  0.00     0.062 H 
BRANCH  17  23
ATOM     23  O   LIG d   1       1.077  -1.884 -11.776  0.00  0.00    -0.489 OA
BRANCH  23  24
ATOM     24  C   LIG d   1       1.457  -3.258 -11.682  0.00  0.00     0.095 C 
ATOM     25  H   LIG d   1       2.496  -3.328 -11.360  0.00  0.00     0.073 H 
BRANCH  24  26
ATOM     26  C   LIG d   1       0.560  -3.966 -10.665  0.00  0.00    -0.028 C 
ATOM     27  H   LIG d   1      -0.257  -4.465 -11.185  0.00  0.00     0.026 H 
ATOM     28  H   LIG d   1       1.145  -4.704 -10.115  0.00  0.00     0.026 H 
ATOM     29  H   LIG d   1       0.152  -3.233  -9.968  0.00  0.00     0.026 H 
ENDBRANCH  24  26
BRANCH  24  30
ATOM     30  C   LIG d   1       1.300  -3.925 -13.050  0.00  0.00    -0.028 C 
ATOM     31  H   LIG d   1       1.311  -3.163 -13.829  0.00  0.00     0.026 H 
ATOM     32  H   LIG d   1       2.123  -4.621 -13.211  0.00  0.00     0.026 H 
ATOM     33  H   LIG d   1       0.354  -4.466 -13.085  0.00  0.00     0.026 H 
ENDBRANCH  24  30
ENDBRANCH  23  24
ENDBRANCH  17  23
ENDBRANCH  10  13
ENDBRANCH   7  10
ENDBRANCH   4   7
ENDBRANCH   1   4
BRANCH   1  34
ATOM     34  C   LIG d   1       5.564  -0.825  -6.569  0.00  0.00    -0.007 C 
ATOM     35  H   LIG d   1       4.774  -0.075  -6.591  0.00  0.00     0.035 H 
BRANCH  34  36
ATOM     36  C   LIG d   1       6.176  -0.880  -5.168  0.00  0.00    -0.021 C 
ATOM     37  H   LIG d   1       6.303  -1.920  -4.867  0.00  0.00     0.032 H 
ATOM     38  H   LIG d   1       7.146  -0.383  -5.175  0.00  0.00     0.032 H 
BRANCH  36  39
ATOM     39  C   LIG d   1       5.262  -0.183  -4.193  0.00  0.00    -0.047 A 
ATOM     40  C   LIG d   1       5.777   0.369  -3.035  0.00  0.00    -0.059 A 
ATOM     41  C   LIG d   1       4.938   1.009  -2.141  0.00  0.00    -0.061 A 
ATOM     42  H   LIG d   1       6.835   0.301  -2.829  0.00  0.00     0.062 H 
ATOM     43  C   LIG d   1       3.584   1.095  -2.406  0.00  0.00    -0.062 A 
ATOM     44  H   LIG d   1       5.340   1.440  -1.237  0.00  0.00     0.062 H 
ATOM     45  C   LIG d   1       3.069   0.543  -3.564  0.00  0.00    -0.061 A 
ATOM     46  H   LIG d   1       2.929   1.595  -1.708  0.00  0.00     0.062 H 
ATOM     47  C   LIG d   1       3.908  -0.091  -4.460  0.00  0.00    -0.059 A 
ATOM     48  H   LIG d   1       2.011   0.611  -3.771  0.00  0.00     0.062 H 
ATOM     49  H   LIG d   1       3.507  -0.518  -5.367  0.00  0.00     0.062 H 
ENDBRANCH  36  39
ENDBRANCH  34  36
BRANCH  34  50
ATOM     50  C   LIG d   1       4.985  -2.173  -6.916  0.00  0.00    -0.040 A 
ATOM     51  C   LIG d   1       5.241  -3.263  -6.106  0.00  0.00    -0.013 A 
ATOM     52  C   LIG d   1       4.705  -4.502  -6.421  0.00  0.00     0.167 A 
ATOM     53  H   LIG d   1       5.857  -3.150  -5.226  0.00  0.00     0.066 H 
ATOM     54  C   LIG d   1       3.918  -4.647  -7.560  0.00  0.00     0.166 A 
ATOM     55  O   LIG d   1       4.801  -5.714  -5.800  0.00  0.00    -0.453 OA
ATOM     56  C   LIG d   1       3.668  -3.551  -8.370  0.00  0.00    -0.016 A 
ATOM     57  O   LIG d   1       3.519  -5.949  -7.652  0.00  0.00    -0.453 OA
ATOM     58  C   LIG d   1       4.203  -2.317  -8.048  0.00  0.00    -0.055 A 
ATOM     59  H   LIG d   1       3.059  -3.660  -9.254  0.00  0.00     0.066 H 
ATOM     60  H   LIG d   1       4.009  -1.463  -8.680  0.00  0.00     0.062 H 
ATOM     61  C   LIG d   1       4.404  -6.684  -6.786  0.00  0.00     0.233 C 
ATOM     62  H   LIG d   1       5.272  -7.043  -7.340  0.00  0.00     0.117 H 
ATOM     63  H   LIG d   1       3.878  -7.515  -6.317  0.00  0.00     0.117 H 
ENDBRANCH  34  50
ENDBRANCH   1  34
TORSDOF 12
ENDMDL
MODEL 7
REMARK VINA RESULT:      -6.0      3.716      5.727
REMARK  12 active torsions:
REMARK  status: ('A' for Active; 'I' for Inactive)
REMARK    1  A    between atoms: C_1  and  C_2 
REMARK    2  A    between atoms: C_2  and  C_3 
REMARK    3  A    between atoms: C_2  and  O_4 
REMARK    4  A    between atoms: O_4  and  C_5 
REMARK    5  A    between atoms: C_8  and  C_11 
REMARK    6  A    between atoms: C_11  and  N_61 
REMARK    7  A    between atoms: C_12  and  C_13 
REMARK    8  A    between atoms: C_12  and  N_61 
REMARK    9  A    between atoms: C_13  and  C_14 
REMARK   10  A    between atoms: C_14  and  C_16 
REMARK   11  A    between atoms: C_14  and  C_23 
REMARK   12  A    between atoms: C_16  and  C_17 
ROOT
ATOM      1  C   LIG d   1       6.694  -2.788  -4.504  0.00  0.00    -0.005 C 
ATOM      2  H   LIG d   1       7.111  -3.742  -4.825  0.00  0.00     0.032 H 
ATOM      3  H   LIG d   1       6.803  -2.689  -3.424  0.00  0.00     0.032 H 
ENDROOT
BRANCH   1   4
ATOM      4  C   LIG d   1       7.438  -1.646  -5.200  0.00  0.00    -0.033 C 
ATOM      5  H   LIG d   1       8.244  -2.056  -5.808  0.00  0.00     0.081 H 
ATOM      6  H   LIG d   1       6.745  -1.096  -5.837  0.00  0.00     0.081 H 
BRANCH   4   7
ATOM      7  N   LIG d   1       7.997  -0.741  -4.179  0.00  0.00     0.230 N 
ATOM      8  H   LIG d   1       7.956  -1.199  -3.261  0.00  0.00     0.202 HD
ATOM      9  H   LIG d   1       8.974  -0.530  -4.413  0.00  0.00     0.202 HD
BRANCH   7  10
ATOM     10  C   LIG d   1       7.226   0.516  -4.129  0.00  0.00    -0.008 C 
ATOM     11  H   LIG d   1       6.365   0.442  -4.794  0.00  0.00     0.087 H 
ATOM     12  H   LIG d   1       6.883   0.695  -3.110  0.00  0.00     0.087 H 
BRANCH  10  13
ATOM     13  C   LIG d   1       8.108   1.654  -4.572  0.00  0.00    -0.003 A 
ATOM     14  C   LIG d   1       8.299   1.894  -5.920  0.00  0.00    -0.050 A 
ATOM     15  C   LIG d   1       9.107   2.938  -6.328  0.00  0.00    -0.019 A 
ATOM     16  H   LIG d   1       7.816   1.266  -6.654  0.00  0.00     0.062 H 
ATOM     17  C   LIG d   1       9.726   3.745  -5.385  0.00  0.00     0.121 A 
ATOM     18  H   LIG d   1       9.255   3.127  -7.382  0.00  0.00     0.065 H 
ATOM     19  C   LIG d   1       9.532   3.501  -4.033  0.00  0.00    -0.019 A 
ATOM     20  C   LIG d   1       8.719   2.460  -3.630  0.00  0.00    -0.050 A 
ATOM     21  H   LIG d   1      10.014   4.127  -3.296  0.00  0.00     0.065 H 
ATOM     22  H   LIG d   1       8.564   2.273  -2.577  0.00  0.00     0.062 H 
BRANCH  17  23
ATOM     23  O   LIG d   1      10.522   4.773  -5.785  0.00  0.00    -0.489 OA
BRANCH  23  24
ATOM     24  C   LIG d   1       9.888   5.856  -6.468  0.00  0.00     0.095 C 
ATOM     25  H   LIG d   1       8.985   5.496  -6.962  0.00  0.00     0.073 H 
BRANCH  24  26
ATOM     26  C   LIG d   1       9.517   6.946  -5.460  0.00  0.00    -0.028 C 
ATOM     27  H   LIG d   1       9.785   6.619  -4.456  0.00  0.00     0.026 H 
ATOM     28  H   LIG d   1      10.058   7.862  -5.700  0.00  0.00     0.026 H 
ATOM     29  H   LIG d   1       8.444   7.135  -5.508  0.00  0.00     0.026 H 
ENDBRANCH  24  26
BRANCH  24  30
ATOM     30  C   LIG d   1      10.847   6.431  -7.511  0.00  0.00    -0.028 C 
ATOM     31  H   LIG d   1      11.659   5.726  -7.687  0.00  0.00     0.026 H 
ATOM     32  H   LIG d   1      10.308   6.605  -8.443  0.00  0.00     0.026 H 
ATOM     33  H   LIG d   1      11.258   7.373  -7.147  0.00  0.00     0.026 H 
ENDBRANCH  24  30
ENDBRANCH  23  24
ENDBRANCH  17  23
ENDBRANCH  10  13
ENDBRANCH   7  10
ENDBRANCH   4   7
ENDBRANCH   1   4
BRANCH   1  34
ATOM     34  C   LIG d   1       5.210  -2.730  -4.873  0.00  0.00    -0.007 C 
ATOM     35  H   LIG d   1       5.015  -1.828  -5.452  0.00  0.00     0.035 H 
BRANCH  34  36
ATOM     36  C   LIG d   1       4.367  -2.709  -3.597  0.00  0.00    -0.021 C 
ATOM     37  H   LIG d   1       3.405  -3.185  -3.789  0.00  0.00     0.032 H 
ATOM     38  H   LIG d   1       4.888  -3.251  -2.808  0.00  0.00     0.032 H 
BRANCH  36  39
ATOM     39  C   LIG d   1       4.145  -1.283  -3.165  0.00  0.00    -0.047 A 
ATOM     40  C   LIG d   1       3.411  -0.425  -3.962  0.00  0.00    -0.059 A 
ATOM     41  C   LIG d   1       3.206   0.883  -3.565  0.00  0.00    -0.061 A 
ATOM     42  H   LIG d   1       2.997  -0.777  -4.895  0.00  0.00     0.062 H 
ATOM     43  C   LIG d   1       3.737   1.334  -2.370  0.00  0.00    -0.062 A 
ATOM     44  H   LIG d   1       2.633   1.554  -4.188  0.00  0.00     0.062 H 
ATOM     45  C   LIG d   1       4.470   0.476  -1.573  0.00  0.00    -0.061 A 
ATOM     46  H   LIG d   1       3.577   2.355  -2.060  0.00  0.00     0.062 H 
ATOM     47  C   LIG d   1       4.670  -0.834  -1.967  0.00  0.00    -0.059 A 
ATOM     48  H   LIG d   1       4.884   0.827  -0.639  0.00  0.00     0.062 H 
ATOM     49  H   LIG d   1       5.239  -1.506  -1.342  0.00  0.00     0.062 H 
ENDBRANCH  36  39
ENDBRANCH  34  36
BRANCH  34  50
ATOM     50  C   LIG d   1       4.849  -3.942  -5.694  0.00  0.00    -0.040 A 
ATOM     51  C   LIG d   1       4.951  -5.204  -5.142  0.00  0.00    -0.013 A 
ATOM     52  C   LIG d   1       4.613  -6.319  -5.893  0.00  0.00     0.167 A 
ATOM     53  H   LIG d   1       5.291  -5.323  -4.124  0.00  0.00     0.066 H 
ATOM     54  C   LIG d   1       4.181  -6.164  -7.207  0.00  0.00     0.166 A 
ATOM     55  O   LIG d   1       4.623  -7.650  -5.591  0.00  0.00    -0.453 OA
ATOM     56  C   LIG d   1       4.085  -4.895  -7.756  0.00  0.00    -0.016 A 
ATOM     57  O   LIG d   1       3.919  -7.397  -7.729  0.00  0.00    -0.453 OA
ATOM     58  C   LIG d   1       4.419  -3.787  -6.999  0.00  0.00    -0.055 A 
ATOM     59  H   LIG d   1       3.751  -4.771  -8.775  0.00  0.00     0.066 H 
ATOM     60  H   LIG d   1       4.345  -2.799  -7.428  0.00  0.00     0.062 H 
ATOM     61  C   LIG d   1       4.583  -8.332  -6.859  0.00  0.00     0.233 C 
ATOM     62  H   LIG d   1       5.593  -8.536  -7.215  0.00  0.00     0.117 H 
ATOM     63  H   LIG d   1       4.009  -9.255  -6.780  0.00  0.00     0.117 H 
ENDBRANCH  34  50
ENDBRANCH   1  34
TORSDOF 12
ENDMDL
MODEL 8
REMARK VINA RESULT:      -5.9      2.041      3.017
REMARK  12 active torsions:
REMARK  status: ('A' for Active; 'I' for Inactive)
REMARK    1  A    between atoms: C_1  and  C_2 
REMARK    2  A    between atoms: C_2  and  C_3 
REMARK    3  A    between atoms: C_2  and  O_4 
REMARK    4  A    between atoms: O_4  and  C_5 
REMARK    5  A    between atoms: C_8  and  C_11 
REMARK    6  A    between atoms: C_11  and  N_61 
REMARK    7  A    between atoms: C_12  and  C_13 
REMARK    8  A    between atoms: C_12  and  N_61 
REMARK    9  A    between atoms: C_13  and  C_14 
REMARK   10  A    between atoms: C_14  and  C_16 
REMARK   11  A    between atoms: C_14  and  C_23 
REMARK   12  A    between atoms: C_16  and  C_17 
ROOT
ATOM      1  C   LIG d   1       6.582  -0.510  -7.830  0.00  0.00    -0.005 C 
ATOM      2  H   LIG d   1       6.724  -0.846  -8.857  0.00  0.00     0.032 H 
ATOM      3  H   LIG d   1       7.469  -0.749  -7.244  0.00  0.00     0.032 H 
ENDROOT
BRANCH   1   4
ATOM      4  C   LIG d   1       6.352   1.002  -7.815  0.00  0.00    -0.033 C 
ATOM      5  H   LIG d   1       5.494   1.233  -7.185  0.00  0.00     0.081 H 
ATOM      6  H   LIG d   1       7.237   1.500  -7.419  0.00  0.00     0.081 H 
BRANCH   4   7
ATOM      7  N   LIG d   1       6.096   1.467  -9.191  0.00  0.00     0.230 N 
ATOM      8  H   LIG d   1       6.807   2.161  -9.452  0.00  0.00     0.202 HD
ATOM      9  H   LIG d   1       6.146   0.667  -9.833  0.00  0.00     0.202 HD
BRANCH   7  10
ATOM     10  C   LIG d   1       4.759   2.083  -9.284  0.00  0.00    -0.008 C 
ATOM     11  H   LIG d   1       4.453   2.442  -8.301  0.00  0.00     0.087 H 
ATOM     12  H   LIG d   1       4.788   2.919  -9.983  0.00  0.00     0.087 H 
BRANCH  10  13
ATOM     13  C   LIG d   1       3.774   1.053  -9.772  0.00  0.00    -0.003 A 
ATOM     14  C   LIG d   1       3.837   0.604 -11.078  0.00  0.00    -0.050 A 
ATOM     15  C   LIG d   1       2.934  -0.342 -11.529  0.00  0.00    -0.019 A 
ATOM     16  H   LIG d   1       4.591   0.991 -11.747  0.00  0.00     0.062 H 
ATOM     17  C   LIG d   1       1.966  -0.839 -10.669  0.00  0.00     0.121 A 
ATOM     18  H   LIG d   1       2.984  -0.693 -12.549  0.00  0.00     0.065 H 
ATOM     19  C   LIG d   1       1.906  -0.387  -9.359  0.00  0.00    -0.019 A 
ATOM     20  C   LIG d   1       2.814   0.554  -8.912  0.00  0.00    -0.050 A 
ATOM     21  H   LIG d   1       1.153  -0.772  -8.688  0.00  0.00     0.065 H 
ATOM     22  H   LIG d   1       2.770   0.903  -7.891  0.00  0.00     0.062 H 
BRANCH  17  23
ATOM     23  O   LIG d   1       1.077  -1.769 -11.110  0.00  0.00    -0.489 OA
BRANCH  23  24
ATOM     24  C   LIG d   1       1.139  -2.120 -12.493  0.00  0.00     0.095 C 
ATOM     25  H   LIG d   1       1.822  -1.445 -13.010  0.00  0.00     0.073 H 
BRANCH  24  26
ATOM     26  C   LIG d   1       1.640  -3.559 -12.633  0.00  0.00    -0.028 C 
ATOM     27  H   LIG d   1       1.581  -4.059 -11.667  0.00  0.00     0.026 H 
ATOM     28  H   LIG d   1       1.022  -4.091 -13.356  0.00  0.00     0.026 H 
ATOM     29  H   LIG d   1       2.675  -3.551 -12.975  0.00  0.00     0.026 H 
ENDBRANCH  24  26
BRANCH  24  30
ATOM     30  C   LIG d   1      -0.256  -2.004 -13.111  0.00  0.00    -0.028 C 
ATOM     31  H   LIG d   1      -0.706  -2.994 -13.179  0.00  0.00     0.026 H 
ATOM     32  H   LIG d   1      -0.878  -1.364 -12.486  0.00  0.00     0.026 H 
ATOM     33  H   LIG d   1      -0.177  -1.573 -14.109  0.00  0.00     0.026 H 
ENDBRANCH  24  30
ENDBRANCH  23  24
ENDBRANCH  17  23
ENDBRANCH  10  13
ENDBRANCH   7  10
ENDBRANCH   4   7
ENDBRANCH   1   4
BRANCH   1  34
ATOM     34  C   LIG d   1       5.367  -1.217  -7.226  0.00  0.00    -0.007 C 
ATOM     35  H   LIG d   1       4.550  -0.504  -7.116  0.00  0.00     0.035 H 
BRANCH  34  36
ATOM     36  C   LIG d   1       5.737  -1.785  -5.855  0.00  0.00    -0.021 C 
ATOM     37  H   LIG d   1       5.816  -2.870  -5.921  0.00  0.00     0.032 H 
ATOM     38  H   LIG d   1       6.693  -1.371  -5.535  0.00  0.00     0.032 H 
BRANCH  36  39
ATOM     39  C   LIG d   1       4.670  -1.419  -4.855  0.00  0.00    -0.047 A 
ATOM     40  C   LIG d   1       3.791  -0.387  -5.128  0.00  0.00    -0.059 A 
ATOM     41  C   LIG d   1       2.812  -0.052  -4.212  0.00  0.00    -0.061 A 
ATOM     42  H   LIG d   1       3.869   0.156  -6.058  0.00  0.00     0.062 H 
ATOM     43  C   LIG d   1       2.712  -0.749  -3.021  0.00  0.00    -0.062 A 
ATOM     44  H   LIG d   1       2.125   0.753  -4.425  0.00  0.00     0.062 H 
ATOM     45  C   LIG d   1       3.591  -1.780  -2.749  0.00  0.00    -0.061 A 
ATOM     46  H   LIG d   1       1.948  -0.487  -2.305  0.00  0.00     0.062 H 
ATOM     47  C   LIG d   1       4.566  -2.119  -3.667  0.00  0.00    -0.059 A 
ATOM     48  H   LIG d   1       3.514  -2.325  -1.819  0.00  0.00     0.062 H 
ATOM     49  H   LIG d   1       5.250  -2.928  -3.456  0.00  0.00     0.062 H 
ENDBRANCH  36  39
ENDBRANCH  34  36
BRANCH  34  50
ATOM     50  C   LIG d   1       4.935  -2.339  -8.135  0.00  0.00    -0.040 A 
ATOM     51  C   LIG d   1       4.191  -3.388  -7.630  0.00  0.00    -0.013 A 
ATOM     52  C   LIG d   1       3.788  -4.418  -8.465  0.00  0.00     0.167 A 
ATOM     53  H   LIG d   1       3.921  -3.405  -6.584  0.00  0.00     0.066 H 
ATOM     54  C   LIG d   1       4.144  -4.398  -9.811  0.00  0.00     0.166 A 
ATOM     55  O   LIG d   1       3.060  -5.547  -8.223  0.00  0.00    -0.453 OA
ATOM     56  C   LIG d   1       4.894  -3.345 -10.310  0.00  0.00    -0.016 A 
ATOM     57  O   LIG d   1       3.638  -5.513 -10.413  0.00  0.00    -0.453 OA
ATOM     58  C   LIG d   1       5.288  -2.318  -9.472  0.00  0.00    -0.055 A 
ATOM     59  H   LIG d   1       5.172  -3.327 -11.353  0.00  0.00     0.066 H 
ATOM     60  H   LIG d   1       5.874  -1.499  -9.862  0.00  0.00     0.062 H 
ATOM     61  C   LIG d   1       3.319  -6.419  -9.339  0.00  0.00     0.233 C 
ATOM     62  H   LIG d   1       4.165  -7.072  -9.126  0.00  0.00     0.117 H 
ATOM     63  H   LIG d   1       2.433  -7.004  -9.583  0.00  0.00     0.117 H 
ENDBRANCH  34  50
ENDBRANCH   1  34
TORSDOF 12
ENDMDL
MODEL 9
REMARK VINA RESULT:      -5.8      4.162      6.369
REMARK  12 active torsions:
REMARK  status: ('A' for Active; 'I' for Inactive)
REMARK    1  A    between atoms: C_1  and  C_2 
REMARK    2  A    between atoms: C_2  and  C_3 
REMARK    3  A    between atoms: C_2  and  O_4 
REMARK    4  A    between atoms: O_4  and  C_5 
REMARK    5  A    between atoms: C_8  and  C_11 
REMARK    6  A    between atoms: C_11  and  N_61 
REMARK    7  A    between atoms: C_12  and  C_13 
REMARK    8  A    between atoms: C_12  and  N_61 
REMARK    9  A    between atoms: C_13  and  C_14 
REMARK   10  A    between atoms: C_14  and  C_16 
REMARK   11  A    between atoms: C_14  and  C_23 
REMARK   12  A    between atoms: C_16  and  C_17 
ROOT
ATOM      1  C   LIG d   1       6.949  -1.712  -5.949  0.00  0.00    -0.005 C 
ATOM      2  H   LIG d   1       7.314  -2.395  -6.715  0.00  0.00     0.032 H 
ATOM      3  H   LIG d   1       7.792  -1.329  -5.373  0.00  0.00     0.032 H 
ENDROOT
BRANCH   1   4
ATOM      4  C   LIG d   1       6.213  -0.547  -6.613  0.00  0.00    -0.033 C 
ATOM      5  H   LIG d   1       6.283  -0.644  -7.696  0.00  0.00     0.081 H 
ATOM      6  H   LIG d   1       5.165  -0.561  -6.313  0.00  0.00     0.081 H 
BRANCH   4   7
ATOM      7  N   LIG d   1       6.834   0.722  -6.188  0.00  0.00     0.230 N 
ATOM      8  H   LIG d   1       6.819   1.385  -6.973  0.00  0.00     0.202 HD
ATOM      9  H   LIG d   1       6.303   1.112  -5.401  0.00  0.00     0.202 HD
BRANCH   7  10
ATOM     10  C   LIG d   1       8.230   0.496  -5.770  0.00  0.00    -0.008 C 
ATOM     11  H   LIG d   1       8.260  -0.275  -4.998  0.00  0.00     0.087 H 
ATOM     12  H   LIG d   1       8.822   0.174  -6.626  0.00  0.00     0.087 H 
BRANCH  10  13
ATOM     13  C   LIG d   1       8.795   1.780  -5.220  0.00  0.00    -0.003 A 
ATOM     14  C   LIG d   1       9.186   2.786  -6.085  0.00  0.00    -0.050 A 
ATOM     15  C   LIG d   1       9.705   3.965  -5.583  0.00  0.00    -0.019 A 
ATOM     16  H   LIG d   1       9.086   2.651  -7.152  0.00  0.00     0.062 H 
ATOM     17  C   LIG d   1       9.832   4.138  -4.213  0.00  0.00     0.121 A 
ATOM     18  H   LIG d   1      10.009   4.751  -6.259  0.00  0.00     0.065 H 
ATOM     19  C   LIG d   1       9.439   3.126  -3.349  0.00  0.00    -0.019 A 
ATOM     20  C   LIG d   1       8.916   1.952  -3.854  0.00  0.00    -0.050 A 
ATOM     21  H   LIG d   1       9.538   3.258  -2.282  0.00  0.00     0.065 H 
ATOM     22  H   LIG d   1       8.605   1.166  -3.182  0.00  0.00     0.062 H 
BRANCH  17  23
ATOM     23  O   LIG d   1      10.342   5.297  -3.718  0.00  0.00    -0.489 OA
BRANCH  23  24
ATOM     24  C   LIG d   1       9.439   6.394  -3.576  0.00  0.00     0.095 C 
ATOM     25  H   LIG d   1       8.426   6.064  -3.806  0.00  0.00     0.073 H 
BRANCH  24  26
ATOM     26  C   LIG d   1       9.492   6.916  -2.138  0.00  0.00    -0.028 C 
ATOM     27  H   LIG d   1       8.492   6.894  -1.707  0.00  0.00     0.026 H 
ATOM     28  H   LIG d   1      10.156   6.285  -1.547  0.00  0.00     0.026 H 
ATOM     29  H   LIG d   1       9.866   7.940  -2.137  0.00  0.00     0.026 H 
ENDBRANCH  24  26
BRANCH  24  30
ATOM     30  C   LIG d   1       9.842   7.513  -4.539  0.00  0.00    -0.028 C 
ATOM     31  H   LIG d   1      10.896   7.750  -4.399  0.00  0.00     0.026 H 
ATOM     32  H   LIG d   1       9.675   7.187  -5.565  0.00  0.00     0.026 H 
ATOM     33  H   LIG d   1       9.241   8.400  -4.337  0.00  0.00     0.026 H 
ENDBRANCH  24  30
ENDBRANCH  23  24
ENDBRANCH  17  23
ENDBRANCH  10  13
ENDBRANCH   7  10
ENDBRANCH   4   7
ENDBRANCH   1   4
BRANCH   1  34
ATOM     34  C   LIG d   1       5.991  -2.456  -5.016  0.00  0.00    -0.007 C 
ATOM     35  H   LIG d   1       4.964  -2.185  -5.259  0.00  0.00     0.035 H 
BRANCH  34  36
ATOM     36  C   LIG d   1       6.291  -2.072  -3.566  0.00  0.00    -0.021 C 
ATOM     37  H   LIG d   1       6.187  -2.951  -2.929  0.00  0.00     0.032 H 
ATOM     38  H   LIG d   1       7.308  -1.690  -3.493  0.00  0.00     0.032 H 
BRANCH  36  39
ATOM     39  C   LIG d   1       5.320  -1.010  -3.117  0.00  0.00    -0.047 A 
ATOM     40  C   LIG d   1       3.972  -1.299  -3.025  0.00  0.00    -0.059 A 
ATOM     41  C   LIG d   1       3.082  -0.324  -2.612  0.00  0.00    -0.061 A 
ATOM     42  H   LIG d   1       3.613  -2.286  -3.274  0.00  0.00     0.062 H 
ATOM     43  C   LIG d   1       3.542   0.940  -2.291  0.00  0.00    -0.062 A 
ATOM     44  H   LIG d   1       2.029  -0.550  -2.539  0.00  0.00     0.062 H 
ATOM     45  C   LIG d   1       4.891   1.228  -2.384  0.00  0.00    -0.061 A 
ATOM     46  H   LIG d   1       2.848   1.701  -1.969  0.00  0.00     0.062 H 
ATOM     47  C   LIG d   1       5.780   0.253  -2.791  0.00  0.00    -0.059 A 
ATOM     48  H   LIG d   1       5.250   2.216  -2.133  0.00  0.00     0.062 H 
ATOM     49  H   LIG d   1       6.835   0.477  -2.858  0.00  0.00     0.062 H 
ENDBRANCH  36  39
ENDBRANCH  34  36
BRANCH  34  50
ATOM     50  C   LIG d   1       6.173  -3.942  -5.190  0.00  0.00    -0.040 A 
ATOM     51  C   LIG d   1       5.073  -4.750  -5.404  0.00  0.00    -0.013 A 
ATOM     52  C   LIG d   1       5.239  -6.116  -5.571  0.00  0.00     0.167 A 
ATOM     53  H   LIG d   1       4.084  -4.318  -5.444  0.00  0.00     0.066 H 
ATOM     54  C   LIG d   1       6.514  -6.672  -5.511  0.00  0.00     0.166 A 
ATOM     55  O   LIG d   1       4.337  -7.117  -5.792  0.00  0.00    -0.453 OA
ATOM     56  C   LIG d   1       7.612  -5.856  -5.293  0.00  0.00    -0.016 A 
ATOM     57  O   LIG d   1       6.412  -8.020  -5.697  0.00  0.00    -0.453 OA
ATOM     58  C   LIG d   1       7.440  -4.493  -5.132  0.00  0.00    -0.055 A 
ATOM     59  H   LIG d   1       8.602  -6.283  -5.245  0.00  0.00     0.066 H 
ATOM     60  H   LIG d   1       8.296  -3.858  -4.961  0.00  0.00     0.062 H 
ATOM     61  C   LIG d   1       5.026  -8.337  -5.462  0.00  0.00     0.233 C 
ATOM     62  H   LIG d   1       4.865  -8.597  -4.416  0.00  0.00     0.117 H 
ATOM     63  H   LIG d   1       4.704  -9.148  -6.114  0.00  0.00     0.117 H 
ENDBRANCH  34  50
ENDBRANCH   1  34
TORSDOF 12
ENDMDL
MODEL 10
REMARK VINA RESULT:      -5.8      3.029      6.448
REMARK  12 active torsions:
REMARK  status: ('A' for Active; 'I' for Inactive)
REMARK    1  A    between atoms: C_1  and  C_2 
REMARK    2  A    between atoms: C_2  and  C_3 
REMARK    3  A    between atoms: C_2  and  O_4 
REMARK    4  A    between atoms: O_4  and  C_5 
REMARK    5  A    between atoms: C_8  and  C_11 
REMARK    6  A    between atoms: C_11  and  N_61 
REMARK    7  A    between atoms: C_12  and  C_13 
REMARK    8  A    between atoms: C_12  and  N_61 
REMARK    9  A    between atoms: C_13  and  C_14 
REMARK   10  A    between atoms: C_14  and  C_16 
REMARK   11  A    between atoms: C_14  and  C_23 
REMARK   12  A    between atoms: C_16  and  C_17 
ROOT
ATOM      1  C   LIG d   1       4.699  -2.882  -6.195  0.00  0.00    -0.005 C 
ATOM      2  H   LIG d   1       4.392  -3.170  -7.201  0.00  0.00     0.032 H 
ATOM      3  H   LIG d   1       4.155  -3.481  -5.465  0.00  0.00     0.032 H 
ENDROOT
BRANCH   1   4
ATOM      4  C   LIG d   1       6.201  -3.121  -6.033  0.00  0.00    -0.033 C 
ATOM      5  H   LIG d   1       6.450  -4.120  -6.392  0.00  0.00     0.081 H 
ATOM      6  H   LIG d   1       6.752  -2.380  -6.612  0.00  0.00     0.081 H 
BRANCH   4   7
ATOM      7  N   LIG d   1       6.559  -3.004  -4.608  0.00  0.00     0.230 N 
ATOM      8  H   LIG d   1       5.956  -2.300  -4.164  0.00  0.00     0.202 HD
ATOM      9  H   LIG d   1       6.422  -3.911  -4.148  0.00  0.00     0.202 HD
BRANCH   7  10
ATOM     10  C   LIG d   1       7.969  -2.594  -4.465  0.00  0.00    -0.008 C 
ATOM     11  H   LIG d   1       8.344  -2.907  -3.490  0.00  0.00     0.087 H 
ATOM     12  H   LIG d   1       8.567  -3.057  -5.249  0.00  0.00     0.087 H 
BRANCH  10  13
ATOM     13  C   LIG d   1       8.061  -1.094  -4.582  0.00  0.00    -0.003 A 
ATOM     14  C   LIG d   1       8.927  -0.526  -5.498  0.00  0.00    -0.050 A 
ATOM     15  C   LIG d   1       9.013   0.849  -5.607  0.00  0.00    -0.019 A 
ATOM     16  H   LIG d   1       9.536  -1.157  -6.129  0.00  0.00     0.062 H 
ATOM     17  C   LIG d   1       8.230   1.658  -4.797  0.00  0.00     0.121 A 
ATOM     18  H   LIG d   1       9.689   1.293  -6.324  0.00  0.00     0.065 H 
ATOM     19  C   LIG d   1       7.363   1.085  -3.879  0.00  0.00    -0.019 A 
ATOM     20  C   LIG d   1       7.276  -0.290  -3.777  0.00  0.00    -0.050 A 
ATOM     21  H   LIG d   1       6.753   1.713  -3.247  0.00  0.00     0.065 H 
ATOM     22  H   LIG d   1       6.597  -0.737  -3.066  0.00  0.00     0.062 H 
BRANCH  17  23
ATOM     23  O   LIG d   1       8.314   3.011  -4.903  0.00  0.00    -0.489 OA
BRANCH  23  24
ATOM     24  C   LIG d   1       9.595   3.601  -4.677  0.00  0.00     0.095 C 
ATOM     25  H   LIG d   1      10.363   3.006  -5.173  0.00  0.00     0.073 H 
BRANCH  24  26
ATOM     26  C   LIG d   1       9.608   5.023  -5.243  0.00  0.00    -0.028 C 
ATOM     27  H   LIG d   1       8.683   5.530  -4.973  0.00  0.00     0.026 H 
ATOM     28  H   LIG d   1      10.456   5.571  -4.831  0.00  0.00     0.026 H 
ATOM     29  H   LIG d   1       9.696   4.981  -6.329  0.00  0.00     0.026 H 
ENDBRANCH  24  26
BRANCH  24  30
ATOM     30  C   LIG d   1       9.877   3.648  -3.174  0.00  0.00    -0.028 C 
ATOM     31  H   LIG d   1       9.947   4.687  -2.850  0.00  0.00     0.026 H 
ATOM     32  H   LIG d   1       9.068   3.154  -2.637  0.00  0.00     0.026 H 
ATOM     33  H   LIG d   1      10.818   3.139  -2.965  0.00  0.00     0.026 H 
ENDBRANCH  24  30
ENDBRANCH  23  24
ENDBRANCH  17  23
ENDBRANCH  10  13
ENDBRANCH   7  10
ENDBRANCH   4   7
ENDBRANCH   1   4
BRANCH   1  34
ATOM     34  C   LIG d   1       4.391  -1.401  -5.972  0.00  0.00    -0.007 C 
ATOM     35  H   LIG d   1       5.263  -0.909  -5.542  0.00  0.00     0.035 H 
BRANCH  34  36
ATOM     36  C   LIG d   1       3.205  -1.265  -5.014  0.00  0.00    -0.021 C 
ATOM     37  H   LIG d   1       2.409  -0.702  -5.500  0.00  0.00     0.032 H 
ATOM     38  H   LIG d   1       2.838  -2.256  -4.747  0.00  0.00     0.032 H 
BRANCH  36  39
ATOM     39  C   LIG d   1       3.646  -0.539  -3.769  0.00  0.00    -0.047 A 
ATOM     40  C   LIG d   1       4.117  -1.253  -2.682  0.00  0.00    -0.059 A 
ATOM     41  C   LIG d   1       4.522  -0.587  -1.541  0.00  0.00    -0.061 A 
ATOM     42  H   LIG d   1       4.168  -2.331  -2.726  0.00  0.00     0.062 H 
ATOM     43  C   LIG d   1       4.456   0.793  -1.485  0.00  0.00    -0.062 A 
ATOM     44  H   LIG d   1       4.890  -1.144  -0.692  0.00  0.00     0.062 H 
ATOM     45  C   LIG d   1       3.986   1.506  -2.572  0.00  0.00    -0.061 A 
ATOM     46  H   LIG d   1       4.773   1.313  -0.594  0.00  0.00     0.062 H 
ATOM     47  C   LIG d   1       3.586   0.841  -3.715  0.00  0.00    -0.059 A 
ATOM     48  H   LIG d   1       3.935   2.584  -2.530  0.00  0.00     0.062 H 
ATOM     49  H   LIG d   1       3.223   1.398  -4.566  0.00  0.00     0.062 H 
ENDBRANCH  36  39
ENDBRANCH  34  36
BRANCH  34  50
ATOM     50  C   LIG d   1       4.049  -0.754  -7.289  0.00  0.00    -0.040 A 
ATOM     51  C   LIG d   1       4.605  -1.235  -8.459  0.00  0.00    -0.013 A 
ATOM     52  C   LIG d   1       4.287  -0.645  -9.672  0.00  0.00     0.167 A 
ATOM     53  H   LIG d   1       5.286  -2.072  -8.429  0.00  0.00     0.066 H 
ATOM     54  C   LIG d   1       3.414   0.439  -9.707  0.00  0.00     0.166 A 
ATOM     55  O   LIG d   1       4.689  -0.923 -10.947  0.00  0.00    -0.453 OA
ATOM     56  C   LIG d   1       2.863   0.919  -8.530  0.00  0.00    -0.016 A 
ATOM     57  O   LIG d   1       3.268   0.840 -11.004  0.00  0.00    -0.453 OA
ATOM     58  C   LIG d   1       3.181   0.323  -7.324  0.00  0.00    -0.055 A 
ATOM     59  H   LIG d   1       2.186   1.760  -8.554  0.00  0.00     0.066 H 
ATOM     60  H   LIG d   1       2.752   0.698  -6.407  0.00  0.00     0.062 H 
ATOM     61  C   LIG d   1       4.375   0.254 -11.715  0.00  0.00     0.233 C 
ATOM     62  H   LIG d   1       5.224   0.937 -11.732  0.00  0.00     0.117 H 
ATOM     63  H   LIG d   1       4.079  -0.017 -12.727  0.00  0.00     0.117 H 
ENDBRANCH  34  50
ENDBRANCH   1  34
TORSDOF 12
ENDMDL
