MODEL 1
REMARK VINA RESULT:      -6.7      0.000      0.000
REMARK  12 active torsions:
REMARK  status: ('A' for Active; 'I' for Inactive)
REMARK    1  A    between atoms: CD1_1  and  CG_2 
REMARK    2  A    between atoms: CG_2  and  CD2_3 
REMARK    3  A    between atoms: CG_2  and  CB_4 
REMARK    4  A    between atoms: CB_4  and  CA_5 
REMARK       I    between atoms: CA_5  and  C_7 
REMARK       I    between atoms: CA_5  and  N_9 
REMARK       I    between atoms: N_9  and  C_10 
REMARK    5  A    between atoms: C_10  and  C_12 
REMARK    6  A    between atoms: C_12  and  O_13 
REMARK    7  A    between atoms: O_13  and  N_14 
REMARK    8  A    between atoms: C_18  and  C_40 
REMARK    9  A    between atoms: C_23  and  C_39 
REMARK   10  A    between atoms: C_34  and  C_35 
REMARK   11  A    between atoms: C_34  and  O_38 
REMARK   12  A    between atoms: C_35  and  C_37 
ROOT
ATOM      1  N   UNK d   0       9.275  -7.256  -6.421  0.00  0.00    -0.089 NA
ATOM      2  C   UNK d   0       9.089  -5.995  -6.191  0.00  0.00     0.080 C 
ATOM      3  C   UNK d   0       9.592  -5.331  -4.924  0.00  0.00    -0.006 C 
ATOM      4  C   UNK d   0       8.427  -4.540  -4.331  0.00  0.00    -0.038 C 
ATOM      5  C   UNK d   0       7.887  -3.513  -5.311  0.00  0.00    -0.007 C 
ATOM      6  C   UNK d   0       6.496  -3.061  -4.850  0.00  0.00    -0.029 C 
ATOM      7  H   UNK d   0       5.841  -3.932  -4.819  0.00  0.00     0.031 H 
ATOM      8  C   UNK d   0       6.592  -2.469  -3.446  0.00  0.00    -0.049 C 
ATOM      9  C   UNK d   0       5.256  -1.872  -2.978  0.00  0.00    -0.044 C 
ATOM     10  C   UNK d   0       4.852  -0.824  -3.997  0.00  0.00     0.007 C 
ATOM     11  C   UNK d   0       4.588  -1.565  -5.335  0.00  0.00    -0.029 C 
ATOM     12  H   UNK d   0       3.919  -2.411  -5.175  0.00  0.00     0.031 H 
ATOM     13  C   UNK d   0       5.931  -2.045  -5.853  0.00  0.00    -0.034 C 
ATOM     14  H   UNK d   0       6.614  -1.202  -5.955  0.00  0.00     0.031 H 
ATOM     15  C   UNK d   0       5.746  -2.734  -7.209  0.00  0.00    -0.046 C 
ATOM     16  C   UNK d   0       7.116  -3.135  -7.760  0.00  0.00    -0.031 C 
ATOM     17  C   UNK d   0       7.826  -3.993  -6.729  0.00  0.00    -0.062 C 
ATOM     18  C   UNK d   0       8.373  -5.130  -7.144  0.00  0.00    -0.037 C 
ATOM     19  C   UNK d   0       3.894  -0.488  -6.176  0.00  0.00    -0.046 C 
ATOM     20  C   UNK d   0       2.947   0.194  -5.141  0.00  0.00    -0.016 C 
ATOM     21  C   UNK d   0       3.541  -0.088  -3.739  0.00  0.00     0.129 C 
ATOM     22  H   UNK d   0       9.924  -6.089  -4.215  0.00  0.00     0.033 H 
ATOM     23  H   UNK d   0      10.416  -4.657  -5.161  0.00  0.00     0.033 H 
ATOM     24  H   UNK d   0       8.768  -4.026  -3.431  0.00  0.00     0.028 H 
ATOM     25  H   UNK d   0       7.628  -5.231  -4.064  0.00  0.00     0.028 H 
ATOM     26  H   UNK d   0       7.351  -1.686  -3.447  0.00  0.00     0.027 H 
ATOM     27  H   UNK d   0       6.893  -3.254  -2.753  0.00  0.00     0.027 H 
ATOM     28  H   UNK d   0       5.379  -1.409  -1.998  0.00  0.00     0.027 H 
ATOM     29  H   UNK d   0       4.496  -2.652  -2.927  0.00  0.00     0.027 H 
ATOM     30  H   UNK d   0       5.260  -2.048  -7.902  0.00  0.00     0.027 H 
ATOM     31  H   UNK d   0       5.129  -3.625  -7.084  0.00  0.00     0.027 H 
ATOM     32  H   UNK d   0       7.705  -2.239  -7.959  0.00  0.00     0.031 H 
ATOM     33  H   UNK d   0       6.989  -3.701  -8.682  0.00  0.00     0.031 H 
ATOM     34  H   UNK d   0       8.290  -5.420  -8.182  0.00  0.00     0.064 H 
ATOM     35  H   UNK d   0       4.621   0.229  -6.560  0.00  0.00     0.027 H 
ATOM     36  H   UNK d   0       3.330  -0.940  -6.993  0.00  0.00     0.027 H 
ATOM     37  H   UNK d   0       1.950  -0.241  -5.220  0.00  0.00     0.030 H 
ATOM     38  H   UNK d   0       2.900   1.269  -5.318  0.00  0.00     0.030 H 
ENDROOT
BRANCH   1  39
ATOM     39  O   UNK d   0       9.970  -8.052  -5.478  0.00  0.00    -0.384 OA
BRANCH  39  40
ATOM     40  C   UNK d   0       9.265  -9.230  -5.081  0.00  0.00     0.193 C 
ATOM     41  H   UNK d   0       9.209  -9.921  -5.923  0.00  0.00     0.082 H 
ATOM     42  H   UNK d   0       9.789  -9.707  -4.254  0.00  0.00     0.082 H 
BRANCH  40  43
ATOM     43  C   UNK d   0       7.871  -8.858  -4.645  0.00  0.00     0.254 C 
ATOM     44  N   LEU d   1       6.854  -8.899  -5.529  0.00  0.00    -0.304 N 
ATOM     45  CA  LEU d   1       5.499  -8.537  -5.104  0.00  0.00     0.063 C 
ATOM     46  H   LEU d   1       7.020  -9.167  -6.447  0.00  0.00     0.149 HD
ATOM     47  HA  LEU d   1       5.552  -7.738  -4.366  0.00  0.00     0.056 H 
ATOM     48  C   LEU d   1       4.827  -9.740  -4.494  0.00  0.00     0.062 C 
ATOM     49  O   LEU d   1       5.418 -10.791  -4.422  0.00  0.00    -0.548 OA
ATOM     50  OXT LEU d   1       3.570  -9.644  -4.033  0.00  0.00    -0.548 OA
ATOM     51  O   UNK d   0       7.664  -8.522  -3.497  0.00  0.00    -0.272 OA
BRANCH  45  52
ATOM     52  CB  LEU d   1       4.695  -8.063  -6.316  0.00  0.00    -0.027 C 
ATOM     53  HB1 LEU d   1       4.971  -8.652  -7.190  0.00  0.00     0.029 H 
ATOM     54  HB2 LEU d   1       3.631  -8.186  -6.116  0.00  0.00     0.029 H 
BRANCH  52  55
ATOM     55  CG  LEU d   1       4.996  -6.586  -6.581  0.00  0.00    -0.045 C 
ATOM     56  HG  LEU d   1       6.062  -6.461  -6.776  0.00  0.00     0.030 H 
BRANCH  55  57
ATOM     57  CD1 LEU d   1       4.197  -6.113  -7.798  0.00  0.00    -0.063 C 
ATOM     58 1HD1 LEU d   1       4.192  -5.024  -7.828  0.00  0.00     0.023 H 
ATOM     59 2HD1 LEU d   1       4.658  -6.501  -8.707  0.00  0.00     0.023 H 
ATOM     60 3HD1 LEU d   1       3.174  -6.480  -7.725  0.00  0.00     0.023 H 
ENDBRANCH  55  57
BRANCH  55  61
ATOM     61  CD2 LEU d   1       4.600  -5.757  -5.358  0.00  0.00    -0.063 C 
ATOM     62 1HD2 LEU d   1       4.483  -6.413  -4.496  0.00  0.00     0.023 H 
ATOM     63 2HD2 LEU d   1       5.376  -5.019  -5.152  0.00  0.00     0.023 H 
ATOM     64 3HD2 LEU d   1       3.657  -5.246  -5.555  0.00  0.00     0.023 H 
ENDBRANCH  55  61
ENDBRANCH  52  55
ENDBRANCH  45  52
ENDBRANCH  40  43
ENDBRANCH  39  40
ENDBRANCH   1  39
BRANCH   5  65
ATOM     65  C   UNK d   0       8.818  -2.299  -5.262  0.00  0.00    -0.056 C 
ATOM     66  H   UNK d   0       8.681  -1.701  -6.162  0.00  0.00     0.024 H 
ATOM     67  H   UNK d   0       8.581  -1.696  -4.385  0.00  0.00     0.024 H 
ATOM     68  H   UNK d   0       9.852  -2.637  -5.203  0.00  0.00     0.024 H 
ENDBRANCH   5  65
BRANCH  10  69
ATOM     69  C   UNK d   0       5.987   0.187  -4.180  0.00  0.00    -0.056 C 
ATOM     70  H   UNK d   0       5.853   1.012  -3.482  0.00  0.00     0.024 H 
ATOM     71  H   UNK d   0       6.942  -0.302  -3.987  0.00  0.00     0.024 H 
ATOM     72  H   UNK d   0       5.974   0.567  -5.201  0.00  0.00     0.024 H 
ENDBRANCH  10  69
BRANCH  21  73
ATOM     73  C   UNK d   0       3.803   1.207  -3.013  0.00  0.00     0.162 C 
ATOM     74  O   UNK d   0       3.517   2.259  -3.532  0.00  0.00    -0.295 OA
BRANCH  73  75
ATOM     75  C   UNK d   0       4.422   1.188  -1.639  0.00  0.00    -0.003 C 
ATOM     76  H   UNK d   0       4.754   2.103  -1.410  0.00  0.00     0.031 H 
ATOM     77  H   UNK d   0       3.675   0.879  -0.908  0.00  0.00     0.031 H 
ATOM     78  H   UNK d   0       5.256   0.485  -1.626  0.00  0.00     0.031 H 
ENDBRANCH  73  75
ENDBRANCH  21  73
BRANCH  21  79
ATOM     79  O   UNK d   0       2.653  -0.910  -2.979  0.00  0.00    -0.381 OA
ATOM     80  H   UNK d   0       2.548  -0.630  -2.059  0.00  0.00     0.211 HD
ENDBRANCH  21  79
TORSDOF 14
ENDMDL
MODEL 2
REMARK VINA RESULT:      -6.7      7.280      9.859
REMARK  12 active torsions:
REMARK  status: ('A' for Active; 'I' for Inactive)
REMARK    1  A    between atoms: CD1_1  and  CG_2 
REMARK    2  A    between atoms: CG_2  and  CD2_3 
REMARK    3  A    between atoms: CG_2  and  CB_4 
REMARK    4  A    between atoms: CB_4  and  CA_5 
REMARK       I    between atoms: CA_5  and  C_7 
REMARK       I    between atoms: CA_5  and  N_9 
REMARK       I    between atoms: N_9  and  C_10 
REMARK    5  A    between atoms: C_10  and  C_12 
REMARK    6  A    between atoms: C_12  and  O_13 
REMARK    7  A    between atoms: O_13  and  N_14 
REMARK    8  A    between atoms: C_18  and  C_40 
REMARK    9  A    between atoms: C_23  and  C_39 
REMARK   10  A    between atoms: C_34  and  C_35 
REMARK   11  A    between atoms: C_34  and  O_38 
REMARK   12  A    between atoms: C_35  and  C_37 
ROOT
ATOM      1  N   UNK d   0       8.524   1.411  -5.433  0.00  0.00    -0.089 NA
ATOM      2  C   UNK d   0       9.305   2.363  -5.031  0.00  0.00     0.080 C 
ATOM      3  C   UNK d   0       9.953   2.338  -3.660  0.00  0.00    -0.006 C 
ATOM      4  C   UNK d   0       9.693   3.695  -3.008  0.00  0.00    -0.038 C 
ATOM      5  C   UNK d   0      10.234   4.837  -3.851  0.00  0.00    -0.007 C 
ATOM      6  C   UNK d   0       9.593   6.151  -3.389  0.00  0.00    -0.029 C 
ATOM      7  H   UNK d   0       8.513   6.071  -3.513  0.00  0.00     0.031 H 
ATOM      8  C   UNK d   0       9.902   6.377  -1.911  0.00  0.00    -0.049 C 
ATOM      9  C   UNK d   0       9.402   7.744  -1.418  0.00  0.00    -0.044 C 
ATOM     10  C   UNK d   0      10.055   8.800  -2.291  0.00  0.00     0.007 C 
ATOM     11  C   UNK d   0       9.516   8.598  -3.732  0.00  0.00    -0.029 C 
ATOM     12  H   UNK d   0       8.427   8.538  -3.727  0.00  0.00     0.031 H 
ATOM     13  C   UNK d   0      10.113   7.306  -4.257  0.00  0.00    -0.034 C 
ATOM     14  H   UNK d   0      11.201   7.350  -4.205  0.00  0.00     0.031 H 
ATOM     15  C   UNK d   0       9.668   7.081  -5.705  0.00  0.00    -0.046 C 
ATOM     16  C   UNK d   0      10.346   5.821  -6.249  0.00  0.00    -0.031 C 
ATOM     17  C   UNK d   0      10.035   4.659  -5.324  0.00  0.00    -0.062 C 
ATOM     18  C   UNK d   0       9.607   3.529  -5.878  0.00  0.00    -0.037 C 
ATOM     19  C   UNK d   0       9.975   9.880  -4.437  0.00  0.00    -0.046 C 
ATOM     20  C   UNK d   0       9.716  10.974  -3.355  0.00  0.00    -0.016 C 
ATOM     21  C   UNK d   0       9.704  10.252  -1.985  0.00  0.00     0.129 C 
ATOM     22  H   UNK d   0       9.512   1.546  -3.055  0.00  0.00     0.033 H 
ATOM     23  H   UNK d   0      11.026   2.174  -3.760  0.00  0.00     0.033 H 
ATOM     24  H   UNK d   0      10.174   3.718  -2.030  0.00  0.00     0.028 H 
ATOM     25  H   UNK d   0       8.619   3.827  -2.880  0.00  0.00     0.028 H 
ATOM     26  H   UNK d   0      10.980   6.318  -1.765  0.00  0.00     0.027 H 
ATOM     27  H   UNK d   0       9.421   5.592  -1.328  0.00  0.00     0.027 H 
ATOM     28  H   UNK d   0       9.692   7.892  -0.378  0.00  0.00     0.027 H 
ATOM     29  H   UNK d   0       8.318   7.802  -1.514  0.00  0.00     0.027 H 
ATOM     30  H   UNK d   0       9.953   7.940  -6.312  0.00  0.00     0.027 H 
ATOM     31  H   UNK d   0       8.585   6.954  -5.738  0.00  0.00     0.027 H 
ATOM     32  H   UNK d   0      11.425   5.977  -6.290  0.00  0.00     0.031 H 
ATOM     33  H   UNK d   0       9.970   5.604  -7.249  0.00  0.00     0.031 H 
ATOM     34  H   UNK d   0       9.481   3.467  -6.948  0.00  0.00     0.064 H 
ATOM     35  H   UNK d   0      11.036   9.826  -4.680  0.00  0.00     0.027 H 
ATOM     36  H   UNK d   0       9.382  10.060  -5.334  0.00  0.00     0.027 H 
ATOM     37  H   UNK d   0       8.749  11.444  -3.540  0.00  0.00     0.030 H 
ATOM     38  H   UNK d   0      10.506  11.724  -3.376  0.00  0.00     0.030 H 
ENDROOT
BRANCH   1  39
ATOM     39  O   UNK d   0       8.260   0.306  -4.587  0.00  0.00    -0.384 OA
BRANCH  39  40
ATOM     40  C   UNK d   0       7.928  -0.895  -5.286  0.00  0.00     0.193 C 
ATOM     41  H   UNK d   0       8.287  -0.828  -6.313  0.00  0.00     0.082 H 
ATOM     42  H   UNK d   0       8.396  -1.745  -4.792  0.00  0.00     0.082 H 
BRANCH  40  43
ATOM     43  C   UNK d   0       6.432  -1.077  -5.289  0.00  0.00     0.254 C 
ATOM     44  N   LEU d   1       5.628  -0.056  -4.928  0.00  0.00    -0.304 N 
ATOM     45  CA  LEU d   1       4.173  -0.234  -4.931  0.00  0.00     0.063 C 
ATOM     46  H   LEU d   1       6.012   0.795  -4.667  0.00  0.00     0.149 HD
ATOM     47  HA  LEU d   1       3.932  -1.253  -4.633  0.00  0.00     0.056 H 
ATOM     48  C   LEU d   1       3.639   0.025  -6.316  0.00  0.00     0.062 C 
ATOM     49  O   LEU d   1       4.395   0.326  -7.209  0.00  0.00    -0.548 OA
ATOM     50  OXT LEU d   1       2.323  -0.079  -6.557  0.00  0.00    -0.548 OA
ATOM     51  O   UNK d   0       5.951  -2.141  -5.617  0.00  0.00    -0.272 OA
BRANCH  45  52
ATOM     52  CB  LEU d   1       3.538   0.751  -3.947  0.00  0.00    -0.027 C 
ATOM     53  HB1 LEU d   1       4.178   1.627  -3.845  0.00  0.00     0.029 H 
ATOM     54  HB2 LEU d   1       2.560   1.055  -4.319  0.00  0.00     0.029 H 
BRANCH  52  55
ATOM     55  CG  LEU d   1       3.377   0.076  -2.583  0.00  0.00    -0.045 C 
ATOM     56  HG  LEU d   1       2.421   0.367  -2.145  0.00  0.00     0.030 H 
BRANCH  55  57
ATOM     57  CD1 LEU d   1       3.414  -1.444  -2.760  0.00  0.00    -0.063 C 
ATOM     58 1HD1 LEU d   1       4.281  -1.719  -3.359  0.00  0.00     0.023 H 
ATOM     59 2HD1 LEU d   1       3.482  -1.921  -1.782  0.00  0.00     0.023 H 
ATOM     60 3HD1 LEU d   1       2.505  -1.774  -3.262  0.00  0.00     0.023 H 
ENDBRANCH  55  57
BRANCH  55  61
ATOM     61  CD2 LEU d   1       4.516   0.510  -1.660  0.00  0.00    -0.063 C 
ATOM     62 1HD2 LEU d   1       4.114   1.118  -0.849  0.00  0.00     0.023 H 
ATOM     63 2HD2 LEU d   1       5.005  -0.372  -1.247  0.00  0.00     0.023 H 
ATOM     64 3HD2 LEU d   1       5.240   1.095  -2.227  0.00  0.00     0.023 H 
ENDBRANCH  55  61
ENDBRANCH  52  55
ENDBRANCH  45  52
ENDBRANCH  40  43
ENDBRANCH  39  40
ENDBRANCH   1  39
BRANCH   5  65
ATOM     65  C   UNK d   0      11.739   4.928  -3.585  0.00  0.00    -0.056 C 
ATOM     66  H   UNK d   0      11.995   5.948  -3.299  0.00  0.00     0.024 H 
ATOM     67  H   UNK d   0      12.007   4.246  -2.778  0.00  0.00     0.024 H 
ATOM     68  H   UNK d   0      12.285   4.656  -4.488  0.00  0.00     0.024 H 
ENDBRANCH   5  65
BRANCH  10  69
ATOM     69  C   UNK d   0      11.574   8.619  -2.276  0.00  0.00    -0.056 C 
ATOM     70  H   UNK d   0      12.054   9.557  -2.550  0.00  0.00     0.024 H 
ATOM     71  H   UNK d   0      11.895   8.325  -1.276  0.00  0.00     0.024 H 
ATOM     72  H   UNK d   0      11.855   7.843  -2.988  0.00  0.00     0.024 H 
ENDBRANCH  10  69
BRANCH  21  73
ATOM     73  C   UNK d   0      10.736  10.857  -1.068  0.00  0.00     0.162 C 
ATOM     74  O   UNK d   0      11.613  11.553  -1.520  0.00  0.00    -0.295 OA
BRANCH  73  75
ATOM     75  C   UNK d   0      10.673  10.592   0.415  0.00  0.00    -0.003 C 
ATOM     76  H   UNK d   0       9.849  11.014   0.794  0.00  0.00     0.031 H 
ATOM     77  H   UNK d   0      10.645   9.517   0.591  0.00  0.00     0.031 H 
ATOM     78  H   UNK d   0      11.554  11.017   0.897  0.00  0.00     0.031 H 
ENDBRANCH  73  75
ENDBRANCH  21  73
BRANCH  21  79
ATOM     79  O   UNK d   0       8.406  10.334  -1.391  0.00  0.00    -0.381 OA
ATOM     80  H   UNK d   0       7.703  10.567  -2.012  0.00  0.00     0.211 HD
ENDBRANCH  21  79
TORSDOF 14
ENDMDL
MODEL 3
REMARK VINA RESULT:      -6.3      6.973      9.352
REMARK  12 active torsions:
REMARK  status: ('A' for Active; 'I' for Inactive)
REMARK    1  A    between atoms: CD1_1  and  CG_2 
REMARK    2  A    between atoms: CG_2  and  CD2_3 
REMARK    3  A    between atoms: CG_2  and  CB_4 
REMARK    4  A    between atoms: CB_4  and  CA_5 
REMARK       I    between atoms: CA_5  and  C_7 
REMARK       I    between atoms: CA_5  and  N_9 
REMARK       I    between atoms: N_9  and  C_10 
REMARK    5  A    between atoms: C_10  and  C_12 
REMARK    6  A    between atoms: C_12  and  O_13 
REMARK    7  A    between atoms: O_13  and  N_14 
REMARK    8  A    between atoms: C_18  and  C_40 
REMARK    9  A    between atoms: C_23  and  C_39 
REMARK   10  A    between atoms: C_34  and  C_35 
REMARK   11  A    between atoms: C_34  and  O_38 
REMARK   12  A    between atoms: C_35  and  C_37 
ROOT
ATOM      1  N   UNK d   0       7.936   1.891  -8.298  0.00  0.00    -0.089 NA
ATOM      2  C   UNK d   0       8.819   2.554  -7.620  0.00  0.00     0.080 C 
ATOM      3  C   UNK d   0       9.414   2.010  -6.336  0.00  0.00    -0.006 C 
ATOM      4  C   UNK d   0       9.309   3.111  -5.282  0.00  0.00    -0.038 C 
ATOM      5  C   UNK d   0      10.019   4.380  -5.722  0.00  0.00    -0.007 C 
ATOM      6  C   UNK d   0       9.536   5.552  -4.858  0.00  0.00    -0.029 C 
ATOM      7  H   UNK d   0       8.459   5.658  -4.990  0.00  0.00     0.031 H 
ATOM      8  C   UNK d   0       9.823   5.254  -3.389  0.00  0.00    -0.049 C 
ATOM      9  C   UNK d   0       9.487   6.446  -2.480  0.00  0.00    -0.044 C 
ATOM     10  C   UNK d   0      10.296   7.629  -2.976  0.00  0.00     0.007 C 
ATOM     11  C   UNK d   0       9.783   7.968  -4.401  0.00  0.00    -0.029 C 
ATOM     12  H   UNK d   0       8.696   8.053  -4.404  0.00  0.00     0.031 H 
ATOM     13  C   UNK d   0      10.227   6.843  -5.317  0.00  0.00    -0.034 C 
ATOM     14  H   UNK d   0      11.310   6.725  -5.265  0.00  0.00     0.031 H 
ATOM     15  C   UNK d   0       9.804   7.151  -6.756  0.00  0.00    -0.046 C 
ATOM     16  C   UNK d   0      10.333   6.052  -7.681  0.00  0.00    -0.031 C 
ATOM     17  C   UNK d   0       9.845   4.707  -7.173  0.00  0.00    -0.062 C 
ATOM     18  C   UNK d   0       9.295   3.879  -8.054  0.00  0.00    -0.037 C 
ATOM     19  C   UNK d   0      10.425   9.336  -4.664  0.00  0.00    -0.046 C 
ATOM     20  C   UNK d   0      10.273  10.053  -3.287  0.00  0.00    -0.016 C 
ATOM     21  C   UNK d   0      10.125   8.942  -2.219  0.00  0.00     0.129 C 
ATOM     22  H   UNK d   0       8.856   1.132  -6.011  0.00  0.00     0.033 H 
ATOM     23  H   UNK d   0      10.460   1.747  -6.494  0.00  0.00     0.033 H 
ATOM     24  H   UNK d   0       9.756   2.758  -4.353  0.00  0.00     0.028 H 
ATOM     25  H   UNK d   0       8.257   3.335  -5.107  0.00  0.00     0.028 H 
ATOM     26  H   UNK d   0      10.879   5.010  -3.280  0.00  0.00     0.027 H 
ATOM     27  H   UNK d   0       9.227   4.394  -3.082  0.00  0.00     0.027 H 
ATOM     28  H   UNK d   0       9.759   6.216  -1.450  0.00  0.00     0.027 H 
ATOM     29  H   UNK d   0       8.423   6.673  -2.541  0.00  0.00     0.027 H 
ATOM     30  H   UNK d   0      10.216   8.113  -7.060  0.00  0.00     0.027 H 
ATOM     31  H   UNK d   0       8.715   7.184  -6.817  0.00  0.00     0.027 H 
ATOM     32  H   UNK d   0      11.423   6.070  -7.681  0.00  0.00     0.031 H 
ATOM     33  H   UNK d   0       9.965   6.216  -8.694  0.00  0.00     0.031 H 
ATOM     34  H   UNK d   0       9.197   4.177  -9.087  0.00  0.00     0.064 H 
ATOM     35  H   UNK d   0      11.478   9.223  -4.923  0.00  0.00     0.027 H 
ATOM     36  H   UNK d   0       9.889   9.868  -5.451  0.00  0.00     0.027 H 
ATOM     37  H   UNK d   0       9.381  10.680  -3.302  0.00  0.00     0.030 H 
ATOM     38  H   UNK d   0      11.153  10.660  -3.075  0.00  0.00     0.030 H 
ENDROOT
BRANCH   1  39
ATOM     39  O   UNK d   0       7.506   0.619  -7.846  0.00  0.00    -0.384 OA
BRANCH  39  40
ATOM     40  C   UNK d   0       6.106   0.545  -7.569  0.00  0.00     0.193 C 
ATOM     41  H   UNK d   0       5.688   1.551  -7.536  0.00  0.00     0.082 H 
ATOM     42  H   UNK d   0       5.610  -0.029  -8.351  0.00  0.00     0.082 H 
BRANCH  40  43
ATOM     43  C   UNK d   0       5.893  -0.131  -6.239  0.00  0.00     0.254 C 
ATOM     44  N   LEU d   1       4.642  -0.316  -5.770  0.00  0.00    -0.304 N 
ATOM     45  CA  LEU d   1       4.435  -0.973  -4.477  0.00  0.00     0.063 C 
ATOM     46  H   LEU d   1       3.880  -0.014  -6.288  0.00  0.00     0.149 HD
ATOM     47  HA  LEU d   1       5.240  -0.697  -3.796  0.00  0.00     0.056 H 
ATOM     48  C   LEU d   1       4.429  -2.468  -4.668  0.00  0.00     0.062 C 
ATOM     49  O   LEU d   1       4.582  -2.936  -5.772  0.00  0.00    -0.548 OA
ATOM     50  OXT LEU d   1       4.253  -3.279  -3.613  0.00  0.00    -0.548 OA
ATOM     51  O   UNK d   0       6.846  -0.509  -5.591  0.00  0.00    -0.272 OA
BRANCH  45  52
ATOM     52  CB  LEU d   1       3.094  -0.529  -3.889  0.00  0.00    -0.027 C 
ATOM     53  HB1 LEU d   1       2.581   0.118  -4.600  0.00  0.00     0.029 H 
ATOM     54  HB2 LEU d   1       2.479  -1.405  -3.685  0.00  0.00     0.029 H 
BRANCH  52  55
ATOM     55  CG  LEU d   1       3.337   0.236  -2.586  0.00  0.00    -0.045 C 
ATOM     56  HG  LEU d   1       2.444   0.184  -1.962  0.00  0.00     0.030 H 
BRANCH  55  57
ATOM     57  CD1 LEU d   1       4.517  -0.391  -1.839  0.00  0.00    -0.063 C 
ATOM     58 1HD1 LEU d   1       4.307  -1.443  -1.647  0.00  0.00     0.023 H 
ATOM     59 2HD1 LEU d   1       5.417  -0.305  -2.447  0.00  0.00     0.023 H 
ATOM     60 3HD1 LEU d   1       4.666   0.129  -0.893  0.00  0.00     0.023 H 
ENDBRANCH  55  57
BRANCH  55  61
ATOM     61  CD2 LEU d   1       3.654   1.699  -2.903  0.00  0.00    -0.063 C 
ATOM     62 1HD2 LEU d   1       3.994   2.202  -1.998  0.00  0.00     0.023 H 
ATOM     63 2HD2 LEU d   1       4.435   1.745  -3.662  0.00  0.00     0.023 H 
ATOM     64 3HD2 LEU d   1       2.756   2.191  -3.277  0.00  0.00     0.023 H 
ENDBRANCH  55  61
ENDBRANCH  52  55
ENDBRANCH  45  52
ENDBRANCH  40  43
ENDBRANCH  39  40
ENDBRANCH   1  39
BRANCH   5  65
ATOM     65  C   UNK d   0      11.513   4.183  -5.456  0.00  0.00    -0.056 C 
ATOM     66  H   UNK d   0      12.075   4.414  -6.361  0.00  0.00     0.024 H 
ATOM     67  H   UNK d   0      11.829   4.848  -4.653  0.00  0.00     0.024 H 
ATOM     68  H   UNK d   0      11.698   3.149  -5.168  0.00  0.00     0.024 H 
ENDBRANCH   5  65
BRANCH  10  69
ATOM     69  C   UNK d   0      11.779   7.254  -3.035  0.00  0.00    -0.056 C 
ATOM     70  H   UNK d   0      11.983   6.726  -3.966  0.00  0.00     0.024 H 
ATOM     71  H   UNK d   0      12.385   8.160  -2.991  0.00  0.00     0.024 H 
ATOM     72  H   UNK d   0      12.025   6.612  -2.190  0.00  0.00     0.024 H 
ENDBRANCH  10  69
BRANCH  21  73
ATOM     73  C   UNK d   0      11.195   9.082  -1.167  0.00  0.00     0.162 C 
ATOM     74  O   UNK d   0      12.171   9.759  -1.385  0.00  0.00    -0.295 OA
BRANCH  73  75
ATOM     75  C   UNK d   0      11.047   8.377   0.157  0.00  0.00    -0.003 C 
ATOM     76  H   UNK d   0      10.448   7.585   0.047  0.00  0.00     0.031 H 
ATOM     77  H   UNK d   0      12.026   8.048   0.505  0.00  0.00     0.031 H 
ATOM     78  H   UNK d   0      10.613   9.062   0.886  0.00  0.00     0.031 H 
ENDBRANCH  73  75
ENDBRANCH  21  73
BRANCH  21  79
ATOM     79  O   UNK d   0       8.830   9.001  -1.617  0.00  0.00    -0.381 OA
ATOM     80  H   UNK d   0       8.165   8.454  -2.058  0.00  0.00     0.211 HD
ENDBRANCH  21  79
TORSDOF 14
ENDMDL
MODEL 4
REMARK VINA RESULT:      -6.2      4.974      6.716
REMARK  12 active torsions:
REMARK  status: ('A' for Active; 'I' for Inactive)
REMARK    1  A    between atoms: CD1_1  and  CG_2 
REMARK    2  A    between atoms: CG_2  and  CD2_3 
REMARK    3  A    between atoms: CG_2  and  CB_4 
REMARK    4  A    between atoms: CB_4  and  CA_5 
REMARK       I    between atoms: CA_5  and  C_7 
REMARK       I    between atoms: CA_5  and  N_9 
REMARK       I    between atoms: N_9  and  C_10 
REMARK    5  A    between atoms: C_10  and  C_12 
REMARK    6  A    between atoms: C_12  and  O_13 
REMARK    7  A    between atoms: O_13  and  N_14 
REMARK    8  A    between atoms: C_18  and  C_40 
REMARK    9  A    between atoms: C_23  and  C_39 
REMARK   10  A    between atoms: C_34  and  C_35 
REMARK   11  A    between atoms: C_34  and  O_38 
REMARK   12  A    between atoms: C_35  and  C_37 
ROOT
ATOM      1  N   UNK d   0       4.344  -0.700 -13.428  0.00  0.00    -0.089 NA
ATOM      2  C   UNK d   0       4.745  -0.284 -12.269  0.00  0.00     0.080 C 
ATOM      3  C   UNK d   0       6.065  -0.732 -11.672  0.00  0.00    -0.006 C 
ATOM      4  C   UNK d   0       5.786  -1.196 -10.244  0.00  0.00    -0.038 C 
ATOM      5  C   UNK d   0       5.151  -0.097  -9.409  0.00  0.00    -0.007 C 
ATOM      6  C   UNK d   0       4.516  -0.718  -8.159  0.00  0.00    -0.029 C 
ATOM      7  H   UNK d   0       3.758  -1.435  -8.476  0.00  0.00     0.031 H 
ATOM      8  C   UNK d   0       5.584  -1.456  -7.357  0.00  0.00    -0.049 C 
ATOM      9  C   UNK d   0       5.042  -1.988  -6.022  0.00  0.00    -0.044 C 
ATOM     10  C   UNK d   0       4.494  -0.798  -5.256  0.00  0.00     0.007 C 
ATOM     11  C   UNK d   0       3.288  -0.250  -6.066  0.00  0.00    -0.029 C 
ATOM     12  H   UNK d   0       2.601  -1.058  -6.319  0.00  0.00     0.031 H 
ATOM     13  C   UNK d   0       3.845   0.383  -7.327  0.00  0.00    -0.034 C 
ATOM     14  H   UNK d   0       4.575   1.150  -7.067  0.00  0.00     0.031 H 
ATOM     15  C   UNK d   0       2.706   1.001  -8.142  0.00  0.00    -0.046 C 
ATOM     16  C   UNK d   0       3.291   1.711  -9.365  0.00  0.00    -0.031 C 
ATOM     17  C   UNK d   0       4.138   0.723 -10.146  0.00  0.00    -0.062 C 
ATOM     18  C   UNK d   0       3.941   0.646 -11.458  0.00  0.00    -0.037 C 
ATOM     19  C   UNK d   0       2.633   0.712  -5.068  0.00  0.00    -0.046 C 
ATOM     20  C   UNK d   0       2.735  -0.071  -3.722  0.00  0.00    -0.016 C 
ATOM     21  C   UNK d   0       3.894  -1.085  -3.884  0.00  0.00     0.129 C 
ATOM     22  H   UNK d   0       6.476  -1.556 -12.256  0.00  0.00     0.033 H 
ATOM     23  H   UNK d   0       6.769   0.101 -11.661  0.00  0.00     0.033 H 
ATOM     24  H   UNK d   0       6.724  -1.497  -9.778  0.00  0.00     0.028 H 
ATOM     25  H   UNK d   0       5.113  -2.052 -10.274  0.00  0.00     0.028 H 
ATOM     26  H   UNK d   0       6.409  -0.772  -7.159  0.00  0.00     0.027 H 
ATOM     27  H   UNK d   0       5.953  -2.293  -7.950  0.00  0.00     0.027 H 
ATOM     28  H   UNK d   0       5.846  -2.456  -5.454  0.00  0.00     0.027 H 
ATOM     29  H   UNK d   0       4.246  -2.710  -6.204  0.00  0.00     0.027 H 
ATOM     30  H   UNK d   0       2.165   1.720  -7.527  0.00  0.00     0.027 H 
ATOM     31  H   UNK d   0       2.024   0.215  -8.469  0.00  0.00     0.027 H 
ATOM     32  H   UNK d   0       3.911   2.547  -9.039  0.00  0.00     0.031 H 
ATOM     33  H   UNK d   0       2.483   2.081  -9.997  0.00  0.00     0.031 H 
ATOM     34  H   UNK d   0       3.190   1.264 -11.928  0.00  0.00     0.064 H 
ATOM     35  H   UNK d   0       3.193   1.646  -5.010  0.00  0.00     0.027 H 
ATOM     36  H   UNK d   0       1.594   0.902  -5.340  0.00  0.00     0.027 H 
ATOM     37  H   UNK d   0       1.799  -0.598  -3.539  0.00  0.00     0.030 H 
ATOM     38  H   UNK d   0       2.947   0.612  -2.899  0.00  0.00     0.030 H 
ENDROOT
BRANCH   1  39
ATOM     39  O   UNK d   0       5.149  -1.594 -14.177  0.00  0.00    -0.384 OA
BRANCH  39  40
ATOM     40  C   UNK d   0       4.593  -2.903 -14.309  0.00  0.00     0.193 C 
ATOM     41  H   UNK d   0       3.542  -2.826 -14.587  0.00  0.00     0.082 H 
ATOM     42  H   UNK d   0       5.134  -3.452 -15.080  0.00  0.00     0.082 H 
BRANCH  40  43
ATOM     43  C   UNK d   0       4.712  -3.634 -12.996  0.00  0.00     0.254 C 
ATOM     44  N   LEU d   1       3.669  -3.658 -12.141  0.00  0.00    -0.304 N 
ATOM     45  CA  LEU d   1       3.785  -4.369 -10.865  0.00  0.00     0.063 C 
ATOM     46  H   LEU d   1       2.843  -3.205 -12.371  0.00  0.00     0.149 HD
ATOM     47  HA  LEU d   1       4.802  -4.271 -10.486  0.00  0.00     0.056 H 
ATOM     48  C   LEU d   1       3.465  -5.827 -11.071  0.00  0.00     0.062 C 
ATOM     49  O   LEU d   1       3.169  -6.231 -12.171  0.00  0.00    -0.548 OA
ATOM     50  OXT LEU d   1       3.506  -6.676 -10.032  0.00  0.00    -0.548 OA
ATOM     51  O   UNK d   0       5.746  -4.201 -12.708  0.00  0.00    -0.272 OA
BRANCH  45  52
ATOM     52  CB  LEU d   1       2.804  -3.768  -9.857  0.00  0.00    -0.027 C 
ATOM     53  HB1 LEU d   1       2.390  -4.561  -9.235  0.00  0.00     0.029 H 
ATOM     54  HB2 LEU d   1       3.326  -3.047  -9.228  0.00  0.00     0.029 H 
BRANCH  52  55
ATOM     55  CG  LEU d   1       1.671  -3.063 -10.606  0.00  0.00    -0.045 C 
ATOM     56  HG  LEU d   1       1.954  -2.931 -11.652  0.00  0.00     0.030 H 
BRANCH  55  57
ATOM     57  CD1 LEU d   1       0.401  -3.913 -10.526  0.00  0.00    -0.063 C 
ATOM     58 1HD1 LEU d   1      -0.472  -3.275 -10.667  0.00  0.00     0.023 H 
ATOM     59 2HD1 LEU d   1       0.424  -4.674 -11.306  0.00  0.00     0.023 H 
ATOM     60 3HD1 LEU d   1       0.346  -4.393  -9.550  0.00  0.00     0.023 H 
ENDBRANCH  55  57
BRANCH  55  61
ATOM     61  CD2 LEU d   1       1.411  -1.696  -9.971  0.00  0.00    -0.063 C 
ATOM     62 1HD2 LEU d   1       0.467  -1.721  -9.427  0.00  0.00     0.023 H 
ATOM     63 2HD2 LEU d   1       2.222  -1.455  -9.284  0.00  0.00     0.023 H 
ATOM     64 3HD2 LEU d   1       1.360  -0.937 -10.752  0.00  0.00     0.023 H 
ENDBRANCH  55  61
ENDBRANCH  52  55
ENDBRANCH  45  52
ENDBRANCH  40  43
ENDBRANCH  39  40
ENDBRANCH   1  39
BRANCH   5  65
ATOM     65  C   UNK d   0       6.274   0.837  -8.952  0.00  0.00    -0.056 C 
ATOM     66  H   UNK d   0       6.235   1.760  -9.531  0.00  0.00     0.024 H 
ATOM     67  H   UNK d   0       6.148   1.066  -7.895  0.00  0.00     0.024 H 
ATOM     68  H   UNK d   0       7.237   0.351  -9.108  0.00  0.00     0.024 H 
ENDBRANCH   5  65
BRANCH  10  69
ATOM     69  C   UNK d   0       5.571   0.282  -5.136  0.00  0.00    -0.056 C 
ATOM     70  H   UNK d   0       6.398   0.046  -5.806  0.00  0.00     0.024 H 
ATOM     71  H   UNK d   0       5.148   1.249  -5.409  0.00  0.00     0.024 H 
ATOM     72  H   UNK d   0       5.933   0.322  -4.109  0.00  0.00     0.024 H 
ENDBRANCH  10  69
BRANCH  21  73
ATOM     73  C   UNK d   0       4.928  -0.873  -2.808  0.00  0.00     0.162 C 
ATOM     74  O   UNK d   0       5.872  -1.622  -2.720  0.00  0.00    -0.295 OA
BRANCH  73  75
ATOM     75  C   UNK d   0       4.784   0.274  -1.840  0.00  0.00    -0.003 C 
ATOM     76  H   UNK d   0       5.630   0.805  -1.825  0.00  0.00     0.031 H 
ATOM     77  H   UNK d   0       3.958   0.913  -2.154  0.00  0.00     0.031 H 
ATOM     78  H   UNK d   0       4.582  -0.116  -0.842  0.00  0.00     0.031 H 
ENDBRANCH  73  75
ENDBRANCH  21  73
BRANCH  21  79
ATOM     79  O   UNK d   0       3.395  -2.423  -3.831  0.00  0.00    -0.381 OA
ATOM     80  H   UNK d   0       4.053  -3.098  -4.047  0.00  0.00     0.211 HD
ENDBRANCH  21  79
TORSDOF 14
ENDMDL
MODEL 5
REMARK VINA RESULT:      -5.9      6.316      9.016
REMARK  12 active torsions:
REMARK  status: ('A' for Active; 'I' for Inactive)
REMARK    1  A    between atoms: CD1_1  and  CG_2 
REMARK    2  A    between atoms: CG_2  and  CD2_3 
REMARK    3  A    between atoms: CG_2  and  CB_4 
REMARK    4  A    between atoms: CB_4  and  CA_5 
REMARK       I    between atoms: CA_5  and  C_7 
REMARK       I    between atoms: CA_5  and  N_9 
REMARK       I    between atoms: N_9  and  C_10 
REMARK    5  A    between atoms: C_10  and  C_12 
REMARK    6  A    between atoms: C_12  and  O_13 
REMARK    7  A    between atoms: O_13  and  N_14 
REMARK    8  A    between atoms: C_18  and  C_40 
REMARK    9  A    between atoms: C_23  and  C_39 
REMARK   10  A    between atoms: C_34  and  C_35 
REMARK   11  A    between atoms: C_34  and  O_38 
REMARK   12  A    between atoms: C_35  and  C_37 
ROOT
ATOM      1  N   UNK d   0       6.883   1.994  -9.296  0.00  0.00    -0.089 NA
ATOM      2  C   UNK d   0       7.921   2.285  -8.577  0.00  0.00     0.080 C 
ATOM      3  C   UNK d   0       8.456   1.331  -7.526  0.00  0.00    -0.006 C 
ATOM      4  C   UNK d   0       8.641   2.130  -6.237  0.00  0.00    -0.038 C 
ATOM      5  C   UNK d   0       9.576   3.310  -6.435  0.00  0.00    -0.007 C 
ATOM      6  C   UNK d   0       9.397   4.295  -5.274  0.00  0.00    -0.029 C 
ATOM      7  H   UNK d   0       8.361   4.634  -5.264  0.00  0.00     0.031 H 
ATOM      8  C   UNK d   0       9.693   3.587  -3.954  0.00  0.00    -0.049 C 
ATOM      9  C   UNK d   0       9.664   4.553  -2.760  0.00  0.00    -0.044 C 
ATOM     10  C   UNK d   0      10.675   5.647  -3.044  0.00  0.00     0.007 C 
ATOM     11  C   UNK d   0      10.169   6.426  -4.287  0.00  0.00    -0.029 C 
ATOM     12  H   UNK d   0       9.125   6.713  -4.157  0.00  0.00     0.031 H 
ATOM     13  C   UNK d   0      10.317   5.506  -5.484  0.00  0.00    -0.034 C 
ATOM     14  H   UNK d   0      11.353   5.175  -5.573  0.00  0.00     0.031 H 
ATOM     15  C   UNK d   0       9.891   6.241  -6.758  0.00  0.00    -0.046 C 
ATOM     16  C   UNK d   0      10.128   5.332  -7.965  0.00  0.00    -0.031 C 
ATOM     17  C   UNK d   0       9.398   4.020  -7.742  0.00  0.00    -0.062 C 
ATOM     18  C   UNK d   0       8.640   3.561  -8.731  0.00  0.00    -0.037 C 
ATOM     19  C   UNK d   0      11.068   7.668  -4.284  0.00  0.00    -0.046 C 
ATOM     20  C   UNK d   0      11.144   8.030  -2.768  0.00  0.00    -0.016 C 
ATOM     21  C   UNK d   0      10.823   6.734  -1.984  0.00  0.00     0.129 C 
ATOM     22  H   UNK d   0       7.745   0.522  -7.362  0.00  0.00     0.033 H 
ATOM     23  H   UNK d   0       9.414   0.923  -7.850  0.00  0.00     0.033 H 
ATOM     24  H   UNK d   0       9.054   1.476  -5.469  0.00  0.00     0.028 H 
ATOM     25  H   UNK d   0       7.670   2.498  -5.906  0.00  0.00     0.028 H 
ATOM     26  H   UNK d   0      10.680   3.128  -4.017  0.00  0.00     0.027 H 
ATOM     27  H   UNK d   0       8.948   2.806  -3.799  0.00  0.00     0.027 H 
ATOM     28  H   UNK d   0       9.936   4.023  -1.847  0.00  0.00     0.027 H 
ATOM     29  H   UNK d   0       8.669   4.986  -2.655  0.00  0.00     0.027 H 
ATOM     30  H   UNK d   0      10.479   7.152  -6.866  0.00  0.00     0.027 H 
ATOM     31  H   UNK d   0       8.832   6.495  -6.695  0.00  0.00     0.027 H 
ATOM     32  H   UNK d   0      11.196   5.142  -8.075  0.00  0.00     0.031 H 
ATOM     33  H   UNK d   0       9.749   5.813  -8.867  0.00  0.00     0.031 H 
ATOM     34  H   UNK d   0       8.551   4.124  -9.649  0.00  0.00     0.064 H 
ATOM     35  H   UNK d   0      12.058   7.427  -4.670  0.00  0.00     0.027 H 
ATOM     36  H   UNK d   0      10.614   8.474  -4.863  0.00  0.00     0.027 H 
ATOM     37  H   UNK d   0      10.403   8.797  -2.542  0.00  0.00     0.030 H 
ATOM     38  H   UNK d   0      12.142   8.385  -2.511  0.00  0.00     0.030 H 
ENDROOT
BRANCH   1  39
ATOM     39  O   UNK d   0       6.221   0.755  -9.116  0.00  0.00    -0.384 OA
BRANCH  39  40
ATOM     40  C   UNK d   0       4.798   0.861  -9.057  0.00  0.00     0.193 C 
ATOM     41  H   UNK d   0       4.515   1.908  -8.947  0.00  0.00     0.082 H 
ATOM     42  H   UNK d   0       4.364   0.463  -9.974  0.00  0.00     0.082 H 
BRANCH  40  43
ATOM     43  C   UNK d   0       4.284   0.076  -7.878  0.00  0.00     0.254 C 
ATOM     44  N   LEU d   1       4.811   0.277  -6.653  0.00  0.00    -0.304 N 
ATOM     45  CA  LEU d   1       4.311  -0.486  -5.506  0.00  0.00     0.063 C 
ATOM     46  H   LEU d   1       5.521   0.927  -6.531  0.00  0.00     0.149 HD
ATOM     47  HA  LEU d   1       4.043  -1.492  -5.829  0.00  0.00     0.056 H 
ATOM     48  C   LEU d   1       3.096   0.199  -4.937  0.00  0.00     0.062 C 
ATOM     49  O   LEU d   1       2.689   1.221  -5.439  0.00  0.00    -0.548 OA
ATOM     50  OXT LEU d   1       2.466  -0.324  -3.874  0.00  0.00    -0.548 OA
ATOM     51  O   UNK d   0       3.396  -0.736  -8.030  0.00  0.00    -0.272 OA
BRANCH  45  52
ATOM     52  CB  LEU d   1       5.400  -0.566  -4.434  0.00  0.00    -0.027 C 
ATOM     53  HB1 LEU d   1       6.196   0.138  -4.671  0.00  0.00     0.029 H 
ATOM     54  HB2 LEU d   1       4.972  -0.319  -3.463  0.00  0.00     0.029 H 
BRANCH  52  55
ATOM     55  CG  LEU d   1       5.970  -1.986  -4.392  0.00  0.00    -0.045 C 
ATOM     56  HG  LEU d   1       6.385  -2.240  -5.368  0.00  0.00     0.030 H 
BRANCH  55  57
ATOM     57  CD1 LEU d   1       7.073  -2.061  -3.334  0.00  0.00    -0.063 C 
ATOM     58 1HD1 LEU d   1       7.394  -1.053  -3.073  0.00  0.00     0.023 H 
ATOM     59 2HD1 LEU d   1       6.690  -2.562  -2.445  0.00  0.00     0.023 H 
ATOM     60 3HD1 LEU d   1       7.919  -2.620  -3.731  0.00  0.00     0.023 H 
ENDBRANCH  55  57
BRANCH  55  61
ATOM     61  CD2 LEU d   1       4.856  -2.974  -4.038  0.00  0.00    -0.063 C 
ATOM     62 1HD2 LEU d   1       5.289  -3.954  -3.839  0.00  0.00     0.023 H 
ATOM     63 2HD2 LEU d   1       4.327  -2.622  -3.153  0.00  0.00     0.023 H 
ATOM     64 3HD2 LEU d   1       4.159  -3.048  -4.873  0.00  0.00     0.023 H 
ENDBRANCH  55  61
ENDBRANCH  52  55
ENDBRANCH  45  52
ENDBRANCH  40  43
ENDBRANCH  39  40
ENDBRANCH   1  39
BRANCH   5  65
ATOM     65  C   UNK d   0      11.008   2.773  -6.381  0.00  0.00    -0.056 C 
ATOM     66  H   UNK d   0      11.557   3.114  -7.258  0.00  0.00     0.024 H 
ATOM     67  H   UNK d   0      11.499   3.140  -5.480  0.00  0.00     0.024 H 
ATOM     68  H   UNK d   0      10.988   1.684  -6.365  0.00  0.00     0.024 H 
ENDBRANCH   5  65
BRANCH  10  69
ATOM     69  C   UNK d   0      12.041   5.025  -3.343  0.00  0.00    -0.056 C 
ATOM     70  H   UNK d   0      12.080   4.720  -4.388  0.00  0.00     0.024 H 
ATOM     71  H   UNK d   0      12.825   5.758  -3.149  0.00  0.00     0.024 H 
ATOM     72  H   UNK d   0      12.192   4.155  -2.704  0.00  0.00     0.024 H 
ENDBRANCH  10  69
BRANCH  21  73
ATOM     73  C   UNK d   0      11.954   6.398  -1.046  0.00  0.00     0.162 C 
ATOM     74  O   UNK d   0      13.047   6.882  -1.219  0.00  0.00    -0.295 OA
BRANCH  73  75
ATOM     75  C   UNK d   0      11.721   5.457   0.108  0.00  0.00    -0.003 C 
ATOM     76  H   UNK d   0      11.001   4.807  -0.131  0.00  0.00     0.031 H 
ATOM     77  H   UNK d   0      12.642   4.916   0.327  0.00  0.00     0.031 H 
ATOM     78  H   UNK d   0      11.418   6.028   0.987  0.00  0.00     0.031 H 
ENDBRANCH  73  75
ENDBRANCH  21  73
BRANCH  21  79
ATOM     79  O   UNK d   0       9.604   6.883  -1.254  0.00  0.00    -0.381 OA
ATOM     80  H   UNK d   0       9.709   6.820  -0.295  0.00  0.00     0.211 HD
ENDBRANCH  21  79
TORSDOF 14
ENDMDL
MODEL 6
REMARK VINA RESULT:      -5.9      7.119      9.724
REMARK  12 active torsions:
REMARK  status: ('A' for Active; 'I' for Inactive)
REMARK    1  A    between atoms: CD1_1  and  CG_2 
REMARK    2  A    between atoms: CG_2  and  CD2_3 
REMARK    3  A    between atoms: CG_2  and  CB_4 
REMARK    4  A    between atoms: CB_4  and  CA_5 
REMARK       I    between atoms: CA_5  and  C_7 
REMARK       I    between atoms: CA_5  and  N_9 
REMARK       I    between atoms: N_9  and  C_10 
REMARK    5  A    between atoms: C_10  and  C_12 
REMARK    6  A    between atoms: C_12  and  O_13 
REMARK    7  A    between atoms: O_13  and  N_14 
REMARK    8  A    between atoms: C_18  and  C_40 
REMARK    9  A    between atoms: C_23  and  C_39 
REMARK   10  A    between atoms: C_34  and  C_35 
REMARK   11  A    between atoms: C_34  and  O_38 
REMARK   12  A    between atoms: C_35  and  C_37 
ROOT
ATOM      1  N   UNK d   0       8.975   1.781  -7.554  0.00  0.00    -0.089 NA
ATOM      2  C   UNK d   0       9.706   2.643  -6.921  0.00  0.00     0.080 C 
ATOM      3  C   UNK d   0      10.414   2.292  -5.626  0.00  0.00    -0.006 C 
ATOM      4  C   UNK d   0      10.090   3.392  -4.617  0.00  0.00    -0.038 C 
ATOM      5  C   UNK d   0      10.513   4.761  -5.121  0.00  0.00    -0.007 C 
ATOM      6  C   UNK d   0       9.804   5.842  -4.297  0.00  0.00    -0.029 C 
ATOM      7  H   UNK d   0       8.728   5.715  -4.413  0.00  0.00     0.031 H 
ATOM      8  C   UNK d   0      10.161   5.676  -2.822  0.00  0.00    -0.049 C 
ATOM      9  C   UNK d   0       9.591   6.810  -1.957  0.00  0.00    -0.044 C 
ATOM     10  C   UNK d   0      10.130   8.113  -2.516  0.00  0.00     0.007 C 
ATOM     11  C   UNK d   0       9.543   8.275  -3.944  0.00  0.00    -0.029 C 
ATOM     12  H   UNK d   0       8.463   8.130  -3.930  0.00  0.00     0.031 H 
ATOM     13  C   UNK d   0      10.204   7.228  -4.821  0.00  0.00    -0.034 C 
ATOM     14  H   UNK d   0      11.288   7.342  -4.784  0.00  0.00     0.031 H 
ATOM     15  C   UNK d   0       9.712   7.377  -6.264  0.00  0.00    -0.046 C 
ATOM     16  C   UNK d   0      10.451   6.374  -7.152  0.00  0.00    -0.031 C 
ATOM     17  C   UNK d   0      10.261   4.980  -6.581  0.00  0.00    -0.062 C 
ATOM     18  C   UNK d   0       9.889   4.017  -7.416  0.00  0.00    -0.037 C 
ATOM     19  C   UNK d   0       9.881   9.733  -4.275  0.00  0.00    -0.046 C 
ATOM     20  C   UNK d   0       9.596  10.463  -2.925  0.00  0.00    -0.016 C 
ATOM     21  C   UNK d   0       9.694   9.393  -1.810  0.00  0.00     0.129 C 
ATOM     22  H   UNK d   0      10.055   1.332  -5.255  0.00  0.00     0.033 H 
ATOM     23  H   UNK d   0      11.490   2.247  -5.793  0.00  0.00     0.033 H 
ATOM     24  H   UNK d   0      10.610   3.182  -3.682  0.00  0.00     0.028 H 
ATOM     25  H   UNK d   0       9.016   3.399  -4.432  0.00  0.00     0.028 H 
ATOM     26  H   UNK d   0      11.246   5.663  -2.723  0.00  0.00     0.027 H 
ATOM     27  H   UNK d   0       9.762   4.724  -2.469  0.00  0.00     0.027 H 
ATOM     28  H   UNK d   0       9.915   6.688  -0.923  0.00  0.00     0.027 H 
ATOM     29  H   UNK d   0       8.502   6.807  -2.008  0.00  0.00     0.027 H 
ATOM     30  H   UNK d   0       9.910   8.390  -6.614  0.00  0.00     0.027 H 
ATOM     31  H   UNK d   0       8.640   7.179  -6.305  0.00  0.00     0.027 H 
ATOM     32  H   UNK d   0      11.513   6.619  -7.173  0.00  0.00     0.031 H 
ATOM     33  H   UNK d   0      10.047   6.412  -8.164  0.00  0.00     0.031 H 
ATOM     34  H   UNK d   0       9.720   4.243  -8.459  0.00  0.00     0.064 H 
ATOM     35  H   UNK d   0      10.932   9.832  -4.548  0.00  0.00     0.027 H 
ATOM     36  H   UNK d   0       9.238  10.107  -5.072  0.00  0.00     0.027 H 
ATOM     37  H   UNK d   0       8.592  10.888  -2.949  0.00  0.00     0.030 H 
ATOM     38  H   UNK d   0      10.331  11.249  -2.754  0.00  0.00     0.030 H 
ENDROOT
BRANCH   1  39
ATOM     39  O   UNK d   0       8.825   0.468  -7.042  0.00  0.00    -0.384 OA
BRANCH  39  40
ATOM     40  C   UNK d   0       7.595  -0.160  -7.407  0.00  0.00     0.193 C 
ATOM     41  H   UNK d   0       7.213   0.292  -8.323  0.00  0.00     0.082 H 
ATOM     42  H   UNK d   0       7.763  -1.224  -7.570  0.00  0.00     0.082 H 
BRANCH  40  43
ATOM     43  C   UNK d   0       6.589   0.026  -6.300  0.00  0.00     0.254 C 
ATOM     44  N   LEU d   1       6.835  -0.481  -5.074  0.00  0.00    -0.304 N 
ATOM     45  CA  LEU d   1       5.857  -0.300  -3.998  0.00  0.00     0.063 C 
ATOM     46  H   LEU d   1       7.659  -0.965  -4.905  0.00  0.00     0.149 HD
ATOM     47  HA  LEU d   1       4.850  -0.334  -4.413  0.00  0.00     0.056 H 
ATOM     48  C   LEU d   1       6.082   1.033  -3.334  0.00  0.00     0.062 C 
ATOM     49  O   LEU d   1       6.968   1.759  -3.720  0.00  0.00    -0.548 OA
ATOM     50  OXT LEU d   1       5.299   1.415  -2.313  0.00  0.00    -0.548 OA
ATOM     51  O   UNK d   0       5.559   0.630  -6.510  0.00  0.00    -0.272 OA
BRANCH  45  52
ATOM     52  CB  LEU d   1       6.023  -1.418  -2.966  0.00  0.00    -0.027 C 
ATOM     53  HB1 LEU d   1       6.918  -1.996  -3.196  0.00  0.00     0.029 H 
ATOM     54  HB2 LEU d   1       6.116  -0.983  -1.971  0.00  0.00     0.029 H 
BRANCH  52  55
ATOM     55  CG  LEU d   1       4.799  -2.336  -3.008  0.00  0.00    -0.045 C 
ATOM     56  HG  LEU d   1       4.916  -3.131  -2.270  0.00  0.00     0.030 H 
BRANCH  55  57
ATOM     57  CD1 LEU d   1       3.542  -1.524  -2.687  0.00  0.00    -0.063 C 
ATOM     58 1HD1 LEU d   1       2.725  -1.852  -3.329  0.00  0.00     0.023 H 
ATOM     59 2HD1 LEU d   1       3.268  -1.677  -1.643  0.00  0.00     0.023 H 
ATOM     60 3HD1 LEU d   1       3.739  -0.467  -2.860  0.00  0.00     0.023 H 
ENDBRANCH  55  57
BRANCH  55  61
ATOM     61  CD2 LEU d   1       4.668  -2.950  -4.403  0.00  0.00    -0.063 C 
ATOM     62 1HD2 LEU d   1       3.651  -2.809  -4.768  0.00  0.00     0.023 H 
ATOM     63 2HD2 LEU d   1       5.370  -2.465  -5.081  0.00  0.00     0.023 H 
ATOM     64 3HD2 LEU d   1       4.890  -4.016  -4.352  0.00  0.00     0.023 H 
ENDBRANCH  55  61
ENDBRANCH  52  55
ENDBRANCH  45  52
ENDBRANCH  40  43
ENDBRANCH  39  40
ENDBRANCH   1  39
BRANCH   5  65
ATOM     65  C   UNK d   0      12.018   4.893  -4.875  0.00  0.00    -0.056 C 
ATOM     66  H   UNK d   0      12.458   3.900  -4.778  0.00  0.00     0.024 H 
ATOM     67  H   UNK d   0      12.478   5.413  -5.715  0.00  0.00     0.024 H 
ATOM     68  H   UNK d   0      12.189   5.457  -3.959  0.00  0.00     0.024 H 
ENDBRANCH   5  65
BRANCH  10  69
ATOM     69  C   UNK d   0      11.658   8.055  -2.587  0.00  0.00    -0.056 C 
ATOM     70  H   UNK d   0      12.082   8.668  -1.793  0.00  0.00     0.024 H 
ATOM     71  H   UNK d   0      11.987   7.023  -2.465  0.00  0.00     0.024 H 
ATOM     72  H   UNK d   0      11.991   8.429  -3.555  0.00  0.00     0.024 H 
ENDBRANCH  10  69
BRANCH  21  73
ATOM     73  C   UNK d   0      10.721   9.800  -0.785  0.00  0.00     0.162 C 
ATOM     74  O   UNK d   0      11.444  10.744  -0.996  0.00  0.00    -0.295 OA
BRANCH  73  75
ATOM     75  C   UNK d   0      10.846   9.028   0.504  0.00  0.00    -0.003 C 
ATOM     76  H   UNK d   0      10.790   8.049   0.313  0.00  0.00     0.031 H 
ATOM     77  H   UNK d   0      11.805   9.254   0.971  0.00  0.00     0.031 H 
ATOM     78  H   UNK d   0      10.038   9.314   1.178  0.00  0.00     0.031 H 
ENDBRANCH  73  75
ENDBRANCH  21  73
BRANCH  21  79
ATOM     79  O   UNK d   0       8.421   9.206  -1.187  0.00  0.00    -0.381 OA
ATOM     80  H   UNK d   0       8.049   8.322  -1.308  0.00  0.00     0.211 HD
ENDBRANCH  21  79
TORSDOF 14
ENDMDL
MODEL 7
REMARK VINA RESULT:      -5.9      7.305      9.733
REMARK  12 active torsions:
REMARK  status: ('A' for Active; 'I' for Inactive)
REMARK    1  A    between atoms: CD1_1  and  CG_2 
REMARK    2  A    between atoms: CG_2  and  CD2_3 
REMARK    3  A    between atoms: CG_2  and  CB_4 
REMARK    4  A    between atoms: CB_4  and  CA_5 
REMARK       I    between atoms: CA_5  and  C_7 
REMARK       I    between atoms: CA_5  and  N_9 
REMARK       I    between atoms: N_9  and  C_10 
REMARK    5  A    between atoms: C_10  and  C_12 
REMARK    6  A    between atoms: C_12  and  O_13 
REMARK    7  A    between atoms: O_13  and  N_14 
REMARK    8  A    between atoms: C_18  and  C_40 
REMARK    9  A    between atoms: C_23  and  C_39 
REMARK   10  A    between atoms: C_34  and  C_35 
REMARK   11  A    between atoms: C_34  and  O_38 
REMARK   12  A    between atoms: C_35  and  C_37 
ROOT
ATOM      1  N   UNK d   0       8.347   1.382  -5.486  0.00  0.00    -0.089 NA
ATOM      2  C   UNK d   0       9.157   2.313  -5.091  0.00  0.00     0.080 C 
ATOM      3  C   UNK d   0       9.819   2.269  -3.727  0.00  0.00    -0.006 C 
ATOM      4  C   UNK d   0       9.601   3.631  -3.070  0.00  0.00    -0.038 C 
ATOM      5  C   UNK d   0      10.161   4.760  -3.916  0.00  0.00    -0.007 C 
ATOM      6  C   UNK d   0       9.559   6.090  -3.445  0.00  0.00    -0.029 C 
ATOM      7  H   UNK d   0       8.476   6.037  -3.557  0.00  0.00     0.031 H 
ATOM      8  C   UNK d   0       9.889   6.305  -1.971  0.00  0.00    -0.049 C 
ATOM      9  C   UNK d   0       9.430   7.683  -1.469  0.00  0.00    -0.044 C 
ATOM     10  C   UNK d   0      10.099   8.723  -2.347  0.00  0.00     0.007 C 
ATOM     11  C   UNK d   0       9.539   8.538  -3.783  0.00  0.00    -0.029 C 
ATOM     12  H   UNK d   0       8.450   8.505  -3.765  0.00  0.00     0.031 H 
ATOM     13  C   UNK d   0      10.098   7.232  -4.317  0.00  0.00    -0.034 C 
ATOM     14  H   UNK d   0      11.187   7.249  -4.277  0.00  0.00     0.031 H 
ATOM     15  C   UNK d   0       9.631   7.022  -5.760  0.00  0.00    -0.046 C 
ATOM     16  C   UNK d   0      10.271   5.747  -6.314  0.00  0.00    -0.031 C 
ATOM     17  C   UNK d   0       9.941   4.590  -5.388  0.00  0.00    -0.062 C 
ATOM     18  C   UNK d   0       9.479   3.473  -5.938  0.00  0.00    -0.037 C 
ATOM     19  C   UNK d   0      10.023   9.810  -4.490  0.00  0.00    -0.046 C 
ATOM     20  C   UNK d   0       9.804  10.908  -3.403  0.00  0.00    -0.016 C 
ATOM     21  C   UNK d   0       9.789  10.183  -2.035  0.00  0.00     0.129 C 
ATOM     22  H   UNK d   0       9.364   1.487  -3.118  0.00  0.00     0.033 H 
ATOM     23  H   UNK d   0      10.886   2.078  -3.839  0.00  0.00     0.033 H 
ATOM     24  H   UNK d   0      10.092   3.639  -2.097  0.00  0.00     0.028 H 
ATOM     25  H   UNK d   0       8.532   3.790  -2.929  0.00  0.00     0.028 H 
ATOM     26  H   UNK d   0      10.967   6.218  -1.836  0.00  0.00     0.027 H 
ATOM     27  H   UNK d   0       9.395   5.530  -1.383  0.00  0.00     0.027 H 
ATOM     28  H   UNK d   0       9.735   7.821  -0.432  0.00  0.00     0.027 H 
ATOM     29  H   UNK d   0       8.347   7.768  -1.553  0.00  0.00     0.027 H 
ATOM     30  H   UNK d   0       9.931   7.875  -6.368  0.00  0.00     0.027 H 
ATOM     31  H   UNK d   0       8.545   6.922  -5.781  0.00  0.00     0.027 H 
ATOM     32  H   UNK d   0      11.353   5.876  -6.367  0.00  0.00     0.031 H 
ATOM     33  H   UNK d   0       9.879   5.542  -7.310  0.00  0.00     0.031 H 
ATOM     34  H   UNK d   0       9.339   3.417  -7.008  0.00  0.00     0.064 H 
ATOM     35  H   UNK d   0      11.080   9.730  -4.745  0.00  0.00     0.027 H 
ATOM     36  H   UNK d   0       9.425  10.007  -5.380  0.00  0.00     0.027 H 
ATOM     37  H   UNK d   0       8.848  11.402  -3.576  0.00  0.00     0.030 H 
ATOM     38  H   UNK d   0      10.613  11.638  -3.431  0.00  0.00     0.030 H 
ENDROOT
BRANCH   1  39
ATOM     39  O   UNK d   0       8.064   0.283  -4.639  0.00  0.00    -0.384 OA
BRANCH  39  40
ATOM     40  C   UNK d   0       6.854   0.421  -3.893  0.00  0.00     0.193 C 
ATOM     41  H   UNK d   0       6.953  -0.099  -2.940  0.00  0.00     0.082 H 
ATOM     42  H   UNK d   0       6.657   1.478  -3.711  0.00  0.00     0.082 H 
BRANCH  40  43
ATOM     43  C   UNK d   0       5.712  -0.176  -4.673  0.00  0.00     0.254 C 
ATOM     44  N   LEU d   1       5.660  -0.027  -6.013  0.00  0.00    -0.304 N 
ATOM     45  CA  LEU d   1       4.549  -0.608  -6.771  0.00  0.00     0.063 C 
ATOM     46  H   LEU d   1       6.358   0.465  -6.473  0.00  0.00     0.149 HD
ATOM     47  HA  LEU d   1       3.637  -0.552  -6.179  0.00  0.00     0.056 H 
ATOM     48  C   LEU d   1       4.856  -2.048  -7.088  0.00  0.00     0.062 C 
ATOM     49  O   LEU d   1       5.896  -2.540  -6.718  0.00  0.00    -0.548 OA
ATOM     50  OXT LEU d   1       3.975  -2.785  -7.782  0.00  0.00    -0.548 OA
ATOM     51  O   UNK d   0       4.839  -0.790  -4.097  0.00  0.00    -0.272 OA
BRANCH  45  52
ATOM     52  CB  LEU d   1       4.360   0.172  -8.074  0.00  0.00    -0.027 C 
ATOM     53  HB1 LEU d   1       5.038   1.025  -8.090  0.00  0.00     0.029 H 
ATOM     54  HB2 LEU d   1       4.574  -0.479  -8.922  0.00  0.00     0.029 H 
BRANCH  52  55
ATOM     55  CG  LEU d   1       2.914   0.667  -8.167  0.00  0.00    -0.045 C 
ATOM     56  HG  LEU d   1       2.416   0.514  -7.209  0.00  0.00     0.030 H 
BRANCH  55  57
ATOM     57  CD1 LEU d   1       2.908   2.159  -8.511  0.00  0.00    -0.063 C 
ATOM     58 1HD1 LEU d   1       3.903   2.572  -8.351  0.00  0.00     0.023 H 
ATOM     59 2HD1 LEU d   1       2.624   2.288  -9.556  0.00  0.00     0.023 H 
ATOM     60 3HD1 LEU d   1       2.192   2.675  -7.873  0.00  0.00     0.023 H 
ENDBRANCH  55  57
BRANCH  55  61
ATOM     61  CD2 LEU d   1       2.176  -0.111  -9.257  0.00  0.00    -0.063 C 
ATOM     62 1HD2 LEU d   1       2.742  -1.008  -9.509  0.00  0.00     0.023 H 
ATOM     63 2HD2 LEU d   1       1.187  -0.394  -8.896  0.00  0.00     0.023 H 
ATOM     64 3HD2 LEU d   1       2.074   0.514 -10.144  0.00  0.00     0.023 H 
ENDBRANCH  55  61
ENDBRANCH  52  55
ENDBRANCH  45  52
ENDBRANCH  40  43
ENDBRANCH  39  40
ENDBRANCH   1  39
BRANCH   5  65
ATOM     65  C   UNK d   0      11.671   4.813  -3.667  0.00  0.00    -0.056 C 
ATOM     66  H   UNK d   0      11.895   5.622  -2.972  0.00  0.00     0.024 H 
ATOM     67  H   UNK d   0      12.001   3.866  -3.241  0.00  0.00     0.024 H 
ATOM     68  H   UNK d   0      12.189   4.989  -4.610  0.00  0.00     0.024 H 
ENDBRANCH   5  65
BRANCH  10  69
ATOM     69  C   UNK d   0      11.614   8.504  -2.349  0.00  0.00    -0.056 C 
ATOM     70  H   UNK d   0      12.045   8.945  -1.452  0.00  0.00     0.024 H 
ATOM     71  H   UNK d   0      11.826   7.434  -2.367  0.00  0.00     0.024 H 
ATOM     72  H   UNK d   0      12.048   8.973  -3.232  0.00  0.00     0.024 H 
ENDBRANCH  10  69
BRANCH  21  73
ATOM     73  C   UNK d   0      10.846  10.759  -1.128  0.00  0.00     0.162 C 
ATOM     74  O   UNK d   0      11.734  11.436  -1.588  0.00  0.00    -0.295 OA
BRANCH  73  75
ATOM     75  C   UNK d   0      10.794  10.491   0.354  0.00  0.00    -0.003 C 
ATOM     76  H   UNK d   0      11.722  10.356   0.701  0.00  0.00     0.031 H 
ATOM     77  H   UNK d   0      10.337  11.341   0.861  0.00  0.00     0.031 H 
ATOM     78  H   UNK d   0      10.201   9.595   0.541  0.00  0.00     0.031 H 
ENDBRANCH  73  75
ENDBRANCH  21  73
BRANCH  21  79
ATOM     79  O   UNK d   0       8.500  10.297  -1.426  0.00  0.00    -0.381 OA
ATOM     80  H   UNK d   0       8.071   9.449  -1.252  0.00  0.00     0.211 HD
ENDBRANCH  21  79
TORSDOF 14
ENDMDL
MODEL 8
REMARK VINA RESULT:      -5.6      5.175      8.491
REMARK  12 active torsions:
REMARK  status: ('A' for Active; 'I' for Inactive)
REMARK    1  A    between atoms: CD1_1  and  CG_2 
REMARK    2  A    between atoms: CG_2  and  CD2_3 
REMARK    3  A    between atoms: CG_2  and  CB_4 
REMARK    4  A    between atoms: CB_4  and  CA_5 
REMARK       I    between atoms: CA_5  and  C_7 
REMARK       I    between atoms: CA_5  and  N_9 
REMARK       I    between atoms: N_9  and  C_10 
REMARK    5  A    between atoms: C_10  and  C_12 
REMARK    6  A    between atoms: C_12  and  O_13 
REMARK    7  A    between atoms: O_13  and  N_14 
REMARK    8  A    between atoms: C_18  and  C_40 
REMARK    9  A    between atoms: C_23  and  C_39 
REMARK   10  A    between atoms: C_34  and  C_35 
REMARK   11  A    between atoms: C_34  and  O_38 
REMARK   12  A    between atoms: C_35  and  C_37 
ROOT
ATOM      1  N   UNK d   0      13.487  -1.743  -4.954  0.00  0.00    -0.089 NA
ATOM      2  C   UNK d   0      12.253  -1.617  -5.325  0.00  0.00     0.080 C 
ATOM      3  C   UNK d   0      11.758  -0.381  -6.050  0.00  0.00    -0.006 C 
ATOM      4  C   UNK d   0      10.497   0.096  -5.332  0.00  0.00    -0.038 C 
ATOM      5  C   UNK d   0       9.429  -0.983  -5.295  0.00  0.00    -0.007 C 
ATOM      6  C   UNK d   0       8.387  -0.624  -4.229  0.00  0.00    -0.029 C 
ATOM      7  H   UNK d   0       8.889  -0.559  -3.263  0.00  0.00     0.031 H 
ATOM      8  C   UNK d   0       7.772   0.735  -4.554  0.00  0.00    -0.049 C 
ATOM      9  C   UNK d   0       6.623   1.094  -3.599  0.00  0.00    -0.044 C 
ATOM     10  C   UNK d   0       5.597  -0.020  -3.696  0.00  0.00     0.007 C 
ATOM     11  C   UNK d   0       6.269  -1.309  -3.153  0.00  0.00    -0.029 C 
ATOM     12  H   UNK d   0       6.731  -1.119  -2.184  0.00  0.00     0.031 H 
ATOM     13  C   UNK d   0       7.320  -1.726  -4.165  0.00  0.00    -0.034 C 
ATOM     14  H   UNK d   0       6.862  -1.857  -5.146  0.00  0.00     0.031 H 
ATOM     15  C   UNK d   0       7.980  -3.033  -3.717  0.00  0.00    -0.046 C 
ATOM     16  C   UNK d   0       8.974  -3.487  -4.788  0.00  0.00    -0.031 C 
ATOM     17  C   UNK d   0       9.959  -2.362  -5.050  0.00  0.00    -0.062 C 
ATOM     18  C   UNK d   0      11.252  -2.665  -5.060  0.00  0.00    -0.037 C 
ATOM     19  C   UNK d   0       5.077  -2.261  -2.998  0.00  0.00    -0.046 C 
ATOM     20  C   UNK d   0       3.968  -1.326  -2.425  0.00  0.00    -0.016 C 
ATOM     21  C   UNK d   0       4.352   0.120  -2.825  0.00  0.00     0.129 C 
ATOM     22  H   UNK d   0      12.520   0.399  -6.017  0.00  0.00     0.033 H 
ATOM     23  H   UNK d   0      11.524  -0.627  -7.086  0.00  0.00     0.033 H 
ATOM     24  H   UNK d   0      10.101   0.969  -5.850  0.00  0.00     0.028 H 
ATOM     25  H   UNK d   0      10.754   0.375  -4.311  0.00  0.00     0.028 H 
ATOM     26  H   UNK d   0       7.392   0.712  -5.575  0.00  0.00     0.027 H 
ATOM     27  H   UNK d   0       8.546   1.498  -4.481  0.00  0.00     0.027 H 
ATOM     28  H   UNK d   0       6.173   2.040  -3.899  0.00  0.00     0.027 H 
ATOM     29  H   UNK d   0       6.996   1.166  -2.578  0.00  0.00     0.027 H 
ATOM     30  H   UNK d   0       7.216  -3.799  -3.580  0.00  0.00     0.027 H 
ATOM     31  H   UNK d   0       8.507  -2.871  -2.776  0.00  0.00     0.027 H 
ATOM     32  H   UNK d   0       8.437  -3.724  -5.707  0.00  0.00     0.031 H 
ATOM     33  H   UNK d   0       9.511  -4.370  -4.441  0.00  0.00     0.031 H 
ATOM     34  H   UNK d   0      11.570  -3.680  -4.872  0.00  0.00     0.064 H 
ATOM     35  H   UNK d   0       4.777  -2.662  -3.966  0.00  0.00     0.027 H 
ATOM     36  H   UNK d   0       5.315  -3.067  -2.304  0.00  0.00     0.027 H 
ATOM     37  H   UNK d   0       3.942  -1.419  -1.339  0.00  0.00     0.030 H 
ATOM     38  H   UNK d   0       2.996  -1.585  -2.846  0.00  0.00     0.030 H 
ENDROOT
BRANCH   1  39
ATOM     39  O   UNK d   0      14.418  -0.710  -5.229  0.00  0.00    -0.384 OA
BRANCH  39  40
ATOM     40  C   UNK d   0      14.697   0.133  -4.110  0.00  0.00     0.193 C 
ATOM     41  H   UNK d   0      14.310  -0.329  -3.202  0.00  0.00     0.082 H 
ATOM     42  H   UNK d   0      15.774   0.271  -4.018  0.00  0.00     0.082 H 
BRANCH  40  43
ATOM     43  C   UNK d   0      14.035   1.471  -4.313  0.00  0.00     0.254 C 
ATOM     44  N   LEU d   1      13.123   1.914  -3.423  0.00  0.00    -0.304 N 
ATOM     45  CA  LEU d   1      12.480   3.216  -3.621  0.00  0.00     0.063 C 
ATOM     46  H   LEU d   1      12.893   1.371  -2.653  0.00  0.00     0.149 HD
ATOM     47  HA  LEU d   1      12.335   3.392  -4.686  0.00  0.00     0.056 H 
ATOM     48  C   LEU d   1      13.354   4.300  -3.047  0.00  0.00     0.062 C 
ATOM     49  O   LEU d   1      14.407   4.016  -2.526  0.00  0.00    -0.548 OA
ATOM     50  OXT LEU d   1      12.963   5.583  -3.112  0.00  0.00    -0.548 OA
ATOM     51  O   UNK d   0      14.322   2.151  -5.276  0.00  0.00    -0.272 OA
BRANCH  45  52
ATOM     52  CB  LEU d   1      11.123   3.226  -2.913  0.00  0.00    -0.027 C 
ATOM     53  HB1 LEU d   1      10.895   2.225  -2.549  0.00  0.00     0.029 H 
ATOM     54  HB2 LEU d   1      11.157   3.919  -2.072  0.00  0.00     0.029 H 
BRANCH  52  55
ATOM     55  CG  LEU d   1      10.038   3.672  -3.896  0.00  0.00    -0.045 C 
ATOM     56  HG  LEU d   1       9.185   2.996  -3.826  0.00  0.00     0.030 H 
BRANCH  55  57
ATOM     57  CD1 LEU d   1       9.591   5.094  -3.550  0.00  0.00    -0.063 C 
ATOM     58 1HD1 LEU d   1       8.650   5.312  -4.055  0.00  0.00     0.023 H 
ATOM     59 2HD1 LEU d   1       9.453   5.179  -2.472  0.00  0.00     0.023 H 
ATOM     60 3HD1 LEU d   1      10.351   5.803  -3.875  0.00  0.00     0.023 H 
ENDBRANCH  55  57
BRANCH  55  61
ATOM     61  CD2 LEU d   1      10.596   3.645  -5.320  0.00  0.00    -0.063 C 
ATOM     62 1HD2 LEU d   1       9.930   4.197  -5.982  0.00  0.00     0.023 H 
ATOM     63 2HD2 LEU d   1      11.585   4.104  -5.331  0.00  0.00     0.023 H 
ATOM     64 3HD2 LEU d   1      10.672   2.612  -5.660  0.00  0.00     0.023 H 
ENDBRANCH  55  61
ENDBRANCH  52  55
ENDBRANCH  45  52
ENDBRANCH  40  43
ENDBRANCH  39  40
ENDBRANCH   1  39
BRANCH   5  65
ATOM     65  C   UNK d   0       8.729  -0.980  -6.657  0.00  0.00    -0.056 C 
ATOM     66  H   UNK d   0       7.792  -0.429  -6.581  0.00  0.00     0.024 H 
ATOM     67  H   UNK d   0       9.373  -0.502  -7.394  0.00  0.00     0.024 H 
ATOM     68  H   UNK d   0       8.525  -2.006  -6.963  0.00  0.00     0.024 H 
ENDBRANCH   5  65
BRANCH  10  69
ATOM     69  C   UNK d   0       5.188  -0.223  -5.156  0.00  0.00    -0.056 C 
ATOM     70  H   UNK d   0       4.563  -1.112  -5.238  0.00  0.00     0.024 H 
ATOM     71  H   UNK d   0       4.630   0.647  -5.502  0.00  0.00     0.024 H 
ATOM     72  H   UNK d   0       6.081  -0.348  -5.769  0.00  0.00     0.024 H 
ENDBRANCH  10  69
BRANCH  21  73
ATOM     73  C   UNK d   0       3.235   0.759  -3.610  0.00  0.00     0.162 C 
ATOM     74  O   UNK d   0       3.221   1.956  -3.774  0.00  0.00    -0.295 OA
BRANCH  73  75
ATOM     75  C   UNK d   0       2.136  -0.094  -4.188  0.00  0.00    -0.003 C 
ATOM     76  H   UNK d   0       1.710   0.386  -4.954  0.00  0.00     0.031 H 
ATOM     77  H   UNK d   0       2.556  -1.038  -4.538  0.00  0.00     0.031 H 
ATOM     78  H   UNK d   0       1.387  -0.292  -3.421  0.00  0.00     0.031 H 
ENDBRANCH  73  75
ENDBRANCH  21  73
BRANCH  21  79
ATOM     79  O   UNK d   0       4.646   0.897  -1.662  0.00  0.00    -0.381 OA
ATOM     80  H   UNK d   0       4.168   1.736  -1.618  0.00  0.00     0.211 HD
ENDBRANCH  21  79
TORSDOF 14
ENDMDL
MODEL 9
REMARK VINA RESULT:      -5.6      3.020      8.824
REMARK  12 active torsions:
REMARK  status: ('A' for Active; 'I' for Inactive)
REMARK    1  A    between atoms: CD1_1  and  CG_2 
REMARK    2  A    between atoms: CG_2  and  CD2_3 
REMARK    3  A    between atoms: CG_2  and  CB_4 
REMARK    4  A    between atoms: CB_4  and  CA_5 
REMARK       I    between atoms: CA_5  and  C_7 
REMARK       I    between atoms: CA_5  and  N_9 
REMARK       I    between atoms: N_9  and  C_10 
REMARK    5  A    between atoms: C_10  and  C_12 
REMARK    6  A    between atoms: C_12  and  O_13 
REMARK    7  A    between atoms: O_13  and  N_14 
REMARK    8  A    between atoms: C_18  and  C_40 
REMARK    9  A    between atoms: C_23  and  C_39 
REMARK   10  A    between atoms: C_34  and  C_35 
REMARK   11  A    between atoms: C_34  and  O_38 
REMARK   12  A    between atoms: C_35  and  C_37 
ROOT
ATOM      1  N   UNK d   0       7.210  -2.759  -6.726  0.00  0.00    -0.089 NA
ATOM      2  C   UNK d   0       7.697  -3.946  -6.548  0.00  0.00     0.080 C 
ATOM      3  C   UNK d   0       7.196  -5.142  -7.335  0.00  0.00    -0.006 C 
ATOM      4  C   UNK d   0       6.893  -6.254  -6.331  0.00  0.00    -0.038 C 
ATOM      5  C   UNK d   0       8.116  -6.614  -5.505  0.00  0.00    -0.007 C 
ATOM      6  C   UNK d   0       7.672  -7.399  -4.265  0.00  0.00    -0.029 C 
ATOM      7  H   UNK d   0       6.996  -6.772  -3.683  0.00  0.00     0.031 H 
ATOM      8  C   UNK d   0       6.923  -8.656  -4.698  0.00  0.00    -0.049 C 
ATOM      9  C   UNK d   0       6.568  -9.558  -3.506  0.00  0.00    -0.044 C 
ATOM     10  C   UNK d   0       7.867  -9.899  -2.800  0.00  0.00     0.007 C 
ATOM     11  C   UNK d   0       8.438  -8.573  -2.229  0.00  0.00    -0.029 C 
ATOM     12  H   UNK d   0       7.672  -8.041  -1.666  0.00  0.00     0.031 H 
ATOM     13  C   UNK d   0       8.900  -7.739  -3.409  0.00  0.00    -0.034 C 
ATOM     14  H   UNK d   0       9.623  -8.301  -4.002  0.00  0.00     0.031 H 
ATOM     15  C   UNK d   0       9.534  -6.439  -2.907  0.00  0.00    -0.046 C 
ATOM     16  C   UNK d   0      10.073  -5.649  -4.102  0.00  0.00    -0.031 C 
ATOM     17  C   UNK d   0       8.947  -5.437  -5.097  0.00  0.00    -0.062 C 
ATOM     18  C   UNK d   0       8.764  -4.208  -5.567  0.00  0.00    -0.037 C 
ATOM     19  C   UNK d   0       9.542  -9.070  -1.289  0.00  0.00    -0.046 C 
ATOM     20  C   UNK d   0       8.883 -10.314  -0.616  0.00  0.00    -0.016 C 
ATOM     21  C   UNK d   0       7.762 -10.795  -1.571  0.00  0.00     0.129 C 
ATOM     22  H   UNK d   0       6.288  -4.875  -7.877  0.00  0.00     0.033 H 
ATOM     23  H   UNK d   0       7.962  -5.473  -8.035  0.00  0.00     0.033 H 
ATOM     24  H   UNK d   0       6.557  -7.139  -6.872  0.00  0.00     0.028 H 
ATOM     25  H   UNK d   0       6.099  -5.922  -5.663  0.00  0.00     0.028 H 
ATOM     26  H   UNK d   0       7.550  -9.215  -5.393  0.00  0.00     0.027 H 
ATOM     27  H   UNK d   0       6.005  -8.361  -5.207  0.00  0.00     0.027 H 
ATOM     28  H   UNK d   0       6.088 -10.470  -3.861  0.00  0.00     0.027 H 
ATOM     29  H   UNK d   0       5.903  -9.029  -2.824  0.00  0.00     0.027 H 
ATOM     30  H   UNK d   0      10.351  -6.672  -2.225  0.00  0.00     0.027 H 
ATOM     31  H   UNK d   0       8.782  -5.844  -2.387  0.00  0.00     0.027 H 
ATOM     32  H   UNK d   0      10.880  -6.210  -4.575  0.00  0.00     0.031 H 
ATOM     33  H   UNK d   0      10.450  -4.683  -3.764  0.00  0.00     0.031 H 
ATOM     34  H   UNK d   0       9.397  -3.401  -5.229  0.00  0.00     0.064 H 
ATOM     35  H   UNK d   0      10.426  -9.365  -1.856  0.00  0.00     0.027 H 
ATOM     36  H   UNK d   0       9.794  -8.306  -0.552  0.00  0.00     0.027 H 
ATOM     37  H   UNK d   0       8.458 -10.022   0.344  0.00  0.00     0.030 H 
ATOM     38  H   UNK d   0       9.619 -11.105  -0.475  0.00  0.00     0.030 H 
ENDROOT
BRANCH   1  39
ATOM     39  O   UNK d   0       6.184  -2.551  -7.680  0.00  0.00    -0.384 OA
BRANCH  39  40
ATOM     40  C   UNK d   0       4.912  -2.243  -7.107  0.00  0.00     0.193 C 
ATOM     41  H   UNK d   0       4.206  -1.997  -7.901  0.00  0.00     0.082 H 
ATOM     42  H   UNK d   0       4.546  -3.104  -6.548  0.00  0.00     0.082 H 
BRANCH  40  43
ATOM     43  C   UNK d   0       5.052  -1.064  -6.179  0.00  0.00     0.254 C 
ATOM     44  N   LEU d   1       5.378  -1.261  -4.885  0.00  0.00    -0.304 N 
ATOM     45  CA  LEU d   1       5.514  -0.115  -3.982  0.00  0.00     0.063 C 
ATOM     46  H   LEU d   1       5.521  -2.161  -4.552  0.00  0.00     0.149 HD
ATOM     47  HA  LEU d   1       4.787   0.650  -4.254  0.00  0.00     0.056 H 
ATOM     48  C   LEU d   1       6.906   0.452  -4.096  0.00  0.00     0.062 C 
ATOM     49  O   LEU d   1       7.702  -0.050  -4.854  0.00  0.00    -0.548 OA
ATOM     50  OXT LEU d   1       7.261   1.513  -3.355  0.00  0.00    -0.548 OA
ATOM     51  O   UNK d   0       4.873   0.061  -6.594  0.00  0.00    -0.272 OA
BRANCH  45  52
ATOM     52  CB  LEU d   1       5.265  -0.568  -2.542  0.00  0.00    -0.027 C 
ATOM     53  HB1 LEU d   1       5.306  -1.656  -2.490  0.00  0.00     0.029 H 
ATOM     54  HB2 LEU d   1       6.028  -0.144  -1.890  0.00  0.00     0.029 H 
BRANCH  52  55
ATOM     55  CG  LEU d   1       3.884  -0.088  -2.088  0.00  0.00    -0.045 C 
ATOM     56  HG  LEU d   1       3.767  -0.277  -1.020  0.00  0.00     0.030 H 
BRANCH  55  57
ATOM     57  CD1 LEU d   1       3.753   1.413  -2.357  0.00  0.00    -0.063 C 
ATOM     58 1HD1 LEU d   1       4.189   1.647  -3.328  0.00  0.00     0.023 H 
ATOM     59 2HD1 LEU d   1       2.699   1.690  -2.356  0.00  0.00     0.023 H 
ATOM     60 3HD1 LEU d   1       4.276   1.968  -1.580  0.00  0.00     0.023 H 
ENDBRANCH  55  57
BRANCH  55  61
ATOM     61  CD2 LEU d   1       2.801  -0.842  -2.862  0.00  0.00    -0.063 C 
ATOM     62 1HD2 LEU d   1       2.829  -1.897  -2.591  0.00  0.00     0.023 H 
ATOM     63 2HD2 LEU d   1       1.824  -0.428  -2.615  0.00  0.00     0.023 H 
ATOM     64 3HD2 LEU d   1       2.980  -0.737  -3.932  0.00  0.00     0.023 H 
ENDBRANCH  55  61
ENDBRANCH  52  55
ENDBRANCH  45  52
ENDBRANCH  40  43
ENDBRANCH  39  40
ENDBRANCH   1  39
BRANCH   5  65
ATOM     65  C   UNK d   0       8.989  -7.537  -6.359  0.00  0.00    -0.056 C 
ATOM     66  H   UNK d   0       9.886  -7.001  -6.670  0.00  0.00     0.024 H 
ATOM     67  H   UNK d   0       9.272  -8.411  -5.774  0.00  0.00     0.024 H 
ATOM     68  H   UNK d   0       8.431  -7.853  -7.240  0.00  0.00     0.024 H 
ENDBRANCH   5  65
BRANCH  10  69
ATOM     69  C   UNK d   0       8.857 -10.502  -3.799  0.00  0.00    -0.056 C 
ATOM     70  H   UNK d   0       8.715 -10.039  -4.775  0.00  0.00     0.024 H 
ATOM     71  H   UNK d   0       9.876 -10.321  -3.455  0.00  0.00     0.024 H 
ATOM     72  H   UNK d   0       8.686 -11.575  -3.877  0.00  0.00     0.024 H 
ENDBRANCH  10  69
BRANCH  21  73
ATOM     73  C   UNK d   0       7.985 -12.235  -1.954  0.00  0.00     0.162 C 
ATOM     74  O   UNK d   0       7.173 -12.811  -2.638  0.00  0.00    -0.295 OA
BRANCH  73  75
ATOM     75  C   UNK d   0       9.221 -12.958  -1.483  0.00  0.00    -0.003 C 
ATOM     76  H   UNK d   0       9.102 -13.942  -1.611  0.00  0.00     0.031 H 
ATOM     77  H   UNK d   0      10.082 -12.617  -2.058  0.00  0.00     0.031 H 
ATOM     78  H   UNK d   0       9.385 -12.747  -0.425  0.00  0.00     0.031 H 
ENDBRANCH  73  75
ENDBRANCH  21  73
BRANCH  21  79
ATOM     79  O   UNK d   0       6.483 -10.641  -0.953  0.00  0.00    -0.381 OA
ATOM     80  H   UNK d   0       6.379  -9.814  -0.463  0.00  0.00     0.211 HD
ENDBRANCH  21  79
TORSDOF 14
ENDMDL
