MODEL 1
REMARK VINA RESULT:      -6.2      0.000      0.000
REMARK  8 active torsions:
REMARK  status: ('A' for Active; 'I' for Inactive)
REMARK    1  A    between atoms: C_1  and  C_2 
REMARK    2  A    between atoms: C_2  and  C_3 
REMARK    3  A    between atoms: C_2  and  O_4 
REMARK    4  A    between atoms: O_4  and  C_5 
REMARK    5  A    between atoms: C_5  and  C_7 
REMARK    6  A    between atoms: N_18  and  C_20 
REMARK    7  A    between atoms: C_23  and  O_26 
REMARK    8  A    between atoms: O_26  and  C_27 
ROOT
ATOM      1  C   LIG d   1       5.546  -1.980  -3.588  0.00  0.00     0.100 C 
ATOM      2  H   LIG d   1       6.417  -1.772  -2.966  0.00  0.00     0.045 H 
ATOM      3  C   LIG d   1       4.263  -2.157  -2.713  0.00  0.00     0.092 C 
ATOM      4  H   LIG d   1       4.177  -3.114  -2.197  0.00  0.00     0.065 H 
ATOM      5  C   LIG d   1       4.158  -0.916  -1.819  0.00  0.00    -0.056 C 
ATOM      6  C   LIG d   1       3.783   0.105  -2.601  0.00  0.00    -0.052 C 
ATOM      7  C   LIG d   1       3.702  -0.499  -3.956  0.00  0.00     0.116 C 
ATOM      8  C   LIG d   1       5.176  -0.753  -4.443  0.00  0.00     0.086 C 
ATOM      9  H   LIG d   1       5.847   0.090  -4.280  0.00  0.00     0.044 H 
ATOM     10  C   LIG d   1       4.950  -1.042  -5.899  0.00  0.00     0.227 C 
ATOM     11  O   LIG d   1       5.682  -1.704  -6.605  0.00  0.00    -0.275 OA
ATOM     12  N   LIG d   1       3.800  -0.445  -6.302  0.00  0.00    -0.268 N 
ATOM     13  C   LIG d   1       3.096   0.171  -5.152  0.00  0.00     0.053 C 
ATOM     14  O   LIG d   1       3.228  -1.851  -3.715  0.00  0.00    -0.359 OA
ATOM     15  H   LIG d   1       4.350  -0.873  -0.758  0.00  0.00     0.060 H 
ATOM     16  H   LIG d   1       3.586   1.128  -2.313  0.00  0.00     0.060 H 
ATOM     17  H   LIG d   1       3.279   1.246  -5.123  0.00  0.00     0.050 H 
ATOM     18  H   LIG d   1       2.027  -0.034  -5.203  0.00  0.00     0.050 H 
ENDROOT
BRANCH  12  19
ATOM     19  C   LIG d   1       3.342  -0.412  -7.625  0.00  0.00     0.037 A 
ATOM     20  C   LIG d   1       3.112   0.807  -8.251  0.00  0.00    -0.037 A 
ATOM     21  C   LIG d   1       2.660   0.839  -9.555  0.00  0.00    -0.018 A 
ATOM     22  H   LIG d   1       3.288   1.729  -7.716  0.00  0.00     0.064 H 
ATOM     23  C   LIG d   1       2.435  -0.345 -10.241  0.00  0.00     0.120 A 
ATOM     24  H   LIG d   1       2.481   1.787 -10.040  0.00  0.00     0.066 H 
ATOM     25  C   LIG d   1       2.664  -1.562  -9.617  0.00  0.00    -0.018 A 
ATOM     26  C   LIG d   1       3.117  -1.597  -8.313  0.00  0.00    -0.037 A 
ATOM     27  H   LIG d   1       2.489  -2.484 -10.152  0.00  0.00     0.066 H 
ATOM     28  H   LIG d   1       3.298  -2.545  -7.828  0.00  0.00     0.064 H 
BRANCH  23  29
ATOM     29  O   LIG d   1       1.991  -0.313 -11.525  0.00  0.00    -0.495 OA
BRANCH  29  30
ATOM     30  C   LIG d   1       1.195  -1.415 -11.964  0.00  0.00     0.079 C 
ATOM     31  H   LIG d   1       1.758  -2.341 -11.843  0.00  0.00     0.066 H 
ATOM     32  H   LIG d   1       0.282  -1.465 -11.372  0.00  0.00     0.066 H 
ATOM     33  H   LIG d   1       0.939  -1.282 -13.016  0.00  0.00     0.066 H 
ENDBRANCH  29  30
ENDBRANCH  23  29
ENDBRANCH  12  19
BRANCH   1  34
ATOM     34  C   LIG d   1       5.781  -3.189  -4.455  0.00  0.00     0.314 C 
ATOM     35  O   LIG d   1       6.887  -3.422  -4.881  0.00  0.00    -0.250 OA
BRANCH  34  36
ATOM     36  O   LIG d   1       4.760  -4.007  -4.756  0.00  0.00    -0.462 OA
BRANCH  36  37
ATOM     37  C   LIG d   1       4.961  -4.936  -5.855  0.00  0.00     0.098 C 
ATOM     38  H   LIG d   1       5.933  -4.751  -6.312  0.00  0.00     0.073 H 
BRANCH  37  39
ATOM     39  C   LIG d   1       4.910  -6.371  -5.326  0.00  0.00    -0.028 C 
ATOM     40  H   LIG d   1       4.626  -7.045  -6.133  0.00  0.00     0.026 H 
ATOM     41  H   LIG d   1       5.891  -6.652  -4.944  0.00  0.00     0.026 H 
ATOM     42  H   LIG d   1       4.175  -6.437  -4.523  0.00  0.00     0.026 H 
ENDBRANCH  37  39
BRANCH  37  43
ATOM     43  C   LIG d   1       3.858  -4.736  -6.897  0.00  0.00    -0.028 C 
ATOM     44  H   LIG d   1       4.280  -4.266  -7.786  0.00  0.00     0.026 H 
ATOM     45  H   LIG d   1       3.432  -5.703  -7.165  0.00  0.00     0.026 H 
ATOM     46  H   LIG d   1       3.079  -4.097  -6.483  0.00  0.00     0.026 H 
ENDBRANCH  37  43
ENDBRANCH  36  37
ENDBRANCH  34  36
ENDBRANCH   1  34
TORSDOF 8
ENDMDL
MODEL 2
REMARK VINA RESULT:      -6.2      1.115      1.897
REMARK  8 active torsions:
REMARK  status: ('A' for Active; 'I' for Inactive)
REMARK    1  A    between atoms: C_1  and  C_2 
REMARK    2  A    between atoms: C_2  and  C_3 
REMARK    3  A    between atoms: C_2  and  O_4 
REMARK    4  A    between atoms: O_4  and  C_5 
REMARK    5  A    between atoms: C_5  and  C_7 
REMARK    6  A    between atoms: N_18  and  C_20 
REMARK    7  A    between atoms: C_23  and  O_26 
REMARK    8  A    between atoms: O_26  and  C_27 
ROOT
ATOM      1  C   LIG d   1       5.524  -1.863  -3.506  0.00  0.00     0.100 C 
ATOM      2  H   LIG d   1       6.403  -1.647  -2.898  0.00  0.00     0.045 H 
ATOM      3  C   LIG d   1       4.245  -1.984  -2.615  0.00  0.00     0.092 C 
ATOM      4  H   LIG d   1       4.146  -2.918  -2.062  0.00  0.00     0.065 H 
ATOM      5  C   LIG d   1       4.168  -0.707  -1.770  0.00  0.00    -0.056 C 
ATOM      6  C   LIG d   1       3.805   0.289  -2.589  0.00  0.00    -0.052 C 
ATOM      7  C   LIG d   1       3.703  -0.367  -3.919  0.00  0.00     0.116 C 
ATOM      8  C   LIG d   1       5.169  -0.665  -4.405  0.00  0.00     0.086 C 
ATOM      9  H   LIG d   1       5.855   0.172  -4.281  0.00  0.00     0.044 H 
ATOM     10  C   LIG d   1       4.927  -1.007  -5.848  0.00  0.00     0.227 C 
ATOM     11  O   LIG d   1       5.641  -1.709  -6.532  0.00  0.00    -0.275 OA
ATOM     12  N   LIG d   1       3.784  -0.406  -6.266  0.00  0.00    -0.268 N 
ATOM     13  C   LIG d   1       3.099   0.267  -5.135  0.00  0.00     0.053 C 
ATOM     14  O   LIG d   1       3.207  -1.699  -3.621  0.00  0.00    -0.359 OA
ATOM     15  H   LIG d   1       4.369  -0.626  -0.713  0.00  0.00     0.060 H 
ATOM     16  H   LIG d   1       3.628   1.325  -2.340  0.00  0.00     0.060 H 
ATOM     17  H   LIG d   1       3.301   1.339  -5.150  0.00  0.00     0.050 H 
ATOM     18  H   LIG d   1       2.027   0.079  -5.171  0.00  0.00     0.050 H 
ENDROOT
BRANCH  12  19
ATOM     19  C   LIG d   1       3.316  -0.416  -7.586  0.00  0.00     0.037 A 
ATOM     20  C   LIG d   1       2.970   0.775  -8.210  0.00  0.00    -0.037 A 
ATOM     21  C   LIG d   1       2.509   0.764  -9.511  0.00  0.00    -0.018 A 
ATOM     22  H   LIG d   1       3.062   1.710  -7.676  0.00  0.00     0.064 H 
ATOM     23  C   LIG d   1       2.391  -0.436 -10.196  0.00  0.00     0.120 A 
ATOM     24  H   LIG d   1       2.239   1.691  -9.995  0.00  0.00     0.066 H 
ATOM     25  C   LIG d   1       2.736  -1.626  -9.573  0.00  0.00    -0.018 A 
ATOM     26  C   LIG d   1       3.198  -1.618  -8.272  0.00  0.00    -0.037 A 
ATOM     27  H   LIG d   1       2.644  -2.561 -10.107  0.00  0.00     0.066 H 
ATOM     28  H   LIG d   1       3.470  -2.545  -7.788  0.00  0.00     0.064 H 
BRANCH  23  29
ATOM     29  O   LIG d   1       1.937  -0.446 -11.477  0.00  0.00    -0.495 OA
BRANCH  29  30
ATOM     30  C   LIG d   1       1.116  -1.549 -11.866  0.00  0.00     0.079 C 
ATOM     31  H   LIG d   1       0.238  -1.595 -11.222  0.00  0.00     0.066 H 
ATOM     32  H   LIG d   1       0.802  -1.421 -12.901  0.00  0.00     0.066 H 
ATOM     33  H   LIG d   1       1.684  -2.476 -11.771  0.00  0.00     0.066 H 
ENDBRANCH  29  30
ENDBRANCH  23  29
ENDBRANCH  12  19
BRANCH   1  34
ATOM     34  C   LIG d   1       5.731  -3.110  -4.326  0.00  0.00     0.314 C 
ATOM     35  O   LIG d   1       4.790  -3.815  -4.602  0.00  0.00    -0.250 OA
BRANCH  34  36
ATOM     36  O   LIG d   1       6.962  -3.438  -4.750  0.00  0.00    -0.462 OA
BRANCH  36  37
ATOM     37  C   LIG d   1       8.082  -2.808  -4.074  0.00  0.00     0.098 C 
ATOM     38  H   LIG d   1       7.708  -2.133  -3.304  0.00  0.00     0.073 H 
BRANCH  37  39
ATOM     39  C   LIG d   1       8.959  -3.883  -3.429  0.00  0.00    -0.028 C 
ATOM     40  H   LIG d   1       8.889  -4.804  -4.007  0.00  0.00     0.026 H 
ATOM     41  H   LIG d   1       9.994  -3.544  -3.408  0.00  0.00     0.026 H 
ATOM     42  H   LIG d   1       8.617  -4.068  -2.410  0.00  0.00     0.026 H 
ENDBRANCH  37  39
BRANCH  37  43
ATOM     43  C   LIG d   1       8.909  -2.016  -5.089  0.00  0.00    -0.028 C 
ATOM     44  H   LIG d   1       9.204  -2.672  -5.908  0.00  0.00     0.026 H 
ATOM     45  H   LIG d   1       8.313  -1.192  -5.479  0.00  0.00     0.026 H 
ATOM     46  H   LIG d   1       9.801  -1.621  -4.602  0.00  0.00     0.026 H 
ENDBRANCH  37  43
ENDBRANCH  36  37
ENDBRANCH  34  36
ENDBRANCH   1  34
TORSDOF 8
ENDMDL
MODEL 3
REMARK VINA RESULT:      -5.8      3.732      6.374
REMARK  8 active torsions:
REMARK  status: ('A' for Active; 'I' for Inactive)
REMARK    1  A    between atoms: C_1  and  C_2 
REMARK    2  A    between atoms: C_2  and  C_3 
REMARK    3  A    between atoms: C_2  and  O_4 
REMARK    4  A    between atoms: O_4  and  C_5 
REMARK    5  A    between atoms: C_5  and  C_7 
REMARK    6  A    between atoms: N_18  and  C_20 
REMARK    7  A    between atoms: C_23  and  O_26 
REMARK    8  A    between atoms: O_26  and  C_27 
ROOT
ATOM      1  C   LIG d   1       3.861  -1.046  -5.175  0.00  0.00     0.100 C 
ATOM      2  H   LIG d   1       3.406  -2.035  -5.111  0.00  0.00     0.045 H 
ATOM      3  C   LIG d   1       3.016   0.010  -4.392  0.00  0.00     0.092 C 
ATOM      4  H   LIG d   1       2.109   0.348  -4.892  0.00  0.00     0.065 H 
ATOM      5  C   LIG d   1       2.820  -0.538  -2.973  0.00  0.00    -0.056 C 
ATOM      6  C   LIG d   1       3.995  -0.430  -2.340  0.00  0.00    -0.052 C 
ATOM      7  C   LIG d   1       4.901   0.137  -3.373  0.00  0.00     0.116 C 
ATOM      8  C   LIG d   1       5.199  -1.006  -4.411  0.00  0.00     0.086 C 
ATOM      9  H   LIG d   1       5.451  -1.963  -3.956  0.00  0.00     0.044 H 
ATOM     10  C   LIG d   1       6.345  -0.407  -5.175  0.00  0.00     0.227 C 
ATOM     11  O   LIG d   1       6.646  -0.680  -6.318  0.00  0.00    -0.275 OA
ATOM     12  N   LIG d   1       6.991   0.488  -4.386  0.00  0.00    -0.268 N 
ATOM     13  C   LIG d   1       6.276   0.667  -3.099  0.00  0.00     0.053 C 
ATOM     14  O   LIG d   1       4.050   1.029  -4.141  0.00  0.00    -0.359 OA
ATOM     15  H   LIG d   1       1.905  -0.936  -2.562  0.00  0.00     0.060 H 
ATOM     16  H   LIG d   1       4.229  -0.694  -1.319  0.00  0.00     0.060 H 
ATOM     17  H   LIG d   1       6.760   0.091  -2.310  0.00  0.00     0.050 H 
ATOM     18  H   LIG d   1       6.232   1.722  -2.830  0.00  0.00     0.050 H 
ENDROOT
BRANCH  12  19
ATOM     19  C   LIG d   1       8.174   1.150  -4.737  0.00  0.00     0.037 A 
ATOM     20  C   LIG d   1       9.331   0.422  -4.984  0.00  0.00    -0.037 A 
ATOM     21  C   LIG d   1      10.497   1.075  -5.330  0.00  0.00    -0.018 A 
ATOM     22  H   LIG d   1       9.316  -0.655  -4.907  0.00  0.00     0.064 H 
ATOM     23  C   LIG d   1      10.515   2.458  -5.429  0.00  0.00     0.120 A 
ATOM     24  H   LIG d   1      11.396   0.508  -5.522  0.00  0.00     0.066 H 
ATOM     25  C   LIG d   1       9.360   3.186  -5.182  0.00  0.00    -0.018 A 
ATOM     26  C   LIG d   1       8.193   2.535  -4.837  0.00  0.00    -0.037 A 
ATOM     27  H   LIG d   1       9.375   4.263  -5.260  0.00  0.00     0.066 H 
ATOM     28  H   LIG d   1       7.293   3.102  -4.647  0.00  0.00     0.064 H 
BRANCH  23  29
ATOM     29  O   LIG d   1      11.663   3.100  -5.769  0.00  0.00    -0.495 OA
BRANCH  29  30
ATOM     30  C   LIG d   1      11.590   4.518  -5.934  0.00  0.00     0.079 C 
ATOM     31  H   LIG d   1      11.329   4.981  -4.982  0.00  0.00     0.066 H 
ATOM     32  H   LIG d   1      12.555   4.895  -6.269  0.00  0.00     0.066 H 
ATOM     33  H   LIG d   1      10.828   4.759  -6.676  0.00  0.00     0.066 H 
ENDBRANCH  29  30
ENDBRANCH  23  29
ENDBRANCH  12  19
BRANCH   1  34
ATOM     34  C   LIG d   1       4.048  -0.632  -6.611  0.00  0.00     0.314 C 
ATOM     35  O   LIG d   1       4.233  -1.469  -7.462  0.00  0.00    -0.250 OA
BRANCH  34  36
ATOM     36  O   LIG d   1       4.010   0.667  -6.945  0.00  0.00    -0.462 OA
BRANCH  36  37
ATOM     37  C   LIG d   1       3.943   0.982  -8.361  0.00  0.00     0.098 C 
ATOM     38  H   LIG d   1       3.694   0.081  -8.922  0.00  0.00     0.073 H 
BRANCH  37  39
ATOM     39  C   LIG d   1       2.866   2.043  -8.597  0.00  0.00    -0.028 C 
ATOM     40  H   LIG d   1       2.296   1.790  -9.491  0.00  0.00     0.026 H 
ATOM     41  H   LIG d   1       2.197   2.079  -7.737  0.00  0.00     0.026 H 
ATOM     42  H   LIG d   1       3.337   3.017  -8.732  0.00  0.00     0.026 H 
ENDBRANCH  37  39
BRANCH  37  43
ATOM     43  C   LIG d   1       5.298   1.518  -8.829  0.00  0.00    -0.028 C 
ATOM     44  H   LIG d   1       5.225   1.830  -9.871  0.00  0.00     0.026 H 
ATOM     45  H   LIG d   1       5.584   2.370  -8.213  0.00  0.00     0.026 H 
ATOM     46  H   LIG d   1       6.049   0.734  -8.737  0.00  0.00     0.026 H 
ENDBRANCH  37  43
ENDBRANCH  36  37
ENDBRANCH  34  36
ENDBRANCH   1  34
TORSDOF 8
ENDMDL
MODEL 4
REMARK VINA RESULT:      -5.5      2.335      3.922
REMARK  8 active torsions:
REMARK  status: ('A' for Active; 'I' for Inactive)
REMARK    1  A    between atoms: C_1  and  C_2 
REMARK    2  A    between atoms: C_2  and  C_3 
REMARK    3  A    between atoms: C_2  and  O_4 
REMARK    4  A    between atoms: O_4  and  C_5 
REMARK    5  A    between atoms: C_5  and  C_7 
REMARK    6  A    between atoms: N_18  and  C_20 
REMARK    7  A    between atoms: C_23  and  O_26 
REMARK    8  A    between atoms: O_26  and  C_27 
ROOT
ATOM      1  C   LIG d   1       7.714  -0.666  -4.344  0.00  0.00     0.100 C 
ATOM      2  H   LIG d   1       8.571  -1.233  -3.980  0.00  0.00     0.045 H 
ATOM      3  C   LIG d   1       7.953   0.871  -4.188  0.00  0.00     0.092 C 
ATOM      4  H   LIG d   1       7.839   1.262  -3.177  0.00  0.00     0.065 H 
ATOM      5  C   LIG d   1       9.291   1.185  -4.868  0.00  0.00    -0.056 C 
ATOM      6  C   LIG d   1       9.093   1.100  -6.190  0.00  0.00    -0.052 C 
ATOM      7  C   LIG d   1       7.666   0.699  -6.309  0.00  0.00     0.116 C 
ATOM      8  C   LIG d   1       7.567  -0.808  -5.870  0.00  0.00     0.086 C 
ATOM      9  H   LIG d   1       8.333  -1.448  -6.308  0.00  0.00     0.044 H 
ATOM     10  C   LIG d   1       6.183  -1.152  -6.343  0.00  0.00     0.227 C 
ATOM     11  O   LIG d   1       5.480  -2.025  -5.880  0.00  0.00    -0.275 OA
ATOM     12  N   LIG d   1       5.844  -0.333  -7.371  0.00  0.00    -0.268 N 
ATOM     13  C   LIG d   1       6.887   0.698  -7.589  0.00  0.00     0.053 C 
ATOM     14  O   LIG d   1       7.014   1.379  -5.203  0.00  0.00    -0.359 OA
ATOM     15  H   LIG d   1      10.219   1.430  -4.374  0.00  0.00     0.060 H 
ATOM     16  H   LIG d   1       9.804   1.279  -6.984  0.00  0.00     0.060 H 
ATOM     17  H   LIG d   1       7.527   0.423  -8.428  0.00  0.00     0.050 H 
ATOM     18  H   LIG d   1       6.431   1.673  -7.759  0.00  0.00     0.050 H 
ENDROOT
BRANCH  12  19
ATOM     19  C   LIG d   1       4.670  -0.449  -8.126  0.00  0.00     0.037 A 
ATOM     20  C   LIG d   1       4.659  -1.221  -9.281  0.00  0.00    -0.037 A 
ATOM     21  C   LIG d   1       3.502  -1.334 -10.025  0.00  0.00    -0.018 A 
ATOM     22  H   LIG d   1       5.557  -1.733  -9.595  0.00  0.00     0.064 H 
ATOM     23  C   LIG d   1       2.350  -0.677  -9.620  0.00  0.00     0.120 A 
ATOM     24  H   LIG d   1       3.495  -1.935 -10.922  0.00  0.00     0.066 H 
ATOM     25  C   LIG d   1       2.360   0.095  -8.468  0.00  0.00    -0.018 A 
ATOM     26  C   LIG d   1       3.516   0.209  -7.722  0.00  0.00    -0.037 A 
ATOM     27  H   LIG d   1       1.462   0.607  -8.153  0.00  0.00     0.066 H 
ATOM     28  H   LIG d   1       3.522   0.807  -6.822  0.00  0.00     0.064 H 
BRANCH  23  29
ATOM     29  O   LIG d   1       1.211  -0.788 -10.353  0.00  0.00    -0.495 OA
BRANCH  29  30
ATOM     30  C   LIG d   1       1.350  -1.223 -11.707  0.00  0.00     0.079 C 
ATOM     31  H   LIG d   1       2.325  -0.919 -12.088  0.00  0.00     0.066 H 
ATOM     32  H   LIG d   1       1.264  -2.308 -11.752  0.00  0.00     0.066 H 
ATOM     33  H   LIG d   1       0.566  -0.771 -12.316  0.00  0.00     0.066 H 
ENDBRANCH  29  30
ENDBRANCH  23  29
ENDBRANCH  12  19
BRANCH   1  34
ATOM     34  C   LIG d   1       6.451  -1.090  -3.640  0.00  0.00     0.314 C 
ATOM     35  O   LIG d   1       6.372  -2.193  -3.153  0.00  0.00    -0.250 OA
BRANCH  34  36
ATOM     36  O   LIG d   1       5.413  -0.244  -3.554  0.00  0.00    -0.462 OA
BRANCH  36  37
ATOM     37  C   LIG d   1       4.538  -0.387  -2.404  0.00  0.00     0.098 C 
ATOM     38  H   LIG d   1       4.924  -1.169  -1.749  0.00  0.00     0.073 H 
BRANCH  37  39
ATOM     39  C   LIG d   1       4.481   0.937  -1.639  0.00  0.00    -0.028 C 
ATOM     40  H   LIG d   1       4.561   0.742  -0.569  0.00  0.00     0.026 H 
ATOM     41  H   LIG d   1       5.305   1.575  -1.955  0.00  0.00     0.026 H 
ATOM     42  H   LIG d   1       3.534   1.436  -1.846  0.00  0.00     0.026 H 
ENDBRANCH  37  39
BRANCH  37  43
ATOM     43  C   LIG d   1       3.132  -0.764  -2.877  0.00  0.00    -0.028 C 
ATOM     44  H   LIG d   1       2.413  -0.046  -2.485  0.00  0.00     0.026 H 
ATOM     45  H   LIG d   1       3.101  -0.753  -3.966  0.00  0.00     0.026 H 
ATOM     46  H   LIG d   1       2.884  -1.762  -2.516  0.00  0.00     0.026 H 
ENDBRANCH  37  43
ENDBRANCH  36  37
ENDBRANCH  34  36
ENDBRANCH   1  34
TORSDOF 8
ENDMDL
MODEL 5
REMARK VINA RESULT:      -5.4      5.255      7.916
REMARK  8 active torsions:
REMARK  status: ('A' for Active; 'I' for Inactive)
REMARK    1  A    between atoms: C_1  and  C_2 
REMARK    2  A    between atoms: C_2  and  C_3 
REMARK    3  A    between atoms: C_2  and  O_4 
REMARK    4  A    between atoms: O_4  and  C_5 
REMARK    5  A    between atoms: C_5  and  C_7 
REMARK    6  A    between atoms: N_18  and  C_20 
REMARK    7  A    between atoms: C_23  and  O_26 
REMARK    8  A    between atoms: O_26  and  C_27 
ROOT
ATOM      1  C   LIG d   1       6.995  -0.959  -5.526  0.00  0.00     0.100 C 
ATOM      2  H   LIG d   1       6.176  -1.282  -6.169  0.00  0.00     0.045 H 
ATOM      3  C   LIG d   1       8.219  -1.923  -5.651  0.00  0.00     0.092 C 
ATOM      4  H   LIG d   1       8.123  -2.873  -5.125  0.00  0.00     0.065 H 
ATOM      5  C   LIG d   1       8.553  -2.028  -7.144  0.00  0.00    -0.056 C 
ATOM      6  C   LIG d   1       9.115  -0.868  -7.508  0.00  0.00    -0.052 C 
ATOM      7  C   LIG d   1       9.086  -0.056  -6.263  0.00  0.00     0.116 C 
ATOM      8  C   LIG d   1       7.592   0.372  -6.021  0.00  0.00     0.086 C 
ATOM      9  H   LIG d   1       7.091   0.752  -6.911  0.00  0.00     0.044 H 
ATOM     10  C   LIG d   1       7.764   1.422  -4.960  0.00  0.00     0.227 C 
ATOM     11  O   LIG d   1       6.924   1.740  -4.145  0.00  0.00    -0.275 OA
ATOM     12  N   LIG d   1       9.008   1.957  -5.056  0.00  0.00    -0.268 N 
ATOM     13  C   LIG d   1       9.811   1.242  -6.077  0.00  0.00     0.053 C 
ATOM     14  O   LIG d   1       9.297  -1.025  -5.201  0.00  0.00    -0.359 OA
ATOM     15  H   LIG d   1       8.369  -2.879  -7.783  0.00  0.00     0.060 H 
ATOM     16  H   LIG d   1       9.500  -0.589  -8.478  0.00  0.00     0.060 H 
ATOM     17  H   LIG d   1       9.833   1.807  -7.010  0.00  0.00     0.050 H 
ATOM     18  H   LIG d   1      10.823   1.066  -5.713  0.00  0.00     0.050 H 
ENDROOT
BRANCH  12  19
ATOM     19  C   LIG d   1       9.468   3.040  -4.298  0.00  0.00     0.037 A 
ATOM     20  C   LIG d   1       9.197   4.340  -4.706  0.00  0.00    -0.037 A 
ATOM     21  C   LIG d   1       9.651   5.408  -3.958  0.00  0.00    -0.018 A 
ATOM     22  H   LIG d   1       8.629   4.514  -5.608  0.00  0.00     0.064 H 
ATOM     23  C   LIG d   1      10.380   5.183  -2.799  0.00  0.00     0.120 A 
ATOM     24  H   LIG d   1       9.440   6.418  -4.276  0.00  0.00     0.066 H 
ATOM     25  C   LIG d   1      10.652   3.886  -2.391  0.00  0.00    -0.018 A 
ATOM     26  C   LIG d   1      10.198   2.817  -3.137  0.00  0.00    -0.037 A 
ATOM     27  H   LIG d   1      11.219   3.712  -1.489  0.00  0.00     0.066 H 
ATOM     28  H   LIG d   1      10.407   1.806  -2.818  0.00  0.00     0.064 H 
BRANCH  23  29
ATOM     29  O   LIG d   1      10.827   6.235  -2.063  0.00  0.00    -0.495 OA
BRANCH  29  30
ATOM     30  C   LIG d   1       9.839   7.058  -1.439  0.00  0.00     0.079 C 
ATOM     31  H   LIG d   1       9.282   6.468  -0.711  0.00  0.00     0.066 H 
ATOM     32  H   LIG d   1      10.326   7.892  -0.936  0.00  0.00     0.066 H 
ATOM     33  H   LIG d   1       9.154   7.440  -2.197  0.00  0.00     0.066 H 
ENDBRANCH  29  30
ENDBRANCH  23  29
ENDBRANCH  12  19
BRANCH   1  34
ATOM     34  C   LIG d   1       6.541  -0.845  -4.094  0.00  0.00     0.314 C 
ATOM     35  O   LIG d   1       7.296  -1.133  -3.196  0.00  0.00    -0.250 OA
BRANCH  34  36
ATOM     36  O   LIG d   1       5.296  -0.427  -3.816  0.00  0.00    -0.462 OA
BRANCH  36  37
ATOM     37  C   LIG d   1       4.843  -0.570  -2.443  0.00  0.00     0.098 C 
ATOM     38  H   LIG d   1       5.700  -0.758  -1.796  0.00  0.00     0.073 H 
BRANCH  37  39
ATOM     39  C   LIG d   1       4.143   0.717  -2.001  0.00  0.00    -0.028 C 
ATOM     40  H   LIG d   1       3.976   0.687  -0.924  0.00  0.00     0.026 H 
ATOM     41  H   LIG d   1       4.768   1.574  -2.248  0.00  0.00     0.026 H 
ATOM     42  H   LIG d   1       3.186   0.805  -2.514  0.00  0.00     0.026 H 
ENDBRANCH  37  39
BRANCH  37  43
ATOM     43  C   LIG d   1       3.864  -1.742  -2.349  0.00  0.00    -0.028 C 
ATOM     44  H   LIG d   1       3.006  -1.450  -1.744  0.00  0.00     0.026 H 
ATOM     45  H   LIG d   1       3.529  -2.016  -3.349  0.00  0.00     0.026 H 
ATOM     46  H   LIG d   1       4.362  -2.594  -1.886  0.00  0.00     0.026 H 
ENDBRANCH  37  43
ENDBRANCH  36  37
ENDBRANCH  34  36
ENDBRANCH   1  34
TORSDOF 8
ENDMDL
MODEL 6
REMARK VINA RESULT:      -5.3     11.343     12.745
REMARK  8 active torsions:
REMARK  status: ('A' for Active; 'I' for Inactive)
REMARK    1  A    between atoms: C_1  and  C_2 
REMARK    2  A    between atoms: C_2  and  C_3 
REMARK    3  A    between atoms: C_2  and  O_4 
REMARK    4  A    between atoms: O_4  and  C_5 
REMARK    5  A    between atoms: C_5  and  C_7 
REMARK    6  A    between atoms: N_18  and  C_20 
REMARK    7  A    between atoms: C_23  and  O_26 
REMARK    8  A    between atoms: O_26  and  C_27 
ROOT
ATOM      1  C   LIG d   1      10.403   8.914  -0.414  0.00  0.00     0.100 C 
ATOM      2  H   LIG d   1      11.047   8.801   0.459  0.00  0.00     0.045 H 
ATOM      3  C   LIG d   1       9.447  10.139  -0.249  0.00  0.00     0.092 C 
ATOM      4  H   LIG d   1       8.596   9.983   0.413  0.00  0.00     0.065 H 
ATOM      5  C   LIG d   1      10.327  11.350   0.084  0.00  0.00    -0.056 C 
ATOM      6  C   LIG d   1      10.974  11.691  -1.038  0.00  0.00    -0.052 C 
ATOM      7  C   LIG d   1      10.523  10.677  -2.027  0.00  0.00     0.116 C 
ATOM      8  C   LIG d   1      11.223   9.319  -1.654  0.00  0.00     0.086 C 
ATOM      9  H   LIG d   1      12.287   9.412  -1.441  0.00  0.00     0.044 H 
ATOM     10  C   LIG d   1      10.946   8.507  -2.887  0.00  0.00     0.227 C 
ATOM     11  O   LIG d   1      10.890   7.296  -2.932  0.00  0.00    -0.275 OA
ATOM     12  N   LIG d   1      10.769   9.341  -3.943  0.00  0.00    -0.268 N 
ATOM     13  C   LIG d   1      10.777  10.758  -3.502  0.00  0.00     0.053 C 
ATOM     14  O   LIG d   1       9.142  10.416  -1.664  0.00  0.00    -0.359 OA
ATOM     15  H   LIG d   1      10.410  11.836   1.044  0.00  0.00     0.060 H 
ATOM     16  H   LIG d   1      11.661  12.511  -1.188  0.00  0.00     0.060 H 
ATOM     17  H   LIG d   1      11.747  11.214  -3.701  0.00  0.00     0.050 H 
ATOM     18  H   LIG d   1       9.983  11.316  -3.996  0.00  0.00     0.050 H 
ENDROOT
BRANCH  12  19
ATOM     19  C   LIG d   1      10.607   8.923  -5.269  0.00  0.00     0.037 A 
ATOM     20  C   LIG d   1      11.720   8.690  -6.067  0.00  0.00    -0.037 A 
ATOM     21  C   LIG d   1      11.558   8.277  -7.374  0.00  0.00    -0.018 A 
ATOM     22  H   LIG d   1      12.711   8.831  -5.662  0.00  0.00     0.064 H 
ATOM     23  C   LIG d   1      10.285   8.096  -7.893  0.00  0.00     0.120 A 
ATOM     24  H   LIG d   1      12.425   8.097  -7.993  0.00  0.00     0.066 H 
ATOM     25  C   LIG d   1       9.173   8.329  -7.097  0.00  0.00    -0.018 A 
ATOM     26  C   LIG d   1       9.332   8.741  -5.789  0.00  0.00    -0.037 A 
ATOM     27  H   LIG d   1       8.181   8.186  -7.502  0.00  0.00     0.066 H 
ATOM     28  H   LIG d   1       8.465   8.918  -5.169  0.00  0.00     0.064 H 
BRANCH  23  29
ATOM     29  O   LIG d   1      10.127   7.690  -9.180  0.00  0.00    -0.495 OA
BRANCH  29  30
ATOM     30  C   LIG d   1       9.159   6.667  -9.424  0.00  0.00     0.079 C 
ATOM     31  H   LIG d   1       9.667   5.747  -9.714  0.00  0.00     0.066 H 
ATOM     32  H   LIG d   1       8.579   6.492  -8.518  0.00  0.00     0.066 H 
ATOM     33  H   LIG d   1       8.492   6.982 -10.228  0.00  0.00     0.066 H 
ENDBRANCH  29  30
ENDBRANCH  23  29
ENDBRANCH  12  19
BRANCH   1  34
ATOM     34  C   LIG d   1       9.623   7.651  -0.673  0.00  0.00     0.314 C 
ATOM     35  O   LIG d   1       8.514   7.712  -1.148  0.00  0.00    -0.250 OA
BRANCH  34  36
ATOM     36  O   LIG d   1      10.160   6.458  -0.374  0.00  0.00    -0.462 OA
BRANCH  36  37
ATOM     37  C   LIG d   1      11.307   6.454   0.517  0.00  0.00     0.098 C 
ATOM     38  H   LIG d   1      11.567   7.480   0.777  0.00  0.00     0.073 H 
BRANCH  37  39
ATOM     39  C   LIG d   1      10.963   5.676   1.788  0.00  0.00    -0.028 C 
ATOM     40  H   LIG d   1       9.881   5.602   1.887  0.00  0.00     0.026 H 
ATOM     41  H   LIG d   1      11.393   4.677   1.730  0.00  0.00     0.026 H 
ATOM     42  H   LIG d   1      11.371   6.197   2.655  0.00  0.00     0.026 H 
ENDBRANCH  37  39
BRANCH  37  43
ATOM     43  C   LIG d   1      12.494   5.789  -0.184  0.00  0.00    -0.028 C 
ATOM     44  H   LIG d   1      12.276   4.733  -0.342  0.00  0.00     0.026 H 
ATOM     45  H   LIG d   1      12.666   6.273  -1.144  0.00  0.00     0.026 H 
ATOM     46  H   LIG d   1      13.383   5.887   0.438  0.00  0.00     0.026 H 
ENDBRANCH  37  43
ENDBRANCH  36  37
ENDBRANCH  34  36
ENDBRANCH   1  34
TORSDOF 8
ENDMDL
MODEL 7
REMARK VINA RESULT:      -5.1      4.133      6.737
REMARK  8 active torsions:
REMARK  status: ('A' for Active; 'I' for Inactive)
REMARK    1  A    between atoms: C_1  and  C_2 
REMARK    2  A    between atoms: C_2  and  C_3 
REMARK    3  A    between atoms: C_2  and  O_4 
REMARK    4  A    between atoms: O_4  and  C_5 
REMARK    5  A    between atoms: C_5  and  C_7 
REMARK    6  A    between atoms: N_18  and  C_20 
REMARK    7  A    between atoms: C_23  and  O_26 
REMARK    8  A    between atoms: O_26  and  C_27 
ROOT
ATOM      1  C   LIG d   1       5.918  -2.337  -5.719  0.00  0.00     0.100 C 
ATOM      2  H   LIG d   1       5.496  -2.963  -6.505  0.00  0.00     0.045 H 
ATOM      3  C   LIG d   1       6.515  -3.211  -4.568  0.00  0.00     0.092 C 
ATOM      4  H   LIG d   1       5.786  -3.650  -3.888  0.00  0.00     0.065 H 
ATOM      5  C   LIG d   1       7.488  -4.200  -5.219  0.00  0.00    -0.056 C 
ATOM      6  C   LIG d   1       8.572  -3.506  -5.589  0.00  0.00    -0.052 C 
ATOM      7  C   LIG d   1       8.244  -2.108  -5.204  0.00  0.00     0.116 C 
ATOM      8  C   LIG d   1       7.165  -1.586  -6.222  0.00  0.00     0.086 C 
ATOM      9  H   LIG d   1       7.395  -1.806  -7.264  0.00  0.00     0.044 H 
ATOM     10  C   LIG d   1       7.179  -0.114  -5.924  0.00  0.00     0.227 C 
ATOM     11  O   LIG d   1       6.257   0.651  -6.115  0.00  0.00    -0.275 OA
ATOM     12  N   LIG d   1       8.387   0.227  -5.407  0.00  0.00    -0.268 N 
ATOM     13  C   LIG d   1       9.227  -0.977  -5.192  0.00  0.00     0.053 C 
ATOM     14  O   LIG d   1       7.466  -2.248  -3.985  0.00  0.00    -0.359 OA
ATOM     15  H   LIG d   1       7.329  -5.260  -5.354  0.00  0.00     0.060 H 
ATOM     16  H   LIG d   1       9.473  -3.875  -6.056  0.00  0.00     0.060 H 
ATOM     17  H   LIG d   1       9.950  -1.087  -6.000  0.00  0.00     0.050 H 
ATOM     18  H   LIG d   1       9.734  -0.922  -4.229  0.00  0.00     0.050 H 
ENDROOT
BRANCH  12  19
ATOM     19  C   LIG d   1       8.789   1.538  -5.121  0.00  0.00     0.037 A 
ATOM     20  C   LIG d   1       8.772   2.001  -3.812  0.00  0.00    -0.037 A 
ATOM     21  C   LIG d   1       9.168   3.293  -3.531  0.00  0.00    -0.018 A 
ATOM     22  H   LIG d   1       8.449   1.348  -3.014  0.00  0.00     0.064 H 
ATOM     23  C   LIG d   1       9.583   4.130  -4.556  0.00  0.00     0.120 A 
ATOM     24  H   LIG d   1       9.154   3.652  -2.513  0.00  0.00     0.066 H 
ATOM     25  C   LIG d   1       9.600   3.669  -5.864  0.00  0.00    -0.018 A 
ATOM     26  C   LIG d   1       9.205   2.377  -6.147  0.00  0.00    -0.037 A 
ATOM     27  H   LIG d   1       9.924   4.321  -6.662  0.00  0.00     0.066 H 
ATOM     28  H   LIG d   1       9.222   2.017  -7.166  0.00  0.00     0.064 H 
BRANCH  23  29
ATOM     29  O   LIG d   1       9.973   5.402  -4.279  0.00  0.00    -0.495 OA
BRANCH  29  30
ATOM     30  C   LIG d   1       9.545   6.424  -5.182  0.00  0.00     0.079 C 
ATOM     31  H   LIG d   1       9.862   6.171  -6.194  0.00  0.00     0.066 H 
ATOM     32  H   LIG d   1       8.458   6.504  -5.151  0.00  0.00     0.066 H 
ATOM     33  H   LIG d   1       9.988   7.376  -4.889  0.00  0.00     0.066 H 
ENDBRANCH  29  30
ENDBRANCH  23  29
ENDBRANCH  12  19
BRANCH   1  34
ATOM     34  C   LIG d   1       4.888  -1.375  -5.187  0.00  0.00     0.314 C 
ATOM     35  O   LIG d   1       4.072  -0.890  -5.935  0.00  0.00    -0.250 OA
BRANCH  34  36
ATOM     36  O   LIG d   1       4.877  -1.055  -3.884  0.00  0.00    -0.462 OA
BRANCH  36  37
ATOM     37  C   LIG d   1       4.189   0.169  -3.510  0.00  0.00     0.098 C 
ATOM     38  H   LIG d   1       3.891   0.707  -4.410  0.00  0.00     0.073 H 
BRANCH  37  39
ATOM     39  C   LIG d   1       2.946  -0.176  -2.687  0.00  0.00    -0.028 C 
ATOM     40  H   LIG d   1       2.548  -1.136  -3.015  0.00  0.00     0.026 H 
ATOM     41  H   LIG d   1       3.214  -0.234  -1.632  0.00  0.00     0.026 H 
ATOM     42  H   LIG d   1       2.190   0.597  -2.828  0.00  0.00     0.026 H 
ENDBRANCH  37  39
BRANCH  37  43
ATOM     43  C   LIG d   1       5.126   1.046  -2.677  0.00  0.00    -0.028 C 
ATOM     44  H   LIG d   1       5.724   0.415  -2.019  0.00  0.00     0.026 H 
ATOM     45  H   LIG d   1       5.784   1.606  -3.341  0.00  0.00     0.026 H 
ATOM     46  H   LIG d   1       4.537   1.740  -2.078  0.00  0.00     0.026 H 
ENDBRANCH  37  43
ENDBRANCH  36  37
ENDBRANCH  34  36
ENDBRANCH   1  34
TORSDOF 8
ENDMDL
MODEL 8
REMARK VINA RESULT:      -5.0     11.942     13.601
REMARK  8 active torsions:
REMARK  status: ('A' for Active; 'I' for Inactive)
REMARK    1  A    between atoms: C_1  and  C_2 
REMARK    2  A    between atoms: C_2  and  C_3 
REMARK    3  A    between atoms: C_2  and  O_4 
REMARK    4  A    between atoms: O_4  and  C_5 
REMARK    5  A    between atoms: C_5  and  C_7 
REMARK    6  A    between atoms: N_18  and  C_20 
REMARK    7  A    between atoms: C_23  and  O_26 
REMARK    8  A    between atoms: O_26  and  C_27 
ROOT
ATOM      1  C   LIG d   1      11.932   6.516  -1.385  0.00  0.00     0.100 C 
ATOM      2  H   LIG d   1      12.862   5.989  -1.172  0.00  0.00     0.045 H 
ATOM      3  C   LIG d   1      10.748   5.918  -0.557  0.00  0.00     0.092 C 
ATOM      4  H   LIG d   1      10.349   4.974  -0.927  0.00  0.00     0.065 H 
ATOM      5  C   LIG d   1      11.188   5.916   0.912  0.00  0.00    -0.056 C 
ATOM      6  C   LIG d   1      11.166   7.187   1.334  0.00  0.00    -0.052 C 
ATOM      7  C   LIG d   1      10.758   7.953   0.127  0.00  0.00     0.116 C 
ATOM      8  C   LIG d   1      11.986   7.962  -0.856  0.00  0.00     0.086 C 
ATOM      9  H   LIG d   1      12.935   8.199  -0.376  0.00  0.00     0.044 H 
ATOM     10  C   LIG d   1      11.555   9.012  -1.840  0.00  0.00     0.227 C 
ATOM     11  O   LIG d   1      11.926   9.087  -2.993  0.00  0.00    -0.275 OA
ATOM     12  N   LIG d   1      10.686   9.863  -1.238  0.00  0.00    -0.268 N 
ATOM     13  C   LIG d   1      10.358   9.397   0.132  0.00  0.00     0.053 C 
ATOM     14  O   LIG d   1       9.830   7.070  -0.557  0.00  0.00    -0.359 OA
ATOM     15  H   LIG d   1      11.463   5.052   1.497  0.00  0.00     0.060 H 
ATOM     16  H   LIG d   1      11.391   7.566   2.320  0.00  0.00     0.060 H 
ATOM     17  H   LIG d   1      10.934   9.953   0.872  0.00  0.00     0.050 H 
ATOM     18  H   LIG d   1       9.290   9.497   0.323  0.00  0.00     0.050 H 
ENDROOT
BRANCH  12  19
ATOM     19  C   LIG d   1      10.174  11.025  -1.827  0.00  0.00     0.037 A 
ATOM     20  C   LIG d   1       9.082  10.948  -2.682  0.00  0.00    -0.037 A 
ATOM     21  C   LIG d   1       8.577  12.095  -3.262  0.00  0.00    -0.018 A 
ATOM     22  H   LIG d   1       8.628   9.991  -2.891  0.00  0.00     0.064 H 
ATOM     23  C   LIG d   1       9.160  13.324  -2.992  0.00  0.00     0.120 A 
ATOM     24  H   LIG d   1       7.728  12.034  -3.927  0.00  0.00     0.066 H 
ATOM     25  C   LIG d   1      10.251  13.402  -2.139  0.00  0.00    -0.018 A 
ATOM     26  C   LIG d   1      10.757  12.257  -1.557  0.00  0.00    -0.037 A 
ATOM     27  H   LIG d   1      10.705  14.359  -1.928  0.00  0.00     0.066 H 
ATOM     28  H   LIG d   1      11.604  12.318  -0.889  0.00  0.00     0.064 H 
BRANCH  23  29
ATOM     29  O   LIG d   1       8.663  14.452  -3.563  0.00  0.00    -0.495 OA
BRANCH  29  30
ATOM     30  C   LIG d   1       9.184  14.815  -4.844  0.00  0.00     0.079 C 
ATOM     31  H   LIG d   1      10.104  15.385  -4.714  0.00  0.00     0.066 H 
ATOM     32  H   LIG d   1       9.392  13.915  -5.420  0.00  0.00     0.066 H 
ATOM     33  H   LIG d   1       8.451  15.425  -5.374  0.00  0.00     0.066 H 
ENDBRANCH  29  30
ENDBRANCH  23  29
ENDBRANCH  12  19
BRANCH   1  34
ATOM     34  C   LIG d   1      11.625   6.494  -2.859  0.00  0.00     0.314 C 
ATOM     35  O   LIG d   1      12.526   6.439  -3.663  0.00  0.00    -0.250 OA
BRANCH  34  36
ATOM     36  O   LIG d   1      10.352   6.536  -3.281  0.00  0.00    -0.462 OA
BRANCH  36  37
ATOM     37  C   LIG d   1      10.113   6.261  -4.688  0.00  0.00     0.098 C 
ATOM     38  H   LIG d   1      11.068   6.176  -5.208  0.00  0.00     0.073 H 
BRANCH  37  39
ATOM     39  C   LIG d   1       9.337   4.950  -4.827  0.00  0.00    -0.028 C 
ATOM     40  H   LIG d   1       8.447   5.118  -5.433  0.00  0.00     0.026 H 
ATOM     41  H   LIG d   1       9.969   4.203  -5.308  0.00  0.00     0.026 H 
ATOM     42  H   LIG d   1       9.042   4.595  -3.840  0.00  0.00     0.026 H 
ENDBRANCH  37  39
BRANCH  37  43
ATOM     43  C   LIG d   1       9.299   7.404  -5.298  0.00  0.00    -0.028 C 
ATOM     44  H   LIG d   1       8.454   7.634  -4.650  0.00  0.00     0.026 H 
ATOM     45  H   LIG d   1       9.931   8.286  -5.400  0.00  0.00     0.026 H 
ATOM     46  H   LIG d   1       8.933   7.104  -6.280  0.00  0.00     0.026 H 
ENDBRANCH  37  43
ENDBRANCH  36  37
ENDBRANCH  34  36
ENDBRANCH   1  34
TORSDOF 8
ENDMDL
MODEL 9
REMARK VINA RESULT:      -4.9      3.905      6.773
REMARK  8 active torsions:
REMARK  status: ('A' for Active; 'I' for Inactive)
REMARK    1  A    between atoms: C_1  and  C_2 
REMARK    2  A    between atoms: C_2  and  C_3 
REMARK    3  A    between atoms: C_2  and  O_4 
REMARK    4  A    between atoms: O_4  and  C_5 
REMARK    5  A    between atoms: C_5  and  C_7 
REMARK    6  A    between atoms: N_18  and  C_20 
REMARK    7  A    between atoms: C_23  and  O_26 
REMARK    8  A    between atoms: O_26  and  C_27 
ROOT
ATOM      1  C   LIG d   1       4.785  -1.648  -6.087  0.00  0.00     0.100 C 
ATOM      2  H   LIG d   1       4.373  -2.209  -6.926  0.00  0.00     0.045 H 
ATOM      3  C   LIG d   1       4.572  -2.416  -4.742  0.00  0.00     0.092 C 
ATOM      4  H   LIG d   1       3.563  -2.372  -4.333  0.00  0.00     0.065 H 
ATOM      5  C   LIG d   1       5.141  -3.826  -4.939  0.00  0.00    -0.056 C 
ATOM      6  C   LIG d   1       6.476  -3.717  -4.952  0.00  0.00    -0.052 C 
ATOM      7  C   LIG d   1       6.712  -2.257  -4.805  0.00  0.00     0.116 C 
ATOM      8  C   LIG d   1       6.322  -1.582  -6.172  0.00  0.00     0.086 C 
ATOM      9  H   LIG d   1       6.717  -2.095  -7.047  0.00  0.00     0.044 H 
ATOM     10  C   LIG d   1       6.906  -0.210  -5.990  0.00  0.00     0.227 C 
ATOM     11  O   LIG d   1       6.520   0.796  -6.545  0.00  0.00    -0.275 OA
ATOM     12  N   LIG d   1       7.935  -0.274  -5.107  0.00  0.00    -0.268 N 
ATOM     13  C   LIG d   1       8.047  -1.635  -4.527  0.00  0.00     0.053 C 
ATOM     14  O   LIG d   1       5.642  -1.810  -3.931  0.00  0.00    -0.359 OA
ATOM     15  H   LIG d   1       4.572  -4.737  -5.048  0.00  0.00     0.060 H 
ATOM     16  H   LIG d   1       7.209  -4.505  -5.046  0.00  0.00     0.060 H 
ATOM     17  H   LIG d   1       8.842  -2.195  -5.019  0.00  0.00     0.050 H 
ATOM     18  H   LIG d   1       8.226  -1.579  -3.454  0.00  0.00     0.050 H 
ENDROOT
BRANCH  12  19
ATOM     19  C   LIG d   1       8.780   0.797  -4.790  0.00  0.00     0.037 A 
ATOM     20  C   LIG d   1       9.986   0.953  -5.459  0.00  0.00    -0.037 A 
ATOM     21  C   LIG d   1      10.818   2.009  -5.146  0.00  0.00    -0.018 A 
ATOM     22  H   LIG d   1      10.273   0.247  -6.226  0.00  0.00     0.064 H 
ATOM     23  C   LIG d   1      10.450   2.914  -4.162  0.00  0.00     0.120 A 
ATOM     24  H   LIG d   1      11.757   2.129  -5.667  0.00  0.00     0.066 H 
ATOM     25  C   LIG d   1       9.245   2.759  -3.493  0.00  0.00    -0.018 A 
ATOM     26  C   LIG d   1       8.411   1.704  -3.805  0.00  0.00    -0.037 A 
ATOM     27  H   LIG d   1       8.959   3.465  -2.727  0.00  0.00     0.066 H 
ATOM     28  H   LIG d   1       7.471   1.585  -3.286  0.00  0.00     0.064 H 
BRANCH  23  29
ATOM     29  O   LIG d   1      11.269   3.954  -3.854  0.00  0.00    -0.495 OA
BRANCH  29  30
ATOM     30  C   LIG d   1      10.891   4.773  -2.746  0.00  0.00     0.079 C 
ATOM     31  H   LIG d   1      10.147   4.250  -2.145  0.00  0.00     0.066 H 
ATOM     32  H   LIG d   1      11.767   4.986  -2.135  0.00  0.00     0.066 H 
ATOM     33  H   LIG d   1      10.468   5.709  -3.113  0.00  0.00     0.066 H 
ENDBRANCH  29  30
ENDBRANCH  23  29
ENDBRANCH  12  19
BRANCH   1  34
ATOM     34  C   LIG d   1       4.190  -0.266  -6.020  0.00  0.00     0.314 C 
ATOM     35  O   LIG d   1       4.019   0.267  -4.950  0.00  0.00    -0.250 OA
BRANCH  34  36
ATOM     36  O   LIG d   1       3.847   0.373  -7.150  0.00  0.00    -0.462 OA
BRANCH  36  37
ATOM     37  C   LIG d   1       3.661  -0.442  -8.338  0.00  0.00     0.098 C 
ATOM     38  H   LIG d   1       3.920  -1.477  -8.113  0.00  0.00     0.073 H 
BRANCH  37  39
ATOM     39  C   LIG d   1       2.200  -0.368  -8.784  0.00  0.00    -0.028 C 
ATOM     40  H   LIG d   1       2.137  -0.556  -9.856  0.00  0.00     0.026 H 
ATOM     41  H   LIG d   1       1.618  -1.117  -8.248  0.00  0.00     0.026 H 
ATOM     42  H   LIG d   1       1.803   0.624  -8.566  0.00  0.00     0.026 H 
ENDBRANCH  37  39
BRANCH  37  43
ATOM     43  C   LIG d   1       4.564   0.079  -9.459  0.00  0.00    -0.028 C 
ATOM     44  H   LIG d   1       5.083  -0.759  -9.925  0.00  0.00     0.026 H 
ATOM     45  H   LIG d   1       3.958   0.592 -10.204  0.00  0.00     0.026 H 
ATOM     46  H   LIG d   1       5.294   0.772  -9.043  0.00  0.00     0.026 H 
ENDBRANCH  37  43
ENDBRANCH  36  37
ENDBRANCH  34  36
ENDBRANCH   1  34
TORSDOF 8
ENDMDL
MODEL 10
REMARK VINA RESULT:      -4.9     10.681     12.778
REMARK  8 active torsions:
REMARK  status: ('A' for Active; 'I' for Inactive)
REMARK    1  A    between atoms: C_1  and  C_2 
REMARK    2  A    between atoms: C_2  and  C_3 
REMARK    3  A    between atoms: C_2  and  O_4 
REMARK    4  A    between atoms: O_4  and  C_5 
REMARK    5  A    between atoms: C_5  and  C_7 
REMARK    6  A    between atoms: N_18  and  C_20 
REMARK    7  A    between atoms: C_23  and  O_26 
REMARK    8  A    between atoms: O_26  and  C_27 
ROOT
ATOM      1  C   LIG d   1      10.732   9.367  -0.208  0.00  0.00     0.100 C 
ATOM      2  H   LIG d   1      10.648   9.704   0.825  0.00  0.00     0.045 H 
ATOM      3  C   LIG d   1      12.047   9.899  -0.865  0.00  0.00     0.092 C 
ATOM      4  H   LIG d   1      12.031  10.947  -1.162  0.00  0.00     0.065 H 
ATOM      5  C   LIG d   1      13.202   9.494   0.060  0.00  0.00    -0.056 C 
ATOM      6  C   LIG d   1      13.375   8.173  -0.077  0.00  0.00    -0.052 C 
ATOM      7  C   LIG d   1      12.314   7.775  -1.039  0.00  0.00     0.116 C 
ATOM      8  C   LIG d   1      10.942   7.842  -0.274  0.00  0.00     0.086 C 
ATOM      9  H   LIG d   1      10.961   7.378   0.711  0.00  0.00     0.044 H 
ATOM     10  C   LIG d   1      10.043   7.121  -1.237  0.00  0.00     0.227 C 
ATOM     11  O   LIG d   1       8.843   7.275  -1.327  0.00  0.00    -0.275 OA
ATOM     12  N   LIG d   1      10.784   6.270  -1.992  0.00  0.00    -0.268 N 
ATOM     13  C   LIG d   1      12.230   6.435  -1.705  0.00  0.00     0.053 C 
ATOM     14  O   LIG d   1      12.212   8.908  -1.943  0.00  0.00    -0.359 OA
ATOM     15  H   LIG d   1      13.769  10.152   0.701  0.00  0.00     0.060 H 
ATOM     16  H   LIG d   1      14.113   7.545   0.401  0.00  0.00     0.060 H 
ATOM     17  H   LIG d   1      12.577   5.650  -1.033  0.00  0.00     0.050 H 
ATOM     18  H   LIG d   1      12.806   6.431  -2.629  0.00  0.00     0.050 H 
ENDROOT
BRANCH  12  19
ATOM     19  C   LIG d   1      10.255   5.357  -2.913  0.00  0.00     0.037 A 
ATOM     20  C   LIG d   1      10.135   4.016  -2.572  0.00  0.00    -0.037 A 
ATOM     21  C   LIG d   1       9.614   3.117  -3.480  0.00  0.00    -0.018 A 
ATOM     22  H   LIG d   1      10.449   3.679  -1.595  0.00  0.00     0.064 H 
ATOM     23  C   LIG d   1       9.211   3.552  -4.734  0.00  0.00     0.120 A 
ATOM     24  H   LIG d   1       9.522   2.074  -3.214  0.00  0.00     0.066 H 
ATOM     25  C   LIG d   1       9.331   4.891  -5.076  0.00  0.00    -0.018 A 
ATOM     26  C   LIG d   1       9.851   5.792  -4.169  0.00  0.00    -0.037 A 
ATOM     27  H   LIG d   1       9.016   5.229  -6.052  0.00  0.00     0.066 H 
ATOM     28  H   LIG d   1       9.941   6.835  -4.433  0.00  0.00     0.064 H 
BRANCH  23  29
ATOM     29  O   LIG d   1       8.698   2.666  -5.628  0.00  0.00    -0.495 OA
BRANCH  29  30
ATOM     30  C   LIG d   1       9.517   2.327  -6.749  0.00  0.00     0.079 C 
ATOM     31  H   LIG d   1      10.555   2.239  -6.427  0.00  0.00     0.066 H 
ATOM     32  H   LIG d   1       9.185   1.378  -7.168  0.00  0.00     0.066 H 
ATOM     33  H   LIG d   1       9.437   3.107  -7.507  0.00  0.00     0.066 H 
ENDBRANCH  29  30
ENDBRANCH  23  29
ENDBRANCH  12  19
BRANCH   1  34
ATOM     34  C   LIG d   1       9.524   9.779  -1.009  0.00  0.00     0.314 C 
ATOM     35  O   LIG d   1       8.437   9.824  -0.483  0.00  0.00    -0.250 OA
BRANCH  34  36
ATOM     36  O   LIG d   1       9.654  10.096  -2.306  0.00  0.00    -0.462 OA
BRANCH  36  37
ATOM     37  C   LIG d   1       9.028  11.329  -2.751  0.00  0.00     0.098 C 
ATOM     38  H   LIG d   1       8.018  11.389  -2.346  0.00  0.00     0.073 H 
BRANCH  37  39
ATOM     39  C   LIG d   1       9.847  12.523  -2.259  0.00  0.00    -0.028 C 
ATOM     40  H   LIG d   1      10.632  12.174  -1.588  0.00  0.00     0.026 H 
ATOM     41  H   LIG d   1      10.297  13.032  -3.111  0.00  0.00     0.026 H 
ATOM     42  H   LIG d   1       9.196  13.216  -1.725  0.00  0.00     0.026 H 
ENDBRANCH  37  39
BRANCH  37  43
ATOM     43  C   LIG d   1       8.967  11.347  -4.280  0.00  0.00    -0.028 C 
ATOM     44  H   LIG d   1       9.964  11.529  -4.681  0.00  0.00     0.026 H 
ATOM     45  H   LIG d   1       8.600  10.386  -4.640  0.00  0.00     0.026 H 
ATOM     46  H   LIG d   1       8.294  12.139  -4.607  0.00  0.00     0.026 H 
ENDBRANCH  37  43
ENDBRANCH  36  37
ENDBRANCH  34  36
ENDBRANCH   1  34
TORSDOF 8
ENDMDL
