MODEL 1
REMARK VINA RESULT:      -5.8      0.000      0.000
REMARK  12 active torsions:
REMARK  status: ('A' for Active; 'I' for Inactive)
REMARK    1  A    between atoms: C_1  and  C_2 
REMARK    2  A    between atoms: C_2  and  C_3 
REMARK    3  A    between atoms: C_3  and  C_4 
REMARK    4  A    between atoms: C_6  and  C_12 
REMARK    5  A    between atoms: C_7  and  O_11 
REMARK    6  A    between atoms: C_9  and  O_10 
REMARK    7  A    between atoms: C_12  and  C_14 
REMARK    8  A    between atoms: C_14  and  C_15 
REMARK    9  A    between atoms: C_18  and  C_20 
REMARK   10  A    between atoms: C_20  and  O_22 
REMARK   11  A    between atoms: O_22  and  C_23 
REMARK   12  A    between atoms: C_23  and  C_24 
ROOT
ATOM      1  C   LIG d   1       5.039  -0.745  -2.872  0.00  0.00    -0.005 A 
ATOM      2  C   LIG d   1       5.344  -1.935  -3.469  0.00  0.00    -0.041 A 
ATOM      3  C   LIG d   1       6.574  -2.098  -4.121  0.00  0.00     0.060 A 
ATOM      4  C   LIG d   1       7.490  -1.030  -4.157  0.00  0.00     0.131 A 
ATOM      5  C   LIG d   1       7.165   0.170  -3.549  0.00  0.00     0.022 A 
ATOM      6  C   LIG d   1       5.942   0.315  -2.912  0.00  0.00     0.123 A 
ATOM      7  H   LIG d   1       4.637  -2.750  -3.437  0.00  0.00     0.063 H 
ATOM      8  H   LIG d   1       7.864   0.993  -3.573  0.00  0.00     0.069 H 
ENDROOT
BRANCH   3   9
ATOM      9  C   LIG d   1       6.904  -3.374  -4.761  0.00  0.00     0.174 C 
ATOM     10  O   LIG d   1       7.847  -4.025  -4.365  0.00  0.00    -0.291 OA
BRANCH   9  11
ATOM     11  C   LIG d   1       6.070  -3.877  -5.911  0.00  0.00     0.069 C 
ATOM     12  H   LIG d   1       6.657  -4.576  -6.507  0.00  0.00     0.042 H 
ATOM     13  H   LIG d   1       5.185  -4.383  -5.524  0.00  0.00     0.042 H 
BRANCH  11  14
ATOM     14  C   LIG d   1       5.648  -2.714  -6.772  0.00  0.00     0.114 A 
ATOM     15  O   LIG d   1       4.448  -2.119  -6.745  0.00  0.00    -0.453 OA
ATOM     16  C   LIG d   1       4.427  -1.114  -7.646  0.00  0.00     0.212 A 
ATOM     17  C   LIG d   1       5.643  -1.078  -8.267  0.00  0.00    -0.009 A 
ATOM     18  C   LIG d   1       6.416  -2.104  -7.701  0.00  0.00    -0.019 A 
ATOM     19  H   LIG d   1       5.950  -0.392  -9.043  0.00  0.00     0.066 H 
ATOM     20  H   LIG d   1       7.434  -2.357  -7.960  0.00  0.00     0.065 H 
BRANCH  16  21
ATOM     21  C   LIG d   1       3.295  -0.223  -7.915  0.00  0.00     0.375 C 
ATOM     22  O   LIG d   1       2.297  -0.656  -8.458  0.00  0.00    -0.241 OA
BRANCH  21  23
ATOM     23  O   LIG d   1       3.362   1.077  -7.561  0.00  0.00    -0.459 OA
BRANCH  23  24
ATOM     24  C   LIG d   1       2.910   2.034  -8.521  0.00  0.00     0.090 C 
ATOM     25  H   LIG d   1       2.189   1.565  -9.191  0.00  0.00     0.070 H 
ATOM     26  H   LIG d   1       2.437   2.870  -8.005  0.00  0.00     0.070 H 
BRANCH  24  27
ATOM     27  C   LIG d   1       4.103   2.545  -9.333  0.00  0.00    -0.031 C 
ATOM     28  H   LIG d   1       4.975   1.926  -9.126  0.00  0.00     0.026 H 
ATOM     29  H   LIG d   1       3.867   2.496 -10.395  0.00  0.00     0.026 H 
ATOM     30  H   LIG d   1       4.316   3.577  -9.055  0.00  0.00     0.026 H 
ENDBRANCH  24  27
ENDBRANCH  23  24
ENDBRANCH  21  23
ENDBRANCH  16  21
ENDBRANCH  11  14
ENDBRANCH   9  11
ENDBRANCH   3   9
BRANCH   4  31
ATOM     31  O   LIG d   1       8.682  -1.177  -4.786  0.00  0.00    -0.506 OA
ATOM     32  H   LIG d   1       9.388  -1.512  -4.217  0.00  0.00     0.292 HD
ENDBRANCH   4  31
BRANCH   1  33
ATOM     33  C   LIG d   1       3.715  -0.576  -2.172  0.00  0.00    -0.025 C 
ATOM     34  H   LIG d   1       3.617   0.451  -1.822  0.00  0.00     0.031 H 
ATOM     35  H   LIG d   1       3.665  -1.257  -1.322  0.00  0.00     0.031 H 
BRANCH  33  36
ATOM     36  C   LIG d   1       2.579  -0.894  -3.147  0.00  0.00    -0.052 C 
ATOM     37  H   LIG d   1       1.630  -0.895  -2.611  0.00  0.00     0.027 H 
ATOM     38  H   LIG d   1       2.746  -1.875  -3.591  0.00  0.00     0.027 H 
BRANCH  36  39
ATOM     39  C   LIG d   1       2.543   0.165  -4.250  0.00  0.00    -0.065 C 
ATOM     40  H   LIG d   1       2.396  -0.320  -5.215  0.00  0.00     0.023 H 
ATOM     41  H   LIG d   1       1.722   0.857  -4.062  0.00  0.00     0.023 H 
ATOM     42  H   LIG d   1       3.485   0.713  -4.258  0.00  0.00     0.023 H 
ENDBRANCH  36  39
ENDBRANCH  33  36
ENDBRANCH   1  33
BRANCH   6  43
ATOM     43  O   LIG d   1       5.625   1.493  -2.319  0.00  0.00    -0.506 OA
ATOM     44  H   LIG d   1       4.781   1.865  -2.610  0.00  0.00     0.292 HD
ENDBRANCH   6  43
TORSDOF 12
ENDMDL
MODEL 2
REMARK VINA RESULT:      -5.7      2.166      3.175
REMARK  12 active torsions:
REMARK  status: ('A' for Active; 'I' for Inactive)
REMARK    1  A    between atoms: C_1  and  C_2 
REMARK    2  A    between atoms: C_2  and  C_3 
REMARK    3  A    between atoms: C_3  and  C_4 
REMARK    4  A    between atoms: C_6  and  C_12 
REMARK    5  A    between atoms: C_7  and  O_11 
REMARK    6  A    between atoms: C_9  and  O_10 
REMARK    7  A    between atoms: C_12  and  C_14 
REMARK    8  A    between atoms: C_14  and  C_15 
REMARK    9  A    between atoms: C_18  and  C_20 
REMARK   10  A    between atoms: C_20  and  O_22 
REMARK   11  A    between atoms: O_22  and  C_23 
REMARK   12  A    between atoms: C_23  and  C_24 
ROOT
ATOM      1  C   LIG d   1       5.420  -1.236  -2.983  0.00  0.00    -0.005 A 
ATOM      2  C   LIG d   1       6.547  -0.603  -3.423  0.00  0.00    -0.041 A 
ATOM      3  C   LIG d   1       7.245  -1.102  -4.530  0.00  0.00     0.060 A 
ATOM      4  C   LIG d   1       6.778  -2.257  -5.185  0.00  0.00     0.131 A 
ATOM      5  C   LIG d   1       5.635  -2.887  -4.728  0.00  0.00     0.022 A 
ATOM      6  C   LIG d   1       4.959  -2.382  -3.627  0.00  0.00     0.123 A 
ATOM      7  H   LIG d   1       6.900   0.283  -2.916  0.00  0.00     0.063 H 
ATOM      8  H   LIG d   1       5.271  -3.774  -5.226  0.00  0.00     0.069 H 
ENDROOT
BRANCH   3   9
ATOM      9  C   LIG d   1       8.454  -0.424  -5.004  0.00  0.00     0.174 C 
ATOM     10  O   LIG d   1       9.494  -1.041  -5.109  0.00  0.00    -0.291 OA
BRANCH   9  11
ATOM     11  C   LIG d   1       8.407   1.039  -5.362  0.00  0.00     0.069 C 
ATOM     12  H   LIG d   1       7.759   1.564  -4.660  0.00  0.00     0.042 H 
ATOM     13  H   LIG d   1       9.412   1.458  -5.311  0.00  0.00     0.042 H 
BRANCH  11  14
ATOM     14  C   LIG d   1       7.867   1.197  -6.760  0.00  0.00     0.114 A 
ATOM     15  O   LIG d   1       6.574   1.320  -7.088  0.00  0.00    -0.453 OA
ATOM     16  C   LIG d   1       6.462   1.445  -8.427  0.00  0.00     0.212 A 
ATOM     17  C   LIG d   1       7.717   1.391  -8.963  0.00  0.00    -0.009 A 
ATOM     18  C   LIG d   1       8.607   1.233  -7.890  0.00  0.00    -0.019 A 
ATOM     19  H   LIG d   1       7.974   1.457 -10.010  0.00  0.00     0.066 H 
ATOM     20  H   LIG d   1       9.683   1.154  -7.955  0.00  0.00     0.065 H 
BRANCH  16  21
ATOM     21  C   LIG d   1       5.212   1.604  -9.175  0.00  0.00     0.375 C 
ATOM     22  O   LIG d   1       5.167   1.306 -10.353  0.00  0.00    -0.241 OA
BRANCH  21  23
ATOM     23  O   LIG d   1       4.113   2.083  -8.557  0.00  0.00    -0.459 OA
BRANCH  23  24
ATOM     24  C   LIG d   1       2.970   1.226  -8.510  0.00  0.00     0.090 C 
ATOM     25  H   LIG d   1       2.064   1.831  -8.465  0.00  0.00     0.070 H 
ATOM     26  H   LIG d   1       2.948   0.603  -9.404  0.00  0.00     0.070 H 
BRANCH  24  27
ATOM     27  C   LIG d   1       3.051   0.336  -7.268  0.00  0.00    -0.031 C 
ATOM     28  H   LIG d   1       4.015  -0.173  -7.248  0.00  0.00     0.026 H 
ATOM     29  H   LIG d   1       2.946   0.949  -6.374  0.00  0.00     0.026 H 
ATOM     30  H   LIG d   1       2.251  -0.404  -7.298  0.00  0.00     0.026 H 
ENDBRANCH  24  27
ENDBRANCH  23  24
ENDBRANCH  21  23
ENDBRANCH  16  21
ENDBRANCH  11  14
ENDBRANCH   9  11
ENDBRANCH   3   9
BRANCH   4  31
ATOM     31  O   LIG d   1       7.446  -2.748  -6.259  0.00  0.00    -0.506 OA
ATOM     32  H   LIG d   1       8.132  -3.391  -6.034  0.00  0.00     0.292 HD
ENDBRANCH   4  31
BRANCH   1  33
ATOM     33  C   LIG d   1       4.674  -0.694  -1.791  0.00  0.00    -0.025 C 
ATOM     34  H   LIG d   1       5.136  -1.062  -0.875  0.00  0.00     0.031 H 
ATOM     35  H   LIG d   1       3.635  -1.024  -1.832  0.00  0.00     0.031 H 
BRANCH  33  36
ATOM     36  C   LIG d   1       4.723   0.835  -1.810  0.00  0.00    -0.052 C 
ATOM     37  H   LIG d   1       5.634   1.163  -2.311  0.00  0.00     0.027 H 
ATOM     38  H   LIG d   1       4.716   1.212  -0.788  0.00  0.00     0.027 H 
BRANCH  36  39
ATOM     39  C   LIG d   1       3.504   1.374  -2.562  0.00  0.00    -0.065 C 
ATOM     40  H   LIG d   1       2.609   1.222  -1.958  0.00  0.00     0.023 H 
ATOM     41  H   LIG d   1       3.638   2.439  -2.754  0.00  0.00     0.023 H 
ATOM     42  H   LIG d   1       3.398   0.845  -3.508  0.00  0.00     0.023 H 
ENDBRANCH  36  39
ENDBRANCH  33  36
ENDBRANCH   1  33
BRANCH   6  43
ATOM     43  O   LIG d   1       3.841  -3.004  -3.177  0.00  0.00    -0.506 OA
ATOM     44  H   LIG d   1       3.804  -3.102  -2.216  0.00  0.00     0.292 HD
ENDBRANCH   6  43
TORSDOF 12
ENDMDL
MODEL 3
REMARK VINA RESULT:      -5.6      4.865      7.251
REMARK  12 active torsions:
REMARK  status: ('A' for Active; 'I' for Inactive)
REMARK    1  A    between atoms: C_1  and  C_2 
REMARK    2  A    between atoms: C_2  and  C_3 
REMARK    3  A    between atoms: C_3  and  C_4 
REMARK    4  A    between atoms: C_6  and  C_12 
REMARK    5  A    between atoms: C_7  and  O_11 
REMARK    6  A    between atoms: C_9  and  O_10 
REMARK    7  A    between atoms: C_12  and  C_14 
REMARK    8  A    between atoms: C_14  and  C_15 
REMARK    9  A    between atoms: C_18  and  C_20 
REMARK   10  A    between atoms: C_20  and  O_22 
REMARK   11  A    between atoms: O_22  and  C_23 
REMARK   12  A    between atoms: C_23  and  C_24 
ROOT
ATOM      1  C   LIG d   1       9.506   6.637  -4.699  0.00  0.00    -0.005 A 
ATOM      2  C   LIG d   1       9.614   5.366  -5.185  0.00  0.00    -0.041 A 
ATOM      3  C   LIG d   1       9.902   4.304  -4.318  0.00  0.00     0.060 A 
ATOM      4  C   LIG d   1      10.079   4.556  -2.944  0.00  0.00     0.131 A 
ATOM      5  C   LIG d   1       9.968   5.850  -2.467  0.00  0.00     0.022 A 
ATOM      6  C   LIG d   1       9.686   6.889  -3.342  0.00  0.00     0.123 A 
ATOM      7  H   LIG d   1       9.476   5.179  -6.240  0.00  0.00     0.063 H 
ATOM      8  H   LIG d   1      10.103   6.050  -1.414  0.00  0.00     0.069 H 
ENDROOT
BRANCH   3   9
ATOM      9  C   LIG d   1      10.017   2.939  -4.837  0.00  0.00     0.174 C 
ATOM     10  O   LIG d   1      11.012   2.285  -4.606  0.00  0.00    -0.291 OA
BRANCH   9  11
ATOM     11  C   LIG d   1       8.900   2.349  -5.658  0.00  0.00     0.069 C 
ATOM     12  H   LIG d   1       8.346   3.149  -6.147  0.00  0.00     0.042 H 
ATOM     13  H   LIG d   1       9.318   1.682  -6.413  0.00  0.00     0.042 H 
BRANCH  11  14
ATOM     14  C   LIG d   1       7.973   1.572  -4.759  0.00  0.00     0.114 A 
ATOM     15  O   LIG d   1       6.868   2.052  -4.175  0.00  0.00    -0.453 OA
ATOM     16  C   LIG d   1       6.286   1.077  -3.447  0.00  0.00     0.212 A 
ATOM     17  C   LIG d   1       7.048  -0.051  -3.565  0.00  0.00    -0.009 A 
ATOM     18  C   LIG d   1       8.123   0.276  -4.406  0.00  0.00    -0.019 A 
ATOM     19  H   LIG d   1       6.860  -1.008  -3.101  0.00  0.00     0.066 H 
ATOM     20  H   LIG d   1       8.921  -0.385  -4.712  0.00  0.00     0.065 H 
BRANCH  16  21
ATOM     21  C   LIG d   1       5.056   1.206  -2.661  0.00  0.00     0.375 C 
ATOM     22  O   LIG d   1       5.091   1.081  -1.452  0.00  0.00    -0.241 OA
BRANCH  21  23
ATOM     23  O   LIG d   1       3.885   1.462  -3.280  0.00  0.00    -0.459 OA
BRANCH  23  24
ATOM     24  C   LIG d   1       3.311   0.401  -4.046  0.00  0.00     0.090 C 
ATOM     25  H   LIG d   1       2.522   0.799  -4.685  0.00  0.00     0.070 H 
ATOM     26  H   LIG d   1       4.083  -0.059  -4.664  0.00  0.00     0.070 H 
BRANCH  24  27
ATOM     27  C   LIG d   1       2.721  -0.648  -3.101  0.00  0.00    -0.031 C 
ATOM     28  H   LIG d   1       3.273  -1.581  -3.205  0.00  0.00     0.026 H 
ATOM     29  H   LIG d   1       2.795  -0.294  -2.074  0.00  0.00     0.026 H 
ATOM     30  H   LIG d   1       1.674  -0.816  -3.353  0.00  0.00     0.026 H 
ENDBRANCH  24  27
ENDBRANCH  23  24
ENDBRANCH  21  23
ENDBRANCH  16  21
ENDBRANCH  11  14
ENDBRANCH   9  11
ENDBRANCH   3   9
BRANCH   4  31
ATOM     31  O   LIG d   1      10.359   3.537  -2.095  0.00  0.00    -0.506 OA
ATOM     32  H   LIG d   1       9.987   2.686  -2.365  0.00  0.00     0.292 HD
ENDBRANCH   4  31
BRANCH   1  33
ATOM     33  C   LIG d   1       9.195   7.774  -5.639  0.00  0.00    -0.025 C 
ATOM     34  H   LIG d   1       9.696   8.678  -5.293  0.00  0.00     0.031 H 
ATOM     35  H   LIG d   1       8.118   7.941  -5.662  0.00  0.00     0.031 H 
BRANCH  33  36
ATOM     36  C   LIG d   1       9.687   7.423  -7.044  0.00  0.00    -0.052 C 
ATOM     37  H   LIG d   1       9.523   6.362  -7.232  0.00  0.00     0.027 H 
ATOM     38  H   LIG d   1      10.751   7.645  -7.123  0.00  0.00     0.027 H 
BRANCH  36  39
ATOM     39  C   LIG d   1       8.916   8.249  -8.075  0.00  0.00    -0.065 C 
ATOM     40  H   LIG d   1       9.160   7.898  -9.078  0.00  0.00     0.023 H 
ATOM     41  H   LIG d   1       7.845   8.140  -7.902  0.00  0.00     0.023 H 
ATOM     42  H   LIG d   1       9.194   9.299  -7.981  0.00  0.00     0.023 H 
ENDBRANCH  36  39
ENDBRANCH  33  36
ENDBRANCH   1  33
BRANCH   6  43
ATOM     43  O   LIG d   1       9.581   8.157  -2.872  0.00  0.00    -0.506 OA
ATOM     44  H   LIG d   1      10.150   8.344  -2.113  0.00  0.00     0.292 HD
ENDBRANCH   6  43
TORSDOF 12
ENDMDL
MODEL 4
REMARK VINA RESULT:      -5.5      1.928      5.976
REMARK  12 active torsions:
REMARK  status: ('A' for Active; 'I' for Inactive)
REMARK    1  A    between atoms: C_1  and  C_2 
REMARK    2  A    between atoms: C_2  and  C_3 
REMARK    3  A    between atoms: C_3  and  C_4 
REMARK    4  A    between atoms: C_6  and  C_12 
REMARK    5  A    between atoms: C_7  and  O_11 
REMARK    6  A    between atoms: C_9  and  O_10 
REMARK    7  A    between atoms: C_12  and  C_14 
REMARK    8  A    between atoms: C_14  and  C_15 
REMARK    9  A    between atoms: C_18  and  C_20 
REMARK   10  A    between atoms: C_20  and  O_22 
REMARK   11  A    between atoms: O_22  and  C_23 
REMARK   12  A    between atoms: C_23  and  C_24 
ROOT
ATOM      1  C   LIG d   1       2.572  -0.643  -9.052  0.00  0.00    -0.005 A 
ATOM      2  C   LIG d   1       3.563  -1.049  -8.205  0.00  0.00    -0.041 A 
ATOM      3  C   LIG d   1       3.929  -2.401  -8.150  0.00  0.00     0.060 A 
ATOM      4  C   LIG d   1       3.270  -3.334  -8.972  0.00  0.00     0.131 A 
ATOM      5  C   LIG d   1       2.268  -2.907  -9.825  0.00  0.00     0.022 A 
ATOM      6  C   LIG d   1       1.916  -1.566  -9.863  0.00  0.00     0.123 A 
ATOM      7  H   LIG d   1       4.064  -0.328  -7.577  0.00  0.00     0.063 H 
ATOM      8  H   LIG d   1       1.759  -3.618 -10.459  0.00  0.00     0.069 H 
ENDROOT
BRANCH   3   9
ATOM      9  C   LIG d   1       4.991  -2.839  -7.242  0.00  0.00     0.174 C 
ATOM     10  O   LIG d   1       6.130  -2.947  -7.647  0.00  0.00    -0.291 OA
BRANCH   9  11
ATOM     11  C   LIG d   1       4.670  -3.156  -5.804  0.00  0.00     0.069 C 
ATOM     12  H   LIG d   1       3.607  -2.997  -5.625  0.00  0.00     0.042 H 
ATOM     13  H   LIG d   1       4.923  -4.196  -5.596  0.00  0.00     0.042 H 
BRANCH  11  14
ATOM     14  C   LIG d   1       5.471  -2.254  -4.900  0.00  0.00     0.114 A 
ATOM     15  O   LIG d   1       5.295  -0.934  -4.760  0.00  0.00    -0.453 OA
ATOM     16  C   LIG d   1       6.186  -0.456  -3.867  0.00  0.00     0.212 A 
ATOM     17  C   LIG d   1       6.955  -1.500  -3.436  0.00  0.00    -0.009 A 
ATOM     18  C   LIG d   1       6.490  -2.644  -4.102  0.00  0.00    -0.019 A 
ATOM     19  H   LIG d   1       7.763  -1.453  -2.722  0.00  0.00     0.066 H 
ATOM     20  H   LIG d   1       6.874  -3.648  -3.996  0.00  0.00     0.065 H 
BRANCH  16  21
ATOM     21  C   LIG d   1       6.312   0.940  -3.438  0.00  0.00     0.375 C 
ATOM     22  O   LIG d   1       6.877   1.746  -4.153  0.00  0.00    -0.241 OA
BRANCH  21  23
ATOM     23  O   LIG d   1       5.802   1.330  -2.252  0.00  0.00    -0.459 OA
BRANCH  23  24
ATOM     24  C   LIG d   1       4.584   0.709  -1.834  0.00  0.00     0.090 C 
ATOM     25  H   LIG d   1       4.603  -0.347  -2.104  0.00  0.00     0.070 H 
ATOM     26  H   LIG d   1       4.480   0.807  -0.753  0.00  0.00     0.070 H 
BRANCH  24  27
ATOM     27  C   LIG d   1       3.401   1.391  -2.525  0.00  0.00    -0.031 C 
ATOM     28  H   LIG d   1       2.717   1.780  -1.772  0.00  0.00     0.026 H 
ATOM     29  H   LIG d   1       3.766   2.211  -3.143  0.00  0.00     0.026 H 
ATOM     30  H   LIG d   1       2.880   0.667  -3.151  0.00  0.00     0.026 H 
ENDBRANCH  24  27
ENDBRANCH  23  24
ENDBRANCH  21  23
ENDBRANCH  16  21
ENDBRANCH  11  14
ENDBRANCH   9  11
ENDBRANCH   3   9
BRANCH   4  31
ATOM     31  O   LIG d   1       3.616  -4.645  -8.927  0.00  0.00    -0.506 OA
ATOM     32  H   LIG d   1       2.880  -5.240  -8.733  0.00  0.00     0.292 HD
ENDBRANCH   4  31
BRANCH   1  33
ATOM     33  C   LIG d   1       2.184   0.813  -9.106  0.00  0.00    -0.025 C 
ATOM     34  H   LIG d   1       1.217   0.949  -8.621  0.00  0.00     0.031 H 
ATOM     35  H   LIG d   1       2.117   1.132 -10.147  0.00  0.00     0.031 H 
BRANCH  33  36
ATOM     36  C   LIG d   1       3.241   1.649  -8.383  0.00  0.00    -0.052 C 
ATOM     37  H   LIG d   1       3.959   0.988  -7.898  0.00  0.00     0.027 H 
ATOM     38  H   LIG d   1       2.759   2.275  -7.633  0.00  0.00     0.027 H 
BRANCH  36  39
ATOM     39  C   LIG d   1       3.968   2.537  -9.396  0.00  0.00    -0.065 C 
ATOM     40  H   LIG d   1       4.590   3.258  -8.865  0.00  0.00     0.023 H 
ATOM     41  H   LIG d   1       4.594   1.919 -10.038  0.00  0.00     0.023 H 
ATOM     42  H   LIG d   1       3.235   3.068 -10.004  0.00  0.00     0.023 H 
ENDBRANCH  36  39
ENDBRANCH  33  36
ENDBRANCH   1  33
BRANCH   6  43
ATOM     43  O   LIG d   1       0.931  -1.150 -10.697  0.00  0.00    -0.506 OA
ATOM     44  H   LIG d   1       0.969  -0.209 -10.913  0.00  0.00     0.292 HD
ENDBRANCH   6  43
TORSDOF 12
ENDMDL
MODEL 5
REMARK VINA RESULT:      -5.5      1.680      4.060
REMARK  12 active torsions:
REMARK  status: ('A' for Active; 'I' for Inactive)
REMARK    1  A    between atoms: C_1  and  C_2 
REMARK    2  A    between atoms: C_2  and  C_3 
REMARK    3  A    between atoms: C_3  and  C_4 
REMARK    4  A    between atoms: C_6  and  C_12 
REMARK    5  A    between atoms: C_7  and  O_11 
REMARK    6  A    between atoms: C_9  and  O_10 
REMARK    7  A    between atoms: C_12  and  C_14 
REMARK    8  A    between atoms: C_14  and  C_15 
REMARK    9  A    between atoms: C_18  and  C_20 
REMARK   10  A    between atoms: C_20  and  O_22 
REMARK   11  A    between atoms: O_22  and  C_23 
REMARK   12  A    between atoms: C_23  and  C_24 
ROOT
ATOM      1  C   LIG d   1       7.726  -1.987  -4.031  0.00  0.00    -0.005 A 
ATOM      2  C   LIG d   1       6.508  -1.952  -3.414  0.00  0.00    -0.041 A 
ATOM      3  C   LIG d   1       5.906  -0.722  -3.118  0.00  0.00     0.060 A 
ATOM      4  C   LIG d   1       6.563   0.475  -3.461  0.00  0.00     0.131 A 
ATOM      5  C   LIG d   1       7.796   0.423  -4.085  0.00  0.00     0.022 A 
ATOM      6  C   LIG d   1       8.379  -0.804  -4.366  0.00  0.00     0.123 A 
ATOM      7  H   LIG d   1       6.009  -2.874  -3.154  0.00  0.00     0.063 H 
ATOM      8  H   LIG d   1       8.306   1.338  -4.351  0.00  0.00     0.069 H 
ENDROOT
BRANCH   3   9
ATOM      9  C   LIG d   1       4.599  -0.682  -2.457  0.00  0.00     0.174 C 
ATOM     10  O   LIG d   1       4.495  -0.197  -1.350  0.00  0.00    -0.291 OA
BRANCH   9  11
ATOM     11  C   LIG d   1       3.386  -1.243  -3.152  0.00  0.00     0.069 C 
ATOM     12  H   LIG d   1       3.505  -2.319  -3.282  0.00  0.00     0.042 H 
ATOM     13  H   LIG d   1       2.498  -1.046  -2.549  0.00  0.00     0.042 H 
BRANCH  11  14
ATOM     14  C   LIG d   1       3.232  -0.588  -4.501  0.00  0.00     0.114 A 
ATOM     15  O   LIG d   1       3.906  -0.919  -5.610  0.00  0.00    -0.453 OA
ATOM     16  C   LIG d   1       3.510  -0.127  -6.628  0.00  0.00     0.212 A 
ATOM     17  C   LIG d   1       2.566   0.737  -6.148  0.00  0.00    -0.009 A 
ATOM     18  C   LIG d   1       2.396   0.433  -4.789  0.00  0.00    -0.019 A 
ATOM     19  H   LIG d   1       2.051   1.504  -6.707  0.00  0.00     0.066 H 
ATOM     20  H   LIG d   1       1.722   0.924  -4.101  0.00  0.00     0.065 H 
BRANCH  16  21
ATOM     21  C   LIG d   1       4.010  -0.179  -8.004  0.00  0.00     0.375 C 
ATOM     22  O   LIG d   1       3.516  -0.954  -8.801  0.00  0.00    -0.241 OA
BRANCH  21  23
ATOM     23  O   LIG d   1       5.017   0.632  -8.386  0.00  0.00    -0.459 OA
BRANCH  23  24
ATOM     24  C   LIG d   1       4.811   1.412  -9.566  0.00  0.00     0.090 C 
ATOM     25  H   LIG d   1       5.771   1.767  -9.940  0.00  0.00     0.070 H 
ATOM     26  H   LIG d   1       4.329   0.797 -10.327  0.00  0.00     0.070 H 
BRANCH  24  27
ATOM     27  C   LIG d   1       3.917   2.609  -9.236  0.00  0.00    -0.031 C 
ATOM     28  H   LIG d   1       3.571   2.531  -8.206  0.00  0.00     0.026 H 
ATOM     29  H   LIG d   1       4.484   3.531  -9.360  0.00  0.00     0.026 H 
ATOM     30  H   LIG d   1       3.058   2.618  -9.907  0.00  0.00     0.026 H 
ENDBRANCH  24  27
ENDBRANCH  23  24
ENDBRANCH  21  23
ENDBRANCH  16  21
ENDBRANCH  11  14
ENDBRANCH   9  11
ENDBRANCH   3   9
BRANCH   4  31
ATOM     31  O   LIG d   1       5.989   1.671  -3.179  0.00  0.00    -0.506 OA
ATOM     32  H   LIG d   1       6.594   2.315  -2.788  0.00  0.00     0.292 HD
ENDBRANCH   4  31
BRANCH   1  33
ATOM     33  C   LIG d   1       8.368  -3.314  -4.346  0.00  0.00    -0.025 C 
ATOM     34  H   LIG d   1       9.132  -3.175  -5.111  0.00  0.00     0.031 H 
ATOM     35  H   LIG d   1       7.609  -4.006  -4.711  0.00  0.00     0.031 H 
BRANCH  33  36
ATOM     36  C   LIG d   1       9.010  -3.883  -3.079  0.00  0.00    -0.052 C 
ATOM     37  H   LIG d   1       8.640  -4.894  -2.907  0.00  0.00     0.027 H 
ATOM     38  H   LIG d   1       8.754  -3.253  -2.228  0.00  0.00     0.027 H 
BRANCH  36  39
ATOM     39  C   LIG d   1      10.530  -3.917  -3.250  0.00  0.00    -0.065 C 
ATOM     40  H   LIG d   1      10.779  -3.819  -4.307  0.00  0.00     0.023 H 
ATOM     41  H   LIG d   1      10.977  -3.094  -2.693  0.00  0.00     0.023 H 
ATOM     42  H   LIG d   1      10.916  -4.864  -2.872  0.00  0.00     0.023 H 
ENDBRANCH  36  39
ENDBRANCH  33  36
ENDBRANCH   1  33
BRANCH   6  43
ATOM     43  O   LIG d   1       9.591  -0.852  -4.974  0.00  0.00    -0.506 OA
ATOM     44  H   LIG d   1       9.887  -0.003  -5.329  0.00  0.00     0.292 HD
ENDBRANCH   6  43
TORSDOF 12
ENDMDL
MODEL 6
REMARK VINA RESULT:      -5.4      2.885      7.158
REMARK  12 active torsions:
REMARK  status: ('A' for Active; 'I' for Inactive)
REMARK    1  A    between atoms: C_1  and  C_2 
REMARK    2  A    between atoms: C_2  and  C_3 
REMARK    3  A    between atoms: C_3  and  C_4 
REMARK    4  A    between atoms: C_6  and  C_12 
REMARK    5  A    between atoms: C_7  and  O_11 
REMARK    6  A    between atoms: C_9  and  O_10 
REMARK    7  A    between atoms: C_12  and  C_14 
REMARK    8  A    between atoms: C_14  and  C_15 
REMARK    9  A    between atoms: C_18  and  C_20 
REMARK   10  A    between atoms: C_20  and  O_22 
REMARK   11  A    between atoms: O_22  and  C_23 
REMARK   12  A    between atoms: C_23  and  C_24 
ROOT
ATOM      1  C   LIG d   1       2.122  -0.969 -11.327  0.00  0.00    -0.005 A 
ATOM      2  C   LIG d   1       2.064  -0.451 -10.065  0.00  0.00    -0.041 A 
ATOM      3  C   LIG d   1       3.049   0.444  -9.627  0.00  0.00     0.060 A 
ATOM      4  C   LIG d   1       4.097   0.805 -10.495  0.00  0.00     0.131 A 
ATOM      5  C   LIG d   1       4.142   0.271 -11.771  0.00  0.00     0.022 A 
ATOM      6  C   LIG d   1       3.161  -0.617 -12.185  0.00  0.00     0.123 A 
ATOM      7  H   LIG d   1       1.257  -0.732  -9.404  0.00  0.00     0.063 H 
ATOM      8  H   LIG d   1       4.944   0.544 -12.442  0.00  0.00     0.069 H 
ENDROOT
BRANCH   3   9
ATOM      9  C   LIG d   1       2.989   1.002  -8.274  0.00  0.00     0.174 C 
ATOM     10  O   LIG d   1       3.146   2.192  -8.101  0.00  0.00    -0.291 OA
BRANCH   9  11
ATOM     11  C   LIG d   1       2.730   0.097  -7.097  0.00  0.00     0.069 C 
ATOM     12  H   LIG d   1       2.027   0.576  -6.417  0.00  0.00     0.042 H 
ATOM     13  H   LIG d   1       2.310  -0.846  -7.450  0.00  0.00     0.042 H 
BRANCH  11  14
ATOM     14  C   LIG d   1       4.026  -0.170  -6.376  0.00  0.00     0.114 A 
ATOM     15  O   LIG d   1       4.314   0.209  -5.124  0.00  0.00    -0.453 OA
ATOM     16  C   LIG d   1       5.559  -0.204  -4.807  0.00  0.00     0.212 A 
ATOM     17  C   LIG d   1       6.077  -0.855  -5.890  0.00  0.00    -0.009 A 
ATOM     18  C   LIG d   1       5.090  -0.828  -6.887  0.00  0.00    -0.019 A 
ATOM     19  H   LIG d   1       7.057  -1.303  -5.965  0.00  0.00     0.066 H 
ATOM     20  H   LIG d   1       5.166  -1.254  -7.877  0.00  0.00     0.065 H 
BRANCH  16  21
ATOM     21  C   LIG d   1       6.238   0.014  -3.527  0.00  0.00     0.375 C 
ATOM     22  O   LIG d   1       7.151  -0.717  -3.191  0.00  0.00    -0.241 OA
BRANCH  21  23
ATOM     23  O   LIG d   1       5.850   1.023  -2.721  0.00  0.00    -0.459 OA
BRANCH  23  24
ATOM     24  C   LIG d   1       4.808   0.741  -1.784  0.00  0.00     0.090 C 
ATOM     25  H   LIG d   1       4.651  -0.336  -1.729  0.00  0.00     0.070 H 
ATOM     26  H   LIG d   1       5.093   1.118  -0.801  0.00  0.00     0.070 H 
BRANCH  24  27
ATOM     27  C   LIG d   1       3.516   1.423  -2.237  0.00  0.00    -0.031 C 
ATOM     28  H   LIG d   1       3.557   1.601  -3.311  0.00  0.00     0.026 H 
ATOM     29  H   LIG d   1       2.666   0.781  -2.006  0.00  0.00     0.026 H 
ATOM     30  H   LIG d   1       3.404   2.374  -1.715  0.00  0.00     0.026 H 
ENDBRANCH  24  27
ENDBRANCH  23  24
ENDBRANCH  21  23
ENDBRANCH  16  21
ENDBRANCH  11  14
ENDBRANCH   9  11
ENDBRANCH   3   9
BRANCH   4  31
ATOM     31  O   LIG d   1       5.056   1.671 -10.083  0.00  0.00    -0.506 OA
ATOM     32  H   LIG d   1       5.943   1.289 -10.051  0.00  0.00     0.292 HD
ENDBRANCH   4  31
BRANCH   1  33
ATOM     33  C   LIG d   1       1.059  -1.931 -11.791  0.00  0.00    -0.025 C 
ATOM     34  H   LIG d   1       1.297  -2.279 -12.796  0.00  0.00     0.031 H 
ATOM     35  H   LIG d   1       0.092  -1.427 -11.800  0.00  0.00     0.031 H 
BRANCH  33  36
ATOM     36  C   LIG d   1       1.002  -3.126 -10.837  0.00  0.00    -0.052 C 
ATOM     37  H   LIG d   1       0.071  -3.671 -10.992  0.00  0.00     0.027 H 
ATOM     38  H   LIG d   1       1.048  -2.772  -9.808  0.00  0.00     0.027 H 
BRANCH  36  39
ATOM     39  C   LIG d   1       2.188  -4.053 -11.110  0.00  0.00    -0.065 C 
ATOM     40  H   LIG d   1       2.204  -4.851 -10.367  0.00  0.00     0.023 H 
ATOM     41  H   LIG d   1       2.090  -4.485 -12.105  0.00  0.00     0.023 H 
ATOM     42  H   LIG d   1       3.115  -3.483 -11.050  0.00  0.00     0.023 H 
ENDBRANCH  36  39
ENDBRANCH  33  36
ENDBRANCH   1  33
BRANCH   6  43
ATOM     43  O   LIG d   1       3.210  -1.143 -13.435  0.00  0.00    -0.506 OA
ATOM     44  H   LIG d   1       2.355  -1.443 -13.769  0.00  0.00     0.292 HD
ENDBRANCH   6  43
TORSDOF 12
ENDMDL
MODEL 7
REMARK VINA RESULT:      -5.4      4.719      7.523
REMARK  12 active torsions:
REMARK  status: ('A' for Active; 'I' for Inactive)
REMARK    1  A    between atoms: C_1  and  C_2 
REMARK    2  A    between atoms: C_2  and  C_3 
REMARK    3  A    between atoms: C_3  and  C_4 
REMARK    4  A    between atoms: C_6  and  C_12 
REMARK    5  A    between atoms: C_7  and  O_11 
REMARK    6  A    between atoms: C_9  and  O_10 
REMARK    7  A    between atoms: C_12  and  C_14 
REMARK    8  A    between atoms: C_14  and  C_15 
REMARK    9  A    between atoms: C_18  and  C_20 
REMARK   10  A    between atoms: C_20  and  O_22 
REMARK   11  A    between atoms: O_22  and  C_23 
REMARK   12  A    between atoms: C_23  and  C_24 
ROOT
ATOM      1  C   LIG d   1       5.419   0.435  -2.680  0.00  0.00    -0.005 A 
ATOM      2  C   LIG d   1       6.289   1.307  -3.271  0.00  0.00    -0.041 A 
ATOM      3  C   LIG d   1       7.418   0.824  -3.944  0.00  0.00     0.060 A 
ATOM      4  C   LIG d   1       7.649  -0.563  -4.008  0.00  0.00     0.131 A 
ATOM      5  C   LIG d   1       6.760  -1.434  -3.405  0.00  0.00     0.022 A 
ATOM      6  C   LIG d   1       5.649  -0.937  -2.738  0.00  0.00     0.123 A 
ATOM      7  H   LIG d   1       6.105   2.370  -3.218  0.00  0.00     0.063 H 
ATOM      8  H   LIG d   1       6.931  -2.499  -3.450  0.00  0.00     0.069 H 
ENDROOT
BRANCH   3   9
ATOM      9  C   LIG d   1       8.352   1.756  -4.578  0.00  0.00     0.174 C 
ATOM     10  O   LIG d   1       8.089   2.236  -5.661  0.00  0.00    -0.291 OA
BRANCH   9  11
ATOM     11  C   LIG d   1       9.640   2.121  -3.885  0.00  0.00     0.069 C 
ATOM     12  H   LIG d   1       9.706   1.589  -2.936  0.00  0.00     0.042 H 
ATOM     13  H   LIG d   1      10.484   1.843  -4.518  0.00  0.00     0.042 H 
BRANCH  11  14
ATOM     14  C   LIG d   1       9.671   3.606  -3.632  0.00  0.00     0.114 A 
ATOM     15  O   LIG d   1       9.798   4.191  -2.433  0.00  0.00    -0.453 OA
ATOM     16  C   LIG d   1       9.790   5.531  -2.586  0.00  0.00     0.212 A 
ATOM     17  C   LIG d   1       9.644   5.804  -3.917  0.00  0.00    -0.009 A 
ATOM     18  C   LIG d   1       9.569   4.567  -4.576  0.00  0.00    -0.019 A 
ATOM     19  H   LIG d   1       9.595   6.782  -4.373  0.00  0.00     0.066 H 
ATOM     20  H   LIG d   1       9.452   4.413  -5.639  0.00  0.00     0.065 H 
BRANCH  16  21
ATOM     21  C   LIG d   1       9.910   6.521  -1.512  0.00  0.00     0.375 C 
ATOM     22  O   LIG d   1       8.974   7.253  -1.254  0.00  0.00    -0.241 OA
BRANCH  21  23
ATOM     23  O   LIG d   1      11.059   6.620  -0.813  0.00  0.00    -0.459 OA
BRANCH  23  24
ATOM     24  C   LIG d   1      10.953   7.032   0.552  0.00  0.00     0.090 C 
ATOM     25  H   LIG d   1       9.902   7.107   0.829  0.00  0.00     0.070 H 
ATOM     26  H   LIG d   1      11.447   6.299   1.191  0.00  0.00     0.070 H 
BRANCH  24  27
ATOM     27  C   LIG d   1      11.626   8.396   0.726  0.00  0.00    -0.031 C 
ATOM     28  H   LIG d   1      10.875   9.139   0.991  0.00  0.00     0.026 H 
ATOM     29  H   LIG d   1      12.372   8.334   1.518  0.00  0.00     0.026 H 
ATOM     30  H   LIG d   1      12.109   8.685  -0.207  0.00  0.00     0.026 H 
ENDBRANCH  24  27
ENDBRANCH  23  24
ENDBRANCH  21  23
ENDBRANCH  16  21
ENDBRANCH  11  14
ENDBRANCH   9  11
ENDBRANCH   3   9
BRANCH   4  31
ATOM     31  O   LIG d   1       8.740  -1.043  -4.657  0.00  0.00    -0.506 OA
ATOM     32  H   LIG d   1       9.134  -1.821  -4.242  0.00  0.00     0.292 HD
ENDBRANCH   4  31
BRANCH   1  33
ATOM     33  C   LIG d   1       4.206   0.962  -1.958  0.00  0.00    -0.025 C 
ATOM     34  H   LIG d   1       4.521   1.637  -1.162  0.00  0.00     0.031 H 
ATOM     35  H   LIG d   1       3.648   0.129  -1.529  0.00  0.00     0.031 H 
BRANCH  33  36
ATOM     36  C   LIG d   1       3.313   1.718  -2.944  0.00  0.00    -0.052 C 
ATOM     37  H   LIG d   1       3.873   2.544  -3.382  0.00  0.00     0.027 H 
ATOM     38  H   LIG d   1       2.441   2.109  -2.420  0.00  0.00     0.027 H 
BRANCH  36  39
ATOM     39  C   LIG d   1       2.858   0.766  -4.052  0.00  0.00    -0.065 C 
ATOM     40  H   LIG d   1       3.123   1.185  -5.022  0.00  0.00     0.023 H 
ATOM     41  H   LIG d   1       3.347  -0.199  -3.925  0.00  0.00     0.023 H 
ATOM     42  H   LIG d   1       1.777   0.636  -3.996  0.00  0.00     0.023 H 
ENDBRANCH  36  39
ENDBRANCH  33  36
ENDBRANCH   1  33
BRANCH   6  43
ATOM     43  O   LIG d   1       4.780  -1.792  -2.144  0.00  0.00    -0.506 OA
ATOM     44  H   LIG d   1       4.625  -2.605  -2.642  0.00  0.00     0.292 HD
ENDBRANCH   6  43
TORSDOF 12
ENDMDL
MODEL 8
REMARK VINA RESULT:      -5.4      4.528      7.364
REMARK  12 active torsions:
REMARK  status: ('A' for Active; 'I' for Inactive)
REMARK    1  A    between atoms: C_1  and  C_2 
REMARK    2  A    between atoms: C_2  and  C_3 
REMARK    3  A    between atoms: C_3  and  C_4 
REMARK    4  A    between atoms: C_6  and  C_12 
REMARK    5  A    between atoms: C_7  and  O_11 
REMARK    6  A    between atoms: C_9  and  O_10 
REMARK    7  A    between atoms: C_12  and  C_14 
REMARK    8  A    between atoms: C_14  and  C_15 
REMARK    9  A    between atoms: C_18  and  C_20 
REMARK   10  A    between atoms: C_20  and  O_22 
REMARK   11  A    between atoms: O_22  and  C_23 
REMARK   12  A    between atoms: C_23  and  C_24 
ROOT
ATOM      1  C   LIG d   1       5.276  -1.999  -4.283  0.00  0.00    -0.005 A 
ATOM      2  C   LIG d   1       5.076  -3.326  -4.536  0.00  0.00    -0.041 A 
ATOM      3  C   LIG d   1       4.689  -3.747  -5.815  0.00  0.00     0.060 A 
ATOM      4  C   LIG d   1       4.509  -2.795  -6.836  0.00  0.00     0.131 A 
ATOM      5  C   LIG d   1       4.714  -1.454  -6.564  0.00  0.00     0.022 A 
ATOM      6  C   LIG d   1       5.092  -1.055  -5.290  0.00  0.00     0.123 A 
ATOM      7  H   LIG d   1       5.217  -4.051  -3.748  0.00  0.00     0.063 H 
ATOM      8  H   LIG d   1       4.577  -0.718  -7.343  0.00  0.00     0.069 H 
ENDROOT
BRANCH   3   9
ATOM      9  C   LIG d   1       4.475  -5.170  -6.088  0.00  0.00     0.174 C 
ATOM     10  O   LIG d   1       3.348  -5.600  -6.215  0.00  0.00    -0.291 OA
BRANCH   9  11
ATOM     11  C   LIG d   1       5.655  -6.099  -6.213  0.00  0.00     0.069 C 
ATOM     12  H   LIG d   1       6.048  -6.054  -7.229  0.00  0.00     0.042 H 
ATOM     13  H   LIG d   1       6.432  -5.796  -5.510  0.00  0.00     0.042 H 
BRANCH  11  14
ATOM     14  C   LIG d   1       5.220  -7.508  -5.904  0.00  0.00     0.114 A 
ATOM     15  O   LIG d   1       4.769  -7.943  -4.721  0.00  0.00    -0.453 OA
ATOM     16  C   LIG d   1       4.469  -9.256  -4.811  0.00  0.00     0.212 A 
ATOM     17  C   LIG d   1       4.746  -9.666  -6.084  0.00  0.00    -0.009 A 
ATOM     18  C   LIG d   1       5.225  -8.542  -6.774  0.00  0.00    -0.019 A 
ATOM     19  H   LIG d   1       4.621 -10.662  -6.482  0.00  0.00     0.066 H 
ATOM     20  H   LIG d   1       5.539  -8.509  -7.808  0.00  0.00     0.065 H 
BRANCH  16  21
ATOM     21  C   LIG d   1       3.944 -10.095  -3.731  0.00  0.00     0.375 C 
ATOM     22  O   LIG d   1       2.892 -10.688  -3.879  0.00  0.00    -0.241 OA
BRANCH  21  23
ATOM     23  O   LIG d   1       4.627 -10.210  -2.574  0.00  0.00    -0.459 OA
BRANCH  23  24
ATOM     24  C   LIG d   1       5.673 -11.183  -2.532  0.00  0.00     0.090 C 
ATOM     25  H   LIG d   1       5.294 -12.139  -2.893  0.00  0.00     0.070 H 
ATOM     26  H   LIG d   1       6.498 -10.856  -3.165  0.00  0.00     0.070 H 
BRANCH  24  27
ATOM     27  C   LIG d   1       6.165 -11.340  -1.091  0.00  0.00    -0.031 C 
ATOM     28  H   LIG d   1       6.751 -10.465  -0.811  0.00  0.00     0.026 H 
ATOM     29  H   LIG d   1       5.309 -11.434  -0.423  0.00  0.00     0.026 H 
ATOM     30  H   LIG d   1       6.786 -12.233  -1.015  0.00  0.00     0.026 H 
ENDBRANCH  24  27
ENDBRANCH  23  24
ENDBRANCH  21  23
ENDBRANCH  16  21
ENDBRANCH  11  14
ENDBRANCH   9  11
ENDBRANCH   3   9
BRANCH   4  31
ATOM     31  O   LIG d   1       4.135  -3.191  -8.078  0.00  0.00    -0.506 OA
ATOM     32  H   LIG d   1       3.370  -3.781  -8.089  0.00  0.00     0.292 HD
ENDBRANCH   4  31
BRANCH   1  33
ATOM     33  C   LIG d   1       5.692  -1.553  -2.905  0.00  0.00    -0.025 C 
ATOM     34  H   LIG d   1       6.303  -0.655  -2.982  0.00  0.00     0.031 H 
ATOM     35  H   LIG d   1       6.268  -2.346  -2.426  0.00  0.00     0.031 H 
BRANCH  33  36
ATOM     36  C   LIG d   1       4.446  -1.253  -2.069  0.00  0.00    -0.052 C 
ATOM     37  H   LIG d   1       4.475  -1.838  -1.149  0.00  0.00     0.027 H 
ATOM     38  H   LIG d   1       3.555  -1.515  -2.638  0.00  0.00     0.027 H 
BRANCH  36  39
ATOM     39  C   LIG d   1       4.411   0.238  -1.725  0.00  0.00    -0.065 C 
ATOM     40  H   LIG d   1       4.616   0.822  -2.622  0.00  0.00     0.023 H 
ATOM     41  H   LIG d   1       3.425   0.498  -1.338  0.00  0.00     0.023 H 
ATOM     42  H   LIG d   1       5.166   0.454  -0.970  0.00  0.00     0.023 H 
ENDBRANCH  36  39
ENDBRANCH  33  36
ENDBRANCH   1  33
BRANCH   6  43
ATOM     43  O   LIG d   1       5.289   0.261  -5.026  0.00  0.00    -0.506 OA
ATOM     44  H   LIG d   1       4.980   0.537  -4.153  0.00  0.00     0.292 HD
ENDBRANCH   6  43
TORSDOF 12
ENDMDL
MODEL 9
REMARK VINA RESULT:      -5.4      1.668      2.609
REMARK  12 active torsions:
REMARK  status: ('A' for Active; 'I' for Inactive)
REMARK    1  A    between atoms: C_1  and  C_2 
REMARK    2  A    between atoms: C_2  and  C_3 
REMARK    3  A    between atoms: C_3  and  C_4 
REMARK    4  A    between atoms: C_6  and  C_12 
REMARK    5  A    between atoms: C_7  and  O_11 
REMARK    6  A    between atoms: C_9  and  O_10 
REMARK    7  A    between atoms: C_12  and  C_14 
REMARK    8  A    between atoms: C_14  and  C_15 
REMARK    9  A    between atoms: C_18  and  C_20 
REMARK   10  A    between atoms: C_20  and  O_22 
REMARK   11  A    between atoms: O_22  and  C_23 
REMARK   12  A    between atoms: C_23  and  C_24 
ROOT
ATOM      1  C   LIG d   1       5.439   0.220  -2.664  0.00  0.00    -0.005 A 
ATOM      2  C   LIG d   1       6.368   0.868  -3.427  0.00  0.00    -0.041 A 
ATOM      3  C   LIG d   1       7.333   0.137  -4.132  0.00  0.00     0.060 A 
ATOM      4  C   LIG d   1       7.338  -1.268  -4.048  0.00  0.00     0.131 A 
ATOM      5  C   LIG d   1       6.392  -1.911  -3.271  0.00  0.00     0.022 A 
ATOM      6  C   LIG d   1       5.447  -1.170  -2.577  0.00  0.00     0.123 A 
ATOM      7  H   LIG d   1       6.357   1.947  -3.487  0.00  0.00     0.063 H 
ATOM      8  H   LIG d   1       6.391  -2.989  -3.203  0.00  0.00     0.069 H 
ENDROOT
BRANCH   3   9
ATOM      9  C   LIG d   1       8.329   0.831  -4.951  0.00  0.00     0.174 C 
ATOM     10  O   LIG d   1       9.481   0.900  -4.576  0.00  0.00    -0.291 OA
BRANCH   9  11
ATOM     11  C   LIG d   1       7.924   1.458  -6.260  0.00  0.00     0.069 C 
ATOM     12  H   LIG d   1       7.368   2.375  -6.067  0.00  0.00     0.042 H 
ATOM     13  H   LIG d   1       8.816   1.689  -6.843  0.00  0.00     0.042 H 
BRANCH  11  14
ATOM     14  C   LIG d   1       7.056   0.496  -7.030  0.00  0.00     0.114 A 
ATOM     15  O   LIG d   1       5.727   0.377  -6.911  0.00  0.00    -0.453 OA
ATOM     16  C   LIG d   1       5.286  -0.578  -7.755  0.00  0.00     0.212 A 
ATOM     17  C   LIG d   1       6.365  -1.086  -8.420  0.00  0.00    -0.009 A 
ATOM     18  C   LIG d   1       7.491  -0.393  -7.950  0.00  0.00    -0.019 A 
ATOM     19  H   LIG d   1       6.354  -1.869  -9.164  0.00  0.00     0.066 H 
ATOM     20  H   LIG d   1       8.514  -0.542  -8.265  0.00  0.00     0.065 H 
BRANCH  16  21
ATOM     21  C   LIG d   1       3.893  -1.002  -7.923  0.00  0.00     0.375 C 
ATOM     22  O   LIG d   1       3.637  -2.167  -8.161  0.00  0.00    -0.241 OA
BRANCH  21  23
ATOM     23  O   LIG d   1       2.896  -0.100  -7.815  0.00  0.00    -0.459 OA
BRANCH  23  24
ATOM     24  C   LIG d   1       2.667   0.751  -8.941  0.00  0.00     0.090 C 
ATOM     25  H   LIG d   1       3.351   0.481  -9.746  0.00  0.00     0.070 H 
ATOM     26  H   LIG d   1       1.638   0.631  -9.282  0.00  0.00     0.070 H 
BRANCH  24  27
ATOM     27  C   LIG d   1       2.904   2.207  -8.537  0.00  0.00    -0.031 C 
ATOM     28  H   LIG d   1       2.664   2.860  -9.375  0.00  0.00     0.026 H 
ATOM     29  H   LIG d   1       2.267   2.456  -7.688  0.00  0.00     0.026 H 
ATOM     30  H   LIG d   1       3.949   2.342  -8.259  0.00  0.00     0.026 H 
ENDBRANCH  24  27
ENDBRANCH  23  24
ENDBRANCH  21  23
ENDBRANCH  16  21
ENDBRANCH  11  14
ENDBRANCH   9  11
ENDBRANCH   3   9
BRANCH   4  31
ATOM     31  O   LIG d   1       8.268  -1.987  -4.726  0.00  0.00    -0.506 OA
ATOM     32  H   LIG d   1       9.075  -2.160  -4.223  0.00  0.00     0.292 HD
ENDBRANCH   4  31
BRANCH   1  33
ATOM     33  C   LIG d   1       4.404   1.013  -1.909  0.00  0.00    -0.025 C 
ATOM     34  H   LIG d   1       4.900   1.748  -1.275  0.00  0.00     0.031 H 
ATOM     35  H   LIG d   1       3.811   0.339  -1.290  0.00  0.00     0.031 H 
BRANCH  33  36
ATOM     36  C   LIG d   1       3.488   1.731  -2.902  0.00  0.00    -0.052 C 
ATOM     37  H   LIG d   1       4.056   2.493  -3.435  0.00  0.00     0.027 H 
ATOM     38  H   LIG d   1       2.666   2.201  -2.363  0.00  0.00     0.027 H 
BRANCH  36  39
ATOM     39  C   LIG d   1       2.928   0.718  -3.903  0.00  0.00    -0.065 C 
ATOM     40  H   LIG d   1       3.706   0.446  -4.617  0.00  0.00     0.023 H 
ATOM     41  H   LIG d   1       2.595  -0.173  -3.371  0.00  0.00     0.023 H 
ATOM     42  H   LIG d   1       2.086   1.161  -4.434  0.00  0.00     0.023 H 
ENDBRANCH  36  39
ENDBRANCH  33  36
ENDBRANCH   1  33
BRANCH   6  43
ATOM     43  O   LIG d   1       4.522  -1.802  -1.812  0.00  0.00    -0.506 OA
ATOM     44  H   LIG d   1       4.192  -2.626  -2.194  0.00  0.00     0.292 HD
ENDBRANCH   6  43
TORSDOF 12
ENDMDL
MODEL 10
REMARK VINA RESULT:      -5.3      2.724      7.162
REMARK  12 active torsions:
REMARK  status: ('A' for Active; 'I' for Inactive)
REMARK    1  A    between atoms: C_1  and  C_2 
REMARK    2  A    between atoms: C_2  and  C_3 
REMARK    3  A    between atoms: C_3  and  C_4 
REMARK    4  A    between atoms: C_6  and  C_12 
REMARK    5  A    between atoms: C_7  and  O_11 
REMARK    6  A    between atoms: C_9  and  O_10 
REMARK    7  A    between atoms: C_12  and  C_14 
REMARK    8  A    between atoms: C_14  and  C_15 
REMARK    9  A    between atoms: C_18  and  C_20 
REMARK   10  A    between atoms: C_20  and  O_22 
REMARK   11  A    between atoms: O_22  and  C_23 
REMARK   12  A    between atoms: C_23  and  C_24 
ROOT
ATOM      1  C   LIG d   1       3.301  -0.351 -11.315  0.00  0.00    -0.005 A 
ATOM      2  C   LIG d   1       2.759  -0.032 -10.103  0.00  0.00    -0.041 A 
ATOM      3  C   LIG d   1       3.520   0.664  -9.155  0.00  0.00     0.060 A 
ATOM      4  C   LIG d   1       4.845   1.031  -9.459  0.00  0.00     0.131 A 
ATOM      5  C   LIG d   1       5.380   0.699 -10.691  0.00  0.00     0.022 A 
ATOM      6  C   LIG d   1       4.613   0.006 -11.616  0.00  0.00     0.123 A 
ATOM      7  H   LIG d   1       1.742  -0.316  -9.876  0.00  0.00     0.063 H 
ATOM      8  H   LIG d   1       6.396   0.978 -10.931  0.00  0.00     0.069 H 
ENDROOT
BRANCH   3   9
ATOM      9  C   LIG d   1       2.941   1.008  -7.854  0.00  0.00     0.174 C 
ATOM     10  O   LIG d   1       2.860   2.170  -7.514  0.00  0.00    -0.291 OA
BRANCH   9  11
ATOM     11  C   LIG d   1       2.445  -0.081  -6.939  0.00  0.00     0.069 C 
ATOM     12  H   LIG d   1       1.358  -0.032  -6.870  0.00  0.00     0.042 H 
ATOM     13  H   LIG d   1       2.740  -1.053  -7.337  0.00  0.00     0.042 H 
BRANCH  11  14
ATOM     14  C   LIG d   1       3.044   0.103  -5.568  0.00  0.00     0.114 A 
ATOM     15  O   LIG d   1       4.352   0.192  -5.294  0.00  0.00    -0.453 OA
ATOM     16  C   LIG d   1       4.520   0.357  -3.966  0.00  0.00     0.212 A 
ATOM     17  C   LIG d   1       3.286   0.363  -3.380  0.00  0.00    -0.009 A 
ATOM     18  C   LIG d   1       2.350   0.201  -4.413  0.00  0.00    -0.019 A 
ATOM     19  H   LIG d   1       3.072   0.472  -2.327  0.00  0.00     0.066 H 
ATOM     20  H   LIG d   1       1.275   0.161  -4.304  0.00  0.00     0.065 H 
BRANCH  16  21
ATOM     21  C   LIG d   1       5.803   0.497  -3.271  0.00  0.00     0.375 C 
ATOM     22  O   LIG d   1       6.038   1.501  -2.626  0.00  0.00    -0.241 OA
BRANCH  21  23
ATOM     23  O   LIG d   1       6.723  -0.486  -3.350  0.00  0.00    -0.459 OA
BRANCH  23  24
ATOM     24  C   LIG d   1       6.254  -1.827  -3.191  0.00  0.00     0.090 C 
ATOM     25  H   LIG d   1       6.510  -2.186  -2.194  0.00  0.00     0.070 H 
ATOM     26  H   LIG d   1       5.171  -1.850  -3.320  0.00  0.00     0.070 H 
BRANCH  24  27
ATOM     27  C   LIG d   1       6.912  -2.725  -4.241  0.00  0.00    -0.031 C 
ATOM     28  H   LIG d   1       7.978  -2.805  -4.034  0.00  0.00     0.026 H 
ATOM     29  H   LIG d   1       6.460  -3.716  -4.206  0.00  0.00     0.026 H 
ATOM     30  H   LIG d   1       6.766  -2.293  -5.232  0.00  0.00     0.026 H 
ENDBRANCH  24  27
ENDBRANCH  23  24
ENDBRANCH  21  23
ENDBRANCH  16  21
ENDBRANCH  11  14
ENDBRANCH   9  11
ENDBRANCH   3   9
BRANCH   4  31
ATOM     31  O   LIG d   1       5.591   1.705  -8.549  0.00  0.00    -0.506 OA
ATOM     32  H   LIG d   1       6.544   1.638  -8.695  0.00  0.00     0.292 HD
ENDBRANCH   4  31
BRANCH   1  33
ATOM     33  C   LIG d   1       2.476  -1.100 -12.330  0.00  0.00    -0.025 C 
ATOM     34  H   LIG d   1       2.908  -2.087 -12.493  0.00  0.00     0.031 H 
ATOM     35  H   LIG d   1       2.467  -0.547 -13.269  0.00  0.00     0.031 H 
BRANCH  33  36
ATOM     36  C   LIG d   1       1.044  -1.249 -11.813  0.00  0.00    -0.052 C 
ATOM     37  H   LIG d   1       0.535  -0.286 -11.869  0.00  0.00     0.027 H 
ATOM     38  H   LIG d   1       1.064  -1.588 -10.778  0.00  0.00     0.027 H 
BRANCH  36  39
ATOM     39  C   LIG d   1       0.296  -2.272 -12.671  0.00  0.00    -0.065 C 
ATOM     40  H   LIG d   1       0.614  -2.177 -13.709  0.00  0.00     0.023 H 
ATOM     41  H   LIG d   1       0.518  -3.277 -12.313  0.00  0.00     0.023 H 
ATOM     42  H   LIG d   1      -0.776  -2.089 -12.601  0.00  0.00     0.023 H 
ENDBRANCH  36  39
ENDBRANCH  33  36
ENDBRANCH   1  33
BRANCH   6  43
ATOM     43  O   LIG d   1       5.141  -0.321 -12.821  0.00  0.00    -0.506 OA
ATOM     44  H   LIG d   1       6.038  -0.678 -12.774  0.00  0.00     0.292 HD
ENDBRANCH   6  43
TORSDOF 12
ENDMDL
