MODEL 1
REMARK VINA RESULT:      -5.0      0.000      0.000
REMARK  6 active torsions:
REMARK  status: ('A' for Active; 'I' for Inactive)
REMARK    1  A    between atoms: C_1  and  O_2 
REMARK    2  A    between atoms: O_2  and  C_3 
REMARK    3  A    between atoms: C_5  and  C_14 
REMARK    4  A    between atoms: C_6  and  O_12 
REMARK    5  A    between atoms: O_12  and  C_13 
REMARK    6  A    between atoms: C_14  and  C_15 
ROOT
ATOM      1  C   LIG d   1       3.133  -0.028  -6.819  0.00  0.00     0.166 A 
ATOM      2  C   LIG d   1       2.749   0.235  -5.514  0.00  0.00    -0.009 A 
ATOM      3  C   LIG d   1       3.360  -0.426  -4.465  0.00  0.00     0.005 A 
ATOM      4  C   LIG d   1       4.359  -1.353  -4.715  0.00  0.00     0.169 A 
ATOM      5  C   LIG d   1       4.749  -1.620  -6.021  0.00  0.00     0.211 A 
ATOM      6  C   LIG d   1       4.130  -0.961  -7.077  0.00  0.00     0.211 A 
ATOM      7  O   LIG d   1       4.680  -1.399  -8.249  0.00  0.00    -0.449 OA
ATOM      8  C   LIG d   1       5.916  -2.037  -7.878  0.00  0.00     0.234 C 
ATOM      9  O   LIG d   1       5.691  -2.471  -6.529  0.00  0.00    -0.449 OA
ATOM     10  H   LIG d   1       1.971   0.957  -5.316  0.00  0.00     0.066 H 
ATOM     11  H   LIG d   1       6.120  -2.885  -8.531  0.00  0.00     0.117 H 
ATOM     12  H   LIG d   1       6.739  -1.323  -7.908  0.00  0.00     0.117 H 
ENDROOT
BRANCH   3  13
ATOM     13  C   LIG d   1       2.939  -0.136  -3.047  0.00  0.00    -0.006 C 
ATOM     14  H   LIG d   1       1.860   0.009  -3.011  0.00  0.00     0.036 H 
ATOM     15  H   LIG d   1       3.215  -0.975  -2.408  0.00  0.00     0.036 H 
BRANCH  13  16
ATOM     16  C   LIG d   1       3.630   1.112  -2.562  0.00  0.00    -0.087 C 
ATOM     17  C   LIG d   1       4.556   1.031  -1.639  0.00  0.00    -0.102 C 
ATOM     18  H   LIG d   1       4.822   0.071  -1.224  0.00  0.00     0.053 H 
ATOM     19  H   LIG d   1       5.051   1.926  -1.291  0.00  0.00     0.053 H 
ATOM     20  H   LIG d   1       3.363   2.073  -2.976  0.00  0.00     0.057 H 
ENDBRANCH  13  16
ENDBRANCH   3  13
BRANCH   4  21
ATOM     21  O   LIG d   1       4.959  -2.001  -3.680  0.00  0.00    -0.491 OA
BRANCH  21  22
ATOM     22  C   LIG d   1       6.309  -1.638  -3.381  0.00  0.00     0.079 C 
ATOM     23  H   LIG d   1       6.342  -1.123  -2.421  0.00  0.00     0.066 H 
ATOM     24  H   LIG d   1       6.925  -2.535  -3.334  0.00  0.00     0.066 H 
ATOM     25  H   LIG d   1       6.687  -0.977  -4.161  0.00  0.00     0.066 H 
ENDBRANCH  21  22
ENDBRANCH   4  21
BRANCH   1  26
ATOM     26  O   LIG d   1       2.529   0.623  -7.851  0.00  0.00    -0.491 OA
BRANCH  26  27
ATOM     27  C   LIG d   1       3.149   1.826  -8.311  0.00  0.00     0.079 C 
ATOM     28  H   LIG d   1       3.525   2.390  -7.458  0.00  0.00     0.066 H 
ATOM     29  H   LIG d   1       3.977   1.576  -8.974  0.00  0.00     0.066 H 
ATOM     30  H   LIG d   1       2.419   2.427  -8.851  0.00  0.00     0.066 H 
ENDBRANCH  26  27
ENDBRANCH   1  26
TORSDOF 6
ENDMDL
MODEL 2
REMARK VINA RESULT:      -4.8      3.319      4.542
REMARK  6 active torsions:
REMARK  status: ('A' for Active; 'I' for Inactive)
REMARK    1  A    between atoms: C_1  and  O_2 
REMARK    2  A    between atoms: O_2  and  C_3 
REMARK    3  A    between atoms: C_5  and  C_14 
REMARK    4  A    between atoms: C_6  and  O_12 
REMARK    5  A    between atoms: O_12  and  C_13 
REMARK    6  A    between atoms: C_14  and  C_15 
ROOT
ATOM      1  C   LIG d   1       7.412  -1.488  -4.456  0.00  0.00     0.166 A 
ATOM      2  C   LIG d   1       6.428  -1.882  -3.563  0.00  0.00    -0.009 A 
ATOM      3  C   LIG d   1       5.730  -0.935  -2.838  0.00  0.00     0.005 A 
ATOM      4  C   LIG d   1       6.012   0.412  -3.001  0.00  0.00     0.169 A 
ATOM      5  C   LIG d   1       6.996   0.814  -3.895  0.00  0.00     0.211 A 
ATOM      6  C   LIG d   1       7.703  -0.139  -4.621  0.00  0.00     0.211 A 
ATOM      7  O   LIG d   1       8.611   0.501  -5.416  0.00  0.00    -0.449 OA
ATOM      8  C   LIG d   1       8.178   1.873  -5.466  0.00  0.00     0.234 C 
ATOM      9  O   LIG d   1       7.458   2.054  -4.237  0.00  0.00    -0.449 OA
ATOM     10  H   LIG d   1       6.206  -2.931  -3.435  0.00  0.00     0.066 H 
ATOM     11  H   LIG d   1       9.035   2.544  -5.518  0.00  0.00     0.117 H 
ATOM     12  H   LIG d   1       7.512   2.034  -6.315  0.00  0.00     0.117 H 
ENDROOT
BRANCH   3  13
ATOM     13  C   LIG d   1       4.661  -1.368  -1.868  0.00  0.00    -0.006 C 
ATOM     14  H   LIG d   1       5.052  -2.154  -1.224  0.00  0.00     0.036 H 
ATOM     15  H   LIG d   1       4.356  -0.517  -1.260  0.00  0.00     0.036 H 
BRANCH  13  16
ATOM     16  C   LIG d   1       3.471  -1.890  -2.632  0.00  0.00    -0.087 C 
ATOM     17  C   LIG d   1       2.608  -1.052  -3.152  0.00  0.00    -0.102 C 
ATOM     18  H   LIG d   1       2.749   0.011  -3.032  0.00  0.00     0.053 H 
ATOM     19  H   LIG d   1       1.755  -1.426  -3.700  0.00  0.00     0.053 H 
ATOM     20  H   LIG d   1       3.330  -2.954  -2.752  0.00  0.00     0.057 H 
ENDBRANCH  13  16
ENDBRANCH   3  13
BRANCH   4  21
ATOM     21  O   LIG d   1       5.322   1.342  -2.286  0.00  0.00    -0.491 OA
BRANCH  21  22
ATOM     22  C   LIG d   1       4.165   1.910  -2.905  0.00  0.00     0.079 C 
ATOM     23  H   LIG d   1       4.453   2.800  -3.464  0.00  0.00     0.066 H 
ATOM     24  H   LIG d   1       3.721   1.182  -3.583  0.00  0.00     0.066 H 
ATOM     25  H   LIG d   1       3.440   2.181  -2.136  0.00  0.00     0.066 H 
ENDBRANCH  21  22
ENDBRANCH   4  21
BRANCH   1  26
ATOM     26  O   LIG d   1       8.098  -2.423  -5.169  0.00  0.00    -0.491 OA
BRANCH  26  27
ATOM     27  C   LIG d   1       7.560  -2.794  -6.440  0.00  0.00     0.079 C 
ATOM     28  H   LIG d   1       6.933  -3.677  -6.325  0.00  0.00     0.066 H 
ATOM     29  H   LIG d   1       6.962  -1.972  -6.834  0.00  0.00     0.066 H 
ATOM     30  H   LIG d   1       8.375  -3.013  -7.129  0.00  0.00     0.066 H 
ENDBRANCH  26  27
ENDBRANCH   1  26
TORSDOF 6
ENDMDL
MODEL 3
REMARK VINA RESULT:      -4.6      1.116      4.214
REMARK  6 active torsions:
REMARK  status: ('A' for Active; 'I' for Inactive)
REMARK    1  A    between atoms: C_1  and  O_2 
REMARK    2  A    between atoms: O_2  and  C_3 
REMARK    3  A    between atoms: C_5  and  C_14 
REMARK    4  A    between atoms: C_6  and  O_12 
REMARK    5  A    between atoms: O_12  and  C_13 
REMARK    6  A    between atoms: C_14  and  C_15 
ROOT
ATOM      1  C   LIG d   1       3.381  -0.085  -4.592  0.00  0.00     0.166 A 
ATOM      2  C   LIG d   1       2.795   0.417  -5.742  0.00  0.00    -0.009 A 
ATOM      3  C   LIG d   1       3.247   0.013  -6.985  0.00  0.00     0.005 A 
ATOM      4  C   LIG d   1       4.288  -0.895  -7.084  0.00  0.00     0.169 A 
ATOM      5  C   LIG d   1       4.880  -1.403  -5.935  0.00  0.00     0.211 A 
ATOM      6  C   LIG d   1       4.431  -0.993  -4.685  0.00  0.00     0.211 A 
ATOM      7  O   LIG d   1       5.171  -1.622  -3.725  0.00  0.00    -0.449 OA
ATOM      8  C   LIG d   1       5.810  -2.725  -4.394  0.00  0.00     0.234 C 
ATOM      9  O   LIG d   1       5.902  -2.294  -5.760  0.00  0.00    -0.449 OA
ATOM     10  H   LIG d   1       1.982   1.125  -5.668  0.00  0.00     0.066 H 
ATOM     11  H   LIG d   1       6.799  -2.906  -3.975  0.00  0.00     0.117 H 
ATOM     12  H   LIG d   1       5.194  -3.623  -4.327  0.00  0.00     0.117 H 
ENDROOT
BRANCH   3  13
ATOM     13  C   LIG d   1       2.605   0.562  -8.233  0.00  0.00    -0.006 C 
ATOM     14  H   LIG d   1       2.989   0.031  -9.103  0.00  0.00     0.036 H 
ATOM     15  H   LIG d   1       1.525   0.431  -8.174  0.00  0.00     0.036 H 
BRANCH  13  16
ATOM     16  C   LIG d   1       2.926   2.030  -8.359  0.00  0.00    -0.087 C 
ATOM     17  C   LIG d   1       3.838   2.430  -9.210  0.00  0.00    -0.102 C 
ATOM     18  H   LIG d   1       4.360   1.709  -9.820  0.00  0.00     0.053 H 
ATOM     19  H   LIG d   1       4.068   3.482  -9.299  0.00  0.00     0.053 H 
ATOM     20  H   LIG d   1       2.404   2.751  -7.748  0.00  0.00     0.057 H 
ENDBRANCH  13  16
ENDBRANCH   3  13
BRANCH   4  21
ATOM     21  O   LIG d   1       4.730  -1.291  -8.308  0.00  0.00    -0.491 OA
BRANCH  21  22
ATOM     22  C   LIG d   1       5.937  -0.693  -8.788  0.00  0.00     0.079 C 
ATOM     23  H   LIG d   1       6.200  -1.130  -9.752  0.00  0.00     0.066 H 
ATOM     24  H   LIG d   1       5.791   0.380  -8.903  0.00  0.00     0.066 H 
ATOM     25  H   LIG d   1       6.741  -0.877  -8.074  0.00  0.00     0.066 H 
ENDBRANCH  21  22
ENDBRANCH   4  21
BRANCH   1  26
ATOM     26  O   LIG d   1       2.935   0.315  -3.370  0.00  0.00    -0.491 OA
BRANCH  26  27
ATOM     27  C   LIG d   1       3.683   1.338  -2.710  0.00  0.00     0.079 C 
ATOM     28  H   LIG d   1       3.695   2.235  -3.327  0.00  0.00     0.066 H 
ATOM     29  H   LIG d   1       3.219   1.564  -1.750  0.00  0.00     0.066 H 
ATOM     30  H   LIG d   1       4.704   0.994  -2.548  0.00  0.00     0.066 H 
ENDBRANCH  26  27
ENDBRANCH   1  26
TORSDOF 6
ENDMDL
MODEL 4
REMARK VINA RESULT:      -4.3      1.547      3.750
REMARK  6 active torsions:
REMARK  status: ('A' for Active; 'I' for Inactive)
REMARK    1  A    between atoms: C_1  and  O_2 
REMARK    2  A    between atoms: O_2  and  C_3 
REMARK    3  A    between atoms: C_5  and  C_14 
REMARK    4  A    between atoms: C_6  and  O_12 
REMARK    5  A    between atoms: O_12  and  C_13 
REMARK    6  A    between atoms: C_14  and  C_15 
ROOT
ATOM      1  C   LIG d   1       6.180  -2.548  -4.595  0.00  0.00     0.166 A 
ATOM      2  C   LIG d   1       5.173  -2.214  -3.704  0.00  0.00    -0.009 A 
ATOM      3  C   LIG d   1       4.300  -1.183  -3.997  0.00  0.00     0.005 A 
ATOM      4  C   LIG d   1       4.429  -0.480  -5.183  0.00  0.00     0.169 A 
ATOM      5  C   LIG d   1       5.437  -0.809  -6.082  0.00  0.00     0.211 A 
ATOM      6  C   LIG d   1       6.319  -1.842  -5.784  0.00  0.00     0.211 A 
ATOM      7  O   LIG d   1       7.212  -1.964  -6.811  0.00  0.00    -0.449 OA
ATOM      8  C   LIG d   1       6.621  -1.261  -7.920  0.00  0.00     0.234 C 
ATOM      9  O   LIG d   1       5.773  -0.284  -7.298  0.00  0.00    -0.449 OA
ATOM     10  H   LIG d   1       5.070  -2.761  -2.778  0.00  0.00     0.066 H 
ATOM     11  H   LIG d   1       7.390  -0.781  -8.524  0.00  0.00     0.117 H 
ATOM     12  H   LIG d   1       6.023  -1.940  -8.529  0.00  0.00     0.117 H 
ENDROOT
BRANCH   3  13
ATOM     13  C   LIG d   1       3.206  -0.825  -3.024  0.00  0.00    -0.006 C 
ATOM     14  H   LIG d   1       2.249  -0.809  -3.544  0.00  0.00     0.036 H 
ATOM     15  H   LIG d   1       3.174  -1.565  -2.225  0.00  0.00     0.036 H 
BRANCH  13  16
ATOM     16  C   LIG d   1       3.482   0.536  -2.437  0.00  0.00    -0.087 C 
ATOM     17  C   LIG d   1       4.542   0.723  -1.690  0.00  0.00    -0.102 C 
ATOM     18  H   LIG d   1       5.217  -0.097  -1.495  0.00  0.00     0.053 H 
ATOM     19  H   LIG d   1       4.740   1.698  -1.269  0.00  0.00     0.053 H 
ATOM     20  H   LIG d   1       2.807   1.355  -2.632  0.00  0.00     0.057 H 
ENDBRANCH  13  16
ENDBRANCH   3  13
BRANCH   4  21
ATOM     21  O   LIG d   1       3.568   0.534  -5.470  0.00  0.00    -0.491 OA
BRANCH  21  22
ATOM     22  C   LIG d   1       2.654   0.324  -6.549  0.00  0.00     0.079 C 
ATOM     23  H   LIG d   1       2.875  -0.627  -7.033  0.00  0.00     0.066 H 
ATOM     24  H   LIG d   1       1.634   0.308  -6.164  0.00  0.00     0.066 H 
ATOM     25  H   LIG d   1       2.757   1.133  -7.273  0.00  0.00     0.066 H 
ENDBRANCH  21  22
ENDBRANCH   4  21
BRANCH   1  26
ATOM     26  O   LIG d   1       7.039  -3.562  -4.303  0.00  0.00    -0.491 OA
BRANCH  26  27
ATOM     27  C   LIG d   1       8.309  -3.200  -3.756  0.00  0.00     0.079 C 
ATOM     28  H   LIG d   1       8.950  -2.816  -4.549  0.00  0.00     0.066 H 
ATOM     29  H   LIG d   1       8.171  -2.431  -2.996  0.00  0.00     0.066 H 
ATOM     30  H   LIG d   1       8.773  -4.077  -3.306  0.00  0.00     0.066 H 
ENDBRANCH  26  27
ENDBRANCH   1  26
TORSDOF 6
ENDMDL
MODEL 5
REMARK VINA RESULT:      -4.1      8.727     10.584
REMARK  6 active torsions:
REMARK  status: ('A' for Active; 'I' for Inactive)
REMARK    1  A    between atoms: C_1  and  O_2 
REMARK    2  A    between atoms: O_2  and  C_3 
REMARK    3  A    between atoms: C_5  and  C_14 
REMARK    4  A    between atoms: C_6  and  O_12 
REMARK    5  A    between atoms: O_12  and  C_13 
REMARK    6  A    between atoms: C_14  and  C_15 
ROOT
ATOM      1  C   LIG d   1       9.326   7.391  -1.346  0.00  0.00     0.166 A 
ATOM      2  C   LIG d   1       9.127   7.032  -2.670  0.00  0.00    -0.009 A 
ATOM      3  C   LIG d   1       9.815   5.961  -3.209  0.00  0.00     0.005 A 
ATOM      4  C   LIG d   1      10.706   5.243  -2.428  0.00  0.00     0.169 A 
ATOM      5  C   LIG d   1      10.910   5.597  -1.100  0.00  0.00     0.211 A 
ATOM      6  C   LIG d   1      10.223   6.678  -0.559  0.00  0.00     0.211 A 
ATOM      7  O   LIG d   1      10.598   6.826   0.746  0.00  0.00    -0.449 OA
ATOM      8  C   LIG d   1      11.220   5.579   1.111  0.00  0.00     0.234 C 
ATOM      9  O   LIG d   1      11.715   5.063  -0.134  0.00  0.00    -0.449 OA
ATOM     10  H   LIG d   1       8.433   7.589  -3.281  0.00  0.00     0.066 H 
ATOM     11  H   LIG d   1      12.035   5.749   1.814  0.00  0.00     0.117 H 
ATOM     12  H   LIG d   1      10.485   4.893   1.533  0.00  0.00     0.117 H 
ENDROOT
BRANCH   3  13
ATOM     13  C   LIG d   1       9.595   5.575  -4.650  0.00  0.00    -0.006 C 
ATOM     14  H   LIG d   1      10.430   4.965  -4.993  0.00  0.00     0.036 H 
ATOM     15  H   LIG d   1       8.669   5.006  -4.736  0.00  0.00     0.036 H 
BRANCH  13  16
ATOM     16  C   LIG d   1       9.500   6.819  -5.494  0.00  0.00    -0.087 C 
ATOM     17  C   LIG d   1       9.854   6.784  -6.755  0.00  0.00    -0.102 C 
ATOM     18  H   LIG d   1      10.215   5.863  -7.188  0.00  0.00     0.053 H 
ATOM     19  H   LIG d   1       9.786   7.676  -7.360  0.00  0.00     0.053 H 
ATOM     20  H   LIG d   1       9.140   7.740  -5.061  0.00  0.00     0.057 H 
ENDBRANCH  13  16
ENDBRANCH   3  13
BRANCH   4  21
ATOM     21  O   LIG d   1      11.381   4.189  -2.962  0.00  0.00    -0.491 OA
BRANCH  21  22
ATOM     22  C   LIG d   1      10.828   2.888  -2.749  0.00  0.00     0.079 C 
ATOM     23  H   LIG d   1      10.139   2.649  -3.559  0.00  0.00     0.066 H 
ATOM     24  H   LIG d   1      11.631   2.151  -2.725  0.00  0.00     0.066 H 
ATOM     25  H   LIG d   1      10.292   2.873  -1.799  0.00  0.00     0.066 H 
ENDBRANCH  21  22
ENDBRANCH   4  21
BRANCH   1  26
ATOM     26  O   LIG d   1       8.648   8.446  -0.818  0.00  0.00    -0.491 OA
BRANCH  26  27
ATOM     27  C   LIG d   1       9.203   9.745  -1.029  0.00  0.00     0.079 C 
ATOM     28  H   LIG d   1       8.455  10.502  -0.798  0.00  0.00     0.066 H 
ATOM     29  H   LIG d   1      10.069   9.880  -0.381  0.00  0.00     0.066 H 
ATOM     30  H   LIG d   1       9.510   9.844  -2.071  0.00  0.00     0.066 H 
ENDBRANCH  26  27
ENDBRANCH   1  26
TORSDOF 6
ENDMDL
MODEL 6
REMARK VINA RESULT:      -4.0      3.725      4.989
REMARK  6 active torsions:
REMARK  status: ('A' for Active; 'I' for Inactive)
REMARK    1  A    between atoms: C_1  and  O_2 
REMARK    2  A    between atoms: O_2  and  C_3 
REMARK    3  A    between atoms: C_5  and  C_14 
REMARK    4  A    between atoms: C_6  and  O_12 
REMARK    5  A    between atoms: O_12  and  C_13 
REMARK    6  A    between atoms: C_14  and  C_15 
ROOT
ATOM      1  C   LIG d   1       7.958  -2.784  -4.199  0.00  0.00     0.166 A 
ATOM      2  C   LIG d   1       6.924  -2.258  -3.442  0.00  0.00    -0.009 A 
ATOM      3  C   LIG d   1       6.607  -0.915  -3.537  0.00  0.00     0.005 A 
ATOM      4  C   LIG d   1       7.324  -0.091  -4.390  0.00  0.00     0.169 A 
ATOM      5  C   LIG d   1       8.362  -0.612  -5.153  0.00  0.00     0.211 A 
ATOM      6  C   LIG d   1       8.684  -1.961  -5.053  0.00  0.00     0.211 A 
ATOM      7  O   LIG d   1       9.733  -2.223  -5.888  0.00  0.00    -0.449 OA
ATOM      8  C   LIG d   1       9.788  -1.108  -6.797  0.00  0.00     0.234 C 
ATOM      9  O   LIG d   1       9.206  -0.026  -6.054  0.00  0.00    -0.449 OA
ATOM     10  H   LIG d   1       6.364  -2.898  -2.777  0.00  0.00     0.066 H 
ATOM     11  H   LIG d   1      10.820  -0.884  -7.067  0.00  0.00     0.117 H 
ATOM     12  H   LIG d   1       9.193  -1.310  -7.688  0.00  0.00     0.117 H 
ENDROOT
BRANCH   3  13
ATOM     13  C   LIG d   1       5.482  -0.348  -2.711  0.00  0.00    -0.006 C 
ATOM     14  H   LIG d   1       5.891   0.154  -1.835  0.00  0.00     0.036 H 
ATOM     15  H   LIG d   1       4.917   0.367  -3.309  0.00  0.00     0.036 H 
BRANCH  13  16
ATOM     16  C   LIG d   1       4.570  -1.464  -2.270  0.00  0.00    -0.087 C 
ATOM     17  C   LIG d   1       3.315  -1.471  -2.645  0.00  0.00    -0.102 C 
ATOM     18  H   LIG d   1       2.933  -0.676  -3.267  0.00  0.00     0.053 H 
ATOM     19  H   LIG d   1       2.661  -2.271  -2.329  0.00  0.00     0.053 H 
ATOM     20  H   LIG d   1       4.951  -2.259  -1.647  0.00  0.00     0.057 H 
ENDBRANCH  13  16
ENDBRANCH   3  13
BRANCH   4  21
ATOM     21  O   LIG d   1       7.010   1.229  -4.481  0.00  0.00    -0.491 OA
BRANCH  21  22
ATOM     22  C   LIG d   1       7.945   2.160  -3.930  0.00  0.00     0.079 C 
ATOM     23  H   LIG d   1       7.941   2.077  -2.843  0.00  0.00     0.066 H 
ATOM     24  H   LIG d   1       8.943   1.939  -4.307  0.00  0.00     0.066 H 
ATOM     25  H   LIG d   1       7.662   3.172  -4.219  0.00  0.00     0.066 H 
ENDBRANCH  21  22
ENDBRANCH   4  21
BRANCH   1  26
ATOM     26  O   LIG d   1       8.268  -4.106  -4.104  0.00  0.00    -0.491 OA
BRANCH  26  27
ATOM     27  C   LIG d   1       7.669  -4.983  -5.060  0.00  0.00     0.079 C 
ATOM     28  H   LIG d   1       8.449  -5.495  -5.621  0.00  0.00     0.066 H 
ATOM     29  H   LIG d   1       7.052  -5.717  -4.542  0.00  0.00     0.066 H 
ATOM     30  H   LIG d   1       7.049  -4.404  -5.744  0.00  0.00     0.066 H 
ENDBRANCH  26  27
ENDBRANCH   1  26
TORSDOF 6
ENDMDL
MODEL 7
REMARK VINA RESULT:      -4.0      2.237      2.768
REMARK  6 active torsions:
REMARK  status: ('A' for Active; 'I' for Inactive)
REMARK    1  A    between atoms: C_1  and  O_2 
REMARK    2  A    between atoms: O_2  and  C_3 
REMARK    3  A    between atoms: C_5  and  C_14 
REMARK    4  A    between atoms: C_6  and  O_12 
REMARK    5  A    between atoms: O_12  and  C_13 
REMARK    6  A    between atoms: C_14  and  C_15 
ROOT
ATOM      1  C   LIG d   1       5.331  -0.390  -6.881  0.00  0.00     0.166 A 
ATOM      2  C   LIG d   1       5.708  -0.657  -5.575  0.00  0.00    -0.009 A 
ATOM      3  C   LIG d   1       5.427  -1.887  -5.009  0.00  0.00     0.005 A 
ATOM      4  C   LIG d   1       4.767  -2.857  -5.746  0.00  0.00     0.169 A 
ATOM      5  C   LIG d   1       4.387  -2.595  -7.057  0.00  0.00     0.211 A 
ATOM      6  C   LIG d   1       4.663  -1.357  -7.624  0.00  0.00     0.211 A 
ATOM      7  O   LIG d   1       4.187  -1.346  -8.905  0.00  0.00    -0.449 OA
ATOM      8  C   LIG d   1       3.973  -2.727  -9.247  0.00  0.00     0.234 C 
ATOM      9  O   LIG d   1       3.739  -3.365  -7.982  0.00  0.00    -0.449 OA
ATOM     10  H   LIG d   1       6.223   0.097  -4.998  0.00  0.00     0.066 H 
ATOM     11  H   LIG d   1       3.108  -2.831  -9.901  0.00  0.00     0.117 H 
ATOM     12  H   LIG d   1       4.862  -3.148  -9.717  0.00  0.00     0.117 H 
ENDROOT
BRANCH   3  13
ATOM     13  C   LIG d   1       5.840  -2.172  -3.587  0.00  0.00    -0.006 C 
ATOM     14  H   LIG d   1       5.807  -3.246  -3.409  0.00  0.00     0.036 H 
ATOM     15  H   LIG d   1       6.853  -1.806  -3.423  0.00  0.00     0.036 H 
BRANCH  13  16
ATOM     16  C   LIG d   1       4.895  -1.476  -2.641  0.00  0.00    -0.087 C 
ATOM     17  C   LIG d   1       3.766  -2.048  -2.305  0.00  0.00    -0.102 C 
ATOM     18  H   LIG d   1       3.511  -3.017  -2.707  0.00  0.00     0.053 H 
ATOM     19  H   LIG d   1       3.088  -1.549  -1.627  0.00  0.00     0.053 H 
ATOM     20  H   LIG d   1       5.149  -0.506  -2.240  0.00  0.00     0.057 H 
ENDBRANCH  13  16
ENDBRANCH   3  13
BRANCH   4  21
ATOM     21  O   LIG d   1       4.493  -4.066  -5.187  0.00  0.00    -0.491 OA
BRANCH  21  22
ATOM     22  C   LIG d   1       5.312  -5.167  -5.586  0.00  0.00     0.079 C 
ATOM     23  H   LIG d   1       4.701  -5.903  -6.109  0.00  0.00     0.066 H 
ATOM     24  H   LIG d   1       6.100  -4.813  -6.249  0.00  0.00     0.066 H 
ATOM     25  H   LIG d   1       5.757  -5.626  -4.703  0.00  0.00     0.066 H 
ENDBRANCH  21  22
ENDBRANCH   4  21
BRANCH   1  26
ATOM     26  O   LIG d   1       5.608   0.822  -7.435  0.00  0.00    -0.491 OA
BRANCH  26  27
ATOM     27  C   LIG d   1       6.915   0.999  -7.986  0.00  0.00     0.079 C 
ATOM     28  H   LIG d   1       7.317   1.959  -7.665  0.00  0.00     0.066 H 
ATOM     29  H   LIG d   1       7.567   0.198  -7.639  0.00  0.00     0.066 H 
ATOM     30  H   LIG d   1       6.856   0.975  -9.074  0.00  0.00     0.066 H 
ENDBRANCH  26  27
ENDBRANCH   1  26
TORSDOF 6
ENDMDL
MODEL 8
REMARK VINA RESULT:      -3.9      9.513     11.480
REMARK  6 active torsions:
REMARK  status: ('A' for Active; 'I' for Inactive)
REMARK    1  A    between atoms: C_1  and  O_2 
REMARK    2  A    between atoms: O_2  and  C_3 
REMARK    3  A    between atoms: C_5  and  C_14 
REMARK    4  A    between atoms: C_6  and  O_12 
REMARK    5  A    between atoms: O_12  and  C_13 
REMARK    6  A    between atoms: C_14  and  C_15 
ROOT
ATOM      1  C   LIG d   1      10.026   5.815  -2.415  0.00  0.00     0.166 A 
ATOM      2  C   LIG d   1       9.961   6.559  -3.582  0.00  0.00    -0.009 A 
ATOM      3  C   LIG d   1      10.145   7.929  -3.544  0.00  0.00     0.005 A 
ATOM      4  C   LIG d   1      10.395   8.562  -2.337  0.00  0.00     0.169 A 
ATOM      5  C   LIG d   1      10.462   7.822  -1.163  0.00  0.00     0.211 A 
ATOM      6  C   LIG d   1      10.271   6.445  -1.201  0.00  0.00     0.211 A 
ATOM      7  O   LIG d   1      10.378   5.954   0.069  0.00  0.00    -0.449 OA
ATOM      8  C   LIG d   1      11.033   6.988   0.827  0.00  0.00     0.234 C 
ATOM      9  O   LIG d   1      10.693   8.196   0.131  0.00  0.00    -0.449 OA
ATOM     10  H   LIG d   1       9.767   6.068  -4.524  0.00  0.00     0.066 H 
ATOM     11  H   LIG d   1      10.658   7.009   1.850  0.00  0.00     0.117 H 
ATOM     12  H   LIG d   1      12.114   6.844   0.818  0.00  0.00     0.117 H 
ENDROOT
BRANCH   3  13
ATOM     13  C   LIG d   1      10.072   8.733  -4.816  0.00  0.00    -0.006 C 
ATOM     14  H   LIG d   1       9.628   9.705  -4.606  0.00  0.00     0.036 H 
ATOM     15  H   LIG d   1      11.077   8.871  -5.217  0.00  0.00     0.036 H 
BRANCH  13  16
ATOM     16  C   LIG d   1       9.226   8.001  -5.826  0.00  0.00    -0.087 C 
ATOM     17  C   LIG d   1       9.232   8.377  -7.081  0.00  0.00    -0.102 C 
ATOM     18  H   LIG d   1       9.842   9.211  -7.391  0.00  0.00     0.053 H 
ATOM     19  H   LIG d   1       8.625   7.852  -7.804  0.00  0.00     0.053 H 
ATOM     20  H   LIG d   1       8.615   7.167  -5.515  0.00  0.00     0.057 H 
ENDBRANCH  13  16
ENDBRANCH   3  13
BRANCH   4  21
ATOM     21  O   LIG d   1      10.576   9.910  -2.303  0.00  0.00    -0.491 OA
BRANCH  21  22
ATOM     22  C   LIG d   1       9.461  10.705  -1.889  0.00  0.00     0.079 C 
ATOM     23  H   LIG d   1       9.803  11.479  -1.202  0.00  0.00     0.066 H 
ATOM     24  H   LIG d   1       9.002  11.169  -2.762  0.00  0.00     0.066 H 
ATOM     25  H   LIG d   1       8.730  10.070  -1.388  0.00  0.00     0.066 H 
ENDBRANCH  21  22
ENDBRANCH   4  21
BRANCH   1  26
ATOM     26  O   LIG d   1       9.844   4.467  -2.456  0.00  0.00    -0.491 OA
BRANCH  26  27
ATOM     27  C   LIG d   1      10.984   3.668  -2.783  0.00  0.00     0.079 C 
ATOM     28  H   LIG d   1      11.763   3.824  -2.037  0.00  0.00     0.066 H 
ATOM     29  H   LIG d   1      10.699   2.617  -2.795  0.00  0.00     0.066 H 
ATOM     30  H   LIG d   1      11.359   3.955  -3.765  0.00  0.00     0.066 H 
ENDBRANCH  26  27
ENDBRANCH   1  26
TORSDOF 6
ENDMDL
MODEL 9
REMARK VINA RESULT:      -3.9      9.347     10.907
REMARK  6 active torsions:
REMARK  status: ('A' for Active; 'I' for Inactive)
REMARK    1  A    between atoms: C_1  and  O_2 
REMARK    2  A    between atoms: O_2  and  C_3 
REMARK    3  A    between atoms: C_5  and  C_14 
REMARK    4  A    between atoms: C_6  and  O_12 
REMARK    5  A    between atoms: O_12  and  C_13 
REMARK    6  A    between atoms: C_14  and  C_15 
ROOT
ATOM      1  C   LIG d   1      10.004   8.082  -3.561  0.00  0.00     0.166 A 
ATOM      2  C   LIG d   1      10.080   6.698  -3.546  0.00  0.00    -0.009 A 
ATOM      3  C   LIG d   1      10.163   6.021  -2.343  0.00  0.00     0.005 A 
ATOM      4  C   LIG d   1      10.171   6.724  -1.149  0.00  0.00     0.169 A 
ATOM      5  C   LIG d   1      10.095   8.112  -1.158  0.00  0.00     0.211 A 
ATOM      6  C   LIG d   1      10.017   8.793  -2.367  0.00  0.00     0.211 A 
ATOM      7  O   LIG d   1       9.960  10.134  -2.111  0.00  0.00    -0.449 OA
ATOM      8  C   LIG d   1       9.599  10.244  -0.722  0.00  0.00     0.234 C 
ATOM      9  O   LIG d   1      10.082   9.024  -0.140  0.00  0.00    -0.449 OA
ATOM     10  H   LIG d   1      10.074   6.147  -4.474  0.00  0.00     0.066 H 
ATOM     11  H   LIG d   1      10.081  11.110  -0.268  0.00  0.00     0.117 H 
ATOM     12  H   LIG d   1       8.516  10.307  -0.611  0.00  0.00     0.117 H 
ENDROOT
BRANCH   3  13
ATOM     13  C   LIG d   1      10.246   4.516  -2.331  0.00  0.00    -0.006 C 
ATOM     14  H   LIG d   1      11.286   4.211  -2.228  0.00  0.00     0.036 H 
ATOM     15  H   LIG d   1       9.667   4.127  -1.494  0.00  0.00     0.036 H 
BRANCH  13  16
ATOM     16  C   LIG d   1       9.688   3.973  -3.622  0.00  0.00    -0.087 C 
ATOM     17  C   LIG d   1       9.139   2.784  -3.648  0.00  0.00    -0.102 C 
ATOM     18  H   LIG d   1       9.087   2.193  -2.747  0.00  0.00     0.053 H 
ATOM     19  H   LIG d   1       8.740   2.394  -4.574  0.00  0.00     0.053 H 
ATOM     20  H   LIG d   1       9.741   4.563  -4.524  0.00  0.00     0.057 H 
ENDBRANCH  13  16
ENDBRANCH   3  13
BRANCH   4  21
ATOM     21  O   LIG d   1      10.252   6.055   0.033  0.00  0.00    -0.491 OA
BRANCH  21  22
ATOM     22  C   LIG d   1      11.537   5.994   0.658  0.00  0.00     0.079 C 
ATOM     23  H   LIG d   1      11.491   6.487   1.629  0.00  0.00     0.066 H 
ATOM     24  H   LIG d   1      11.827   4.953   0.792  0.00  0.00     0.066 H 
ATOM     25  H   LIG d   1      12.270   6.499   0.029  0.00  0.00     0.066 H 
ENDBRANCH  21  22
ENDBRANCH   4  21
BRANCH   1  26
ATOM     26  O   LIG d   1       9.923   8.745  -4.747  0.00  0.00    -0.491 OA
BRANCH  26  27
ATOM     27  C   LIG d   1       9.246   8.082  -5.816  0.00  0.00     0.079 C 
ATOM     28  H   LIG d   1       8.826   7.145  -5.454  0.00  0.00     0.066 H 
ATOM     29  H   LIG d   1       8.444   8.720  -6.189  0.00  0.00     0.066 H 
ATOM     30  H   LIG d   1       9.952   7.877  -6.621  0.00  0.00     0.066 H 
ENDBRANCH  26  27
ENDBRANCH   1  26
TORSDOF 6
ENDMDL
MODEL 10
REMARK VINA RESULT:      -3.9      3.005      4.721
REMARK  6 active torsions:
REMARK  status: ('A' for Active; 'I' for Inactive)
REMARK    1  A    between atoms: C_1  and  O_2 
REMARK    2  A    between atoms: O_2  and  C_3 
REMARK    3  A    between atoms: C_5  and  C_14 
REMARK    4  A    between atoms: C_6  and  O_12 
REMARK    5  A    between atoms: O_12  and  C_13 
REMARK    6  A    between atoms: C_14  and  C_15 
ROOT
ATOM      1  C   LIG d   1       2.329  -1.364 -10.768  0.00  0.00     0.166 A 
ATOM      2  C   LIG d   1       2.328  -0.054 -10.316  0.00  0.00    -0.009 A 
ATOM      3  C   LIG d   1       2.781   0.242  -9.044  0.00  0.00     0.005 A 
ATOM      4  C   LIG d   1       3.235  -0.771  -8.215  0.00  0.00     0.169 A 
ATOM      5  C   LIG d   1       3.239  -2.087  -8.662  0.00  0.00     0.211 A 
ATOM      6  C   LIG d   1       2.779  -2.385  -9.939  0.00  0.00     0.211 A 
ATOM      7  O   LIG d   1       2.876  -3.734 -10.136  0.00  0.00    -0.449 OA
ATOM      8  C   LIG d   1       3.774  -4.206  -9.115  0.00  0.00     0.234 C 
ATOM      9  O   LIG d   1       3.630  -3.248  -8.056  0.00  0.00    -0.449 OA
ATOM     10  H   LIG d   1       1.975   0.738 -10.960  0.00  0.00     0.066 H 
ATOM     11  H   LIG d   1       3.484  -5.202  -8.780  0.00  0.00     0.117 H 
ATOM     12  H   LIG d   1       4.802  -4.208  -9.479  0.00  0.00     0.117 H 
ENDROOT
BRANCH   3  13
ATOM     13  C   LIG d   1       2.778   1.669  -8.558  0.00  0.00    -0.006 C 
ATOM     14  H   LIG d   1       1.773   2.080  -8.644  0.00  0.00     0.036 H 
ATOM     15  H   LIG d   1       3.095   1.698  -7.515  0.00  0.00     0.036 H 
BRANCH  13  16
ATOM     16  C   LIG d   1       3.730   2.486  -9.394  0.00  0.00    -0.087 C 
ATOM     17  C   LIG d   1       5.022   2.379  -9.207  0.00  0.00    -0.102 C 
ATOM     18  H   LIG d   1       5.405   1.707  -8.455  0.00  0.00     0.053 H 
ATOM     19  H   LIG d   1       5.704   2.964  -9.807  0.00  0.00     0.053 H 
ATOM     20  H   LIG d   1       3.347   3.158 -10.146  0.00  0.00     0.057 H 
ENDBRANCH  13  16
ENDBRANCH   3  13
BRANCH   4  21
ATOM     21  O   LIG d   1       3.680  -0.477  -6.964  0.00  0.00    -0.491 OA
BRANCH  21  22
ATOM     22  C   LIG d   1       5.096  -0.466  -6.764  0.00  0.00     0.079 C 
ATOM     23  H   LIG d   1       5.479  -1.484  -6.826  0.00  0.00     0.066 H 
ATOM     24  H   LIG d   1       5.567   0.148  -7.531  0.00  0.00     0.066 H 
ATOM     25  H   LIG d   1       5.319  -0.053  -5.779  0.00  0.00     0.066 H 
ENDBRANCH  21  22
ENDBRANCH   4  21
BRANCH   1  26
ATOM     26  O   LIG d   1       1.882  -1.652 -12.021  0.00  0.00    -0.491 OA
BRANCH  26  27
ATOM     27  C   LIG d   1       2.828  -1.544 -13.087  0.00  0.00     0.079 C 
ATOM     28  H   LIG d   1       3.838  -1.575 -12.681  0.00  0.00     0.066 H 
ATOM     29  H   LIG d   1       2.689  -2.373 -13.781  0.00  0.00     0.066 H 
ATOM     30  H   LIG d   1       2.676  -0.601 -13.612  0.00  0.00     0.066 H 
ENDBRANCH  26  27
ENDBRANCH   1  26
TORSDOF 6
ENDMDL
