MODEL 1
REMARK VINA RESULT:      -6.6      0.000      0.000
REMARK  7 active torsions:
REMARK  status: ('A' for Active; 'I' for Inactive)
REMARK    1  A    between atoms: C_1  and  C_2 
REMARK    2  A    between atoms: C_2  and  O_4 
REMARK    3  A    between atoms: O_4  and  C_5 
REMARK    4  A    between atoms: C_11  and  C_32 
REMARK    5  A    between atoms: C_22  and  C_31 
REMARK    6  A    between atoms: C_25  and  C_28 
REMARK    7  A    between atoms: C_28  and  C_29 
ROOT
ATOM      1  C   LIG d   1       6.486  -7.640  -4.948  0.00  0.00     0.109 C 
ATOM      2  H   LIG d   1       5.756  -7.152  -4.303  0.00  0.00     0.074 H 
ATOM      3  C   LIG d   1       7.903  -7.485  -4.360  0.00  0.00    -0.015 C 
ATOM      4  C   LIG d   1       8.729  -6.701  -5.404  0.00  0.00    -0.046 C 
ATOM      5  C   LIG d   1       7.653  -5.915  -6.212  0.00  0.00    -0.029 C 
ATOM      6  H   LIG d   1       8.017  -5.603  -7.191  0.00  0.00     0.031 H 
ATOM      7  C   LIG d   1       6.525  -6.954  -6.319  0.00  0.00     0.008 C 
ATOM      8  C   LIG d   1       5.197  -6.339  -6.701  0.00  0.00    -0.044 C 
ATOM      9  C   LIG d   1       4.824  -5.186  -5.796  0.00  0.00    -0.049 C 
ATOM     10  C   LIG d   1       5.924  -4.114  -5.838  0.00  0.00    -0.032 C 
ATOM     11  H   LIG d   1       6.047  -3.762  -6.863  0.00  0.00     0.031 H 
ATOM     12  C   LIG d   1       7.231  -4.719  -5.349  0.00  0.00    -0.034 C 
ATOM     13  H   LIG d   1       7.099  -5.058  -4.322  0.00  0.00     0.031 H 
ATOM     14  C   LIG d   1       8.363  -3.690  -5.387  0.00  0.00    -0.049 C 
ATOM     15  C   LIG d   1       7.891  -2.324  -4.912  0.00  0.00    -0.049 C 
ATOM     16  C   LIG d   1       6.647  -2.515  -4.052  0.00  0.00    -0.035 C 
ATOM     17  H   LIG d   1       6.849  -3.296  -3.320  0.00  0.00     0.031 H 
ATOM     18  C   LIG d   1       5.490  -2.954  -4.951  0.00  0.00    -0.026 C 
ATOM     19  C   LIG d   1       4.311  -3.324  -4.052  0.00  0.00    -0.047 C 
ATOM     20  C   LIG d   1       3.867  -2.052  -3.311  0.00  0.00    -0.049 C 
ATOM     21  C   LIG d   1       5.020  -1.536  -2.451  0.00  0.00    -0.036 C 
ATOM     22  H   LIG d   1       5.282  -2.291  -1.711  0.00  0.00     0.030 H 
ATOM     23  C   LIG d   1       6.245  -1.236  -3.324  0.00  0.00    -0.046 C 
ATOM     24  H   LIG d   1       7.861  -6.930  -3.423  0.00  0.00     0.030 H 
ATOM     25  H   LIG d   1       8.348  -8.466  -4.192  0.00  0.00     0.030 H 
ATOM     26  H   LIG d   1       9.416  -6.014  -4.910  0.00  0.00     0.027 H 
ATOM     27  H   LIG d   1       9.273  -7.385  -6.054  0.00  0.00     0.027 H 
ATOM     28  H   LIG d   1       5.264  -5.940  -7.713  0.00  0.00     0.027 H 
ATOM     29  H   LIG d   1       4.424  -7.107  -6.670  0.00  0.00     0.027 H 
ATOM     30  H   LIG d   1       4.732  -5.574  -4.782  0.00  0.00     0.027 H 
ATOM     31  H   LIG d   1       3.876  -4.748  -6.109  0.00  0.00     0.027 H 
ATOM     32  H   LIG d   1       9.168  -4.022  -4.732  0.00  0.00     0.027 H 
ATOM     33  H   LIG d   1       8.742  -3.614  -6.406  0.00  0.00     0.027 H 
ATOM     34  H   LIG d   1       7.647  -1.711  -5.780  0.00  0.00     0.027 H 
ATOM     35  H   LIG d   1       8.671  -1.837  -4.326  0.00  0.00     0.027 H 
ATOM     36  H   LIG d   1       3.484  -3.691  -4.661  0.00  0.00     0.027 H 
ATOM     37  H   LIG d   1       4.616  -4.092  -3.342  0.00  0.00     0.027 H 
ATOM     38  H   LIG d   1       3.016  -2.287  -2.671  0.00  0.00     0.027 H 
ATOM     39  H   LIG d   1       3.579  -1.285  -4.029  0.00  0.00     0.027 H 
ATOM     40  H   LIG d   1       7.068  -0.898  -2.695  0.00  0.00     0.027 H 
ATOM     41  H   LIG d   1       5.995  -0.463  -4.051  0.00  0.00     0.027 H 
ENDROOT
BRANCH   1  42
ATOM     42  O   LIG d   1       6.159  -9.047  -5.100  0.00  0.00    -0.461 OA
BRANCH  42  43
ATOM     43  C   LIG d   1       5.144  -9.520  -4.359  0.00  0.00     0.304 C 
ATOM     44  O   LIG d   1       4.002  -9.312  -4.695  0.00  0.00    -0.251 OA
BRANCH  43  45
ATOM     45  C   LIG d   1       5.429 -10.307  -3.106  0.00  0.00     0.033 C 
ATOM     46  H   LIG d   1       6.209  -9.806  -2.532  0.00  0.00     0.034 H 
ATOM     47  H   LIG d   1       4.523 -10.376  -2.506  0.00  0.00     0.034 H 
ATOM     48  H   LIG d   1       5.765 -11.309  -3.375  0.00  0.00     0.034 H 
ENDBRANCH  43  45
ENDBRANCH  42  43
ENDBRANCH   1  42
BRANCH   7  49
ATOM     49  C   LIG d   1       6.900  -7.987  -7.383  0.00  0.00    -0.056 C 
ATOM     50  H   LIG d   1       6.776  -8.990  -6.975  0.00  0.00     0.024 H 
ATOM     51  H   LIG d   1       6.253  -7.866  -8.252  0.00  0.00     0.024 H 
ATOM     52  H   LIG d   1       7.939  -7.841  -7.681  0.00  0.00     0.024 H 
ENDBRANCH   7  49
BRANCH  18  53
ATOM     53  C   LIG d   1       5.083  -1.777  -5.841  0.00  0.00    -0.059 C 
ATOM     54  H   LIG d   1       4.689  -2.155  -6.785  0.00  0.00     0.024 H 
ATOM     55  H   LIG d   1       4.317  -1.189  -5.337  0.00  0.00     0.024 H 
ATOM     56  H   LIG d   1       5.953  -1.151  -6.036  0.00  0.00     0.024 H 
ENDBRANCH  18  53
BRANCH  21  57
ATOM     57  C   LIG d   1       4.583  -0.256  -1.735  0.00  0.00    -0.010 C 
ATOM     58  H   LIG d   1       3.524  -0.323  -1.486  0.00  0.00     0.033 H 
ATOM     59  H   LIG d   1       5.164  -0.134  -0.821  0.00  0.00     0.033 H 
BRANCH  57  60
ATOM     60  C   LIG d   1       4.813   0.928  -2.638  0.00  0.00     0.042 C 
ATOM     61  O   LIG d   1       5.829   1.574  -2.540  0.00  0.00    -0.550 OA
ATOM     62  O   LIG d   1       3.889   1.266  -3.551  0.00  0.00    -0.550 OA
ENDBRANCH  57  60
ENDBRANCH  21  57
TORSDOF 7
ENDMDL
MODEL 2
REMARK VINA RESULT:      -6.3      7.916     12.981
REMARK  7 active torsions:
REMARK  status: ('A' for Active; 'I' for Inactive)
REMARK    1  A    between atoms: C_1  and  C_2 
REMARK    2  A    between atoms: C_2  and  O_4 
REMARK    3  A    between atoms: O_4  and  C_5 
REMARK    4  A    between atoms: C_11  and  C_32 
REMARK    5  A    between atoms: C_22  and  C_31 
REMARK    6  A    between atoms: C_25  and  C_28 
REMARK    7  A    between atoms: C_28  and  C_29 
ROOT
ATOM      1  C   LIG d   1      10.750   7.792  -0.290  0.00  0.00     0.109 C 
ATOM      2  H   LIG d   1      10.500   6.737  -0.174  0.00  0.00     0.074 H 
ATOM      3  C   LIG d   1       9.533   8.571  -0.827  0.00  0.00    -0.015 C 
ATOM      4  C   LIG d   1       9.958   9.168  -2.187  0.00  0.00    -0.046 C 
ATOM      5  C   LIG d   1      11.108   8.228  -2.661  0.00  0.00    -0.029 C 
ATOM      6  H   LIG d   1      11.748   8.701  -3.406  0.00  0.00     0.031 H 
ATOM      7  C   LIG d   1      11.853   7.962  -1.343  0.00  0.00     0.008 C 
ATOM      8  C   LIG d   1      12.774   6.765  -1.422  0.00  0.00    -0.044 C 
ATOM      9  C   LIG d   1      12.058   5.532  -1.930  0.00  0.00    -0.049 C 
ATOM     10  C   LIG d   1      11.453   5.814  -3.314  0.00  0.00    -0.032 C 
ATOM     11  H   LIG d   1      12.247   6.099  -4.005  0.00  0.00     0.031 H 
ATOM     12  C   LIG d   1      10.449   6.951  -3.198  0.00  0.00    -0.034 C 
ATOM     13  H   LIG d   1       9.656   6.651  -2.513  0.00  0.00     0.031 H 
ATOM     14  C   LIG d   1       9.829   7.280  -4.557  0.00  0.00    -0.049 C 
ATOM     15  C   LIG d   1       9.514   6.016  -5.346  0.00  0.00    -0.049 C 
ATOM     16  C   LIG d   1       9.395   4.853  -4.369  0.00  0.00    -0.035 C 
ATOM     17  H   LIG d   1       8.738   5.153  -3.553  0.00  0.00     0.031 H 
ATOM     18  C   LIG d   1      10.783   4.538  -3.808  0.00  0.00    -0.026 C 
ATOM     19  C   LIG d   1      10.616   3.506  -2.694  0.00  0.00    -0.047 C 
ATOM     20  C   LIG d   1      10.066   2.216  -3.326  0.00  0.00    -0.049 C 
ATOM     21  C   LIG d   1       8.707   2.502  -3.964  0.00  0.00    -0.036 C 
ATOM     22  H   LIG d   1       8.010   2.830  -3.192  0.00  0.00     0.030 H 
ATOM     23  C   LIG d   1       8.836   3.597  -5.029  0.00  0.00    -0.046 C 
ATOM     24  H   LIG d   1       8.687   7.896  -0.963  0.00  0.00     0.030 H 
ATOM     25  H   LIG d   1       9.265   9.370  -0.136  0.00  0.00     0.030 H 
ATOM     26  H   LIG d   1       9.127   9.142  -2.893  0.00  0.00     0.027 H 
ATOM     27  H   LIG d   1      10.322  10.186  -2.061  0.00  0.00     0.027 H 
ATOM     28  H   LIG d   1      13.579   6.977  -2.124  0.00  0.00     0.027 H 
ATOM     29  H   LIG d   1      13.199   6.573  -0.437  0.00  0.00     0.027 H 
ATOM     30  H   LIG d   1      11.262   5.293  -1.225  0.00  0.00     0.027 H 
ATOM     31  H   LIG d   1      12.751   4.692  -2.000  0.00  0.00     0.027 H 
ATOM     32  H   LIG d   1       8.900   7.827  -4.402  0.00  0.00     0.027 H 
ATOM     33  H   LIG d   1      10.519   7.904  -5.124  0.00  0.00     0.027 H 
ATOM     34  H   LIG d   1      10.326   5.826  -6.048  0.00  0.00     0.027 H 
ATOM     35  H   LIG d   1       8.578   6.136  -5.892  0.00  0.00     0.027 H 
ATOM     36  H   LIG d   1      11.584   3.296  -2.237  0.00  0.00     0.027 H 
ATOM     37  H   LIG d   1       9.926   3.884  -1.940  0.00  0.00     0.027 H 
ATOM     38  H   LIG d   1       9.950   1.457  -2.553  0.00  0.00     0.027 H 
ATOM     39  H   LIG d   1      10.755   1.854  -4.089  0.00  0.00     0.027 H 
ATOM     40  H   LIG d   1       7.855   3.812  -5.454  0.00  0.00     0.027 H 
ATOM     41  H   LIG d   1       9.513   3.264  -5.816  0.00  0.00     0.027 H 
ENDROOT
BRANCH   1  42
ATOM     42  O   LIG d   1      11.179   8.348   0.981  0.00  0.00    -0.461 OA
BRANCH  42  43
ATOM     43  C   LIG d   1      11.284   7.496   2.014  0.00  0.00     0.304 C 
ATOM     44  O   LIG d   1      11.588   7.907   3.108  0.00  0.00    -0.251 OA
BRANCH  43  45
ATOM     45  C   LIG d   1      11.023   6.026   1.806  0.00  0.00     0.033 C 
ATOM     46  H   LIG d   1      10.618   5.596   2.723  0.00  0.00     0.034 H 
ATOM     47  H   LIG d   1      10.307   5.894   0.996  0.00  0.00     0.034 H 
ATOM     48  H   LIG d   1      11.957   5.524   1.552  0.00  0.00     0.034 H 
ENDBRANCH  43  45
ENDBRANCH  42  43
ENDBRANCH   1  42
BRANCH   7  49
ATOM     49  C   LIG d   1      12.693   9.191  -0.990  0.00  0.00    -0.056 C 
ATOM     50  H   LIG d   1      12.281   9.669  -0.101  0.00  0.00     0.024 H 
ATOM     51  H   LIG d   1      13.721   8.885  -0.794  0.00  0.00     0.024 H 
ATOM     52  H   LIG d   1      12.676   9.894  -1.823  0.00  0.00     0.024 H 
ENDBRANCH   7  49
BRANCH  18  53
ATOM     53  C   LIG d   1      11.639   3.930  -4.921  0.00  0.00    -0.059 C 
ATOM     54  H   LIG d   1      11.098   3.986  -5.866  0.00  0.00     0.024 H 
ATOM     55  H   LIG d   1      12.574   4.483  -5.004  0.00  0.00     0.024 H 
ATOM     56  H   LIG d   1      11.853   2.888  -4.687  0.00  0.00     0.024 H 
ENDBRANCH  18  53
BRANCH  21  57
ATOM     57  C   LIG d   1       8.175   1.223  -4.614  0.00  0.00    -0.010 C 
ATOM     58  H   LIG d   1       7.818   1.448  -5.620  0.00  0.00     0.033 H 
ATOM     59  H   LIG d   1       8.975   0.484  -4.671  0.00  0.00     0.033 H 
BRANCH  57  60
ATOM     60  C   LIG d   1       7.041   0.674  -3.790  0.00  0.00     0.042 C 
ATOM     61  O   LIG d   1       7.075  -0.469  -3.401  0.00  0.00    -0.550 OA
ATOM     62  O   LIG d   1       5.992   1.455  -3.485  0.00  0.00    -0.550 OA
ENDBRANCH  57  60
ENDBRANCH  21  57
TORSDOF 7
ENDMDL
MODEL 3
REMARK VINA RESULT:      -6.1      5.867     10.608
REMARK  7 active torsions:
REMARK  status: ('A' for Active; 'I' for Inactive)
REMARK    1  A    between atoms: C_1  and  C_2 
REMARK    2  A    between atoms: C_2  and  O_4 
REMARK    3  A    between atoms: O_4  and  C_5 
REMARK    4  A    between atoms: C_11  and  C_32 
REMARK    5  A    between atoms: C_22  and  C_31 
REMARK    6  A    between atoms: C_25  and  C_28 
REMARK    7  A    between atoms: C_28  and  C_29 
ROOT
ATOM      1  C   LIG d   1       9.759   6.108  -3.655  0.00  0.00     0.109 C 
ATOM      2  H   LIG d   1       9.062   5.412  -3.190  0.00  0.00     0.074 H 
ATOM      3  C   LIG d   1       9.137   6.712  -4.931  0.00  0.00    -0.015 C 
ATOM      4  C   LIG d   1      10.050   6.296  -6.105  0.00  0.00    -0.046 C 
ATOM      5  C   LIG d   1      10.754   5.005  -5.587  0.00  0.00    -0.029 C 
ATOM      6  H   LIG d   1      11.675   4.791  -6.130  0.00  0.00     0.031 H 
ATOM      7  C   LIG d   1      11.021   5.366  -4.116  0.00  0.00     0.008 C 
ATOM      8  C   LIG d   1      11.330   4.157  -3.263  0.00  0.00    -0.044 C 
ATOM      9  C   LIG d   1      10.277   3.079  -3.403  0.00  0.00    -0.049 C 
ATOM     10  C   LIG d   1      10.155   2.659  -4.876  0.00  0.00    -0.032 C 
ATOM     11  H   LIG d   1      11.119   2.290  -5.228  0.00  0.00     0.031 H 
ATOM     12  C   LIG d   1       9.739   3.862  -5.708  0.00  0.00    -0.034 C 
ATOM     13  H   LIG d   1       8.770   4.216  -5.353  0.00  0.00     0.031 H 
ATOM     14  C   LIG d   1       9.618   3.496  -7.187  0.00  0.00    -0.049 C 
ATOM     15  C   LIG d   1       8.962   2.134  -7.373  0.00  0.00    -0.049 C 
ATOM     16  C   LIG d   1       8.153   1.813  -6.122  0.00  0.00    -0.035 C 
ATOM     17  H   LIG d   1       7.536   2.677  -5.878  0.00  0.00     0.031 H 
ATOM     18  C   LIG d   1       9.120   1.544  -4.967  0.00  0.00    -0.026 C 
ATOM     19  C   LIG d   1       8.297   1.415  -3.686  0.00  0.00    -0.047 C 
ATOM     20  C   LIG d   1       7.391   0.181  -3.832  0.00  0.00    -0.049 C 
ATOM     21  C   LIG d   1       6.453   0.376  -5.022  0.00  0.00    -0.036 C 
ATOM     22  H   LIG d   1       5.822   1.247  -4.842  0.00  0.00     0.030 H 
ATOM     23  C   LIG d   1       7.259   0.592  -6.308  0.00  0.00    -0.046 C 
ATOM     24  H   LIG d   1       8.132   6.316  -5.080  0.00  0.00     0.030 H 
ATOM     25  H   LIG d   1       9.102   7.799  -4.851  0.00  0.00     0.030 H 
ATOM     26  H   LIG d   1       9.456   6.078  -6.993  0.00  0.00     0.027 H 
ATOM     27  H   LIG d   1      10.782   7.074  -6.315  0.00  0.00     0.027 H 
ATOM     28  H   LIG d   1      12.275   3.721  -3.587  0.00  0.00     0.027 H 
ATOM     29  H   LIG d   1      11.416   4.465  -2.221  0.00  0.00     0.027 H 
ATOM     30  H   LIG d   1       9.328   3.493  -3.062  0.00  0.00     0.027 H 
ATOM     31  H   LIG d   1      10.538   2.211  -2.797  0.00  0.00     0.027 H 
ATOM     32  H   LIG d   1       9.005   4.242  -7.691  0.00  0.00     0.027 H 
ATOM     33  H   LIG d   1      10.611   3.489  -7.636  0.00  0.00     0.027 H 
ATOM     34  H   LIG d   1       9.739   1.383  -7.512  0.00  0.00     0.027 H 
ATOM     35  H   LIG d   1       8.305   2.148  -8.242  0.00  0.00     0.027 H 
ATOM     36  H   LIG d   1       8.962   1.272  -2.834  0.00  0.00     0.027 H 
ATOM     37  H   LIG d   1       7.697   2.312  -3.541  0.00  0.00     0.027 H 
ATOM     38  H   LIG d   1       6.801   0.058  -2.923  0.00  0.00     0.027 H 
ATOM     39  H   LIG d   1       7.999  -0.709  -3.991  0.00  0.00     0.027 H 
ATOM     40  H   LIG d   1       6.579   0.760  -7.143  0.00  0.00     0.027 H 
ATOM     41  H   LIG d   1       7.875  -0.287  -6.506  0.00  0.00     0.027 H 
ENDROOT
BRANCH   1  42
ATOM     42  O   LIG d   1      10.111   7.164  -2.722  0.00  0.00    -0.461 OA
BRANCH  42  43
ATOM     43  C   LIG d   1       9.684   7.024  -1.457  0.00  0.00     0.304 C 
ATOM     44  O   LIG d   1       8.647   7.538  -1.108  0.00  0.00    -0.251 OA
BRANCH  43  45
ATOM     45  C   LIG d   1      10.498   6.227  -0.470  0.00  0.00     0.033 C 
ATOM     46  H   LIG d   1       9.830   5.691   0.203  0.00  0.00     0.034 H 
ATOM     47  H   LIG d   1      11.122   5.513  -1.007  0.00  0.00     0.034 H 
ATOM     48  H   LIG d   1      11.131   6.901   0.107  0.00  0.00     0.034 H 
ENDBRANCH  43  45
ENDBRANCH  42  43
ENDBRANCH   1  42
BRANCH   7  49
ATOM     49  C   LIG d   1      12.214   6.321  -4.047  0.00  0.00    -0.056 C 
ATOM     50  H   LIG d   1      11.862   7.349  -4.143  0.00  0.00     0.024 H 
ATOM     51  H   LIG d   1      12.722   6.199  -3.091  0.00  0.00     0.024 H 
ATOM     52  H   LIG d   1      12.907   6.097  -4.858  0.00  0.00     0.024 H 
ENDBRANCH   7  49
BRANCH  18  53
ATOM     53  C   LIG d   1       9.842   0.220  -5.227  0.00  0.00    -0.059 C 
ATOM     54  H   LIG d   1       9.108  -0.564  -5.411  0.00  0.00     0.024 H 
ATOM     55  H   LIG d   1      10.489   0.323  -6.097  0.00  0.00     0.024 H 
ATOM     56  H   LIG d   1      10.443  -0.043  -4.356  0.00  0.00     0.024 H 
ENDBRANCH  18  53
BRANCH  21  57
ATOM     57  C   LIG d   1       5.571  -0.864  -5.179  0.00  0.00    -0.010 C 
ATOM     58  H   LIG d   1       5.633  -1.227  -6.206  0.00  0.00     0.033 H 
ATOM     59  H   LIG d   1       5.915  -1.643  -4.499  0.00  0.00     0.033 H 
BRANCH  57  60
ATOM     60  C   LIG d   1       4.143  -0.510  -4.857  0.00  0.00     0.042 C 
ATOM     61  O   LIG d   1       3.591   0.381  -5.459  0.00  0.00    -0.550 OA
ATOM     62  O   LIG d   1       3.482  -1.183  -3.902  0.00  0.00    -0.550 OA
ENDBRANCH  57  60
ENDBRANCH  21  57
TORSDOF 7
ENDMDL
MODEL 4
REMARK VINA RESULT:      -6.0      3.738      5.986
REMARK  7 active torsions:
REMARK  status: ('A' for Active; 'I' for Inactive)
REMARK    1  A    between atoms: C_1  and  C_2 
REMARK    2  A    between atoms: C_2  and  O_4 
REMARK    3  A    between atoms: O_4  and  C_5 
REMARK    4  A    between atoms: C_11  and  C_32 
REMARK    5  A    between atoms: C_22  and  C_31 
REMARK    6  A    between atoms: C_25  and  C_28 
REMARK    7  A    between atoms: C_28  and  C_29 
ROOT
ATOM      1  C   LIG d   1       3.741  -2.296 -10.058  0.00  0.00     0.109 C 
ATOM      2  H   LIG d   1       3.771  -1.484  -9.332  0.00  0.00     0.074 H 
ATOM      3  C   LIG d   1       2.581  -3.259  -9.732  0.00  0.00    -0.015 C 
ATOM      4  C   LIG d   1       3.219  -4.636  -9.448  0.00  0.00    -0.046 C 
ATOM      5  C   LIG d   1       4.673  -4.287  -9.006  0.00  0.00    -0.029 C 
ATOM      6  H   LIG d   1       5.352  -5.132  -9.116  0.00  0.00     0.031 H 
ATOM      7  C   LIG d   1       5.021  -3.137  -9.966  0.00  0.00     0.008 C 
ATOM      8  C   LIG d   1       6.216  -2.333  -9.507  0.00  0.00    -0.044 C 
ATOM      9  C   LIG d   1       6.064  -1.856  -8.079  0.00  0.00    -0.049 C 
ATOM     10  C   LIG d   1       5.859  -3.060  -7.147  0.00  0.00    -0.032 C 
ATOM     11  H   LIG d   1       6.715  -3.731  -7.230  0.00  0.00     0.031 H 
ATOM     12  C   LIG d   1       4.594  -3.799  -7.554  0.00  0.00    -0.034 C 
ATOM     13  H   LIG d   1       3.745  -3.121  -7.458  0.00  0.00     0.031 H 
ATOM     14  C   LIG d   1       4.355  -5.018  -6.662  0.00  0.00    -0.049 C 
ATOM     15  C   LIG d   1       4.663  -4.709  -5.203  0.00  0.00    -0.049 C 
ATOM     16  C   LIG d   1       4.578  -3.201  -5.000  0.00  0.00    -0.035 C 
ATOM     17  H   LIG d   1       3.646  -2.845  -5.438  0.00  0.00     0.031 H 
ATOM     18  C   LIG d   1       5.756  -2.541  -5.718  0.00  0.00    -0.026 C 
ATOM     19  C   LIG d   1       5.550  -1.028  -5.667  0.00  0.00    -0.047 C 
ATOM     20  C   LIG d   1       5.602  -0.596  -4.192  0.00  0.00    -0.049 C 
ATOM     21  C   LIG d   1       4.482  -1.289  -3.418  0.00  0.00    -0.036 C 
ATOM     22  H   LIG d   1       3.520  -0.985  -3.831  0.00  0.00     0.030 H 
ATOM     23  C   LIG d   1       4.621  -2.812  -3.526  0.00  0.00    -0.046 C 
ATOM     24  H   LIG d   1       2.041  -2.908  -8.852  0.00  0.00     0.030 H 
ATOM     25  H   LIG d   1       1.903  -3.329 -10.582  0.00  0.00     0.030 H 
ATOM     26  H   LIG d   1       2.687  -5.146  -8.645  0.00  0.00     0.027 H 
ATOM     27  H   LIG d   1       3.229  -5.247 -10.350  0.00  0.00     0.027 H 
ATOM     28  H   LIG d   1       7.105  -2.961  -9.539  0.00  0.00     0.027 H 
ATOM     29  H   LIG d   1       6.354  -1.482 -10.175  0.00  0.00     0.027 H 
ATOM     30  H   LIG d   1       5.189  -1.207  -8.035  0.00  0.00     0.027 H 
ATOM     31  H   LIG d   1       6.949  -1.300  -7.768  0.00  0.00     0.027 H 
ATOM     32  H   LIG d   1       3.309  -5.314  -6.736  0.00  0.00     0.027 H 
ATOM     33  H   LIG d   1       4.984  -5.839  -7.003  0.00  0.00     0.027 H 
ATOM     34  H   LIG d   1       5.670  -5.055  -4.973  0.00  0.00     0.027 H 
ATOM     35  H   LIG d   1       3.945  -5.209  -4.552  0.00  0.00     0.027 H 
ATOM     36  H   LIG d   1       6.349  -0.528  -6.215  0.00  0.00     0.027 H 
ATOM     37  H   LIG d   1       4.585  -0.772  -6.104  0.00  0.00     0.027 H 
ATOM     38  H   LIG d   1       5.470   0.485  -4.128  0.00  0.00     0.027 H 
ATOM     39  H   LIG d   1       6.564  -0.869  -3.759  0.00  0.00     0.027 H 
ATOM     40  H   LIG d   1       3.799  -3.293  -2.996  0.00  0.00     0.027 H 
ATOM     41  H   LIG d   1       5.572  -3.124  -3.092  0.00  0.00     0.027 H 
ENDROOT
BRANCH   1  42
ATOM     42  O   LIG d   1       3.586  -1.763 -11.400  0.00  0.00    -0.461 OA
BRANCH  42  43
ATOM     43  C   LIG d   1       3.765  -0.441 -11.554  0.00  0.00     0.304 C 
ATOM     44  O   LIG d   1       4.255  -0.011 -12.571  0.00  0.00    -0.251 OA
BRANCH  43  45
ATOM     45  C   LIG d   1       3.354   0.507 -10.457  0.00  0.00     0.033 C 
ATOM     46  H   LIG d   1       3.866   1.460 -10.589  0.00  0.00     0.034 H 
ATOM     47  H   LIG d   1       2.276   0.664 -10.497  0.00  0.00     0.034 H 
ATOM     48  H   LIG d   1       3.623   0.082  -9.490  0.00  0.00     0.034 H 
ENDBRANCH  43  45
ENDBRANCH  42  43
ENDBRANCH   1  42
BRANCH   7  49
ATOM     49  C   LIG d   1       5.335  -3.719 -11.346  0.00  0.00    -0.056 C 
ATOM     50  H   LIG d   1       6.406  -3.906 -11.426  0.00  0.00     0.024 H 
ATOM     51  H   LIG d   1       4.792  -4.655 -11.478  0.00  0.00     0.024 H 
ATOM     52  H   LIG d   1       5.030  -3.011 -12.117  0.00  0.00     0.024 H 
ENDBRANCH   7  49
BRANCH  18  53
ATOM     53  C   LIG d   1       7.046  -2.889  -4.972  0.00  0.00    -0.059 C 
ATOM     54  H   LIG d   1       7.452  -1.990  -4.508  0.00  0.00     0.024 H 
ATOM     55  H   LIG d   1       6.832  -3.630  -4.202  0.00  0.00     0.024 H 
ATOM     56  H   LIG d   1       7.774  -3.295  -5.674  0.00  0.00     0.024 H 
ENDBRANCH  18  53
BRANCH  21  57
ATOM     57  C   LIG d   1       4.553  -0.877  -1.946  0.00  0.00    -0.010 C 
ATOM     58  H   LIG d   1       3.822  -1.447  -1.373  0.00  0.00     0.033 H 
ATOM     59  H   LIG d   1       5.553  -1.078  -1.561  0.00  0.00     0.033 H 
BRANCH  57  60
ATOM     60  C   LIG d   1       4.253   0.594  -1.822  0.00  0.00     0.042 C 
ATOM     61  O   LIG d   1       5.058   1.333  -1.305  0.00  0.00    -0.550 OA
ATOM     62  O   LIG d   1       3.092   1.085  -2.285  0.00  0.00    -0.550 OA
ENDBRANCH  57  60
ENDBRANCH  21  57
TORSDOF 7
ENDMDL
MODEL 5
REMARK VINA RESULT:      -5.9      5.033      8.900
REMARK  7 active torsions:
REMARK  status: ('A' for Active; 'I' for Inactive)
REMARK    1  A    between atoms: C_1  and  C_2 
REMARK    2  A    between atoms: C_2  and  O_4 
REMARK    3  A    between atoms: O_4  and  C_5 
REMARK    4  A    between atoms: C_11  and  C_32 
REMARK    5  A    between atoms: C_22  and  C_31 
REMARK    6  A    between atoms: C_25  and  C_28 
REMARK    7  A    between atoms: C_28  and  C_29 
ROOT
ATOM      1  C   LIG d   1       4.062  -0.503  -6.868  0.00  0.00     0.109 C 
ATOM      2  H   LIG d   1       3.775  -1.548  -6.756  0.00  0.00     0.074 H 
ATOM      3  C   LIG d   1       2.806   0.390  -6.936  0.00  0.00    -0.015 C 
ATOM      4  C   LIG d   1       2.838   1.088  -8.314  0.00  0.00    -0.046 C 
ATOM      5  C   LIG d   1       3.704   0.135  -9.192  0.00  0.00    -0.029 C 
ATOM      6  H   LIG d   1       4.120   0.641 -10.064  0.00  0.00     0.031 H 
ATOM      7  C   LIG d   1       4.796  -0.295  -8.198  0.00  0.00     0.008 C 
ATOM      8  C   LIG d   1       5.546  -1.528  -8.650  0.00  0.00    -0.044 C 
ATOM      9  C   LIG d   1       4.610  -2.666  -8.995  0.00  0.00    -0.049 C 
ATOM     10  C   LIG d   1       3.633  -2.221 -10.094  0.00  0.00    -0.032 C 
ATOM     11  H   LIG d   1       4.195  -1.916 -10.977  0.00  0.00     0.031 H 
ATOM     12  C   LIG d   1       2.810  -1.046  -9.586  0.00  0.00    -0.034 C 
ATOM     13  H   LIG d   1       2.245  -1.366  -8.710  0.00  0.00     0.031 H 
ATOM     14  C   LIG d   1       1.829  -0.558 -10.653  0.00  0.00    -0.049 C 
ATOM     15  C   LIG d   1       1.184  -1.721 -11.393  0.00  0.00    -0.049 C 
ATOM     16  C   LIG d   1       1.278  -2.963 -10.514  0.00  0.00    -0.035 C 
ATOM     17  H   LIG d   1       0.932  -2.706  -9.514  0.00  0.00     0.031 H 
ATOM     18  C   LIG d   1       2.741  -3.406 -10.443  0.00  0.00    -0.026 C 
ATOM     19  C   LIG d   1       2.842  -4.528  -9.412  0.00  0.00    -0.047 C 
ATOM     20  C   LIG d   1       2.019  -5.720  -9.931  0.00  0.00    -0.049 C 
ATOM     21  C   LIG d   1       0.558  -5.300 -10.086  0.00  0.00    -0.036 C 
ATOM     22  H   LIG d   1       0.163  -5.009  -9.112  0.00  0.00     0.030 H 
ATOM     23  C   LIG d   1       0.441  -4.118 -11.055  0.00  0.00    -0.046 C 
ATOM     24  H   LIG d   1       1.908  -0.222  -6.847  0.00  0.00     0.030 H 
ATOM     25  H   LIG d   1       2.832   1.133  -6.139  0.00  0.00     0.030 H 
ATOM     26  H   LIG d   1       1.831   1.175  -8.722  0.00  0.00     0.027 H 
ATOM     27  H   LIG d   1       3.306   2.068  -8.235  0.00  0.00     0.027 H 
ATOM     28  H   LIG d   1       6.109  -1.295  -9.553  0.00  0.00     0.027 H 
ATOM     29  H   LIG d   1       6.237  -1.835  -7.865  0.00  0.00     0.027 H 
ATOM     30  H   LIG d   1       4.053  -2.926  -8.095  0.00  0.00     0.027 H 
ATOM     31  H   LIG d   1       5.176  -3.532  -9.340  0.00  0.00     0.027 H 
ATOM     32  H   LIG d   1       1.041   0.023 -10.174  0.00  0.00     0.027 H 
ATOM     33  H   LIG d   1       2.360   0.079 -11.361  0.00  0.00     0.027 H 
ATOM     34  H   LIG d   1       1.721  -1.889 -12.326  0.00  0.00     0.027 H 
ATOM     35  H   LIG d   1       0.138  -1.499 -11.606  0.00  0.00     0.027 H 
ATOM     36  H   LIG d   1       3.883  -4.833  -9.299  0.00  0.00     0.027 H 
ATOM     37  H   LIG d   1       2.451  -4.186  -8.454  0.00  0.00     0.027 H 
ATOM     38  H   LIG d   1       2.086  -6.542  -9.217  0.00  0.00     0.027 H 
ATOM     39  H   LIG d   1       2.407  -6.046 -10.895  0.00  0.00     0.027 H 
ATOM     40  H   LIG d   1      -0.602  -3.811 -11.132  0.00  0.00     0.027 H 
ATOM     41  H   LIG d   1       0.813  -4.412 -12.037  0.00  0.00     0.027 H 
ENDROOT
BRANCH   1  42
ATOM     42  O   LIG d   1       4.907  -0.094  -5.759  0.00  0.00    -0.461 OA
BRANCH  42  43
ATOM     43  C   LIG d   1       4.394  -0.221  -4.525  0.00  0.00     0.304 C 
ATOM     44  O   LIG d   1       4.220   0.758  -3.839  0.00  0.00    -0.251 OA
BRANCH  43  45
ATOM     45  C   LIG d   1       4.038  -1.586  -3.994  0.00  0.00     0.033 C 
ATOM     46  H   LIG d   1       3.017  -1.834  -4.285  0.00  0.00     0.034 H 
ATOM     47  H   LIG d   1       4.723  -2.327  -4.406  0.00  0.00     0.034 H 
ATOM     48  H   LIG d   1       4.115  -1.585  -2.907  0.00  0.00     0.034 H 
ENDBRANCH  43  45
ENDBRANCH  42  43
ENDBRANCH   1  42
BRANCH   7  49
ATOM     49  C   LIG d   1       5.802   0.847  -8.039  0.00  0.00    -0.056 C 
ATOM     50  H   LIG d   1       6.243   0.806  -7.043  0.00  0.00     0.024 H 
ATOM     51  H   LIG d   1       6.586   0.748  -8.789  0.00  0.00     0.024 H 
ATOM     52  H   LIG d   1       5.292   1.802  -8.172  0.00  0.00     0.024 H 
ENDBRANCH   7  49
BRANCH  18  53
ATOM     53  C   LIG d   1       3.158  -3.952 -11.810  0.00  0.00    -0.059 C 
ATOM     54  H   LIG d   1       3.204  -5.040 -11.769  0.00  0.00     0.024 H 
ATOM     55  H   LIG d   1       2.429  -3.648 -12.561  0.00  0.00     0.024 H 
ATOM     56  H   LIG d   1       4.138  -3.557 -12.076  0.00  0.00     0.024 H 
ENDBRANCH  18  53
BRANCH  21  57
ATOM     57  C   LIG d   1      -0.251  -6.481 -10.627  0.00  0.00    -0.010 C 
ATOM     58  H   LIG d   1      -0.445  -6.332 -11.689  0.00  0.00     0.033 H 
ATOM     59  H   LIG d   1       0.312  -7.403 -10.487  0.00  0.00     0.033 H 
BRANCH  57  60
ATOM     60  C   LIG d   1      -1.560  -6.575  -9.887  0.00  0.00     0.042 C 
ATOM     61  O   LIG d   1      -2.585  -6.772 -10.495  0.00  0.00    -0.550 OA
ATOM     62  O   LIG d   1      -1.588  -6.439  -8.551  0.00  0.00    -0.550 OA
ENDBRANCH  57  60
ENDBRANCH  21  57
TORSDOF 7
ENDMDL
MODEL 6
REMARK VINA RESULT:      -5.7      5.499      7.484
REMARK  7 active torsions:
REMARK  status: ('A' for Active; 'I' for Inactive)
REMARK    1  A    between atoms: C_1  and  C_2 
REMARK    2  A    between atoms: C_2  and  O_4 
REMARK    3  A    between atoms: O_4  and  C_5 
REMARK    4  A    between atoms: C_11  and  C_32 
REMARK    5  A    between atoms: C_22  and  C_31 
REMARK    6  A    between atoms: C_25  and  C_28 
REMARK    7  A    between atoms: C_28  and  C_29 
ROOT
ATOM      1  C   LIG d   1       3.900   0.240  -7.778  0.00  0.00     0.109 C 
ATOM      2  H   LIG d   1       4.569   1.087  -7.933  0.00  0.00     0.074 H 
ATOM      3  C   LIG d   1       3.069   0.446  -6.496  0.00  0.00    -0.015 C 
ATOM      4  C   LIG d   1       3.428  -0.719  -5.547  0.00  0.00    -0.046 C 
ATOM      5  C   LIG d   1       4.846  -1.159  -6.022  0.00  0.00    -0.029 C 
ATOM      6  H   LIG d   1       5.089  -2.175  -5.709  0.00  0.00     0.031 H 
ATOM      7  C   LIG d   1       4.712  -1.041  -7.549  0.00  0.00     0.008 C 
ATOM      8  C   LIG d   1       6.050  -1.018  -8.254  0.00  0.00    -0.044 C 
ATOM      9  C   LIG d   1       6.975   0.033  -7.680  0.00  0.00    -0.049 C 
ATOM     10  C   LIG d   1       7.183  -0.219  -6.179  0.00  0.00    -0.032 C 
ATOM     11  H   LIG d   1       7.608  -1.213  -6.035  0.00  0.00     0.031 H 
ATOM     12  C   LIG d   1       5.842  -0.134  -5.466  0.00  0.00    -0.034 C 
ATOM     13  H   LIG d   1       5.431   0.866  -5.609  0.00  0.00     0.031 H 
ATOM     14  C   LIG d   1       5.996  -0.394  -3.967  0.00  0.00    -0.049 C 
ATOM     15  C   LIG d   1       7.239   0.285  -3.409  0.00  0.00    -0.049 C 
ATOM     16  C   LIG d   1       7.628   1.425  -4.343  0.00  0.00    -0.035 C 
ATOM     17  H   LIG d   1       6.740   2.021  -4.550  0.00  0.00     0.031 H 
ATOM     18  C   LIG d   1       8.153   0.830  -5.651  0.00  0.00    -0.026 C 
ATOM     19  C   LIG d   1       8.356   1.978  -6.640  0.00  0.00    -0.047 C 
ATOM     20  C   LIG d   1       9.450   2.898  -6.075  0.00  0.00    -0.049 C 
ATOM     21  C   LIG d   1       8.997   3.460  -4.728  0.00  0.00    -0.036 C 
ATOM     22  H   LIG d   1       8.092   4.051  -4.872  0.00  0.00     0.030 H 
ATOM     23  C   LIG d   1       8.707   2.321  -3.743  0.00  0.00    -0.046 C 
ATOM     24  H   LIG d   1       3.326   1.399  -6.032  0.00  0.00     0.030 H 
ATOM     25  H   LIG d   1       2.005   0.422  -6.732  0.00  0.00     0.030 H 
ATOM     26  H   LIG d   1       3.459  -0.375  -4.513  0.00  0.00     0.027 H 
ATOM     27  H   LIG d   1       2.716  -1.536  -5.658  0.00  0.00     0.027 H 
ATOM     28  H   LIG d   1       6.542  -1.981  -8.121  0.00  0.00     0.027 H 
ATOM     29  H   LIG d   1       5.892  -0.840  -9.317  0.00  0.00     0.027 H 
ATOM     30  H   LIG d   1       6.506   1.006  -7.825  0.00  0.00     0.027 H 
ATOM     31  H   LIG d   1       7.939   0.011  -8.190  0.00  0.00     0.027 H 
ATOM     32  H   LIG d   1       5.126   0.003  -3.445  0.00  0.00     0.027 H 
ATOM     33  H   LIG d   1       6.055  -1.468  -3.795  0.00  0.00     0.027 H 
ATOM     34  H   LIG d   1       8.048  -0.444  -3.360  0.00  0.00     0.027 H 
ATOM     35  H   LIG d   1       7.039   0.678  -2.412  0.00  0.00     0.027 H 
ATOM     36  H   LIG d   1       8.682   1.582  -7.602  0.00  0.00     0.027 H 
ATOM     37  H   LIG d   1       7.423   2.527  -6.763  0.00  0.00     0.027 H 
ATOM     38  H   LIG d   1       9.624   3.720  -6.770  0.00  0.00     0.027 H 
ATOM     39  H   LIG d   1      10.374   2.337  -5.940  0.00  0.00     0.027 H 
ATOM     40  H   LIG d   1       8.356   2.735  -2.798  0.00  0.00     0.027 H 
ATOM     41  H   LIG d   1       9.615   1.741  -3.577  0.00  0.00     0.027 H 
ENDROOT
BRANCH   1  42
ATOM     42  O   LIG d   1       3.022   0.079  -8.924  0.00  0.00    -0.461 OA
BRANCH  42  43
ATOM     43  C   LIG d   1       3.272   0.849  -9.995  0.00  0.00     0.304 C 
ATOM     44  O   LIG d   1       3.198   0.380 -11.107  0.00  0.00    -0.251 OA
BRANCH  43  45
ATOM     45  C   LIG d   1       3.647   2.297  -9.811  0.00  0.00     0.033 C 
ATOM     46  H   LIG d   1       4.543   2.516 -10.391  0.00  0.00     0.034 H 
ATOM     47  H   LIG d   1       2.829   2.930 -10.153  0.00  0.00     0.034 H 
ATOM     48  H   LIG d   1       3.841   2.491  -8.756  0.00  0.00     0.034 H 
ENDBRANCH  43  45
ENDBRANCH  42  43
ENDBRANCH   1  42
BRANCH   7  49
ATOM     49  C   LIG d   1       3.914  -2.237  -8.072  0.00  0.00    -0.056 C 
ATOM     50  H   LIG d   1       2.906  -2.210  -7.658  0.00  0.00     0.024 H 
ATOM     51  H   LIG d   1       3.862  -2.192  -9.160  0.00  0.00     0.024 H 
ATOM     52  H   LIG d   1       4.406  -3.162  -7.771  0.00  0.00     0.024 H 
ENDBRANCH   7  49
BRANCH  18  53
ATOM     53  C   LIG d   1       9.504   0.164  -5.384  0.00  0.00    -0.059 C 
ATOM     54  H   LIG d   1      10.181   0.886  -4.927  0.00  0.00     0.024 H 
ATOM     55  H   LIG d   1       9.366  -0.681  -4.710  0.00  0.00     0.024 H 
ATOM     56  H   LIG d   1       9.929  -0.187  -6.324  0.00  0.00     0.024 H 
ENDBRANCH  18  53
BRANCH  21  57
ATOM     57  C   LIG d   1      10.099   4.355  -4.157  0.00  0.00    -0.010 C 
ATOM     58  H   LIG d   1      10.509   3.896  -3.257  0.00  0.00     0.033 H 
ATOM     59  H   LIG d   1      10.892   4.473  -4.896  0.00  0.00     0.033 H 
BRANCH  57  60
ATOM     60  C   LIG d   1       9.525   5.705  -3.816  0.00  0.00     0.042 C 
ATOM     61  O   LIG d   1       9.074   6.407  -4.689  0.00  0.00    -0.550 OA
ATOM     62  O   LIG d   1       9.514   6.128  -2.542  0.00  0.00    -0.550 OA
ENDBRANCH  57  60
ENDBRANCH  21  57
TORSDOF 7
ENDMDL
MODEL 7
REMARK VINA RESULT:      -5.7      5.260      6.823
REMARK  7 active torsions:
REMARK  status: ('A' for Active; 'I' for Inactive)
REMARK    1  A    between atoms: C_1  and  C_2 
REMARK    2  A    between atoms: C_2  and  O_4 
REMARK    3  A    between atoms: O_4  and  C_5 
REMARK    4  A    between atoms: C_11  and  C_32 
REMARK    5  A    between atoms: C_22  and  C_31 
REMARK    6  A    between atoms: C_25  and  C_28 
REMARK    7  A    between atoms: C_28  and  C_29 
ROOT
ATOM      1  C   LIG d   1       0.926  -3.409 -10.737  0.00  0.00     0.109 C 
ATOM      2  H   LIG d   1       0.685  -2.988  -9.761  0.00  0.00     0.074 H 
ATOM      3  C   LIG d   1       1.886  -4.605 -10.579  0.00  0.00    -0.015 C 
ATOM      4  C   LIG d   1       3.180  -4.234 -11.335  0.00  0.00    -0.046 C 
ATOM      5  C   LIG d   1       3.168  -2.675 -11.345  0.00  0.00    -0.029 C 
ATOM      6  H   LIG d   1       3.801  -2.262 -12.131  0.00  0.00     0.031 H 
ATOM      7  C   LIG d   1       1.679  -2.378 -11.587  0.00  0.00     0.008 C 
ATOM      8  C   LIG d   1       1.303  -0.954 -11.245  0.00  0.00    -0.044 C 
ATOM      9  C   LIG d   1       1.740  -0.571  -9.848  0.00  0.00    -0.049 C 
ATOM     10  C   LIG d   1       3.259  -0.755  -9.709  0.00  0.00    -0.032 C 
ATOM     11  H   LIG d   1       3.768  -0.132 -10.446  0.00  0.00     0.031 H 
ATOM     12  C   LIG d   1       3.611  -2.215  -9.951  0.00  0.00    -0.034 C 
ATOM     13  H   LIG d   1       3.105  -2.826  -9.203  0.00  0.00     0.031 H 
ATOM     14  C   LIG d   1       5.119  -2.445  -9.837  0.00  0.00    -0.049 C 
ATOM     15  C   LIG d   1       5.716  -1.664  -8.676  0.00  0.00    -0.049 C 
ATOM     16  C   LIG d   1       4.604  -1.350  -7.682  0.00  0.00    -0.035 C 
ATOM     17  H   LIG d   1       4.049  -2.266  -7.482  0.00  0.00     0.031 H 
ATOM     18  C   LIG d   1       3.664  -0.317  -8.307  0.00  0.00    -0.026 C 
ATOM     19  C   LIG d   1       2.458  -0.159  -7.381  0.00  0.00    -0.047 C 
ATOM     20  C   LIG d   1       2.961   0.417  -6.047  0.00  0.00    -0.049 C 
ATOM     21  C   LIG d   1       3.962  -0.553  -5.420  0.00  0.00    -0.036 C 
ATOM     22  H   LIG d   1       3.464  -1.501  -5.218  0.00  0.00     0.030 H 
ATOM     23  C   LIG d   1       5.143  -0.791  -6.369  0.00  0.00    -0.046 C 
ATOM     24  H   LIG d   1       2.104  -4.773  -9.524  0.00  0.00     0.030 H 
ATOM     25  H   LIG d   1       1.442  -5.501 -11.014  0.00  0.00     0.030 H 
ATOM     26  H   LIG d   1       4.055  -4.606 -10.802  0.00  0.00     0.027 H 
ATOM     27  H   LIG d   1       3.155  -4.624 -12.352  0.00  0.00     0.027 H 
ATOM     28  H   LIG d   1       1.806  -0.274 -11.933  0.00  0.00     0.027 H 
ATOM     29  H   LIG d   1       0.225  -0.833 -11.348  0.00  0.00     0.027 H 
ATOM     30  H   LIG d   1       1.228  -1.228  -9.146  0.00  0.00     0.027 H 
ATOM     31  H   LIG d   1       1.478   0.467  -9.638  0.00  0.00     0.027 H 
ATOM     32  H   LIG d   1       5.306  -3.505  -9.669  0.00  0.00     0.027 H 
ATOM     33  H   LIG d   1       5.597  -2.142 -10.768  0.00  0.00     0.027 H 
ATOM     34  H   LIG d   1       6.143  -0.736  -9.056  0.00  0.00     0.027 H 
ATOM     35  H   LIG d   1       6.492  -2.252  -8.185  0.00  0.00     0.027 H 
ATOM     36  H   LIG d   1       1.742   0.533  -7.824  0.00  0.00     0.027 H 
ATOM     37  H   LIG d   1       1.985  -1.128  -7.223  0.00  0.00     0.027 H 
ATOM     38  H   LIG d   1       2.116   0.552  -5.372  0.00  0.00     0.027 H 
ATOM     39  H   LIG d   1       3.446   1.378  -6.218  0.00  0.00     0.027 H 
ATOM     40  H   LIG d   1       5.832  -1.507  -5.922  0.00  0.00     0.027 H 
ATOM     41  H   LIG d   1       5.659   0.151  -6.555  0.00  0.00     0.027 H 
ENDROOT
BRANCH   1  42
ATOM     42  O   LIG d   1      -0.289  -3.828 -11.415  0.00  0.00    -0.461 OA
BRANCH  42  43
ATOM     43  C   LIG d   1      -0.887  -4.939 -10.959  0.00  0.00     0.304 C 
ATOM     44  O   LIG d   1      -1.401  -4.945  -9.866  0.00  0.00    -0.251 OA
BRANCH  43  45
ATOM     45  C   LIG d   1      -0.918  -6.182 -11.812  0.00  0.00     0.033 C 
ATOM     46  H   LIG d   1      -0.708  -7.053 -11.192  0.00  0.00     0.034 H 
ATOM     47  H   LIG d   1      -1.902  -6.287 -12.266  0.00  0.00     0.034 H 
ATOM     48  H   LIG d   1      -0.162  -6.104 -12.595  0.00  0.00     0.034 H 
ENDBRANCH  43  45
ENDBRANCH  42  43
ENDBRANCH   1  42
BRANCH   7  49
ATOM     49  C   LIG d   1       1.357  -2.619 -13.063  0.00  0.00    -0.056 C 
ATOM     50  H   LIG d   1       0.431  -3.187 -13.145  0.00  0.00     0.024 H 
ATOM     51  H   LIG d   1       1.242  -1.661 -13.571  0.00  0.00     0.024 H 
ATOM     52  H   LIG d   1       2.170  -3.180 -13.525  0.00  0.00     0.024 H 
ENDBRANCH   7  49
BRANCH  18  53
ATOM     53  C   LIG d   1       4.395   1.024  -8.400  0.00  0.00    -0.059 C 
ATOM     54  H   LIG d   1       3.934   1.636  -9.176  0.00  0.00     0.024 H 
ATOM     55  H   LIG d   1       4.329   1.541  -7.443  0.00  0.00     0.024 H 
ATOM     56  H   LIG d   1       5.441   0.851  -8.648  0.00  0.00     0.024 H 
ENDBRANCH  18  53
BRANCH  21  57
ATOM     57  C   LIG d   1       4.480   0.037  -4.106  0.00  0.00    -0.010 C 
ATOM     58  H   LIG d   1       5.364  -0.515  -3.783  0.00  0.00     0.033 H 
ATOM     59  H   LIG d   1       4.741   1.085  -4.255  0.00  0.00     0.033 H 
BRANCH  57  60
ATOM     60  C   LIG d   1       3.410  -0.070  -3.051  0.00  0.00     0.042 C 
ATOM     61  O   LIG d   1       2.753  -1.079  -2.956  0.00  0.00    -0.550 OA
ATOM     62  O   LIG d   1       3.185   0.957  -2.216  0.00  0.00    -0.550 OA
ENDBRANCH  57  60
ENDBRANCH  21  57
TORSDOF 7
ENDMDL
MODEL 8
REMARK VINA RESULT:      -5.7      4.366      6.908
REMARK  7 active torsions:
REMARK  status: ('A' for Active; 'I' for Inactive)
REMARK    1  A    between atoms: C_1  and  C_2 
REMARK    2  A    between atoms: C_2  and  O_4 
REMARK    3  A    between atoms: O_4  and  C_5 
REMARK    4  A    between atoms: C_11  and  C_32 
REMARK    5  A    between atoms: C_22  and  C_31 
REMARK    6  A    between atoms: C_25  and  C_28 
REMARK    7  A    between atoms: C_28  and  C_29 
ROOT
ATOM      1  C   LIG d   1       6.124  -2.980  -4.911  0.00  0.00     0.109 C 
ATOM      2  H   LIG d   1       6.017  -3.249  -5.962  0.00  0.00     0.074 H 
ATOM      3  C   LIG d   1       4.778  -3.157  -4.178  0.00  0.00    -0.015 C 
ATOM      4  C   LIG d   1       4.382  -1.762  -3.644  0.00  0.00    -0.046 C 
ATOM      5  C   LIG d   1       5.134  -0.777  -4.590  0.00  0.00    -0.029 C 
ATOM      6  H   LIG d   1       5.254   0.211  -4.145  0.00  0.00     0.031 H 
ATOM      7  C   LIG d   1       6.481  -1.494  -4.777  0.00  0.00     0.008 C 
ATOM      8  C   LIG d   1       7.261  -0.974  -5.963  0.00  0.00    -0.044 C 
ATOM      9  C   LIG d   1       6.435  -0.973  -7.231  0.00  0.00    -0.049 C 
ATOM     10  C   LIG d   1       5.171  -0.124  -7.027  0.00  0.00    -0.032 C 
ATOM     11  H   LIG d   1       5.457   0.895  -6.766  0.00  0.00     0.031 H 
ATOM     12  C   LIG d   1       4.341  -0.723  -5.901  0.00  0.00    -0.034 C 
ATOM     13  H   LIG d   1       4.053  -1.737  -6.178  0.00  0.00     0.031 H 
ATOM     14  C   LIG d   1       3.076   0.099  -5.652  0.00  0.00    -0.049 C 
ATOM     15  C   LIG d   1       2.437   0.550  -6.958  0.00  0.00    -0.049 C 
ATOM     16  C   LIG d   1       2.908  -0.377  -8.071  0.00  0.00    -0.035 C 
ATOM     17  H   LIG d   1       2.781  -1.408  -7.741  0.00  0.00     0.031 H 
ATOM     18  C   LIG d   1       4.392  -0.113  -8.337  0.00  0.00    -0.026 C 
ATOM     19  C   LIG d   1       4.890  -1.176  -9.314  0.00  0.00    -0.047 C 
ATOM     20  C   LIG d   1       4.139  -0.984 -10.642  0.00  0.00    -0.049 C 
ATOM     21  C   LIG d   1       2.640  -1.169 -10.409  0.00  0.00    -0.036 C 
ATOM     22  H   LIG d   1       2.454  -2.183 -10.053  0.00  0.00     0.030 H 
ATOM     23  C   LIG d   1       2.132  -0.166  -9.367  0.00  0.00    -0.046 C 
ATOM     24  H   LIG d   1       4.020  -3.521  -4.871  0.00  0.00     0.030 H 
ATOM     25  H   LIG d   1       4.892  -3.856  -3.349  0.00  0.00     0.030 H 
ATOM     26  H   LIG d   1       3.304  -1.617  -3.718  0.00  0.00     0.027 H 
ATOM     27  H   LIG d   1       4.716  -1.637  -2.615  0.00  0.00     0.027 H 
ATOM     28  H   LIG d   1       7.554   0.059  -5.774  0.00  0.00     0.027 H 
ATOM     29  H   LIG d   1       8.157  -1.581  -6.098  0.00  0.00     0.027 H 
ATOM     30  H   LIG d   1       6.152  -2.004  -7.445  0.00  0.00     0.027 H 
ATOM     31  H   LIG d   1       7.014  -0.571  -8.062  0.00  0.00     0.027 H 
ATOM     32  H   LIG d   1       2.354  -0.513  -5.111  0.00  0.00     0.027 H 
ATOM     33  H   LIG d   1       3.328   0.969  -5.046  0.00  0.00     0.027 H 
ATOM     34  H   LIG d   1       2.752   1.571  -7.171  0.00  0.00     0.027 H 
ATOM     35  H   LIG d   1       1.350   0.509  -6.880  0.00  0.00     0.027 H 
ATOM     36  H   LIG d   1       5.959  -1.047  -9.486  0.00  0.00     0.027 H 
ATOM     37  H   LIG d   1       4.699  -2.169  -8.909  0.00  0.00     0.027 H 
ATOM     38  H   LIG d   1       4.487  -1.724 -11.363  0.00  0.00     0.027 H 
ATOM     39  H   LIG d   1       4.324   0.016 -11.032  0.00  0.00     0.027 H 
ATOM     40  H   LIG d   1       1.070  -0.329  -9.189  0.00  0.00     0.027 H 
ATOM     41  H   LIG d   1       2.294   0.851  -9.730  0.00  0.00     0.027 H 
ENDROOT
BRANCH   1  42
ATOM     42  O   LIG d   1       7.146  -3.801  -4.285  0.00  0.00    -0.461 OA
BRANCH  42  43
ATOM     43  C   LIG d   1       7.827  -4.638  -5.083  0.00  0.00     0.304 C 
ATOM     44  O   LIG d   1       7.280  -5.610  -5.547  0.00  0.00    -0.251 OA
BRANCH  43  45
ATOM     45  C   LIG d   1       9.275  -4.366  -5.399  0.00  0.00     0.033 C 
ATOM     46  H   LIG d   1       9.345  -3.512  -6.074  0.00  0.00     0.034 H 
ATOM     47  H   LIG d   1       9.813  -4.145  -4.477  0.00  0.00     0.034 H 
ATOM     48  H   LIG d   1       9.714  -5.242  -5.876  0.00  0.00     0.034 H 
ENDBRANCH  43  45
ENDBRANCH  42  43
ENDBRANCH   1  42
BRANCH   7  49
ATOM     49  C   LIG d   1       7.329  -1.297  -3.520  0.00  0.00    -0.056 C 
ATOM     50  H   LIG d   1       8.019  -0.468  -3.674  0.00  0.00     0.024 H 
ATOM     51  H   LIG d   1       6.679  -1.077  -2.673  0.00  0.00     0.024 H 
ATOM     52  H   LIG d   1       7.894  -2.207  -3.316  0.00  0.00     0.024 H 
ENDBRANCH   7  49
BRANCH  18  53
ATOM     53  C   LIG d   1       4.539   1.264  -8.987  0.00  0.00    -0.059 C 
ATOM     54  H   LIG d   1       5.550   1.637  -8.825  0.00  0.00     0.024 H 
ATOM     55  H   LIG d   1       4.349   1.183 -10.057  0.00  0.00     0.024 H 
ATOM     56  H   LIG d   1       3.822   1.955  -8.542  0.00  0.00     0.024 H 
ENDBRANCH  18  53
BRANCH  21  57
ATOM     57  C   LIG d   1       1.893  -0.952 -11.727  0.00  0.00    -0.010 C 
ATOM     58  H   LIG d   1       1.340  -0.014 -11.682  0.00  0.00     0.033 H 
ATOM     59  H   LIG d   1       2.609  -0.911 -12.548  0.00  0.00     0.033 H 
BRANCH  57  60
ATOM     60  C   LIG d   1       0.933  -2.090 -11.955  0.00  0.00     0.042 C 
ATOM     61  O   LIG d   1       0.912  -3.024 -11.189  0.00  0.00    -0.550 OA
ATOM     62  O   LIG d   1       0.099  -2.066 -13.007  0.00  0.00    -0.550 OA
ENDBRANCH  57  60
ENDBRANCH  21  57
TORSDOF 7
ENDMDL
MODEL 9
REMARK VINA RESULT:      -5.6      7.851     12.540
REMARK  7 active torsions:
REMARK  status: ('A' for Active; 'I' for Inactive)
REMARK    1  A    between atoms: C_1  and  C_2 
REMARK    2  A    between atoms: C_2  and  O_4 
REMARK    3  A    between atoms: O_4  and  C_5 
REMARK    4  A    between atoms: C_11  and  C_32 
REMARK    5  A    between atoms: C_22  and  C_31 
REMARK    6  A    between atoms: C_25  and  C_28 
REMARK    7  A    between atoms: C_28  and  C_29 
ROOT
ATOM      1  C   LIG d   1      10.038   8.424  -5.819  0.00  0.00     0.109 C 
ATOM      2  H   LIG d   1       9.659   7.846  -4.976  0.00  0.00     0.074 H 
ATOM      3  C   LIG d   1       9.020   8.405  -6.977  0.00  0.00    -0.015 C 
ATOM      4  C   LIG d   1       9.730   7.738  -8.176  0.00  0.00    -0.046 C 
ATOM      5  C   LIG d   1      10.834   6.862  -7.510  0.00  0.00    -0.029 C 
ATOM      6  H   LIG d   1      11.638   6.614  -8.204  0.00  0.00     0.031 H 
ATOM      7  C   LIG d   1      11.314   7.778  -6.373  0.00  0.00     0.008 C 
ATOM      8  C   LIG d   1      12.099   7.036  -5.315  0.00  0.00    -0.044 C 
ATOM      9  C   LIG d   1      11.350   5.828  -4.795  0.00  0.00    -0.049 C 
ATOM     10  C   LIG d   1      11.021   4.880  -5.958  0.00  0.00    -0.032 C 
ATOM     11  H   LIG d   1      11.946   4.568  -6.444  0.00  0.00     0.031 H 
ATOM     12  C   LIG d   1      10.141   5.608  -6.964  0.00  0.00    -0.034 C 
ATOM     13  H   LIG d   1       9.216   5.906  -6.470  0.00  0.00     0.031 H 
ATOM     14  C   LIG d   1       9.798   4.706  -8.150  0.00  0.00    -0.049 C 
ATOM     15  C   LIG d   1       9.485   3.286  -7.700  0.00  0.00    -0.049 C 
ATOM     16  C   LIG d   1       9.078   3.324  -6.232  0.00  0.00    -0.035 C 
ATOM     17  H   LIG d   1       8.329   4.105  -6.100  0.00  0.00     0.031 H 
ATOM     18  C   LIG d   1      10.310   3.660  -5.388  0.00  0.00    -0.026 C 
ATOM     19  C   LIG d   1       9.847   3.881  -3.949  0.00  0.00    -0.047 C 
ATOM     20  C   LIG d   1       9.274   2.552  -3.428  0.00  0.00    -0.049 C 
ATOM     21  C   LIG d   1       8.081   2.140  -4.290  0.00  0.00    -0.036 C 
ATOM     22  H   LIG d   1       7.304   2.901  -4.214  0.00  0.00     0.030 H 
ATOM     23  C   LIG d   1       8.505   1.993  -5.756  0.00  0.00    -0.046 C 
ATOM     24  H   LIG d   1       8.141   7.826  -6.693  0.00  0.00     0.030 H 
ATOM     25  H   LIG d   1       8.728   9.423  -7.235  0.00  0.00     0.030 H 
ATOM     26  H   LIG d   1       9.032   7.115  -8.735  0.00  0.00     0.027 H 
ATOM     27  H   LIG d   1      10.176   8.491  -8.823  0.00  0.00     0.027 H 
ATOM     28  H   LIG d   1      13.030   6.671  -5.749  0.00  0.00     0.027 H 
ATOM     29  H   LIG d   1      12.330   7.717  -4.496  0.00  0.00     0.027 H 
ATOM     30  H   LIG d   1      10.426   6.180  -4.338  0.00  0.00     0.027 H 
ATOM     31  H   LIG d   1      11.950   5.300  -4.053  0.00  0.00     0.027 H 
ATOM     32  H   LIG d   1       8.920   5.104  -8.659  0.00  0.00     0.027 H 
ATOM     33  H   LIG d   1      10.637   4.694  -8.845  0.00  0.00     0.027 H 
ATOM     34  H   LIG d   1      10.378   2.672  -7.818  0.00  0.00     0.027 H 
ATOM     35  H   LIG d   1       8.673   2.871  -8.296  0.00  0.00     0.027 H 
ATOM     36  H   LIG d   1      10.695   4.174  -3.330  0.00  0.00     0.027 H 
ATOM     37  H   LIG d   1       9.085   4.660  -3.922  0.00  0.00     0.027 H 
ATOM     38  H   LIG d   1       8.948   2.680  -2.396  0.00  0.00     0.027 H 
ATOM     39  H   LIG d   1      10.038   1.777  -3.473  0.00  0.00     0.027 H 
ATOM     40  H   LIG d   1       7.639   1.728  -6.362  0.00  0.00     0.027 H 
ATOM     41  H   LIG d   1       9.265   1.215  -5.840  0.00  0.00     0.027 H 
ENDROOT
BRANCH   1  42
ATOM     42  O   LIG d   1      10.304   9.792  -5.408  0.00  0.00    -0.461 OA
BRANCH  42  43
ATOM     43  C   LIG d   1       9.812  10.178  -4.221  0.00  0.00     0.304 C 
ATOM     44  O   LIG d   1      10.073   9.548  -3.224  0.00  0.00    -0.251 OA
BRANCH  43  45
ATOM     45  C   LIG d   1       8.931  11.397  -4.132  0.00  0.00     0.033 C 
ATOM     46  H   LIG d   1       7.888  11.101  -4.248  0.00  0.00     0.034 H 
ATOM     47  H   LIG d   1       9.067  11.875  -3.163  0.00  0.00     0.034 H 
ATOM     48  H   LIG d   1       9.198  12.098  -4.924  0.00  0.00     0.034 H 
ENDBRANCH  43  45
ENDBRANCH  42  43
ENDBRANCH   1  42
BRANCH   7  49
ATOM     49  C   LIG d   1      12.211   8.870  -6.959  0.00  0.00    -0.056 C 
ATOM     50  H   LIG d   1      12.555   8.566  -7.948  0.00  0.00     0.024 H 
ATOM     51  H   LIG d   1      11.647   9.799  -7.041  0.00  0.00     0.024 H 
ATOM     52  H   LIG d   1      13.071   9.024  -6.306  0.00  0.00     0.024 H 
ENDBRANCH   7  49
BRANCH  18  53
ATOM     53  C   LIG d   1      11.269   2.469  -5.420  0.00  0.00    -0.059 C 
ATOM     54  H   LIG d   1      11.132   1.866  -4.522  0.00  0.00     0.024 H 
ATOM     55  H   LIG d   1      11.064   1.860  -6.301  0.00  0.00     0.024 H 
ATOM     56  H   LIG d   1      12.296   2.830  -5.460  0.00  0.00     0.024 H 
ENDBRANCH  18  53
BRANCH  21  57
ATOM     57  C   LIG d   1       7.531   0.805  -3.785  0.00  0.00    -0.010 C 
ATOM     58  H   LIG d   1       7.662   0.043  -4.554  0.00  0.00     0.033 H 
ATOM     59  H   LIG d   1       8.069   0.506  -2.885  0.00  0.00     0.033 H 
BRANCH  57  60
ATOM     60  C   LIG d   1       6.066   0.952  -3.469  0.00  0.00     0.042 C 
ATOM     61  O   LIG d   1       5.720   1.497  -2.448  0.00  0.00    -0.550 OA
ATOM     62  O   LIG d   1       5.143   0.477  -4.321  0.00  0.00    -0.550 OA
ENDBRANCH  57  60
ENDBRANCH  21  57
TORSDOF 7
ENDMDL
MODEL 10
REMARK VINA RESULT:      -5.6     10.292     13.730
REMARK  7 active torsions:
REMARK  status: ('A' for Active; 'I' for Inactive)
REMARK    1  A    between atoms: C_1  and  C_2 
REMARK    2  A    between atoms: C_2  and  O_4 
REMARK    3  A    between atoms: O_4  and  C_5 
REMARK    4  A    between atoms: C_11  and  C_32 
REMARK    5  A    between atoms: C_22  and  C_31 
REMARK    6  A    between atoms: C_25  and  C_28 
REMARK    7  A    between atoms: C_28  and  C_29 
ROOT
ATOM      1  C   LIG d   1      11.082   5.906  -2.894  0.00  0.00     0.109 C 
ATOM      2  H   LIG d   1      10.850   6.967  -2.995  0.00  0.00     0.074 H 
ATOM      3  C   LIG d   1      12.570   5.654  -3.210  0.00  0.00    -0.015 C 
ATOM      4  C   LIG d   1      12.605   4.703  -4.427  0.00  0.00    -0.046 C 
ATOM      5  C   LIG d   1      11.235   4.949  -5.129  0.00  0.00    -0.029 C 
ATOM      6  H   LIG d   1      10.949   4.121  -5.778  0.00  0.00     0.031 H 
ATOM      7  C   LIG d   1      10.290   5.091  -3.924  0.00  0.00     0.008 C 
ATOM      8  C   LIG d   1       8.971   5.733  -4.287  0.00  0.00    -0.044 C 
ATOM      9  C   LIG d   1       9.160   7.044  -5.020  0.00  0.00    -0.049 C 
ATOM     10  C   LIG d   1       9.993   6.815  -6.290  0.00  0.00    -0.032 C 
ATOM     11  H   LIG d   1       9.484   6.096  -6.932  0.00  0.00     0.031 H 
ATOM     12  C   LIG d   1      11.359   6.268  -5.901  0.00  0.00    -0.034 C 
ATOM     13  H   LIG d   1      11.862   6.999  -5.268  0.00  0.00     0.031 H 
ATOM     14  C   LIG d   1      12.222   6.009  -7.137  0.00  0.00    -0.049 C 
ATOM     15  C   LIG d   1      12.073   7.123  -8.164  0.00  0.00    -0.049 C 
ATOM     16  C   LIG d   1      11.572   8.374  -7.452  0.00  0.00    -0.035 C 
ATOM     17  H   LIG d   1      12.188   8.538  -6.568  0.00  0.00     0.031 H 
ATOM     18  C   LIG d   1      10.122   8.146  -7.019  0.00  0.00    -0.026 C 
ATOM     19  C   LIG d   1       9.703   9.327  -6.144  0.00  0.00    -0.047 C 
ATOM     20  C   LIG d   1       9.735  10.593  -7.016  0.00  0.00    -0.049 C 
ATOM     21  C   LIG d   1      11.156  10.820  -7.530  0.00  0.00    -0.036 C 
ATOM     22  H   LIG d   1      11.825  10.970  -6.682  0.00  0.00     0.030 H 
ATOM     23  C   LIG d   1      11.631   9.610  -8.343  0.00  0.00    -0.046 C 
ATOM     24  H   LIG d   1      13.064   6.594  -3.456  0.00  0.00     0.030 H 
ATOM     25  H   LIG d   1      13.060   5.187  -2.356  0.00  0.00     0.030 H 
ATOM     26  H   LIG d   1      13.429   4.963  -5.092  0.00  0.00     0.027 H 
ATOM     27  H   LIG d   1      12.688   3.667  -4.100  0.00  0.00     0.027 H 
ATOM     28  H   LIG d   1       8.422   5.072  -4.957  0.00  0.00     0.027 H 
ATOM     29  H   LIG d   1       8.386   5.891  -3.381  0.00  0.00     0.027 H 
ATOM     30  H   LIG d   1       9.690   7.725  -4.354  0.00  0.00     0.027 H 
ATOM     31  H   LIG d   1       8.194   7.472  -5.290  0.00  0.00     0.027 H 
ATOM     32  H   LIG d   1      13.268   5.958  -6.837  0.00  0.00     0.027 H 
ATOM     33  H   LIG d   1      11.932   5.058  -7.582  0.00  0.00     0.027 H 
ATOM     34  H   LIG d   1      11.349   6.814  -8.918  0.00  0.00     0.027 H 
ATOM     35  H   LIG d   1      13.032   7.329  -8.639  0.00  0.00     0.027 H 
ATOM     36  H   LIG d   1       8.688   9.170  -5.776  0.00  0.00     0.027 H 
ATOM     37  H   LIG d   1      10.389   9.425  -5.304  0.00  0.00     0.027 H 
ATOM     38  H   LIG d   1       9.426  11.451  -6.417  0.00  0.00     0.027 H 
ATOM     39  H   LIG d   1       9.058  10.479  -7.861  0.00  0.00     0.027 H 
ATOM     40  H   LIG d   1      12.655   9.773  -8.678  0.00  0.00     0.027 H 
ATOM     41  H   LIG d   1      10.978   9.471  -9.206  0.00  0.00     0.027 H 
ENDROOT
BRANCH   1  42
ATOM     42  O   LIG d   1      10.772   5.452  -1.549  0.00  0.00    -0.461 OA
BRANCH  42  43
ATOM     43  C   LIG d   1      10.339   6.378  -0.679  0.00  0.00     0.304 C 
ATOM     44  O   LIG d   1      10.456   6.193   0.510  0.00  0.00    -0.251 OA
BRANCH  43  45
ATOM     45  C   LIG d   1       9.705   7.649  -1.184  0.00  0.00     0.033 C 
ATOM     46  H   LIG d   1       9.888   8.454  -0.473  0.00  0.00     0.034 H 
ATOM     47  H   LIG d   1      10.136   7.911  -2.150  0.00  0.00     0.034 H 
ATOM     48  H   LIG d   1       8.630   7.500  -1.294  0.00  0.00     0.034 H 
ENDBRANCH  43  45
ENDBRANCH  42  43
ENDBRANCH   1  42
BRANCH   7  49
ATOM     49  C   LIG d   1      10.006   3.702  -3.348  0.00  0.00    -0.056 C 
ATOM     50  H   LIG d   1       9.134   3.276  -3.843  0.00  0.00     0.024 H 
ATOM     51  H   LIG d   1      10.869   3.057  -3.512  0.00  0.00     0.024 H 
ATOM     52  H   LIG d   1       9.813   3.785  -2.278  0.00  0.00     0.024 H 
ENDBRANCH   7  49
BRANCH  18  53
ATOM     53  C   LIG d   1       9.235   8.115  -8.265  0.00  0.00    -0.059 C 
ATOM     54  H   LIG d   1       9.806   7.725  -9.109  0.00  0.00     0.024 H 
ATOM     55  H   LIG d   1       8.374   7.473  -8.083  0.00  0.00     0.024 H 
ATOM     56  H   LIG d   1       8.894   9.124  -8.494  0.00  0.00     0.024 H 
ENDBRANCH  18  53
BRANCH  21  57
ATOM     57  C   LIG d   1      11.179  12.067  -8.418  0.00  0.00    -0.010 C 
ATOM     58  H   LIG d   1      12.207  12.410  -8.537  0.00  0.00     0.033 H 
ATOM     59  H   LIG d   1      10.762  11.825  -9.396  0.00  0.00     0.033 H 
BRANCH  57  60
ATOM     60  C   LIG d   1      10.358  13.155  -7.777  0.00  0.00     0.042 C 
ATOM     61  O   LIG d   1      10.786  13.748  -6.815  0.00  0.00    -0.550 OA
ATOM     62  O   LIG d   1       9.150  13.467  -8.275  0.00  0.00    -0.550 OA
ENDBRANCH  57  60
ENDBRANCH  21  57
TORSDOF 7
ENDMDL
