MODEL 1
REMARK VINA RESULT:      -6.4      0.000      0.000
REMARK  9 active torsions:
REMARK  status: ('A' for Active; 'I' for Inactive)
REMARK    1  A    between atoms: C_1  and  C_2 
REMARK    2  A    between atoms: C_2  and  O_3 
REMARK    3  A    between atoms: O_3  and  C_4 
REMARK    4  A    between atoms: C_4  and  C_6 
REMARK    5  A    between atoms: C_7  and  C_26 
REMARK    6  A    between atoms: C_11  and  N_15 
REMARK       I    between atoms: N_15  and  C_16 
REMARK    7  A    between atoms: C_16  and  C_18 
REMARK    8  A    between atoms: C_23  and  O_24 
REMARK    9  A    between atoms: O_24  and  C_25 
ROOT
ATOM      1  C   LIG d   1       5.140  -8.200  -6.219  0.00  0.00     0.215 A 
ATOM      2  C   LIG d   1       6.441  -7.867  -6.015  0.00  0.00     0.010 A 
ATOM      3  C   LIG d   1       6.463  -6.501  -5.635  0.00  0.00     0.024 A 
ATOM      4  C   LIG d   1       7.486  -5.605  -5.302  0.00  0.00    -0.049 A 
ATOM      5  C   LIG d   1       7.182  -4.319  -4.971  0.00  0.00    -0.040 A 
ATOM      6  C   LIG d   1       5.855  -3.887  -4.959  0.00  0.00     0.037 A 
ATOM      7  C   LIG d   1       4.829  -4.759  -5.284  0.00  0.00     0.003 A 
ATOM      8  C   LIG d   1       5.122  -6.072  -5.625  0.00  0.00     0.138 A 
ATOM      9  O   LIG d   1       4.358  -7.125  -5.979  0.00  0.00    -0.448 OA
ATOM     10  H   LIG d   1       8.516  -5.934  -5.309  0.00  0.00     0.062 H 
ATOM     11  H   LIG d   1       7.973  -3.629  -4.714  0.00  0.00     0.064 H 
ATOM     12  H   LIG d   1       3.804  -4.418  -5.273  0.00  0.00     0.067 H 
ENDROOT
BRANCH   6  13
ATOM     13  N   LIG d   1       5.560  -2.566  -4.617  0.00  0.00    -0.281 N 
ATOM     14  C   LIG d   1       4.665  -2.306  -3.642  0.00  0.00     0.252 C 
ATOM     15  O   LIG d   1       4.178  -3.221  -3.005  0.00  0.00    -0.270 OA
ATOM     16  H   LIG d   1       5.998  -1.836  -5.080  0.00  0.00     0.155 HD
BRANCH  14  17
ATOM     17  C   LIG d   1       4.278  -0.914  -3.348  0.00  0.00     0.079 A 
ATOM     18  C   LIG d   1       3.659  -0.132  -4.333  0.00  0.00     0.132 A 
ATOM     19  C   LIG d   1       3.299   1.177  -4.046  0.00  0.00    -0.019 A 
ATOM     20  C   LIG d   1       3.552   1.705  -2.796  0.00  0.00    -0.058 A 
ATOM     21  H   LIG d   1       2.821   1.783  -4.801  0.00  0.00     0.065 H 
ATOM     22  C   LIG d   1       4.164   0.936  -1.820  0.00  0.00    -0.061 A 
ATOM     23  H   LIG d   1       3.270   2.724  -2.577  0.00  0.00     0.062 H 
ATOM     24  C   LIG d   1       4.524  -0.368  -2.086  0.00  0.00    -0.046 A 
ATOM     25  H   LIG d   1       4.357   1.357  -0.844  0.00  0.00     0.062 H 
ATOM     26  H   LIG d   1       4.997  -0.965  -1.321  0.00  0.00     0.063 H 
BRANCH  18  27
ATOM     27  O   LIG d   1       3.410  -0.652  -5.560  0.00  0.00    -0.494 OA
BRANCH  27  28
ATOM     28  C   LIG d   1       2.943   0.249  -6.566  0.00  0.00     0.079 C 
ATOM     29  H   LIG d   1       2.666  -0.313  -7.457  0.00  0.00     0.066 H 
ATOM     30  H   LIG d   1       2.073   0.790  -6.193  0.00  0.00     0.066 H 
ATOM     31  H   LIG d   1       3.732   0.958  -6.813  0.00  0.00     0.066 H 
ENDBRANCH  27  28
ENDBRANCH  18  27
ENDBRANCH  14  17
ENDBRANCH   6  13
BRANCH   2  32
ATOM     32  C   LIG d   1       7.635  -8.774  -6.170  0.00  0.00    -0.035 C 
ATOM     33  H   LIG d   1       7.297  -9.779  -6.424  0.00  0.00     0.028 H 
ATOM     34  H   LIG d   1       8.192  -8.804  -5.233  0.00  0.00     0.028 H 
ATOM     35  H   LIG d   1       8.278  -8.395  -6.963  0.00  0.00     0.028 H 
ENDBRANCH   2  32
BRANCH   1  36
ATOM     36  C   LIG d   1       4.660  -9.522  -6.634  0.00  0.00     0.375 C 
ATOM     37  O   LIG d   1       4.884  -9.924  -7.759  0.00  0.00    -0.241 OA
BRANCH  36  38
ATOM     38  O   LIG d   1       3.970 -10.291  -5.769  0.00  0.00    -0.459 OA
BRANCH  38  39
ATOM     39  C   LIG d   1       4.623 -10.622  -4.515  0.00  0.00     0.090 C 
ATOM     40  H   LIG d   1       4.800 -11.696  -4.471  0.00  0.00     0.070 H 
ATOM     41  H   LIG d   1       5.574 -10.093  -4.450  0.00  0.00     0.070 H 
BRANCH  39  42
ATOM     42  C   LIG d   1       3.727 -10.205  -3.347  0.00  0.00    -0.031 C 
ATOM     43  H   LIG d   1       3.910  -9.158  -3.104  0.00  0.00     0.026 H 
ATOM     44  H   LIG d   1       2.681 -10.338  -3.624  0.00  0.00     0.026 H 
ATOM     45  H   LIG d   1       3.952 -10.823  -2.477  0.00  0.00     0.026 H 
ENDBRANCH  39  42
ENDBRANCH  38  39
ENDBRANCH  36  38
ENDBRANCH   1  36
TORSDOF 9
ENDMDL
MODEL 2
REMARK VINA RESULT:      -6.1      5.819      7.208
REMARK  9 active torsions:
REMARK  status: ('A' for Active; 'I' for Inactive)
REMARK    1  A    between atoms: C_1  and  C_2 
REMARK    2  A    between atoms: C_2  and  O_3 
REMARK    3  A    between atoms: O_3  and  C_4 
REMARK    4  A    between atoms: C_4  and  C_6 
REMARK    5  A    between atoms: C_7  and  C_26 
REMARK    6  A    between atoms: C_11  and  N_15 
REMARK       I    between atoms: N_15  and  C_16 
REMARK    7  A    between atoms: C_16  and  C_18 
REMARK    8  A    between atoms: C_23  and  O_24 
REMARK    9  A    between atoms: O_24  and  C_25 
ROOT
ATOM      1  C   LIG d   1       1.329  -1.611 -11.720  0.00  0.00     0.215 A 
ATOM      2  C   LIG d   1       2.589  -1.169 -11.970  0.00  0.00     0.010 A 
ATOM      3  C   LIG d   1       3.108  -0.685 -10.742  0.00  0.00     0.024 A 
ATOM      4  C   LIG d   1       4.329  -0.112 -10.366  0.00  0.00    -0.049 A 
ATOM      5  C   LIG d   1       4.533   0.263  -9.072  0.00  0.00    -0.040 A 
ATOM      6  C   LIG d   1       3.534   0.077  -8.116  0.00  0.00     0.037 A 
ATOM      7  C   LIG d   1       2.320  -0.488  -8.469  0.00  0.00     0.003 A 
ATOM      8  C   LIG d   1       2.095  -0.874  -9.783  0.00  0.00     0.138 A 
ATOM      9  O   LIG d   1       1.043  -1.437 -10.411  0.00  0.00    -0.448 OA
ATOM     10  H   LIG d   1       5.107   0.033 -11.102  0.00  0.00     0.062 H 
ATOM     11  H   LIG d   1       5.477   0.704  -8.784  0.00  0.00     0.064 H 
ATOM     12  H   LIG d   1       1.550  -0.628  -7.724  0.00  0.00     0.067 H 
ENDROOT
BRANCH   6  13
ATOM     13  N   LIG d   1       3.759   0.466  -6.794  0.00  0.00    -0.281 N 
ATOM     14  C   LIG d   1       4.117  -0.452  -5.873  0.00  0.00     0.252 C 
ATOM     15  O   LIG d   1       4.324  -1.603  -6.211  0.00  0.00    -0.270 OA
ATOM     16  H   LIG d   1       3.659   1.395  -6.538  0.00  0.00     0.155 HD
BRANCH  14  17
ATOM     17  C   LIG d   1       4.258  -0.061  -4.459  0.00  0.00     0.079 A 
ATOM     18  C   LIG d   1       5.469   0.467  -3.991  0.00  0.00     0.132 A 
ATOM     19  C   LIG d   1       5.591   0.831  -2.658  0.00  0.00    -0.019 A 
ATOM     20  C   LIG d   1       4.523   0.673  -1.797  0.00  0.00    -0.058 A 
ATOM     21  H   LIG d   1       6.522   1.239  -2.293  0.00  0.00     0.065 H 
ATOM     22  C   LIG d   1       3.324   0.151  -2.255  0.00  0.00    -0.061 A 
ATOM     23  H   LIG d   1       4.622   0.958  -0.761  0.00  0.00     0.062 H 
ATOM     24  C   LIG d   1       3.184  -0.212  -3.577  0.00  0.00    -0.046 A 
ATOM     25  H   LIG d   1       2.494   0.032  -1.575  0.00  0.00     0.062 H 
ATOM     26  H   LIG d   1       2.246  -0.614  -3.931  0.00  0.00     0.063 H 
BRANCH  18  27
ATOM     27  O   LIG d   1       6.517   0.622  -4.837  0.00  0.00    -0.494 OA
BRANCH  27  28
ATOM     28  C   LIG d   1       7.733   1.125  -4.280  0.00  0.00     0.079 C 
ATOM     29  H   LIG d   1       8.388   1.464  -5.082  0.00  0.00     0.066 H 
ATOM     30  H   LIG d   1       7.510   1.962  -3.616  0.00  0.00     0.066 H 
ATOM     31  H   LIG d   1       8.227   0.336  -3.716  0.00  0.00     0.066 H 
ENDBRANCH  27  28
ENDBRANCH  18  27
ENDBRANCH  14  17
ENDBRANCH   6  13
BRANCH   2  32
ATOM     32  C   LIG d   1       3.299  -1.184 -13.299  0.00  0.00    -0.035 C 
ATOM     33  H   LIG d   1       3.295  -2.198 -13.701  0.00  0.00     0.028 H 
ATOM     34  H   LIG d   1       4.328  -0.850 -13.166  0.00  0.00     0.028 H 
ATOM     35  H   LIG d   1       2.787  -0.516 -13.991  0.00  0.00     0.028 H 
ENDBRANCH   2  32
BRANCH   1  36
ATOM     36  C   LIG d   1       0.422  -2.188 -12.716  0.00  0.00     0.375 C 
ATOM     37  O   LIG d   1      -0.519  -1.539 -13.130  0.00  0.00    -0.241 OA
BRANCH  36  38
ATOM     38  O   LIG d   1       0.631  -3.439 -13.174  0.00  0.00    -0.459 OA
BRANCH  38  39
ATOM     39  C   LIG d   1       0.811  -4.483 -12.181  0.00  0.00     0.090 C 
ATOM     40  H   LIG d   1       1.208  -5.377 -12.662  0.00  0.00     0.070 H 
ATOM     41  H   LIG d   1       1.510  -4.141 -11.417  0.00  0.00     0.070 H 
BRANCH  39  42
ATOM     42  C   LIG d   1      -0.535  -4.808 -11.530  0.00  0.00    -0.031 C 
ATOM     43  H   LIG d   1      -0.657  -4.209 -10.628  0.00  0.00     0.026 H 
ATOM     44  H   LIG d   1      -1.341  -4.582 -12.229  0.00  0.00     0.026 H 
ATOM     45  H   LIG d   1      -0.567  -5.867 -11.271  0.00  0.00     0.026 H 
ENDBRANCH  39  42
ENDBRANCH  38  39
ENDBRANCH  36  38
ENDBRANCH   1  36
TORSDOF 9
ENDMDL
MODEL 3
REMARK VINA RESULT:      -6.1      1.886      2.249
REMARK  9 active torsions:
REMARK  status: ('A' for Active; 'I' for Inactive)
REMARK    1  A    between atoms: C_1  and  C_2 
REMARK    2  A    between atoms: C_2  and  O_3 
REMARK    3  A    between atoms: O_3  and  C_4 
REMARK    4  A    between atoms: C_4  and  C_6 
REMARK    5  A    between atoms: C_7  and  C_26 
REMARK    6  A    between atoms: C_11  and  N_15 
REMARK       I    between atoms: N_15  and  C_16 
REMARK    7  A    between atoms: C_16  and  C_18 
REMARK    8  A    between atoms: C_23  and  O_24 
REMARK    9  A    between atoms: O_24  and  C_25 
ROOT
ATOM      1  C   LIG d   1       4.730  -8.725  -6.455  0.00  0.00     0.215 A 
ATOM      2  C   LIG d   1       4.708  -7.980  -7.592  0.00  0.00     0.010 A 
ATOM      3  C   LIG d   1       4.607  -6.623  -7.194  0.00  0.00     0.024 A 
ATOM      4  C   LIG d   1       4.539  -5.412  -7.893  0.00  0.00    -0.049 A 
ATOM      5  C   LIG d   1       4.444  -4.237  -7.210  0.00  0.00    -0.040 A 
ATOM      6  C   LIG d   1       4.416  -4.231  -5.815  0.00  0.00     0.037 A 
ATOM      7  C   LIG d   1       4.483  -5.419  -5.106  0.00  0.00     0.003 A 
ATOM      8  C   LIG d   1       4.579  -6.624  -5.786  0.00  0.00     0.138 A 
ATOM      9  O   LIG d   1       4.658  -7.908  -5.381  0.00  0.00    -0.448 OA
ATOM     10  H   LIG d   1       4.561  -5.411  -8.974  0.00  0.00     0.062 H 
ATOM     11  H   LIG d   1       4.392  -3.304  -7.752  0.00  0.00     0.064 H 
ATOM     12  H   LIG d   1       4.460  -5.407  -4.025  0.00  0.00     0.067 H 
ENDROOT
BRANCH   6  13
ATOM     13  N   LIG d   1       4.319  -3.019  -5.129  0.00  0.00    -0.281 N 
ATOM     14  C   LIG d   1       5.354  -2.581  -4.384  0.00  0.00     0.252 C 
ATOM     15  O   LIG d   1       6.401  -3.200  -4.375  0.00  0.00    -0.270 OA
ATOM     16  H   LIG d   1       3.507  -2.492  -5.189  0.00  0.00     0.155 HD
BRANCH  14  17
ATOM     17  C   LIG d   1       5.216  -1.353  -3.581  0.00  0.00     0.079 A 
ATOM     18  C   LIG d   1       5.833  -0.165  -3.998  0.00  0.00     0.132 A 
ATOM     19  C   LIG d   1       5.697   0.985  -3.235  0.00  0.00    -0.019 A 
ATOM     20  C   LIG d   1       4.958   0.958  -2.069  0.00  0.00    -0.058 A 
ATOM     21  H   LIG d   1       6.170   1.903  -3.553  0.00  0.00     0.065 H 
ATOM     22  C   LIG d   1       4.347  -0.213  -1.653  0.00  0.00    -0.061 A 
ATOM     23  H   LIG d   1       4.854   1.856  -1.478  0.00  0.00     0.062 H 
ATOM     24  C   LIG d   1       4.468  -1.364  -2.401  0.00  0.00    -0.046 A 
ATOM     25  H   LIG d   1       3.769  -0.224  -0.740  0.00  0.00     0.062 H 
ATOM     26  H   LIG d   1       3.986  -2.274  -2.075  0.00  0.00     0.063 H 
BRANCH  18  27
ATOM     27  O   LIG d   1       6.558  -0.140  -5.144  0.00  0.00    -0.494 OA
BRANCH  27  28
ATOM     28  C   LIG d   1       7.968   0.051  -5.016  0.00  0.00     0.079 C 
ATOM     29  H   LIG d   1       8.345  -0.558  -4.195  0.00  0.00     0.066 H 
ATOM     30  H   LIG d   1       8.461  -0.245  -5.943  0.00  0.00     0.066 H 
ATOM     31  H   LIG d   1       8.176   1.101  -4.815  0.00  0.00     0.066 H 
ENDBRANCH  27  28
ENDBRANCH  18  27
ENDBRANCH  14  17
ENDBRANCH   6  13
BRANCH   2  32
ATOM     32  C   LIG d   1       4.772  -8.498  -9.005  0.00  0.00    -0.035 C 
ATOM     33  H   LIG d   1       5.665  -8.109  -9.495  0.00  0.00     0.028 H 
ATOM     34  H   LIG d   1       3.887  -8.172  -9.552  0.00  0.00     0.028 H 
ATOM     35  H   LIG d   1       4.810  -9.587  -8.992  0.00  0.00     0.028 H 
ENDBRANCH   2  32
BRANCH   1  36
ATOM     36  C   LIG d   1       4.820 -10.187  -6.403  0.00  0.00     0.375 C 
ATOM     37  O   LIG d   1       5.761 -10.757  -6.920  0.00  0.00    -0.241 OA
BRANCH  36  38
ATOM     38  O   LIG d   1       3.859 -10.900  -5.782  0.00  0.00    -0.459 OA
BRANCH  38  39
ATOM     39  C   LIG d   1       4.164 -11.402  -4.454  0.00  0.00     0.090 C 
ATOM     40  H   LIG d   1       3.916 -12.462  -4.401  0.00  0.00     0.070 H 
ATOM     41  H   LIG d   1       5.226 -11.267  -4.249  0.00  0.00     0.070 H 
BRANCH  39  42
ATOM     42  C   LIG d   1       3.344 -10.634  -3.416  0.00  0.00    -0.031 C 
ATOM     43  H   LIG d   1       2.648 -11.314  -2.926  0.00  0.00     0.026 H 
ATOM     44  H   LIG d   1       4.013 -10.199  -2.673  0.00  0.00     0.026 H 
ATOM     45  H   LIG d   1       2.786  -9.838  -3.911  0.00  0.00     0.026 H 
ENDBRANCH  39  42
ENDBRANCH  38  39
ENDBRANCH  36  38
ENDBRANCH   1  36
TORSDOF 9
ENDMDL
MODEL 4
REMARK VINA RESULT:      -6.0      5.867      8.216
REMARK  9 active torsions:
REMARK  status: ('A' for Active; 'I' for Inactive)
REMARK    1  A    between atoms: C_1  and  C_2 
REMARK    2  A    between atoms: C_2  and  O_3 
REMARK    3  A    between atoms: O_3  and  C_4 
REMARK    4  A    between atoms: C_4  and  C_6 
REMARK    5  A    between atoms: C_7  and  C_26 
REMARK    6  A    between atoms: C_11  and  N_15 
REMARK       I    between atoms: N_15  and  C_16 
REMARK    7  A    between atoms: C_16  and  C_18 
REMARK    8  A    between atoms: C_23  and  O_24 
REMARK    9  A    between atoms: O_24  and  C_25 
ROOT
ATOM      1  C   LIG d   1       4.303  -0.668 -12.559  0.00  0.00     0.215 A 
ATOM      2  C   LIG d   1       3.063  -1.029 -12.134  0.00  0.00     0.010 A 
ATOM      3  C   LIG d   1       2.998  -0.730 -10.750  0.00  0.00     0.024 A 
ATOM      4  C   LIG d   1       2.004  -0.876  -9.775  0.00  0.00    -0.049 A 
ATOM      5  C   LIG d   1       2.249  -0.485  -8.492  0.00  0.00    -0.040 A 
ATOM      6  C   LIG d   1       3.483   0.063  -8.143  0.00  0.00     0.037 A 
ATOM      7  C   LIG d   1       4.479   0.215  -9.095  0.00  0.00     0.003 A 
ATOM      8  C   LIG d   1       4.247  -0.179 -10.405  0.00  0.00     0.138 A 
ATOM      9  O   LIG d   1       5.002  -0.156 -11.522  0.00  0.00    -0.448 OA
ATOM     10  H   LIG d   1       1.045  -1.298 -10.039  0.00  0.00     0.062 H 
ATOM     11  H   LIG d   1       1.480  -0.597  -7.741  0.00  0.00     0.064 H 
ATOM     12  H   LIG d   1       5.433   0.639  -8.818  0.00  0.00     0.067 H 
ENDROOT
BRANCH   6  13
ATOM     13  N   LIG d   1       3.718   0.459  -6.825  0.00  0.00    -0.281 N 
ATOM     14  C   LIG d   1       4.075  -0.455  -5.900  0.00  0.00     0.252 C 
ATOM     15  O   LIG d   1       4.274  -1.608  -6.231  0.00  0.00    -0.270 OA
ATOM     16  H   LIG d   1       3.624   1.391  -6.575  0.00  0.00     0.155 HD
BRANCH  14  17
ATOM     17  C   LIG d   1       4.226  -0.055  -4.489  0.00  0.00     0.079 A 
ATOM     18  C   LIG d   1       5.450   0.447  -4.025  0.00  0.00     0.132 A 
ATOM     19  C   LIG d   1       5.581   0.820  -2.696  0.00  0.00    -0.019 A 
ATOM     20  C   LIG d   1       4.509   0.697  -1.834  0.00  0.00    -0.058 A 
ATOM     21  H   LIG d   1       6.523   1.207  -2.334  0.00  0.00     0.065 H 
ATOM     22  C   LIG d   1       3.298   0.201  -2.288  0.00  0.00    -0.061 A 
ATOM     23  H   LIG d   1       4.616   0.989  -0.800  0.00  0.00     0.062 H 
ATOM     24  C   LIG d   1       3.149  -0.170  -3.607  0.00  0.00    -0.046 A 
ATOM     25  H   LIG d   1       2.465   0.110  -1.607  0.00  0.00     0.062 H 
ATOM     26  H   LIG d   1       2.201  -0.551  -3.957  0.00  0.00     0.063 H 
BRANCH  18  27
ATOM     27  O   LIG d   1       6.502   0.568  -4.873  0.00  0.00    -0.494 OA
BRANCH  27  28
ATOM     28  C   LIG d   1       7.718   1.085  -4.329  0.00  0.00     0.079 C 
ATOM     29  H   LIG d   1       8.544   0.425  -4.592  0.00  0.00     0.066 H 
ATOM     30  H   LIG d   1       7.905   2.080  -4.738  0.00  0.00     0.066 H 
ATOM     31  H   LIG d   1       7.633   1.148  -3.246  0.00  0.00     0.066 H 
ENDBRANCH  27  28
ENDBRANCH  18  27
ENDBRANCH  14  17
ENDBRANCH   6  13
BRANCH   2  32
ATOM     32  C   LIG d   1       1.969  -1.638 -12.973  0.00  0.00    -0.035 C 
ATOM     33  H   LIG d   1       1.009  -1.496 -12.476  0.00  0.00     0.028 H 
ATOM     34  H   LIG d   1       2.159  -2.704 -13.100  0.00  0.00     0.028 H 
ATOM     35  H   LIG d   1       1.949  -1.154 -13.949  0.00  0.00     0.028 H 
ENDBRANCH   2  32
BRANCH   1  36
ATOM     36  C   LIG d   1       4.803  -0.811 -13.930  0.00  0.00     0.375 C 
ATOM     37  O   LIG d   1       5.625  -1.667 -14.191  0.00  0.00    -0.241 OA
BRANCH  36  38
ATOM     38  O   LIG d   1       4.351   0.009 -14.900  0.00  0.00    -0.459 OA
BRANCH  38  39
ATOM     39  C   LIG d   1       4.315  -0.525 -16.250  0.00  0.00     0.090 C 
ATOM     40  H   LIG d   1       4.574   0.262 -16.959  0.00  0.00     0.070 H 
ATOM     41  H   LIG d   1       5.032  -1.343 -16.337  0.00  0.00     0.070 H 
BRANCH  39  42
ATOM     42  C   LIG d   1       2.910  -1.045 -16.557  0.00  0.00    -0.031 C 
ATOM     43  H   LIG d   1       2.977  -1.900 -17.230  0.00  0.00     0.026 H 
ATOM     44  H   LIG d   1       2.424  -1.350 -15.629  0.00  0.00     0.026 H 
ATOM     45  H   LIG d   1       2.325  -0.256 -17.030  0.00  0.00     0.026 H 
ENDBRANCH  39  42
ENDBRANCH  38  39
ENDBRANCH  36  38
ENDBRANCH   1  36
TORSDOF 9
ENDMDL
MODEL 5
REMARK VINA RESULT:      -5.9      8.523     11.556
REMARK  9 active torsions:
REMARK  status: ('A' for Active; 'I' for Inactive)
REMARK    1  A    between atoms: C_1  and  C_2 
REMARK    2  A    between atoms: C_2  and  O_3 
REMARK    3  A    between atoms: O_3  and  C_4 
REMARK    4  A    between atoms: C_4  and  C_6 
REMARK    5  A    between atoms: C_7  and  C_26 
REMARK    6  A    between atoms: C_11  and  N_15 
REMARK       I    between atoms: N_15  and  C_16 
REMARK    7  A    between atoms: C_16  and  C_18 
REMARK    8  A    between atoms: C_23  and  O_24 
REMARK    9  A    between atoms: O_24  and  C_25 
ROOT
ATOM      1  C   LIG d   1       8.675   2.026  -4.556  0.00  0.00     0.215 A 
ATOM      2  C   LIG d   1       9.064   2.956  -5.467  0.00  0.00     0.010 A 
ATOM      3  C   LIG d   1       9.605   4.046  -4.739  0.00  0.00     0.024 A 
ATOM      4  C   LIG d   1      10.156   5.278  -5.109  0.00  0.00    -0.049 A 
ATOM      5  C   LIG d   1      10.602   6.139  -4.151  0.00  0.00    -0.040 A 
ATOM      6  C   LIG d   1      10.515   5.799  -2.800  0.00  0.00     0.037 A 
ATOM      7  C   LIG d   1       9.974   4.583  -2.415  0.00  0.00     0.003 A 
ATOM      8  C   LIG d   1       9.514   3.697  -3.378  0.00  0.00     0.138 A 
ATOM      9  O   LIG d   1       8.952   2.473  -3.311  0.00  0.00    -0.448 OA
ATOM     10  H   LIG d   1      10.227   5.547  -6.154  0.00  0.00     0.062 H 
ATOM     11  H   LIG d   1      11.027   7.089  -4.439  0.00  0.00     0.064 H 
ATOM     12  H   LIG d   1       9.910   4.327  -1.367  0.00  0.00     0.067 H 
ENDROOT
BRANCH   6  13
ATOM     13  N   LIG d   1      10.977   6.691  -1.831  0.00  0.00    -0.281 N 
ATOM     14  C   LIG d   1      10.103   7.458  -1.149  0.00  0.00     0.252 C 
ATOM     15  O   LIG d   1       8.907   7.313  -1.319  0.00  0.00    -0.270 OA
ATOM     16  H   LIG d   1      11.927   6.759  -1.648  0.00  0.00     0.155 HD
BRANCH  14  17
ATOM     17  C   LIG d   1      10.595   8.470  -0.196  0.00  0.00     0.079 A 
ATOM     18  C   LIG d   1      11.434   8.093   0.861  0.00  0.00     0.132 A 
ATOM     19  C   LIG d   1      11.892   9.053   1.752  0.00  0.00    -0.019 A 
ATOM     20  C   LIG d   1      11.522  10.374   1.595  0.00  0.00    -0.058 A 
ATOM     21  H   LIG d   1      12.539   8.767   2.568  0.00  0.00     0.065 H 
ATOM     22  C   LIG d   1      10.693  10.751   0.551  0.00  0.00    -0.061 A 
ATOM     23  H   LIG d   1      11.881  11.118   2.290  0.00  0.00     0.062 H 
ATOM     24  C   LIG d   1      10.232   9.810  -0.345  0.00  0.00    -0.046 A 
ATOM     25  H   LIG d   1      10.410  11.787   0.436  0.00  0.00     0.062 H 
ATOM     26  H   LIG d   1       9.590  10.110  -1.160  0.00  0.00     0.063 H 
BRANCH  18  27
ATOM     27  O   LIG d   1      11.798   6.795   1.014  0.00  0.00    -0.494 OA
BRANCH  27  28
ATOM     28  C   LIG d   1      11.031   6.008   1.928  0.00  0.00     0.079 C 
ATOM     29  H   LIG d   1      10.061   5.781   1.487  0.00  0.00     0.066 H 
ATOM     30  H   LIG d   1      11.560   5.078   2.140  0.00  0.00     0.066 H 
ATOM     31  H   LIG d   1      10.888   6.564   2.854  0.00  0.00     0.066 H 
ENDBRANCH  27  28
ENDBRANCH  18  27
ENDBRANCH  14  17
ENDBRANCH   6  13
BRANCH   2  32
ATOM     32  C   LIG d   1       8.938   2.852  -6.965  0.00  0.00    -0.035 C 
ATOM     33  H   LIG d   1       8.115   3.482  -7.304  0.00  0.00     0.028 H 
ATOM     34  H   LIG d   1       8.741   1.817  -7.242  0.00  0.00     0.028 H 
ATOM     35  H   LIG d   1       9.866   3.183  -7.431  0.00  0.00     0.028 H 
ENDBRANCH   2  32
BRANCH   1  36
ATOM     36  C   LIG d   1       8.053   0.737  -4.874  0.00  0.00     0.375 C 
ATOM     37  O   LIG d   1       8.734  -0.268  -4.933  0.00  0.00    -0.241 OA
BRANCH  36  38
ATOM     38  O   LIG d   1       6.726   0.667  -5.102  0.00  0.00    -0.459 OA
BRANCH  38  39
ATOM     39  C   LIG d   1       5.923  -0.033  -4.115  0.00  0.00     0.090 C 
ATOM     40  H   LIG d   1       4.968  -0.313  -4.557  0.00  0.00     0.070 H 
ATOM     41  H   LIG d   1       6.450  -0.929  -3.787  0.00  0.00     0.070 H 
BRANCH  39  42
ATOM     42  C   LIG d   1       5.680   0.883  -2.913  0.00  0.00    -0.031 C 
ATOM     43  H   LIG d   1       6.572   0.904  -2.286  0.00  0.00     0.026 H 
ATOM     44  H   LIG d   1       5.457   1.891  -3.263  0.00  0.00     0.026 H 
ATOM     45  H   LIG d   1       4.838   0.505  -2.333  0.00  0.00     0.026 H 
ENDBRANCH  39  42
ENDBRANCH  38  39
ENDBRANCH  36  38
ENDBRANCH   1  36
TORSDOF 9
ENDMDL
MODEL 6
REMARK VINA RESULT:      -5.8      6.665     11.178
REMARK  9 active torsions:
REMARK  status: ('A' for Active; 'I' for Inactive)
REMARK    1  A    between atoms: C_1  and  C_2 
REMARK    2  A    between atoms: C_2  and  O_3 
REMARK    3  A    between atoms: O_3  and  C_4 
REMARK    4  A    between atoms: C_4  and  C_6 
REMARK    5  A    between atoms: C_7  and  C_26 
REMARK    6  A    between atoms: C_11  and  N_15 
REMARK       I    between atoms: N_15  and  C_16 
REMARK    7  A    between atoms: C_16  and  C_18 
REMARK    8  A    between atoms: C_23  and  O_24 
REMARK    9  A    between atoms: O_24  and  C_25 
ROOT
ATOM      1  C   LIG d   1      11.227   5.293  -3.377  0.00  0.00     0.215 A 
ATOM      2  C   LIG d   1      10.936   5.179  -4.699  0.00  0.00     0.010 A 
ATOM      3  C   LIG d   1      10.070   4.064  -4.837  0.00  0.00     0.024 A 
ATOM      4  C   LIG d   1       9.444   3.455  -5.931  0.00  0.00    -0.049 A 
ATOM      5  C   LIG d   1       8.647   2.366  -5.737  0.00  0.00    -0.040 A 
ATOM      6  C   LIG d   1       8.448   1.855  -4.455  0.00  0.00     0.037 A 
ATOM      7  C   LIG d   1       9.059   2.445  -3.360  0.00  0.00     0.003 A 
ATOM      8  C   LIG d   1       9.874   3.553  -3.540  0.00  0.00     0.138 A 
ATOM      9  O   LIG d   1      10.585   4.322  -2.690  0.00  0.00    -0.448 OA
ATOM     10  H   LIG d   1       9.593   3.847  -6.926  0.00  0.00     0.062 H 
ATOM     11  H   LIG d   1       8.164   1.898  -6.583  0.00  0.00     0.064 H 
ATOM     12  H   LIG d   1       8.901   2.043  -2.370  0.00  0.00     0.067 H 
ENDROOT
BRANCH   6  13
ATOM     13  N   LIG d   1       7.629   0.739  -4.273  0.00  0.00    -0.281 N 
ATOM     14  C   LIG d   1       6.432   0.873  -3.666  0.00  0.00     0.252 C 
ATOM     15  O   LIG d   1       6.031   1.978  -3.351  0.00  0.00    -0.270 OA
ATOM     16  H   LIG d   1       7.920  -0.132  -4.584  0.00  0.00     0.155 HD
BRANCH  14  17
ATOM     17  C   LIG d   1       5.611  -0.318  -3.385  0.00  0.00     0.079 A 
ATOM     18  C   LIG d   1       5.458  -1.315  -4.358  0.00  0.00     0.132 A 
ATOM     19  C   LIG d   1       4.683  -2.432  -4.083  0.00  0.00    -0.019 A 
ATOM     20  C   LIG d   1       4.064  -2.559  -2.855  0.00  0.00    -0.058 A 
ATOM     21  H   LIG d   1       4.563  -3.203  -4.830  0.00  0.00     0.065 H 
ATOM     22  C   LIG d   1       4.212  -1.576  -1.890  0.00  0.00    -0.061 A 
ATOM     23  H   LIG d   1       3.462  -3.430  -2.645  0.00  0.00     0.062 H 
ATOM     24  C   LIG d   1       4.982  -0.462  -2.145  0.00  0.00    -0.046 A 
ATOM     25  H   LIG d   1       3.725  -1.685  -0.932  0.00  0.00     0.062 H 
ATOM     26  H   LIG d   1       5.098   0.300  -1.388  0.00  0.00     0.063 H 
BRANCH  18  27
ATOM     27  O   LIG d   1       6.067  -1.190  -5.563  0.00  0.00    -0.494 OA
BRANCH  27  28
ATOM     28  C   LIG d   1       5.225  -0.982  -6.698  0.00  0.00     0.079 C 
ATOM     29  H   LIG d   1       4.697  -0.035  -6.591  0.00  0.00     0.066 H 
ATOM     30  H   LIG d   1       5.833  -0.959  -7.603  0.00  0.00     0.066 H 
ATOM     31  H   LIG d   1       4.503  -1.795  -6.768  0.00  0.00     0.066 H 
ENDBRANCH  27  28
ENDBRANCH  18  27
ENDBRANCH  14  17
ENDBRANCH   6  13
BRANCH   2  32
ATOM     32  C   LIG d   1      11.443   6.063  -5.810  0.00  0.00    -0.035 C 
ATOM     33  H   LIG d   1      10.801   6.940  -5.896  0.00  0.00     0.028 H 
ATOM     34  H   LIG d   1      11.431   5.510  -6.749  0.00  0.00     0.028 H 
ATOM     35  H   LIG d   1      12.462   6.378  -5.586  0.00  0.00     0.028 H 
ENDBRANCH   2  32
BRANCH   1  36
ATOM     36  C   LIG d   1      12.100   6.312  -2.787  0.00  0.00     0.375 C 
ATOM     37  O   LIG d   1      13.280   6.344  -3.077  0.00  0.00    -0.241 OA
BRANCH  36  38
ATOM     38  O   LIG d   1      11.594   7.215  -1.923  0.00  0.00    -0.459 OA
BRANCH  38  39
ATOM     39  C   LIG d   1      10.419   7.953  -2.351  0.00  0.00     0.090 C 
ATOM     40  H   LIG d   1      10.681   9.001  -2.492  0.00  0.00     0.070 H 
ATOM     41  H   LIG d   1      10.053   7.539  -3.291  0.00  0.00     0.070 H 
BRANCH  39  42
ATOM     42  C   LIG d   1       9.327   7.838  -1.285  0.00  0.00    -0.031 C 
ATOM     43  H   LIG d   1       8.352   7.993  -1.746  0.00  0.00     0.026 H 
ATOM     44  H   LIG d   1       9.363   6.847  -0.833  0.00  0.00     0.026 H 
ATOM     45  H   LIG d   1       9.489   8.594  -0.516  0.00  0.00     0.026 H 
ENDBRANCH  39  42
ENDBRANCH  38  39
ENDBRANCH  36  38
ENDBRANCH   1  36
TORSDOF 9
ENDMDL
MODEL 7
REMARK VINA RESULT:      -5.7      5.367      9.264
REMARK  9 active torsions:
REMARK  status: ('A' for Active; 'I' for Inactive)
REMARK    1  A    between atoms: C_1  and  C_2 
REMARK    2  A    between atoms: C_2  and  O_3 
REMARK    3  A    between atoms: O_3  and  C_4 
REMARK    4  A    between atoms: C_4  and  C_6 
REMARK    5  A    between atoms: C_7  and  C_26 
REMARK    6  A    between atoms: C_11  and  N_15 
REMARK       I    between atoms: N_15  and  C_16 
REMARK    7  A    between atoms: C_16  and  C_18 
REMARK    8  A    between atoms: C_23  and  O_24 
REMARK    9  A    between atoms: O_24  and  C_25 
ROOT
ATOM      1  C   LIG d   1       4.269  -1.029  -5.407  0.00  0.00     0.215 A 
ATOM      2  C   LIG d   1       3.357  -0.093  -5.775  0.00  0.00     0.010 A 
ATOM      3  C   LIG d   1       3.552   0.153  -7.158  0.00  0.00     0.024 A 
ATOM      4  C   LIG d   1       2.935   1.000  -8.087  0.00  0.00    -0.049 A 
ATOM      5  C   LIG d   1       3.360   1.011  -9.382  0.00  0.00    -0.040 A 
ATOM      6  C   LIG d   1       4.405   0.183  -9.790  0.00  0.00     0.037 A 
ATOM      7  C   LIG d   1       5.027  -0.662  -8.886  0.00  0.00     0.003 A 
ATOM      8  C   LIG d   1       4.608  -0.685  -7.563  0.00  0.00     0.138 A 
ATOM      9  O   LIG d   1       5.010  -1.382  -6.481  0.00  0.00    -0.448 OA
ATOM     10  H   LIG d   1       2.124   1.643  -7.776  0.00  0.00     0.062 H 
ATOM     11  H   LIG d   1       2.882   1.665 -10.097  0.00  0.00     0.064 H 
ATOM     12  H   LIG d   1       5.837  -1.300  -9.209  0.00  0.00     0.067 H 
ENDROOT
BRANCH   6  13
ATOM     13  N   LIG d   1       4.828   0.206 -11.121  0.00  0.00    -0.281 N 
ATOM     14  C   LIG d   1       4.339  -0.692 -11.999  0.00  0.00     0.252 C 
ATOM     15  O   LIG d   1       3.469  -1.469 -11.653  0.00  0.00    -0.270 OA
ATOM     16  H   LIG d   1       5.474   0.868 -11.413  0.00  0.00     0.155 HD
BRANCH  14  17
ATOM     17  C   LIG d   1       4.858  -0.733 -13.379  0.00  0.00     0.079 A 
ATOM     18  C   LIG d   1       6.236  -0.843 -13.610  0.00  0.00     0.132 A 
ATOM     19  C   LIG d   1       6.714  -0.880 -14.912  0.00  0.00    -0.019 A 
ATOM     20  C   LIG d   1       5.834  -0.808 -15.974  0.00  0.00    -0.058 A 
ATOM     21  H   LIG d   1       7.775  -0.965 -15.095  0.00  0.00     0.065 H 
ATOM     22  C   LIG d   1       4.472  -0.698 -15.750  0.00  0.00    -0.061 A 
ATOM     23  H   LIG d   1       6.210  -0.837 -16.985  0.00  0.00     0.062 H 
ATOM     24  C   LIG d   1       3.979  -0.664 -14.463  0.00  0.00    -0.046 A 
ATOM     25  H   LIG d   1       3.791  -0.643 -16.586  0.00  0.00     0.062 H 
ATOM     26  H   LIG d   1       2.916  -0.583 -14.293  0.00  0.00     0.063 H 
BRANCH  18  27
ATOM     27  O   LIG d   1       7.099  -0.915 -12.566  0.00  0.00    -0.494 OA
BRANCH  27  28
ATOM     28  C   LIG d   1       7.808  -2.143 -12.393  0.00  0.00     0.079 C 
ATOM     29  H   LIG d   1       7.615  -2.537 -11.396  0.00  0.00     0.066 H 
ATOM     30  H   LIG d   1       7.473  -2.865 -13.139  0.00  0.00     0.066 H 
ATOM     31  H   LIG d   1       8.876  -1.966 -12.514  0.00  0.00     0.066 H 
ENDBRANCH  27  28
ENDBRANCH  18  27
ENDBRANCH  14  17
ENDBRANCH   6  13
BRANCH   2  32
ATOM     32  C   LIG d   1       2.335   0.565  -4.883  0.00  0.00    -0.035 C 
ATOM     33  H   LIG d   1       1.455   0.826  -5.470  0.00  0.00     0.028 H 
ATOM     34  H   LIG d   1       2.762   1.468  -4.446  0.00  0.00     0.028 H 
ATOM     35  H   LIG d   1       2.051  -0.124  -4.088  0.00  0.00     0.028 H 
ENDBRANCH   2  32
BRANCH   1  36
ATOM     36  C   LIG d   1       4.426  -1.574  -4.055  0.00  0.00     0.375 C 
ATOM     37  O   LIG d   1       3.898  -2.628  -3.759  0.00  0.00    -0.241 OA
BRANCH  36  38
ATOM     38  O   LIG d   1       5.154  -0.905  -3.139  0.00  0.00    -0.459 OA
BRANCH  38  39
ATOM     39  C   LIG d   1       4.498  -0.574  -1.887  0.00  0.00     0.090 C 
ATOM     40  H   LIG d   1       3.480  -0.964  -1.897  0.00  0.00     0.070 H 
ATOM     41  H   LIG d   1       5.050  -1.018  -1.058  0.00  0.00     0.070 H 
BRANCH  39  42
ATOM     42  C   LIG d   1       4.460   0.946  -1.716  0.00  0.00    -0.031 C 
ATOM     43  H   LIG d   1       3.438   1.263  -1.509  0.00  0.00     0.026 H 
ATOM     44  H   LIG d   1       5.107   1.235  -0.888  0.00  0.00     0.026 H 
ATOM     45  H   LIG d   1       4.809   1.423  -2.633  0.00  0.00     0.026 H 
ENDBRANCH  39  42
ENDBRANCH  38  39
ENDBRANCH  36  38
ENDBRANCH   1  36
TORSDOF 9
ENDMDL
MODEL 8
REMARK VINA RESULT:      -5.6      6.699     10.901
REMARK  9 active torsions:
REMARK  status: ('A' for Active; 'I' for Inactive)
REMARK    1  A    between atoms: C_1  and  C_2 
REMARK    2  A    between atoms: C_2  and  O_3 
REMARK    3  A    between atoms: O_3  and  C_4 
REMARK    4  A    between atoms: C_4  and  C_6 
REMARK    5  A    between atoms: C_7  and  C_26 
REMARK    6  A    between atoms: C_11  and  N_15 
REMARK       I    between atoms: N_15  and  C_16 
REMARK    7  A    between atoms: C_16  and  C_18 
REMARK    8  A    between atoms: C_23  and  O_24 
REMARK    9  A    between atoms: O_24  and  C_25 
ROOT
ATOM      1  C   LIG d   1      10.795   4.983  -6.766  0.00  0.00     0.215 A 
ATOM      2  C   LIG d   1      11.117   4.887  -5.449  0.00  0.00     0.010 A 
ATOM      3  C   LIG d   1      10.344   3.826  -4.912  0.00  0.00     0.024 A 
ATOM      4  C   LIG d   1      10.232   3.261  -3.636  0.00  0.00    -0.049 A 
ATOM      5  C   LIG d   1       9.377   2.220  -3.427  0.00  0.00    -0.040 A 
ATOM      6  C   LIG d   1       8.612   1.712  -4.477  0.00  0.00     0.037 A 
ATOM      7  C   LIG d   1       8.710   2.258  -5.747  0.00  0.00     0.003 A 
ATOM      8  C   LIG d   1       9.575   3.319  -5.976  0.00  0.00     0.138 A 
ATOM      9  O   LIG d   1       9.878   4.040  -7.075  0.00  0.00    -0.448 OA
ATOM     10  H   LIG d   1      10.823   3.649  -2.819  0.00  0.00     0.062 H 
ATOM     11  H   LIG d   1       9.292   1.785  -2.442  0.00  0.00     0.064 H 
ATOM     12  H   LIG d   1       8.114   1.860  -6.555  0.00  0.00     0.067 H 
ENDROOT
BRANCH   6  13
ATOM     13  N   LIG d   1       7.741   0.645  -4.247  0.00  0.00    -0.281 N 
ATOM     14  C   LIG d   1       6.540   0.867  -3.675  0.00  0.00     0.252 C 
ATOM     15  O   LIG d   1       6.182   2.005  -3.436  0.00  0.00    -0.270 OA
ATOM     16  H   LIG d   1       8.000  -0.255  -4.498  0.00  0.00     0.155 HD
BRANCH  14  17
ATOM     17  C   LIG d   1       5.662  -0.269  -3.341  0.00  0.00     0.079 A 
ATOM     18  C   LIG d   1       5.487  -1.317  -4.254  0.00  0.00     0.132 A 
ATOM     19  C   LIG d   1       4.659  -2.381  -3.930  0.00  0.00    -0.019 A 
ATOM     20  C   LIG d   1       4.009  -2.405  -2.712  0.00  0.00    -0.058 A 
ATOM     21  H   LIG d   1       4.521  -3.192  -4.631  0.00  0.00     0.065 H 
ATOM     22  C   LIG d   1       4.178  -1.371  -1.806  0.00  0.00    -0.061 A 
ATOM     23  H   LIG d   1       3.365  -3.236  -2.463  0.00  0.00     0.062 H 
ATOM     24  C   LIG d   1       5.001  -0.308  -2.110  0.00  0.00    -0.046 A 
ATOM     25  H   LIG d   1       3.667  -1.399  -0.855  0.00  0.00     0.062 H 
ATOM     26  H   LIG d   1       5.134   0.494  -1.399  0.00  0.00     0.063 H 
BRANCH  18  27
ATOM     27  O   LIG d   1       6.127  -1.293  -5.450  0.00  0.00    -0.494 OA
BRANCH  27  28
ATOM     28  C   LIG d   1       5.337  -0.998  -6.604  0.00  0.00     0.079 C 
ATOM     29  H   LIG d   1       5.523  -1.746  -7.373  0.00  0.00     0.066 H 
ATOM     30  H   LIG d   1       4.280  -1.010  -6.334  0.00  0.00     0.066 H 
ATOM     31  H   LIG d   1       5.603  -0.012  -6.983  0.00  0.00     0.066 H 
ENDBRANCH  27  28
ENDBRANCH  18  27
ENDBRANCH  14  17
ENDBRANCH   6  13
BRANCH   2  32
ATOM     32  C   LIG d   1      12.102   5.748  -4.700  0.00  0.00    -0.035 C 
ATOM     33  H   LIG d   1      12.816   6.177  -5.404  0.00  0.00     0.028 H 
ATOM     34  H   LIG d   1      12.634   5.139  -3.969  0.00  0.00     0.028 H 
ATOM     35  H   LIG d   1      11.568   6.547  -4.188  0.00  0.00     0.028 H 
ENDBRANCH   2  32
BRANCH   1  36
ATOM     36  C   LIG d   1      11.358   5.957  -7.706  0.00  0.00     0.375 C 
ATOM     37  O   LIG d   1      12.207   5.611  -8.504  0.00  0.00    -0.241 OA
BRANCH  36  38
ATOM     38  O   LIG d   1      10.935   7.237  -7.684  0.00  0.00    -0.459 OA
BRANCH  38  39
ATOM     39  C   LIG d   1       9.502   7.457  -7.605  0.00  0.00     0.090 C 
ATOM     40  H   LIG d   1       8.987   6.718  -8.218  0.00  0.00     0.070 H 
ATOM     41  H   LIG d   1       9.176   7.360  -6.569  0.00  0.00     0.070 H 
BRANCH  39  42
ATOM     42  C   LIG d   1       9.172   8.861  -8.114  0.00  0.00    -0.031 C 
ATOM     43  H   LIG d   1       9.237   8.879  -9.202  0.00  0.00     0.026 H 
ATOM     44  H   LIG d   1       8.162   9.132  -7.805  0.00  0.00     0.026 H 
ATOM     45  H   LIG d   1       9.882   9.576  -7.696  0.00  0.00     0.026 H 
ENDBRANCH  39  42
ENDBRANCH  38  39
ENDBRANCH  36  38
ENDBRANCH   1  36
TORSDOF 9
ENDMDL
MODEL 9
REMARK VINA RESULT:      -5.4      4.766      6.788
REMARK  9 active torsions:
REMARK  status: ('A' for Active; 'I' for Inactive)
REMARK    1  A    between atoms: C_1  and  C_2 
REMARK    2  A    between atoms: C_2  and  O_3 
REMARK    3  A    between atoms: O_3  and  C_4 
REMARK    4  A    between atoms: C_4  and  C_6 
REMARK    5  A    between atoms: C_7  and  C_26 
REMARK    6  A    between atoms: C_11  and  N_15 
REMARK       I    between atoms: N_15  and  C_16 
REMARK    7  A    between atoms: C_16  and  C_18 
REMARK    8  A    between atoms: C_23  and  O_24 
REMARK    9  A    between atoms: O_24  and  C_25 
ROOT
ATOM      1  C   LIG d   1       4.405  -2.749 -11.994  0.00  0.00     0.215 A 
ATOM      2  C   LIG d   1       3.864  -1.503 -12.010  0.00  0.00     0.010 A 
ATOM      3  C   LIG d   1       3.652  -1.127 -10.660  0.00  0.00     0.024 A 
ATOM      4  C   LIG d   1       3.129   0.016 -10.044  0.00  0.00    -0.049 A 
ATOM      5  C   LIG d   1       3.052   0.082  -8.685  0.00  0.00    -0.040 A 
ATOM      6  C   LIG d   1       3.493  -0.984  -7.900  0.00  0.00     0.037 A 
ATOM      7  C   LIG d   1       4.014  -2.123  -8.491  0.00  0.00     0.003 A 
ATOM      8  C   LIG d   1       4.099  -2.206  -9.874  0.00  0.00     0.138 A 
ATOM      9  O   LIG d   1       4.547  -3.161 -10.715  0.00  0.00    -0.448 OA
ATOM     10  H   LIG d   1       2.786   0.846 -10.647  0.00  0.00     0.062 H 
ATOM     11  H   LIG d   1       2.648   0.965  -8.212  0.00  0.00     0.064 H 
ATOM     12  H   LIG d   1       4.354  -2.945  -7.878  0.00  0.00     0.067 H 
ENDROOT
BRANCH   6  13
ATOM     13  N   LIG d   1       3.408  -0.902  -6.509  0.00  0.00    -0.281 N 
ATOM     14  C   LIG d   1       4.466  -0.470  -5.793  0.00  0.00     0.252 C 
ATOM     15  O   LIG d   1       5.465  -0.074  -6.364  0.00  0.00    -0.270 OA
ATOM     16  H   LIG d   1       2.588  -1.155  -6.058  0.00  0.00     0.155 HD
BRANCH  14  17
ATOM     17  C   LIG d   1       4.412  -0.478  -4.320  0.00  0.00     0.079 A 
ATOM     18  C   LIG d   1       4.305  -1.690  -3.625  0.00  0.00     0.132 A 
ATOM     19  C   LIG d   1       4.255  -1.685  -2.239  0.00  0.00    -0.019 A 
ATOM     20  C   LIG d   1       4.309  -0.490  -1.549  0.00  0.00    -0.058 A 
ATOM     21  H   LIG d   1       4.173  -2.617  -1.698  0.00  0.00     0.065 H 
ATOM     22  C   LIG d   1       4.414   0.710  -2.232  0.00  0.00    -0.061 A 
ATOM     23  H   LIG d   1       4.270  -0.491  -0.469  0.00  0.00     0.062 H 
ATOM     24  C   LIG d   1       4.470   0.724  -3.609  0.00  0.00    -0.046 A 
ATOM     25  H   LIG d   1       4.457   1.640  -1.683  0.00  0.00     0.062 H 
ATOM     26  H   LIG d   1       4.556   1.662  -4.137  0.00  0.00     0.063 H 
BRANCH  18  27
ATOM     27  O   LIG d   1       4.253  -2.863  -4.303  0.00  0.00    -0.494 OA
BRANCH  27  28
ATOM     28  C   LIG d   1       5.497  -3.511  -4.578  0.00  0.00     0.079 C 
ATOM     29  H   LIG d   1       5.419  -4.064  -5.513  0.00  0.00     0.066 H 
ATOM     30  H   LIG d   1       6.285  -2.762  -4.664  0.00  0.00     0.066 H 
ATOM     31  H   LIG d   1       5.735  -4.197  -3.767  0.00  0.00     0.066 H 
ENDBRANCH  27  28
ENDBRANCH  18  27
ENDBRANCH  14  17
ENDBRANCH   6  13
BRANCH   2  32
ATOM     32  C   LIG d   1       3.545  -0.679 -13.231  0.00  0.00    -0.035 C 
ATOM     33  H   LIG d   1       3.268   0.330 -12.926  0.00  0.00     0.028 H 
ATOM     34  H   LIG d   1       2.715  -1.136 -13.771  0.00  0.00     0.028 H 
ATOM     35  H   LIG d   1       4.420  -0.636 -13.879  0.00  0.00     0.028 H 
ENDBRANCH   2  32
BRANCH   1  36
ATOM     36  C   LIG d   1       4.778  -3.526 -13.180  0.00  0.00     0.375 C 
ATOM     37  O   LIG d   1       5.950  -3.685 -13.459  0.00  0.00    -0.241 OA
BRANCH  36  38
ATOM     38  O   LIG d   1       3.821  -4.065 -13.962  0.00  0.00    -0.459 OA
BRANCH  38  39
ATOM     39  C   LIG d   1       2.743  -4.772 -13.293  0.00  0.00     0.090 C 
ATOM     40  H   LIG d   1       2.702  -5.798 -13.658  0.00  0.00     0.070 H 
ATOM     41  H   LIG d   1       2.923  -4.775 -12.217  0.00  0.00     0.070 H 
BRANCH  39  42
ATOM     42  C   LIG d   1       1.414  -4.073 -13.585  0.00  0.00    -0.031 C 
ATOM     43  H   LIG d   1       0.697  -4.314 -12.800  0.00  0.00     0.026 H 
ATOM     44  H   LIG d   1       1.570  -2.994 -13.618  0.00  0.00     0.026 H 
ATOM     45  H   LIG d   1       1.028  -4.413 -14.546  0.00  0.00     0.026 H 
ENDBRANCH  39  42
ENDBRANCH  38  39
ENDBRANCH  36  38
ENDBRANCH   1  36
TORSDOF 9
ENDMDL
