MODEL 1
REMARK VINA RESULT:      -7.7      0.000      0.000
REMARK  6 active torsions:
REMARK  status: ('A' for Active; 'I' for Inactive)
REMARK    1  A    between atoms: C_1  and  C_2 
REMARK    2  A    between atoms: C_2  and  C_3 
REMARK    3  A    between atoms: C_2  and  C_4 
REMARK    4  A    between atoms: C_7  and  N_10 
REMARK       I    between atoms: N_10  and  C_11 
REMARK    5  A    between atoms: C_11  and  C_13 
REMARK    6  A    between atoms: N_19  and  C_20 
ROOT
ATOM      1  C   LIG d   1       7.125   0.206  -5.274  0.00  0.00     0.106 C 
ATOM      2  H   LIG d   1       6.594   0.813  -4.540  0.00  0.00     0.060 H 
ATOM      3  C   LIG d   1       8.382   0.950  -5.775  0.00  0.00    -0.017 C 
ATOM      4  C   LIG d   1       9.381  -0.213  -5.969  0.00  0.00     0.026 C 
ATOM      5  C   LIG d   1       8.885  -1.289  -5.029  0.00  0.00     0.219 C 
ATOM      6  O   LIG d   1       9.532  -2.249  -4.669  0.00  0.00    -0.276 OA
ATOM      7  N   LIG d   1       7.620  -1.027  -4.650  0.00  0.00    -0.251 N 
ATOM      8  H   LIG d   1       8.185   1.458  -6.719  0.00  0.00     0.029 H 
ATOM      9  H   LIG d   1       8.744   1.654  -5.025  0.00  0.00     0.029 H 
ATOM     10  H   LIG d   1       9.359  -0.567  -7.000  0.00  0.00     0.036 H 
ATOM     11  H   LIG d   1      10.389   0.099  -5.694  0.00  0.00     0.036 H 
ENDROOT
BRANCH   1  12
ATOM     12  C   LIG d   1       6.217  -0.123  -6.431  0.00  0.00     0.238 C 
ATOM     13  N   LIG d   1       4.914   0.217  -6.383  0.00  0.00    -0.284 N 
ATOM     14  H   LIG d   1       4.576   0.741  -5.640  0.00  0.00     0.155 HD
ATOM     15  O   LIG d   1       6.660  -0.693  -7.405  0.00  0.00    -0.273 OA
BRANCH  13  16
ATOM     16  C   LIG d   1       4.048  -0.187  -7.405  0.00  0.00     0.034 A 
ATOM     17  C   LIG d   1       3.915  -1.535  -7.712  0.00  0.00    -0.040 A 
ATOM     18  C   LIG d   1       3.059  -1.930  -8.722  0.00  0.00    -0.057 A 
ATOM     19  H   LIG d   1       4.480  -2.273  -7.162  0.00  0.00     0.064 H 
ATOM     20  C   LIG d   1       2.335  -0.986  -9.427  0.00  0.00    -0.045 A 
ATOM     21  H   LIG d   1       2.955  -2.979  -8.961  0.00  0.00     0.062 H 
ATOM     22  C   LIG d   1       2.470   0.358  -9.126  0.00  0.00    -0.057 A 
ATOM     23  C   LIG d   1       3.319   0.759  -8.114  0.00  0.00    -0.040 A 
ATOM     24  H   LIG d   1       1.906   1.092  -9.681  0.00  0.00     0.062 H 
ATOM     25  H   LIG d   1       3.421   1.808  -7.878  0.00  0.00     0.064 H 
BRANCH  20  26
ATOM     26  C   LIG d   1       1.403  -1.421 -10.527  0.00  0.00    -0.021 C 
ATOM     27  H   LIG d   1       0.441  -0.923 -10.406  0.00  0.00     0.034 H 
BRANCH  26  28
ATOM     28  C   LIG d   1       2.004  -1.046 -11.883  0.00  0.00    -0.059 C 
ATOM     29  H   LIG d   1       1.622  -1.722 -12.649  0.00  0.00     0.024 H 
ATOM     30  H   LIG d   1       1.728  -0.022 -12.132  0.00  0.00     0.024 H 
ATOM     31  H   LIG d   1       3.090  -1.129 -11.834  0.00  0.00     0.024 H 
ENDBRANCH  26  28
BRANCH  26  32
ATOM     32  C   LIG d   1       1.204  -2.936 -10.458  0.00  0.00    -0.059 C 
ATOM     33  H   LIG d   1       0.515  -3.177  -9.649  0.00  0.00     0.024 H 
ATOM     34  H   LIG d   1       0.792  -3.292 -11.402  0.00  0.00     0.024 H 
ATOM     35  H   LIG d   1       2.163  -3.420 -10.274  0.00  0.00     0.024 H 
ENDBRANCH  26  32
ENDBRANCH  20  26
ENDBRANCH  13  16
ENDBRANCH   1  12
BRANCH   7  36
ATOM     36  C   LIG d   1       6.839  -1.862  -3.735  0.00  0.00     0.201 A 
ATOM     37  H   LIG d   1       7.464  -2.189  -2.903  0.00  0.00     0.101 H 
ATOM     38  O   LIG d   1       6.316  -2.997  -4.431  0.00  0.00    -0.435 OA
ATOM     39  C   LIG d   1       4.974  -2.974  -4.378  0.00  0.00     0.342 A 
ATOM     40  C   LIG d   1       4.518  -1.792  -3.625  0.00  0.00     0.067 A 
ATOM     41  O   LIG d   1       4.243  -3.805  -4.879  0.00  0.00    -0.245 OA
ATOM     42  C   LIG d   1       5.654  -1.087  -3.215  0.00  0.00     0.025 A 
ATOM     43  C   LIG d   1       3.252  -1.312  -3.286  0.00  0.00    -0.047 A 
ATOM     44  C   LIG d   1       5.525   0.070  -2.484  0.00  0.00    -0.053 A 
ATOM     45  C   LIG d   1       4.265   0.542  -2.152  0.00  0.00    -0.061 A 
ATOM     46  H   LIG d   1       6.405   0.612  -2.169  0.00  0.00     0.062 H 
ATOM     47  C   LIG d   1       3.136  -0.149  -2.553  0.00  0.00    -0.061 A 
ATOM     48  H   LIG d   1       4.165   1.451  -1.579  0.00  0.00     0.062 H 
ATOM     49  H   LIG d   1       2.157   0.224  -2.290  0.00  0.00     0.062 H 
ATOM     50  H   LIG d   1       2.368  -1.848  -3.597  0.00  0.00     0.063 H 
ENDBRANCH   7  36
TORSDOF 6
ENDMDL
MODEL 2
REMARK VINA RESULT:      -7.4      1.897      4.173
REMARK  6 active torsions:
REMARK  status: ('A' for Active; 'I' for Inactive)
REMARK    1  A    between atoms: C_1  and  C_2 
REMARK    2  A    between atoms: C_2  and  C_3 
REMARK    3  A    between atoms: C_2  and  C_4 
REMARK    4  A    between atoms: C_7  and  N_10 
REMARK       I    between atoms: N_10  and  C_11 
REMARK    5  A    between atoms: C_11  and  C_13 
REMARK    6  A    between atoms: N_19  and  C_20 
ROOT
ATOM      1  C   LIG d   1       4.586  -1.442  -3.682  0.00  0.00     0.106 C 
ATOM      2  H   LIG d   1       5.246  -2.271  -3.425  0.00  0.00     0.060 H 
ATOM      3  C   LIG d   1       3.214  -1.617  -2.995  0.00  0.00    -0.017 C 
ATOM      4  C   LIG d   1       2.835  -0.155  -2.669  0.00  0.00     0.026 C 
ATOM      5  C   LIG d   1       4.163   0.565  -2.593  0.00  0.00     0.219 C 
ATOM      6  O   LIG d   1       4.335   1.655  -2.091  0.00  0.00    -0.276 OA
ATOM      7  N   LIG d   1       5.128  -0.181  -3.162  0.00  0.00    -0.251 N 
ATOM      8  H   LIG d   1       2.491  -2.067  -3.675  0.00  0.00     0.029 H 
ATOM      9  H   LIG d   1       3.306  -2.208  -2.083  0.00  0.00     0.029 H 
ATOM     10  H   LIG d   1       2.219   0.266  -3.464  0.00  0.00     0.036 H 
ATOM     11  H   LIG d   1       2.314  -0.099  -1.713  0.00  0.00     0.036 H 
ENDROOT
BRANCH   1  12
ATOM     12  C   LIG d   1       4.413  -1.359  -5.177  0.00  0.00     0.238 C 
ATOM     13  N   LIG d   1       4.245  -0.160  -5.769  0.00  0.00    -0.284 N 
ATOM     14  H   LIG d   1       4.311   0.654  -5.246  0.00  0.00     0.155 HD
ATOM     15  O   LIG d   1       4.426  -2.370  -5.846  0.00  0.00    -0.273 OA
BRANCH  13  16
ATOM     16  C   LIG d   1       3.972  -0.090  -7.140  0.00  0.00     0.034 A 
ATOM     17  C   LIG d   1       2.661  -0.157  -7.593  0.00  0.00    -0.040 A 
ATOM     18  C   LIG d   1       2.396  -0.087  -8.947  0.00  0.00    -0.057 A 
ATOM     19  H   LIG d   1       1.850  -0.263  -6.888  0.00  0.00     0.064 H 
ATOM     20  C   LIG d   1       3.433   0.049  -9.851  0.00  0.00    -0.045 A 
ATOM     21  H   LIG d   1       1.375  -0.139  -9.300  0.00  0.00     0.062 H 
ATOM     22  C   LIG d   1       4.740   0.111  -9.403  0.00  0.00    -0.057 A 
ATOM     23  C   LIG d   1       5.012   0.047  -8.050  0.00  0.00    -0.040 A 
ATOM     24  H   LIG d   1       5.548   0.213 -10.112  0.00  0.00     0.062 H 
ATOM     25  H   LIG d   1       6.032   0.099  -7.701  0.00  0.00     0.064 H 
BRANCH  20  26
ATOM     26  C   LIG d   1       3.139   0.125 -11.327  0.00  0.00    -0.021 C 
ATOM     27  H   LIG d   1       2.737   1.108 -11.567  0.00  0.00     0.034 H 
BRANCH  26  28
ATOM     28  C   LIG d   1       4.430  -0.106 -12.116  0.00  0.00    -0.059 C 
ATOM     29  H   LIG d   1       4.745  -1.143 -12.001  0.00  0.00     0.024 H 
ATOM     30  H   LIG d   1       4.254   0.107 -13.170  0.00  0.00     0.024 H 
ATOM     31  H   LIG d   1       5.210   0.555 -11.737  0.00  0.00     0.024 H 
ENDBRANCH  26  28
BRANCH  26  32
ATOM     32  C   LIG d   1       2.115  -0.950 -11.699  0.00  0.00    -0.059 C 
ATOM     33  H   LIG d   1       2.298  -1.289 -12.718  0.00  0.00     0.024 H 
ATOM     34  H   LIG d   1       2.207  -1.792 -11.014  0.00  0.00     0.024 H 
ATOM     35  H   LIG d   1       1.110  -0.533 -11.630  0.00  0.00     0.024 H 
ENDBRANCH  26  32
ENDBRANCH  20  26
ENDBRANCH  13  16
ENDBRANCH   1  12
BRANCH   7  36
ATOM     36  C   LIG d   1       6.536   0.212  -3.252  0.00  0.00     0.201 A 
ATOM     37  H   LIG d   1       6.906   0.501  -2.268  0.00  0.00     0.101 H 
ATOM     38  O   LIG d   1       6.684   1.299  -4.170  0.00  0.00    -0.435 OA
ATOM     39  C   LIG d   1       7.490   0.926  -5.178  0.00  0.00     0.342 A 
ATOM     40  C   LIG d   1       7.933  -0.466  -4.981  0.00  0.00     0.067 A 
ATOM     41  O   LIG d   1       7.805   1.631  -6.115  0.00  0.00    -0.245 OA
ATOM     42  C   LIG d   1       7.357  -0.930  -3.795  0.00  0.00     0.025 A 
ATOM     43  C   LIG d   1       8.760  -1.312  -5.721  0.00  0.00    -0.047 A 
ATOM     44  C   LIG d   1       7.603  -2.211  -3.361  0.00  0.00    -0.053 A 
ATOM     45  C   LIG d   1       8.425  -3.046  -4.100  0.00  0.00    -0.061 A 
ATOM     46  H   LIG d   1       7.156  -2.566  -2.444  0.00  0.00     0.062 H 
ATOM     47  C   LIG d   1       9.000  -2.596  -5.274  0.00  0.00    -0.061 A 
ATOM     48  H   LIG d   1       8.617  -4.052  -3.758  0.00  0.00     0.062 H 
ATOM     49  H   LIG d   1       9.639  -3.252  -5.846  0.00  0.00     0.062 H 
ATOM     50  H   LIG d   1       9.211  -0.964  -6.638  0.00  0.00     0.063 H 
ENDBRANCH   7  36
TORSDOF 6
ENDMDL
MODEL 3
REMARK VINA RESULT:      -7.1      2.139      3.444
REMARK  6 active torsions:
REMARK  status: ('A' for Active; 'I' for Inactive)
REMARK    1  A    between atoms: C_1  and  C_2 
REMARK    2  A    between atoms: C_2  and  C_3 
REMARK    3  A    between atoms: C_2  and  C_4 
REMARK    4  A    between atoms: C_7  and  N_10 
REMARK       I    between atoms: N_10  and  C_11 
REMARK    5  A    between atoms: C_11  and  C_13 
REMARK    6  A    between atoms: N_19  and  C_20 
ROOT
ATOM      1  C   LIG d   1       5.238  -1.138  -6.634  0.00  0.00     0.106 C 
ATOM      2  H   LIG d   1       5.457  -0.125  -6.296  0.00  0.00     0.060 H 
ATOM      3  C   LIG d   1       6.547  -1.940  -6.805  0.00  0.00    -0.017 C 
ATOM      4  C   LIG d   1       6.110  -3.355  -6.361  0.00  0.00     0.026 C 
ATOM      5  C   LIG d   1       4.932  -3.109  -5.445  0.00  0.00     0.219 C 
ATOM      6  O   LIG d   1       4.472  -3.922  -4.670  0.00  0.00    -0.276 OA
ATOM      7  N   LIG d   1       4.466  -1.858  -5.614  0.00  0.00    -0.251 N 
ATOM      8  H   LIG d   1       6.872  -1.940  -7.845  0.00  0.00     0.029 H 
ATOM      9  H   LIG d   1       7.331  -1.552  -6.154  0.00  0.00     0.029 H 
ATOM     10  H   LIG d   1       5.805  -3.949  -7.223  0.00  0.00     0.036 H 
ATOM     11  H   LIG d   1       6.916  -3.852  -5.821  0.00  0.00     0.036 H 
ENDROOT
BRANCH   1  12
ATOM     12  C   LIG d   1       4.476  -1.100  -7.934  0.00  0.00     0.238 C 
ATOM     13  N   LIG d   1       3.283  -1.718  -8.034  0.00  0.00    -0.284 N 
ATOM     14  H   LIG d   1       2.878  -2.121  -7.250  0.00  0.00     0.155 HD
ATOM     15  O   LIG d   1       4.937  -0.513  -8.889  0.00  0.00    -0.273 OA
BRANCH  13  16
ATOM     16  C   LIG d   1       2.629  -1.779  -9.269  0.00  0.00     0.034 A 
ATOM     17  C   LIG d   1       1.783  -0.750  -9.660  0.00  0.00    -0.040 A 
ATOM     18  C   LIG d   1       1.139  -0.813 -10.880  0.00  0.00    -0.057 A 
ATOM     19  H   LIG d   1       1.630   0.100  -9.012  0.00  0.00     0.064 H 
ATOM     20  C   LIG d   1       1.334  -1.901 -11.712  0.00  0.00    -0.045 A 
ATOM     21  H   LIG d   1       0.481  -0.012 -11.185  0.00  0.00     0.062 H 
ATOM     22  C   LIG d   1       2.172  -2.931 -11.323  0.00  0.00    -0.057 A 
ATOM     23  C   LIG d   1       2.824  -2.870 -10.107  0.00  0.00    -0.040 A 
ATOM     24  H   LIG d   1       2.320  -3.779 -11.973  0.00  0.00     0.062 H 
ATOM     25  H   LIG d   1       3.480  -3.672  -9.805  0.00  0.00     0.064 H 
BRANCH  20  26
ATOM     26  C   LIG d   1       0.630  -1.967 -13.042  0.00  0.00    -0.021 C 
ATOM     27  H   LIG d   1       0.239  -0.982 -13.295  0.00  0.00     0.034 H 
BRANCH  26  28
ATOM     28  C   LIG d   1       1.618  -2.415 -14.121  0.00  0.00    -0.059 C 
ATOM     29  H   LIG d   1       2.351  -3.093 -13.682  0.00  0.00     0.024 H 
ATOM     30  H   LIG d   1       1.079  -2.928 -14.917  0.00  0.00     0.024 H 
ATOM     31  H   LIG d   1       2.129  -1.544 -14.531  0.00  0.00     0.024 H 
ENDBRANCH  26  28
BRANCH  26  32
ATOM     32  C   LIG d   1      -0.524  -2.968 -12.960  0.00  0.00    -0.059 C 
ATOM     33  H   LIG d   1      -1.073  -2.969 -13.901  0.00  0.00     0.024 H 
ATOM     34  H   LIG d   1      -0.127  -3.965 -12.770  0.00  0.00     0.024 H 
ATOM     35  H   LIG d   1      -1.194  -2.684 -12.148  0.00  0.00     0.024 H 
ENDBRANCH  26  32
ENDBRANCH  20  26
ENDBRANCH  13  16
ENDBRANCH   1  12
BRANCH   7  36
ATOM     36  C   LIG d   1       3.336  -1.287  -4.877  0.00  0.00     0.201 A 
ATOM     37  H   LIG d   1       2.604  -2.064  -4.656  0.00  0.00     0.101 H 
ATOM     38  O   LIG d   1       2.727  -0.245  -5.644  0.00  0.00    -0.435 OA
ATOM     39  C   LIG d   1       2.801   0.912  -4.964  0.00  0.00     0.342 A 
ATOM     40  C   LIG d   1       3.482   0.697  -3.674  0.00  0.00     0.067 A 
ATOM     41  O   LIG d   1       2.372   1.979  -5.355  0.00  0.00    -0.245 OA
ATOM     42  C   LIG d   1       3.822  -0.657  -3.596  0.00  0.00     0.025 A 
ATOM     43  C   LIG d   1       3.806   1.549  -2.619  0.00  0.00    -0.047 A 
ATOM     44  C   LIG d   1       4.473  -1.144  -2.487  0.00  0.00    -0.053 A 
ATOM     45  C   LIG d   1       4.793  -0.292  -1.443  0.00  0.00    -0.061 A 
ATOM     46  H   LIG d   1       4.734  -2.190  -2.430  0.00  0.00     0.062 H 
ATOM     47  C   LIG d   1       4.460   1.049  -1.511  0.00  0.00    -0.061 A 
ATOM     48  H   LIG d   1       5.304  -0.676  -0.573  0.00  0.00     0.062 H 
ATOM     49  H   LIG d   1       4.712   1.707  -0.693  0.00  0.00     0.062 H 
ATOM     50  H   LIG d   1       3.548   2.597  -2.668  0.00  0.00     0.063 H 
ENDBRANCH   7  36
TORSDOF 6
ENDMDL
MODEL 4
REMARK VINA RESULT:      -7.1      3.934      7.532
REMARK  6 active torsions:
REMARK  status: ('A' for Active; 'I' for Inactive)
REMARK    1  A    between atoms: C_1  and  C_2 
REMARK    2  A    between atoms: C_2  and  C_3 
REMARK    3  A    between atoms: C_2  and  C_4 
REMARK    4  A    between atoms: C_7  and  N_10 
REMARK       I    between atoms: N_10  and  C_11 
REMARK    5  A    between atoms: C_11  and  C_13 
REMARK    6  A    between atoms: N_19  and  C_20 
ROOT
ATOM      1  C   LIG d   1       8.694   0.402  -5.068  0.00  0.00     0.106 C 
ATOM      2  H   LIG d   1       9.420  -0.341  -4.739  0.00  0.00     0.060 H 
ATOM      3  C   LIG d   1       8.884   0.709  -6.569  0.00  0.00    -0.017 C 
ATOM      4  C   LIG d   1       7.427   0.936  -7.033  0.00  0.00     0.026 C 
ATOM      5  C   LIG d   1       6.596   0.162  -6.034  0.00  0.00     0.219 C 
ATOM      6  O   LIG d   1       5.435  -0.151  -6.191  0.00  0.00    -0.276 OA
ATOM      7  N   LIG d   1       7.331  -0.129  -4.945  0.00  0.00    -0.251 N 
ATOM      8  H   LIG d   1       9.484   1.608  -6.711  0.00  0.00     0.029 H 
ATOM      9  H   LIG d   1       9.331  -0.140  -7.088  0.00  0.00     0.029 H 
ATOM     10  H   LIG d   1       7.176   1.996  -6.998  0.00  0.00     0.036 H 
ATOM     11  H   LIG d   1       7.281   0.541  -8.039  0.00  0.00     0.036 H 
ENDROOT
BRANCH   1  12
ATOM     12  C   LIG d   1       8.836   1.664  -4.256  0.00  0.00     0.238 C 
ATOM     13  N   LIG d   1       9.831   2.532  -4.529  0.00  0.00    -0.284 N 
ATOM     14  H   LIG d   1      10.406   2.385  -5.296  0.00  0.00     0.155 HD
ATOM     15  O   LIG d   1       8.057   1.898  -3.357  0.00  0.00    -0.273 OA
BRANCH  13  16
ATOM     16  C   LIG d   1      10.033   3.645  -3.706  0.00  0.00     0.034 A 
ATOM     17  C   LIG d   1      10.761   3.518  -2.530  0.00  0.00    -0.040 A 
ATOM     18  C   LIG d   1      10.958   4.619  -1.720  0.00  0.00    -0.057 A 
ATOM     19  H   LIG d   1      11.172   2.560  -2.250  0.00  0.00     0.064 H 
ATOM     20  C   LIG d   1      10.432   5.847  -2.078  0.00  0.00    -0.045 A 
ATOM     21  H   LIG d   1      11.525   4.521  -0.805  0.00  0.00     0.062 H 
ATOM     22  C   LIG d   1       9.702   5.976  -3.246  0.00  0.00    -0.057 A 
ATOM     23  C   LIG d   1       9.506   4.880  -4.063  0.00  0.00    -0.040 A 
ATOM     24  H   LIG d   1       9.290   6.935  -3.520  0.00  0.00     0.062 H 
ATOM     25  H   LIG d   1       8.939   4.982  -4.976  0.00  0.00     0.064 H 
BRANCH  20  26
ATOM     26  C   LIG d   1      10.650   7.046  -1.192  0.00  0.00    -0.021 C 
ATOM     27  H   LIG d   1      11.502   7.618  -1.557  0.00  0.00     0.034 H 
BRANCH  26  28
ATOM     28  C   LIG d   1       9.400   7.927  -1.209  0.00  0.00    -0.059 C 
ATOM     29  H   LIG d   1       8.639   7.492  -0.560  0.00  0.00     0.024 H 
ATOM     30  H   LIG d   1       9.653   8.925  -0.853  0.00  0.00     0.024 H 
ATOM     31  H   LIG d   1       9.014   7.992  -2.227  0.00  0.00     0.024 H 
ENDBRANCH  26  28
BRANCH  26  32
ATOM     32  C   LIG d   1      10.925   6.579   0.240  0.00  0.00    -0.059 C 
ATOM     33  H   LIG d   1      11.361   7.397   0.812  0.00  0.00     0.024 H 
ATOM     34  H   LIG d   1       9.990   6.268   0.706  0.00  0.00     0.024 H 
ATOM     35  H   LIG d   1      11.619   5.739   0.221  0.00  0.00     0.024 H 
ENDBRANCH  26  32
ENDBRANCH  20  26
ENDBRANCH  13  16
ENDBRANCH   1  12
BRANCH   7  36
ATOM     36  C   LIG d   1       6.838  -0.878  -3.787  0.00  0.00     0.201 A 
ATOM     37  H   LIG d   1       7.580  -0.861  -2.989  0.00  0.00     0.101 H 
ATOM     38  O   LIG d   1       6.553  -2.228  -4.163  0.00  0.00    -0.435 OA
ATOM     39  C   LIG d   1       5.250  -2.486  -3.952  0.00  0.00     0.342 A 
ATOM     40  C   LIG d   1       4.581  -1.289  -3.411  0.00  0.00     0.067 A 
ATOM     41  O   LIG d   1       4.705  -3.547  -4.176  0.00  0.00    -0.245 OA
ATOM     42  C   LIG d   1       5.542  -0.280  -3.299  0.00  0.00     0.025 A 
ATOM     43  C   LIG d   1       3.265  -1.029  -3.028  0.00  0.00    -0.047 A 
ATOM     44  C   LIG d   1       5.193   0.959  -2.815  0.00  0.00    -0.053 A 
ATOM     45  C   LIG d   1       3.884   1.209  -2.437  0.00  0.00    -0.061 A 
ATOM     46  H   LIG d   1       5.939   1.735  -2.730  0.00  0.00     0.062 H 
ATOM     47  C   LIG d   1       2.926   0.218  -2.544  0.00  0.00    -0.061 A 
ATOM     48  H   LIG d   1       3.611   2.183  -2.058  0.00  0.00     0.062 H 
ATOM     49  H   LIG d   1       1.908   0.420  -2.247  0.00  0.00     0.062 H 
ATOM     50  H   LIG d   1       2.514  -1.801  -3.110  0.00  0.00     0.063 H 
ENDBRANCH   7  36
TORSDOF 6
ENDMDL
MODEL 5
REMARK VINA RESULT:      -7.1      2.353      7.050
REMARK  6 active torsions:
REMARK  status: ('A' for Active; 'I' for Inactive)
REMARK    1  A    between atoms: C_1  and  C_2 
REMARK    2  A    between atoms: C_2  and  C_3 
REMARK    3  A    between atoms: C_2  and  C_4 
REMARK    4  A    between atoms: C_7  and  N_10 
REMARK       I    between atoms: N_10  and  C_11 
REMARK    5  A    between atoms: C_11  and  C_13 
REMARK    6  A    between atoms: N_19  and  C_20 
ROOT
ATOM      1  C   LIG d   1       4.921   0.193  -3.839  0.00  0.00     0.106 C 
ATOM      2  H   LIG d   1       4.490   0.908  -4.540  0.00  0.00     0.060 H 
ATOM      3  C   LIG d   1       4.283   0.361  -2.443  0.00  0.00    -0.017 C 
ATOM      4  C   LIG d   1       4.239  -1.100  -1.938  0.00  0.00     0.026 C 
ATOM      5  C   LIG d   1       4.224  -1.929  -3.203  0.00  0.00     0.219 C 
ATOM      6  O   LIG d   1       3.914  -3.100  -3.262  0.00  0.00    -0.276 OA
ATOM      7  N   LIG d   1       4.605  -1.180  -4.254  0.00  0.00    -0.251 N 
ATOM      8  H   LIG d   1       4.909   0.978  -1.799  0.00  0.00     0.029 H 
ATOM      9  H   LIG d   1       3.278   0.777  -2.520  0.00  0.00     0.029 H 
ATOM     10  H   LIG d   1       5.125  -1.325  -1.345  0.00  0.00     0.036 H 
ATOM     11  H   LIG d   1       3.334  -1.275  -1.355  0.00  0.00     0.036 H 
ENDROOT
BRANCH   1  12
ATOM     12  C   LIG d   1       6.414   0.381  -3.756  0.00  0.00     0.238 C 
ATOM     13  N   LIG d   1       6.993   1.444  -4.349  0.00  0.00    -0.284 N 
ATOM     14  H   LIG d   1       6.443   2.129  -4.761  0.00  0.00     0.155 HD
ATOM     15  O   LIG d   1       7.094  -0.424  -3.157  0.00  0.00    -0.273 OA
BRANCH  13  16
ATOM     16  C   LIG d   1       8.387   1.560  -4.369  0.00  0.00     0.034 A 
ATOM     17  C   LIG d   1       9.133   0.818  -5.275  0.00  0.00    -0.040 A 
ATOM     18  C   LIG d   1      10.510   0.935  -5.292  0.00  0.00    -0.057 A 
ATOM     19  H   LIG d   1       8.639   0.150  -5.964  0.00  0.00     0.064 H 
ATOM     20  C   LIG d   1      11.145   1.790  -4.410  0.00  0.00    -0.045 A 
ATOM     21  H   LIG d   1      11.091   0.357  -5.997  0.00  0.00     0.062 H 
ATOM     22  C   LIG d   1      10.404   2.527  -3.503  0.00  0.00    -0.057 A 
ATOM     23  C   LIG d   1       9.027   2.419  -3.484  0.00  0.00    -0.040 A 
ATOM     24  H   LIG d   1      10.903   3.190  -2.814  0.00  0.00     0.062 H 
ATOM     25  H   LIG d   1       8.449   2.997  -2.779  0.00  0.00     0.064 H 
BRANCH  20  26
ATOM     26  C   LIG d   1      12.646   1.915  -4.432  0.00  0.00    -0.021 C 
ATOM     27  H   LIG d   1      12.995   1.920  -5.464  0.00  0.00     0.034 H 
BRANCH  26  28
ATOM     28  C   LIG d   1      13.059   3.219  -3.747  0.00  0.00    -0.059 C 
ATOM     29  H   LIG d   1      13.959   3.050  -3.156  0.00  0.00     0.024 H 
ATOM     30  H   LIG d   1      13.258   3.979  -4.503  0.00  0.00     0.024 H 
ATOM     31  H   LIG d   1      12.254   3.558  -3.095  0.00  0.00     0.024 H 
ENDBRANCH  26  28
BRANCH  26  32
ATOM     32  C   LIG d   1      13.268   0.730  -3.689  0.00  0.00    -0.059 C 
ATOM     33  H   LIG d   1      13.381   0.980  -2.635  0.00  0.00     0.024 H 
ATOM     34  H   LIG d   1      12.620  -0.141  -3.788  0.00  0.00     0.024 H 
ATOM     35  H   LIG d   1      14.245   0.506  -4.117  0.00  0.00     0.024 H 
ENDBRANCH  26  32
ENDBRANCH  20  26
ENDBRANCH  13  16
ENDBRANCH   1  12
BRANCH   7  36
ATOM     36  C   LIG d   1       4.692  -1.667  -5.632  0.00  0.00     0.201 A 
ATOM     37  H   LIG d   1       4.078  -2.560  -5.751  0.00  0.00     0.101 H 
ATOM     38  O   LIG d   1       6.052  -1.959  -5.964  0.00  0.00    -0.435 OA
ATOM     39  C   LIG d   1       6.436  -1.187  -6.995  0.00  0.00     0.342 A 
ATOM     40  C   LIG d   1       5.323  -0.317  -7.416  0.00  0.00     0.067 A 
ATOM     41  O   LIG d   1       7.538  -1.204  -7.504  0.00  0.00    -0.245 OA
ATOM     42  C   LIG d   1       4.231  -0.595  -6.588  0.00  0.00     0.025 A 
ATOM     43  C   LIG d   1       5.199   0.647  -8.417  0.00  0.00    -0.047 A 
ATOM     44  C   LIG d   1       3.044   0.077  -6.759  0.00  0.00    -0.053 A 
ATOM     45  C   LIG d   1       2.928   1.034  -7.754  0.00  0.00    -0.061 A 
ATOM     46  H   LIG d   1       2.203  -0.141  -6.117  0.00  0.00     0.062 H 
ATOM     47  C   LIG d   1       4.002   1.316  -8.578  0.00  0.00    -0.061 A 
ATOM     48  H   LIG d   1       1.995   1.561  -7.886  0.00  0.00     0.062 H 
ATOM     49  H   LIG d   1       3.904   2.062  -9.351  0.00  0.00     0.062 H 
ATOM     50  H   LIG d   1       6.036   0.870  -9.062  0.00  0.00     0.063 H 
ENDBRANCH   7  36
TORSDOF 6
ENDMDL
MODEL 6
REMARK VINA RESULT:      -7.1      2.874      5.704
REMARK  6 active torsions:
REMARK  status: ('A' for Active; 'I' for Inactive)
REMARK    1  A    between atoms: C_1  and  C_2 
REMARK    2  A    between atoms: C_2  and  C_3 
REMARK    3  A    between atoms: C_2  and  C_4 
REMARK    4  A    between atoms: C_7  and  N_10 
REMARK       I    between atoms: N_10  and  C_11 
REMARK    5  A    between atoms: C_11  and  C_13 
REMARK    6  A    between atoms: N_19  and  C_20 
ROOT
ATOM      1  C   LIG d   1       7.069  -2.396  -3.969  0.00  0.00     0.106 C 
ATOM      2  H   LIG d   1       6.759  -2.098  -2.967  0.00  0.00     0.060 H 
ATOM      3  C   LIG d   1       8.113  -3.531  -3.890  0.00  0.00    -0.017 C 
ATOM      4  C   LIG d   1       7.748  -4.383  -5.127  0.00  0.00     0.026 C 
ATOM      5  C   LIG d   1       6.288  -4.073  -5.372  0.00  0.00     0.219 C 
ATOM      6  O   LIG d   1       5.544  -4.733  -6.067  0.00  0.00    -0.276 OA
ATOM      7  N   LIG d   1       5.932  -2.958  -4.707  0.00  0.00    -0.251 N 
ATOM      8  H   LIG d   1       9.126  -3.137  -3.973  0.00  0.00     0.029 H 
ATOM      9  H   LIG d   1       7.996  -4.107  -2.971  0.00  0.00     0.029 H 
ATOM     10  H   LIG d   1       8.350  -4.087  -5.986  0.00  0.00     0.036 H 
ATOM     11  H   LIG d   1       7.882  -5.444  -4.913  0.00  0.00     0.036 H 
ENDROOT
BRANCH   1  12
ATOM     12  C   LIG d   1       7.639  -1.214  -4.710  0.00  0.00     0.238 C 
ATOM     13  N   LIG d   1       8.377  -0.298  -4.051  0.00  0.00    -0.284 N 
ATOM     14  H   LIG d   1       8.606  -0.438  -3.119  0.00  0.00     0.155 HD
ATOM     15  O   LIG d   1       7.434  -1.087  -5.898  0.00  0.00    -0.273 OA
BRANCH  13  16
ATOM     16  C   LIG d   1       8.810   0.856  -4.712  0.00  0.00     0.034 A 
ATOM     17  C   LIG d   1       9.907   0.801  -5.562  0.00  0.00    -0.040 A 
ATOM     18  C   LIG d   1      10.333   1.942  -6.213  0.00  0.00    -0.057 A 
ATOM     19  H   LIG d   1      10.427  -0.133  -5.714  0.00  0.00     0.064 H 
ATOM     20  C   LIG d   1       9.669   3.140  -6.019  0.00  0.00    -0.045 A 
ATOM     21  H   LIG d   1      11.187   1.899  -6.874  0.00  0.00     0.062 H 
ATOM     22  C   LIG d   1       8.579   3.199  -5.170  0.00  0.00    -0.057 A 
ATOM     23  C   LIG d   1       8.145   2.060  -4.520  0.00  0.00    -0.040 A 
ATOM     24  H   LIG d   1       8.065   4.136  -5.018  0.00  0.00     0.062 H 
ATOM     25  H   LIG d   1       7.292   2.107  -3.860  0.00  0.00     0.064 H 
BRANCH  20  26
ATOM     26  C   LIG d   1      10.136   4.383  -6.731  0.00  0.00    -0.021 C 
ATOM     27  H   LIG d   1      11.219   4.350  -6.846  0.00  0.00     0.034 H 
BRANCH  26  28
ATOM     28  C   LIG d   1       9.479   4.457  -8.111  0.00  0.00    -0.059 C 
ATOM     29  H   LIG d   1       9.857   3.649  -8.738  0.00  0.00     0.024 H 
ATOM     30  H   LIG d   1       8.399   4.359  -8.005  0.00  0.00     0.024 H 
ATOM     31  H   LIG d   1       9.713   5.416  -8.574  0.00  0.00     0.024 H 
ENDBRANCH  26  28
BRANCH  26  32
ATOM     32  C   LIG d   1       9.746   5.616  -5.914  0.00  0.00    -0.059 C 
ATOM     33  H   LIG d   1       9.665   6.479  -6.574  0.00  0.00     0.024 H 
ATOM     34  H   LIG d   1       8.787   5.441  -5.426  0.00  0.00     0.024 H 
ATOM     35  H   LIG d   1      10.508   5.806  -5.158  0.00  0.00     0.024 H 
ENDBRANCH  26  32
ENDBRANCH  20  26
ENDBRANCH  13  16
ENDBRANCH   1  12
BRANCH   7  36
ATOM     36  C   LIG d   1       4.586  -2.380  -4.717  0.00  0.00     0.201 A 
ATOM     37  H   LIG d   1       3.842  -3.166  -4.587  0.00  0.00     0.101 H 
ATOM     38  O   LIG d   1       4.359  -1.689  -5.948  0.00  0.00    -0.435 OA
ATOM     39  C   LIG d   1       4.113  -0.392  -5.694  0.00  0.00     0.342 A 
ATOM     40  C   LIG d   1       4.164  -0.144  -4.242  0.00  0.00     0.067 A 
ATOM     41  O   LIG d   1       3.882   0.451  -6.537  0.00  0.00    -0.245 OA
ATOM     42  C   LIG d   1       4.455  -1.359  -3.615  0.00  0.00     0.025 A 
ATOM     43  C   LIG d   1       3.984   1.003  -3.468  0.00  0.00    -0.047 A 
ATOM     44  C   LIG d   1       4.563  -1.424  -2.245  0.00  0.00    -0.053 A 
ATOM     45  C   LIG d   1       4.384  -0.281  -1.483  0.00  0.00    -0.061 A 
ATOM     46  H   LIG d   1       4.788  -2.364  -1.765  0.00  0.00     0.062 H 
ATOM     47  C   LIG d   1       4.095   0.926  -2.094  0.00  0.00    -0.061 A 
ATOM     48  H   LIG d   1       4.469  -0.333  -0.408  0.00  0.00     0.062 H 
ATOM     49  H   LIG d   1       3.956   1.812  -1.494  0.00  0.00     0.062 H 
ATOM     50  H   LIG d   1       3.758   1.946  -3.942  0.00  0.00     0.063 H 
ENDBRANCH   7  36
TORSDOF 6
ENDMDL
MODEL 7
REMARK VINA RESULT:      -6.9      1.165      1.345
REMARK  6 active torsions:
REMARK  status: ('A' for Active; 'I' for Inactive)
REMARK    1  A    between atoms: C_1  and  C_2 
REMARK    2  A    between atoms: C_2  and  C_3 
REMARK    3  A    between atoms: C_2  and  C_4 
REMARK    4  A    between atoms: C_7  and  N_10 
REMARK       I    between atoms: N_10  and  C_11 
REMARK    5  A    between atoms: C_11  and  C_13 
REMARK    6  A    between atoms: N_19  and  C_20 
ROOT
ATOM      1  C   LIG d   1       6.902   0.273  -5.625  0.00  0.00     0.106 C 
ATOM      2  H   LIG d   1       6.526   0.999  -4.904  0.00  0.00     0.060 H 
ATOM      3  C   LIG d   1       8.049   0.889  -6.456  0.00  0.00    -0.017 C 
ATOM      4  C   LIG d   1       8.982  -0.327  -6.657  0.00  0.00     0.026 C 
ATOM      5  C   LIG d   1       8.662  -1.237  -5.492  0.00  0.00     0.219 C 
ATOM      6  O   LIG d   1       9.356  -2.159  -5.119  0.00  0.00    -0.276 OA
ATOM      7  N   LIG d   1       7.494  -0.875  -4.928  0.00  0.00    -0.251 N 
ATOM      8  H   LIG d   1       7.682   1.262  -7.412  0.00  0.00     0.029 H 
ATOM      9  H   LIG d   1       8.554   1.679  -5.900  0.00  0.00     0.029 H 
ATOM     10  H   LIG d   1       8.761  -0.825  -7.601  0.00  0.00     0.036 H 
ATOM     11  H   LIG d   1      10.027  -0.017  -6.624  0.00  0.00     0.036 H 
ENDROOT
BRANCH   1  12
ATOM     12  C   LIG d   1       5.789  -0.185  -6.532  0.00  0.00     0.238 C 
ATOM     13  N   LIG d   1       6.032  -1.110  -7.482  0.00  0.00    -0.284 N 
ATOM     14  H   LIG d   1       6.901  -1.538  -7.533  0.00  0.00     0.155 HD
ATOM     15  O   LIG d   1       4.676   0.278  -6.407  0.00  0.00    -0.273 OA
BRANCH  13  16
ATOM     16  C   LIG d   1       5.030  -1.453  -8.396  0.00  0.00     0.034 A 
ATOM     17  C   LIG d   1       4.195  -2.533  -8.140  0.00  0.00    -0.040 A 
ATOM     18  C   LIG d   1       3.206  -2.869  -9.045  0.00  0.00    -0.057 A 
ATOM     19  H   LIG d   1       4.318  -3.110  -7.236  0.00  0.00     0.064 H 
ATOM     20  C   LIG d   1       3.047  -2.132 -10.204  0.00  0.00    -0.045 A 
ATOM     21  H   LIG d   1       2.557  -3.710  -8.847  0.00  0.00     0.062 H 
ATOM     22  C   LIG d   1       3.880  -1.058 -10.464  0.00  0.00    -0.057 A 
ATOM     23  C   LIG d   1       4.867  -0.714  -9.561  0.00  0.00    -0.040 A 
ATOM     24  H   LIG d   1       3.756  -0.487 -11.371  0.00  0.00     0.062 H 
ATOM     25  H   LIG d   1       5.515   0.126  -9.762  0.00  0.00     0.064 H 
BRANCH  20  26
ATOM     26  C   LIG d   1       1.968  -2.501 -11.188  0.00  0.00    -0.021 C 
ATOM     27  H   LIG d   1       2.414  -3.005 -12.045  0.00  0.00     0.034 H 
BRANCH  26  28
ATOM     28  C   LIG d   1       0.961  -3.435 -10.514  0.00  0.00    -0.059 C 
ATOM     29  H   LIG d   1       1.475  -4.330 -10.163  0.00  0.00     0.024 H 
ATOM     30  H   LIG d   1       0.502  -2.924  -9.668  0.00  0.00     0.024 H 
ATOM     31  H   LIG d   1       0.189  -3.716 -11.231  0.00  0.00     0.024 H 
ENDBRANCH  26  28
BRANCH  26  32
ATOM     32  C   LIG d   1       1.252  -1.233 -11.659  0.00  0.00    -0.059 C 
ATOM     33  H   LIG d   1       1.989  -0.469 -11.907  0.00  0.00     0.024 H 
ATOM     34  H   LIG d   1       0.654  -1.460 -12.542  0.00  0.00     0.024 H 
ATOM     35  H   LIG d   1       0.602  -0.867 -10.865  0.00  0.00     0.024 H 
ENDBRANCH  26  32
ENDBRANCH  20  26
ENDBRANCH  13  16
ENDBRANCH   1  12
BRANCH   7  36
ATOM     36  C   LIG d   1       6.892  -1.539  -3.770  0.00  0.00     0.201 A 
ATOM     37  H   LIG d   1       7.646  -1.701  -3.000  0.00  0.00     0.101 H 
ATOM     38  O   LIG d   1       6.317  -2.787  -4.164  0.00  0.00    -0.435 OA
ATOM     39  C   LIG d   1       4.997  -2.772  -3.910  0.00  0.00     0.342 A 
ATOM     40  C   LIG d   1       4.612  -1.477  -3.318  0.00  0.00     0.067 A 
ATOM     41  O   LIG d   1       4.234  -3.688  -4.137  0.00  0.00    -0.245 OA
ATOM     42  C   LIG d   1       5.768  -0.697  -3.220  0.00  0.00     0.025 A 
ATOM     43  C   LIG d   1       3.394  -0.959  -2.880  0.00  0.00    -0.047 A 
ATOM     44  C   LIG d   1       5.704   0.573  -2.696  0.00  0.00    -0.053 A 
ATOM     45  C   LIG d   1       4.490   1.081  -2.263  0.00  0.00    -0.061 A 
ATOM     46  H   LIG d   1       6.598   1.173  -2.621  0.00  0.00     0.062 H 
ATOM     47  C   LIG d   1       3.341   0.316  -2.356  0.00  0.00    -0.061 A 
ATOM     48  H   LIG d   1       4.441   2.079  -1.852  0.00  0.00     0.062 H 
ATOM     49  H   LIG d   1       2.399   0.719  -2.016  0.00  0.00     0.062 H 
ATOM     50  H   LIG d   1       2.495  -1.554  -2.951  0.00  0.00     0.063 H 
ENDBRANCH   7  36
TORSDOF 6
ENDMDL
MODEL 8
REMARK VINA RESULT:      -6.7      2.830      6.927
REMARK  6 active torsions:
REMARK  status: ('A' for Active; 'I' for Inactive)
REMARK    1  A    between atoms: C_1  and  C_2 
REMARK    2  A    between atoms: C_2  and  C_3 
REMARK    3  A    between atoms: C_2  and  C_4 
REMARK    4  A    between atoms: C_7  and  N_10 
REMARK       I    between atoms: N_10  and  C_11 
REMARK    5  A    between atoms: C_11  and  C_13 
REMARK    6  A    between atoms: N_19  and  C_20 
ROOT
ATOM      1  C   LIG d   1       5.533  -0.081  -4.421  0.00  0.00     0.106 C 
ATOM      2  H   LIG d   1       6.152   0.464  -5.134  0.00  0.00     0.060 H 
ATOM      3  C   LIG d   1       5.243   0.796  -3.184  0.00  0.00    -0.017 C 
ATOM      4  C   LIG d   1       3.800   0.372  -2.827  0.00  0.00     0.026 C 
ATOM      5  C   LIG d   1       3.229  -0.137  -4.132  0.00  0.00     0.219 C 
ATOM      6  O   LIG d   1       2.049  -0.304  -4.356  0.00  0.00    -0.276 OA
ATOM      7  N   LIG d   1       4.221  -0.377  -5.010  0.00  0.00    -0.251 N 
ATOM      8  H   LIG d   1       5.932   0.564  -2.371  0.00  0.00     0.029 H 
ATOM      9  H   LIG d   1       5.287   1.856  -3.437  0.00  0.00     0.029 H 
ATOM     10  H   LIG d   1       3.810  -0.423  -2.080  0.00  0.00     0.036 H 
ATOM     11  H   LIG d   1       3.229   1.227  -2.467  0.00  0.00     0.036 H 
ENDROOT
BRANCH   1  12
ATOM     12  C   LIG d   1       6.218  -1.358  -4.007  0.00  0.00     0.238 C 
ATOM     13  N   LIG d   1       7.279  -1.811  -4.705  0.00  0.00    -0.284 N 
ATOM     14  H   LIG d   1       7.649  -1.277  -5.425  0.00  0.00     0.155 HD
ATOM     15  O   LIG d   1       5.816  -1.978  -3.046  0.00  0.00    -0.273 OA
BRANCH  13  16
ATOM     16  C   LIG d   1       7.845  -3.051  -4.391  0.00  0.00     0.034 A 
ATOM     17  C   LIG d   1       7.486  -4.182  -5.113  0.00  0.00    -0.040 A 
ATOM     18  C   LIG d   1       8.047  -5.405  -4.800  0.00  0.00    -0.057 A 
ATOM     19  H   LIG d   1       6.771  -4.106  -5.917  0.00  0.00     0.064 H 
ATOM     20  C   LIG d   1       8.964  -5.505  -3.769  0.00  0.00    -0.045 A 
ATOM     21  H   LIG d   1       7.769  -6.286  -5.361  0.00  0.00     0.062 H 
ATOM     22  C   LIG d   1       9.319  -4.381  -3.045  0.00  0.00    -0.057 A 
ATOM     23  C   LIG d   1       8.766  -3.154  -3.356  0.00  0.00    -0.040 A 
ATOM     24  H   LIG d   1      10.032  -4.463  -2.239  0.00  0.00     0.062 H 
ATOM     25  H   LIG d   1       9.046  -2.277  -2.793  0.00  0.00     0.064 H 
BRANCH  20  26
ATOM     26  C   LIG d   1       9.573  -6.840  -3.431  0.00  0.00    -0.021 C 
ATOM     27  H   LIG d   1      10.505  -6.964  -3.982  0.00  0.00     0.034 H 
BRANCH  26  28
ATOM     28  C   LIG d   1       9.856  -6.906  -1.929  0.00  0.00    -0.059 C 
ATOM     29  H   LIG d   1       9.054  -7.453  -1.432  0.00  0.00     0.024 H 
ATOM     30  H   LIG d   1      10.804  -7.417  -1.760  0.00  0.00     0.024 H 
ATOM     31  H   LIG d   1       9.911  -5.895  -1.524  0.00  0.00     0.024 H 
ENDBRANCH  26  28
BRANCH  26  32
ATOM     32  C   LIG d   1       8.601  -7.957  -3.816  0.00  0.00    -0.059 C 
ATOM     33  H   LIG d   1       9.119  -8.915  -3.791  0.00  0.00     0.024 H 
ATOM     34  H   LIG d   1       7.770  -7.975  -3.111  0.00  0.00     0.024 H 
ATOM     35  H   LIG d   1       8.220  -7.776  -4.821  0.00  0.00     0.024 H 
ENDBRANCH  26  32
ENDBRANCH  20  26
ENDBRANCH  13  16
ENDBRANCH   1  12
BRANCH   7  36
ATOM     36  C   LIG d   1       4.020  -0.869  -6.375  0.00  0.00     0.201 A 
ATOM     37  H   LIG d   1       3.160  -1.539  -6.406  0.00  0.00     0.101 H 
ATOM     38  O   LIG d   1       5.191  -1.554  -6.826  0.00  0.00    -0.435 OA
ATOM     39  C   LIG d   1       5.680  -0.933  -7.913  0.00  0.00     0.342 A 
ATOM     40  C   LIG d   1       4.839   0.230  -8.251  0.00  0.00     0.067 A 
ATOM     41  O   LIG d   1       6.671  -1.277  -8.525  0.00  0.00    -0.245 OA
ATOM     42  C   LIG d   1       3.804   0.290  -7.314  0.00  0.00     0.025 A 
ATOM     43  C   LIG d   1       4.906   1.187  -9.264  0.00  0.00    -0.047 A 
ATOM     44  C   LIG d   1       2.858   1.286  -7.390  0.00  0.00    -0.053 A 
ATOM     45  C   LIG d   1       2.931   2.233  -8.398  0.00  0.00    -0.061 A 
ATOM     46  H   LIG d   1       2.060   1.329  -6.664  0.00  0.00     0.062 H 
ATOM     47  C   LIG d   1       3.951   2.181  -9.330  0.00  0.00    -0.061 A 
ATOM     48  H   LIG d   1       2.188   3.015  -8.455  0.00  0.00     0.062 H 
ATOM     49  H   LIG d   1       4.002   2.923 -10.113  0.00  0.00     0.062 H 
ATOM     50  H   LIG d   1       5.701   1.149  -9.994  0.00  0.00     0.063 H 
ENDBRANCH   7  36
TORSDOF 6
ENDMDL
MODEL 9
REMARK VINA RESULT:      -6.7      4.553      7.001
REMARK  6 active torsions:
REMARK  status: ('A' for Active; 'I' for Inactive)
REMARK    1  A    between atoms: C_1  and  C_2 
REMARK    2  A    between atoms: C_2  and  C_3 
REMARK    3  A    between atoms: C_2  and  C_4 
REMARK    4  A    between atoms: C_7  and  N_10 
REMARK       I    between atoms: N_10  and  C_11 
REMARK    5  A    between atoms: C_11  and  C_13 
REMARK    6  A    between atoms: N_19  and  C_20 
ROOT
ATOM      1  C   LIG d   1       9.989   1.695  -7.007  0.00  0.00     0.106 C 
ATOM      2  H   LIG d   1       9.877   2.643  -7.533  0.00  0.00     0.060 H 
ATOM      3  C   LIG d   1      10.236   0.550  -8.013  0.00  0.00    -0.017 C 
ATOM      4  C   LIG d   1      11.214  -0.355  -7.229  0.00  0.00     0.026 C 
ATOM      5  C   LIG d   1      11.883   0.584  -6.250  0.00  0.00     0.219 C 
ATOM      6  O   LIG d   1      12.905   0.343  -5.643  0.00  0.00    -0.276 OA
ATOM      7  N   LIG d   1      11.179   1.727  -6.148  0.00  0.00    -0.251 N 
ATOM      8  H   LIG d   1       9.309   0.021  -8.237  0.00  0.00     0.029 H 
ATOM      9  H   LIG d   1      10.698   0.925  -8.926  0.00  0.00     0.029 H 
ATOM     10  H   LIG d   1      10.669  -1.135  -6.697  0.00  0.00     0.036 H 
ATOM     11  H   LIG d   1      11.951  -0.793  -7.902  0.00  0.00     0.036 H 
ENDROOT
BRANCH   1  12
ATOM     12  C   LIG d   1       8.759   1.409  -6.183  0.00  0.00     0.238 C 
ATOM     13  N   LIG d   1       8.874   0.775  -4.999  0.00  0.00    -0.284 N 
ATOM     14  H   LIG d   1       9.752   0.570  -4.641  0.00  0.00     0.155 HD
ATOM     15  O   LIG d   1       7.668   1.751  -6.584  0.00  0.00    -0.273 OA
BRANCH  13  16
ATOM     16  C   LIG d   1       7.726   0.409  -4.288  0.00  0.00     0.034 A 
ATOM     17  C   LIG d   1       6.985   1.375  -3.620  0.00  0.00    -0.040 A 
ATOM     18  C   LIG d   1       5.852   1.011  -2.919  0.00  0.00    -0.057 A 
ATOM     19  H   LIG d   1       7.293   2.409  -3.649  0.00  0.00     0.064 H 
ATOM     20  C   LIG d   1       5.455  -0.314  -2.881  0.00  0.00    -0.045 A 
ATOM     21  H   LIG d   1       5.274   1.762  -2.399  0.00  0.00     0.062 H 
ATOM     22  C   LIG d   1       6.195  -1.279  -3.541  0.00  0.00    -0.057 A 
ATOM     23  C   LIG d   1       7.325  -0.920  -4.249  0.00  0.00    -0.040 A 
ATOM     24  H   LIG d   1       5.884  -2.312  -3.506  0.00  0.00     0.062 H 
ATOM     25  H   LIG d   1       7.900  -1.673  -4.766  0.00  0.00     0.064 H 
BRANCH  20  26
ATOM     26  C   LIG d   1       4.219  -0.707  -2.115  0.00  0.00    -0.021 C 
ATOM     27  H   LIG d   1       4.384  -0.545  -1.050  0.00  0.00     0.034 H 
BRANCH  26  28
ATOM     28  C   LIG d   1       3.037   0.144  -2.583  0.00  0.00    -0.059 C 
ATOM     29  H   LIG d   1       3.288   0.625  -3.529  0.00  0.00     0.024 H 
ATOM     30  H   LIG d   1       2.163  -0.492  -2.719  0.00  0.00     0.024 H 
ATOM     31  H   LIG d   1       2.819   0.906  -1.835  0.00  0.00     0.024 H 
ENDBRANCH  26  28
BRANCH  26  32
ATOM     32  C   LIG d   1       3.913  -2.186  -2.365  0.00  0.00    -0.059 C 
ATOM     33  H   LIG d   1       3.586  -2.651  -1.435  0.00  0.00     0.024 H 
ATOM     34  H   LIG d   1       3.124  -2.272  -3.111  0.00  0.00     0.024 H 
ATOM     35  H   LIG d   1       4.811  -2.686  -2.725  0.00  0.00     0.024 H 
ENDBRANCH  26  32
ENDBRANCH  20  26
ENDBRANCH  13  16
ENDBRANCH   1  12
BRANCH   7  36
ATOM     36  C   LIG d   1      11.551   2.857  -5.293  0.00  0.00     0.201 A 
ATOM     37  H   LIG d   1      12.636   2.917  -5.206  0.00  0.00     0.101 H 
ATOM     38  O   LIG d   1      10.962   2.708  -3.999  0.00  0.00    -0.435 OA
ATOM     39  C   LIG d   1      10.145   3.747  -3.757  0.00  0.00     0.342 A 
ATOM     40  C   LIG d   1      10.147   4.669  -4.907  0.00  0.00     0.067 A 
ATOM     41  O   LIG d   1       9.501   3.904  -2.740  0.00  0.00    -0.245 OA
ATOM     42  C   LIG d   1      11.010   4.141  -5.872  0.00  0.00     0.025 A 
ATOM     43  C   LIG d   1       9.488   5.872  -5.160  0.00  0.00    -0.047 A 
ATOM     44  C   LIG d   1      11.207   4.802  -7.061  0.00  0.00    -0.053 A 
ATOM     45  C   LIG d   1      10.548   5.996  -7.306  0.00  0.00    -0.061 A 
ATOM     46  H   LIG d   1      11.874   4.390  -7.804  0.00  0.00     0.062 H 
ATOM     47  C   LIG d   1       9.693   6.526  -6.358  0.00  0.00    -0.061 A 
ATOM     48  H   LIG d   1      10.704   6.513  -8.241  0.00  0.00     0.062 H 
ATOM     49  H   LIG d   1       9.183   7.458  -6.555  0.00  0.00     0.062 H 
ATOM     50  H   LIG d   1       8.819   6.290  -4.422  0.00  0.00     0.063 H 
ENDBRANCH   7  36
TORSDOF 6
ENDMDL
