MODEL 1
REMARK VINA RESULT:      -7.4      0.000      0.000
REMARK  10 active torsions:
REMARK  status: ('A' for Active; 'I' for Inactive)
REMARK    1  A    between atoms: C_1  and  O_2 
REMARK    2  A    between atoms: O_2  and  C_3 
REMARK    3  A    between atoms: C_8  and  O_9 
REMARK    4  A    between atoms: O_9  and  C_10 
REMARK    5  A    between atoms: N_13  and  C_16 
REMARK    6  A    between atoms: C_16  and  C_17 
REMARK    7  A    between atoms: C_17  and  C_18 
REMARK       I    between atoms: C_18  and  N_20 
REMARK    8  A    between atoms: N_20  and  C_21 
REMARK    9  A    between atoms: C_21  and  C_22 
REMARK   10  A    between atoms: C_22  and  C_23 
ROOT
ATOM      1  C   LIG d   1       8.064   2.003  -5.188  0.00  0.00     0.042 C 
ATOM      2  H   LIG d   1       7.477   2.353  -4.326  0.00  0.00     0.038 H 
ATOM      3  H   LIG d   1       7.747   2.546  -6.092  0.00  0.00     0.038 H 
ENDROOT
BRANCH   1   4
ATOM      4  C   LIG d   1       9.550   2.261  -4.932  0.00  0.00     0.036 C 
ATOM      5  H   LIG d   1      10.080   2.336  -5.894  0.00  0.00     0.050 H 
ATOM      6  H   LIG d   1       9.970   1.432  -4.344  0.00  0.00     0.050 H 
BRANCH   4   7
ATOM      7  N   LIG d   1       9.707   3.515  -4.190  0.00  0.00    -0.298 N 
ATOM      8  C   LIG d   1       9.256   4.678  -4.730  0.00  0.00     0.099 A 
ATOM      9  N   LIG d   1       9.362   5.827  -4.138  0.00  0.00    -0.237 NA
ATOM     10  H   LIG d   1       8.789   4.644  -5.704  0.00  0.00     0.103 H 
ATOM     11  C   LIG d   1       9.933   5.946  -2.912  0.00  0.00     0.082 A 
ATOM     12  C   LIG d   1      10.431   4.788  -2.273  0.00  0.00     0.069 A 
ATOM     13  C   LIG d   1      10.041   7.182  -2.274  0.00  0.00     0.010 A 
ATOM     14  C   LIG d   1      11.026   4.881  -1.015  0.00  0.00    -0.002 A 
ATOM     15  C   LIG d   1      10.299   3.503  -2.973  0.00  0.00     0.262 A 
ATOM     16  C   LIG d   1      11.126   6.113  -0.400  0.00  0.00     0.162 A 
ATOM     17  H   LIG d   1      11.407   3.998  -0.526  0.00  0.00     0.066 H 
ATOM     18  C   LIG d   1      10.633   7.260  -1.029  0.00  0.00     0.164 A 
ATOM     19  O   LIG d   1      10.706   2.468  -2.478  0.00  0.00    -0.267 OA
ATOM     20  H   LIG d   1       9.664   8.074  -2.753  0.00  0.00     0.068 H 
BRANCH  16  21
ATOM     21  O   LIG d   1      11.705   6.210   0.827  0.00  0.00    -0.491 OA
BRANCH  21  22
ATOM     22  C   LIG d   1      10.955   5.718   1.940  0.00  0.00     0.079 C 
ATOM     23  H   LIG d   1      10.687   4.666   1.764  0.00  0.00     0.066 H 
ATOM     24  H   LIG d   1      10.038   6.315   2.056  0.00  0.00     0.066 H 
ATOM     25  H   LIG d   1      11.561   5.795   2.854  0.00  0.00     0.066 H 
ENDBRANCH  21  22
ENDBRANCH  16  21
BRANCH  18  26
ATOM     26  O   LIG d   1      10.740   8.465  -0.410  0.00  0.00    -0.491 OA
BRANCH  26  27
ATOM     27  C   LIG d   1      10.025   9.558  -0.989  0.00  0.00     0.079 C 
ATOM     28  H   LIG d   1       9.822   9.343  -2.049  0.00  0.00     0.066 H 
ATOM     29  H   LIG d   1      10.629  10.474  -0.910  0.00  0.00     0.066 H 
ATOM     30  H   LIG d   1       9.074   9.698  -0.455  0.00  0.00     0.066 H 
ENDBRANCH  26  27
ENDBRANCH  18  26
ENDBRANCH   4   7
ENDBRANCH   1   4
BRANCH   1  31
ATOM     31  C   LIG d   1       7.837   0.526  -5.385  0.00  0.00     0.215 C 
ATOM     32  O   LIG d   1       7.114   0.137  -6.276  0.00  0.00    -0.276 OA
ATOM     33  N   LIG d   1       8.438  -0.362  -4.568  0.00  0.00    -0.315 N 
ATOM     34  H   LIG d   1       9.095  -0.009  -3.759  0.00  0.00     0.149 HD
BRANCH  33  35
ATOM     35  C   LIG d   1       8.218  -1.798  -4.759  0.00  0.00     0.016 C 
ATOM     36  H   LIG d   1       7.603  -1.959  -5.657  0.00  0.00     0.046 H 
ATOM     37  H   LIG d   1       9.186  -2.305  -4.883  0.00  0.00     0.046 H 
BRANCH  35  38
ATOM     38  C   LIG d   1       7.496  -2.370  -3.537  0.00  0.00    -0.010 C 
ATOM     39  H   LIG d   1       7.729  -3.441  -3.442  0.00  0.00     0.033 H 
ATOM     40  H   LIG d   1       7.831  -1.841  -2.633  0.00  0.00     0.033 H 
BRANCH  38  41
ATOM     41  C   LIG d   1       6.009  -2.191  -3.702  0.00  0.00    -0.021 A 
ATOM     42  C   LIG d   1       5.201  -1.085  -3.184  0.00  0.00     0.003 A 
ATOM     43  C   LIG d   1       3.878  -1.347  -3.585  0.00  0.00     0.047 A 
ATOM     44  C   LIG d   1       5.488   0.060  -2.439  0.00  0.00    -0.052 A 
ATOM     45  N   LIG d   1       3.896  -2.528  -4.295  0.00  0.00    -0.360 N 
ATOM     46  C   LIG d   1       2.871  -0.457  -3.234  0.00  0.00    -0.038 A 
ATOM     47  C   LIG d   1       5.174  -3.013  -4.358  0.00  0.00     0.006 A 
ATOM     48  H   LIG d   1       3.074  -3.079  -4.775  0.00  0.00     0.165 HD
ATOM     49  H   LIG d   1       5.467  -3.924  -4.860  0.00  0.00     0.081 H 
ATOM     50  C   LIG d   1       3.176   0.667  -2.498  0.00  0.00    -0.060 A 
ATOM     51  H   LIG d   1       1.850  -0.646  -3.535  0.00  0.00     0.064 H 
ATOM     52  C   LIG d   1       4.482   0.921  -2.104  0.00  0.00    -0.061 A 
ATOM     53  H   LIG d   1       2.392   1.358  -2.226  0.00  0.00     0.062 H 
ATOM     54  H   LIG d   1       4.705   1.807  -1.526  0.00  0.00     0.062 H 
ATOM     55  H   LIG d   1       6.503   0.264  -2.128  0.00  0.00     0.062 H 
ENDBRANCH  38  41
ENDBRANCH  35  38
ENDBRANCH  33  35
ENDBRANCH   1  31
TORSDOF 10
ENDMDL
MODEL 2
REMARK VINA RESULT:      -7.1      1.666      2.603
REMARK  10 active torsions:
REMARK  status: ('A' for Active; 'I' for Inactive)
REMARK    1  A    between atoms: C_1  and  O_2 
REMARK    2  A    between atoms: O_2  and  C_3 
REMARK    3  A    between atoms: C_8  and  O_9 
REMARK    4  A    between atoms: O_9  and  C_10 
REMARK    5  A    between atoms: N_13  and  C_16 
REMARK    6  A    between atoms: C_16  and  C_17 
REMARK    7  A    between atoms: C_17  and  C_18 
REMARK       I    between atoms: C_18  and  N_20 
REMARK    8  A    between atoms: N_20  and  C_21 
REMARK    9  A    between atoms: C_21  and  C_22 
REMARK   10  A    between atoms: C_22  and  C_23 
ROOT
ATOM      1  C   LIG d   1       9.715   2.436  -3.407  0.00  0.00     0.042 C 
ATOM      2  H   LIG d   1      10.730   2.022  -3.493  0.00  0.00     0.038 H 
ATOM      3  H   LIG d   1       9.399   2.415  -2.354  0.00  0.00     0.038 H 
ENDROOT
BRANCH   1   4
ATOM      4  C   LIG d   1       9.708   3.880  -3.913  0.00  0.00     0.036 C 
ATOM      5  H   LIG d   1       8.696   4.143  -4.255  0.00  0.00     0.050 H 
ATOM      6  H   LIG d   1      10.416   3.979  -4.749  0.00  0.00     0.050 H 
BRANCH   4   7
ATOM      7  N   LIG d   1      10.105   4.779  -2.827  0.00  0.00    -0.298 N 
ATOM      8  C   LIG d   1      10.925   4.325  -1.843  0.00  0.00     0.099 A 
ATOM      9  N   LIG d   1      11.317   5.058  -0.847  0.00  0.00    -0.237 NA
ATOM     10  H   LIG d   1      11.264   3.301  -1.890  0.00  0.00     0.103 H 
ATOM     11  C   LIG d   1      10.936   6.355  -0.724  0.00  0.00     0.082 A 
ATOM     12  C   LIG d   1      10.082   6.914  -1.703  0.00  0.00     0.069 A 
ATOM     13  C   LIG d   1      11.363   7.144   0.344  0.00  0.00     0.010 A 
ATOM     14  C   LIG d   1       9.670   8.242  -1.599  0.00  0.00    -0.002 A 
ATOM     15  C   LIG d   1       9.653   6.055  -2.814  0.00  0.00     0.262 A 
ATOM     16  C   LIG d   1      10.102   9.007  -0.534  0.00  0.00     0.162 A 
ATOM     17  H   LIG d   1       9.018   8.670  -2.346  0.00  0.00     0.066 H 
ATOM     18  C   LIG d   1      10.947   8.457   0.435  0.00  0.00     0.164 A 
ATOM     19  O   LIG d   1       8.919   6.474  -3.690  0.00  0.00    -0.267 OA
ATOM     20  H   LIG d   1      12.015   6.727   1.098  0.00  0.00     0.068 H 
BRANCH  16  21
ATOM     21  O   LIG d   1       9.704  10.303  -0.428  0.00  0.00    -0.491 OA
BRANCH  21  22
ATOM     22  C   LIG d   1      10.387  11.260  -1.241  0.00  0.00     0.079 C 
ATOM     23  H   LIG d   1      10.443  12.221  -0.708  0.00  0.00     0.066 H 
ATOM     24  H   LIG d   1       9.839  11.397  -2.185  0.00  0.00     0.066 H 
ATOM     25  H   LIG d   1      11.403  10.899  -1.457  0.00  0.00     0.066 H 
ENDBRANCH  21  22
ENDBRANCH  16  21
BRANCH  18  26
ATOM     26  O   LIG d   1      11.362   9.224   1.477  0.00  0.00    -0.491 OA
BRANCH  26  27
ATOM     27  C   LIG d   1      12.721   9.666   1.456  0.00  0.00     0.079 C 
ATOM     28  H   LIG d   1      13.390   8.801   1.578  0.00  0.00     0.066 H 
ATOM     29  H   LIG d   1      12.888  10.377   2.279  0.00  0.00     0.066 H 
ATOM     30  H   LIG d   1      12.931  10.160   0.497  0.00  0.00     0.066 H 
ENDBRANCH  26  27
ENDBRANCH  18  26
ENDBRANCH   4   7
ENDBRANCH   1   4
BRANCH   1  31
ATOM     31  C   LIG d   1       8.763   1.609  -4.233  0.00  0.00     0.215 C 
ATOM     32  O   LIG d   1       7.815   2.136  -4.774  0.00  0.00    -0.276 OA
ATOM     33  N   LIG d   1       8.967   0.284  -4.370  0.00  0.00    -0.315 N 
ATOM     34  H   LIG d   1       9.828  -0.195  -3.880  0.00  0.00     0.149 HD
BRANCH  33  35
ATOM     35  C   LIG d   1       8.042  -0.520  -5.173  0.00  0.00     0.016 C 
ATOM     36  H   LIG d   1       7.157   0.083  -5.426  0.00  0.00     0.046 H 
ATOM     37  H   LIG d   1       8.543  -0.841  -6.099  0.00  0.00     0.046 H 
BRANCH  35  38
ATOM     38  C   LIG d   1       7.610  -1.751  -4.374  0.00  0.00    -0.010 C 
ATOM     39  H   LIG d   1       7.925  -2.661  -4.905  0.00  0.00     0.033 H 
ATOM     40  H   LIG d   1       8.078  -1.725  -3.380  0.00  0.00     0.033 H 
BRANCH  38  41
ATOM     41  C   LIG d   1       6.110  -1.751  -4.223  0.00  0.00    -0.021 A 
ATOM     42  C   LIG d   1       5.310  -0.784  -3.469  0.00  0.00     0.003 A 
ATOM     43  C   LIG d   1       3.970  -1.189  -3.616  0.00  0.00     0.047 A 
ATOM     44  C   LIG d   1       5.617   0.347  -2.710  0.00  0.00    -0.052 A 
ATOM     45  N   LIG d   1       3.972  -2.318  -4.404  0.00  0.00    -0.360 N 
ATOM     46  C   LIG d   1       2.965  -0.451  -3.001  0.00  0.00    -0.038 A 
ATOM     47  C   LIG d   1       5.254  -2.635  -4.760  0.00  0.00     0.006 A 
ATOM     48  H   LIG d   1       3.134  -2.942  -4.750  0.00  0.00     0.165 HD
ATOM     49  H   LIG d   1       5.536  -3.475  -5.380  0.00  0.00     0.081 H 
ATOM     50  C   LIG d   1       3.290   0.662  -2.256  0.00  0.00    -0.060 A 
ATOM     51  H   LIG d   1       1.932  -0.750  -3.105  0.00  0.00     0.064 H 
ATOM     52  C   LIG d   1       4.613   1.056  -2.114  0.00  0.00    -0.061 A 
ATOM     53  H   LIG d   1       2.508   1.233  -1.780  0.00  0.00     0.062 H 
ATOM     54  H   LIG d   1       4.850   1.931  -1.526  0.00  0.00     0.062 H 
ATOM     55  H   LIG d   1       6.645   0.660  -2.594  0.00  0.00     0.062 H 
ENDBRANCH  38  41
ENDBRANCH  35  38
ENDBRANCH  33  35
ENDBRANCH   1  31
TORSDOF 10
ENDMDL
MODEL 3
REMARK VINA RESULT:      -7.0      2.244      3.196
REMARK  10 active torsions:
REMARK  status: ('A' for Active; 'I' for Inactive)
REMARK    1  A    between atoms: C_1  and  O_2 
REMARK    2  A    between atoms: O_2  and  C_3 
REMARK    3  A    between atoms: C_8  and  O_9 
REMARK    4  A    between atoms: O_9  and  C_10 
REMARK    5  A    between atoms: N_13  and  C_16 
REMARK    6  A    between atoms: C_16  and  C_17 
REMARK    7  A    between atoms: C_17  and  C_18 
REMARK       I    between atoms: C_18  and  N_20 
REMARK    8  A    between atoms: N_20  and  C_21 
REMARK    9  A    between atoms: C_21  and  C_22 
REMARK   10  A    between atoms: C_22  and  C_23 
ROOT
ATOM      1  C   LIG d   1       8.782   2.248  -3.837  0.00  0.00     0.042 C 
ATOM      2  H   LIG d   1       9.440   1.926  -3.016  0.00  0.00     0.038 H 
ATOM      3  H   LIG d   1       7.970   2.871  -3.432  0.00  0.00     0.038 H 
ENDROOT
BRANCH   1   4
ATOM      4  C   LIG d   1       9.589   3.058  -4.852  0.00  0.00     0.036 C 
ATOM      5  H   LIG d   1       9.071   3.050  -5.823  0.00  0.00     0.050 H 
ATOM      6  H   LIG d   1      10.588   2.612  -4.965  0.00  0.00     0.050 H 
BRANCH   4   7
ATOM      7  N   LIG d   1       9.721   4.439  -4.381  0.00  0.00    -0.298 N 
ATOM      8  C   LIG d   1       9.885   4.685  -3.054  0.00  0.00     0.099 A 
ATOM      9  N   LIG d   1      10.004   5.878  -2.559  0.00  0.00    -0.237 NA
ATOM     10  H   LIG d   1       9.913   3.843  -2.377  0.00  0.00     0.103 H 
ATOM     11  C   LIG d   1       9.983   6.981  -3.349  0.00  0.00     0.082 A 
ATOM     12  C   LIG d   1       9.817   6.822  -4.744  0.00  0.00     0.069 A 
ATOM     13  C   LIG d   1      10.117   8.263  -2.817  0.00  0.00     0.010 A 
ATOM     14  C   LIG d   1       9.787   7.938  -5.579  0.00  0.00    -0.002 A 
ATOM     15  C   LIG d   1       9.680   5.458  -5.271  0.00  0.00     0.262 A 
ATOM     16  C   LIG d   1       9.919   9.199  -5.034  0.00  0.00     0.162 A 
ATOM     17  H   LIG d   1       9.660   7.818  -6.645  0.00  0.00     0.066 H 
ATOM     18  C   LIG d   1      10.084   9.360  -3.655  0.00  0.00     0.164 A 
ATOM     19  O   LIG d   1       9.535   5.251  -6.462  0.00  0.00    -0.267 OA
ATOM     20  H   LIG d   1      10.244   8.397  -1.752  0.00  0.00     0.068 H 
BRANCH  16  21
ATOM     21  O   LIG d   1       9.891  10.292  -5.844  0.00  0.00    -0.491 OA
BRANCH  21  22
ATOM     22  C   LIG d   1      11.058  10.548  -6.630  0.00  0.00     0.079 C 
ATOM     23  H   LIG d   1      10.777  10.616  -7.691  0.00  0.00     0.066 H 
ATOM     24  H   LIG d   1      11.778   9.727  -6.494  0.00  0.00     0.066 H 
ATOM     25  H   LIG d   1      11.515  11.495  -6.308  0.00  0.00     0.066 H 
ENDBRANCH  21  22
ENDBRANCH  16  21
BRANCH  18  26
ATOM     26  O   LIG d   1      10.214  10.609  -3.134  0.00  0.00    -0.491 OA
BRANCH  26  27
ATOM     27  C   LIG d   1       9.069  11.161  -2.482  0.00  0.00     0.079 C 
ATOM     28  H   LIG d   1       9.153  11.004  -1.397  0.00  0.00     0.066 H 
ATOM     29  H   LIG d   1       8.160  10.666  -2.855  0.00  0.00     0.066 H 
ATOM     30  H   LIG d   1       9.011  12.239  -2.694  0.00  0.00     0.066 H 
ENDBRANCH  26  27
ENDBRANCH  18  26
ENDBRANCH   4   7
ENDBRANCH   1   4
BRANCH   1  31
ATOM     31  C   LIG d   1       8.194   1.036  -4.514  0.00  0.00     0.215 C 
ATOM     32  O   LIG d   1       7.312   1.169  -5.336  0.00  0.00    -0.276 OA
ATOM     33  N   LIG d   1       8.647  -0.195  -4.206  0.00  0.00    -0.315 N 
ATOM     34  H   LIG d   1       9.448  -0.316  -3.460  0.00  0.00     0.149 HD
BRANCH  33  35
ATOM     35  C   LIG d   1       8.076  -1.372  -4.864  0.00  0.00     0.016 C 
ATOM     36  H   LIG d   1       7.300  -1.054  -5.576  0.00  0.00     0.046 H 
ATOM     37  H   LIG d   1       8.868  -1.912  -5.404  0.00  0.00     0.046 H 
BRANCH  35  38
ATOM     38  C   LIG d   1       7.457  -2.294  -3.812  0.00  0.00    -0.010 C 
ATOM     39  H   LIG d   1       7.730  -3.337  -4.032  0.00  0.00     0.033 H 
ATOM     40  H   LIG d   1       7.833  -2.019  -2.816  0.00  0.00     0.033 H 
BRANCH  38  41
ATOM     41  C   LIG d   1       5.957  -2.151  -3.839  0.00  0.00    -0.021 A 
ATOM     42  C   LIG d   1       5.173  -1.068  -3.241  0.00  0.00     0.003 A 
ATOM     43  C   LIG d   1       3.826  -1.360  -3.521  0.00  0.00     0.047 A 
ATOM     44  C   LIG d   1       5.501   0.081  -2.518  0.00  0.00    -0.052 A 
ATOM     45  N   LIG d   1       3.807  -2.537  -4.237  0.00  0.00    -0.360 N 
ATOM     46  C   LIG d   1       2.834  -0.496  -3.073  0.00  0.00    -0.038 A 
ATOM     47  C   LIG d   1       5.085  -2.991  -4.420  0.00  0.00     0.006 A 
ATOM     48  H   LIG d   1       2.958  -3.106  -4.642  0.00  0.00     0.165 HD
ATOM     49  H   LIG d   1       5.352  -3.892  -4.953  0.00  0.00     0.081 H 
ATOM     50  C   LIG d   1       3.179   0.632  -2.361  0.00  0.00    -0.060 A 
ATOM     51  H   LIG d   1       1.795  -0.709  -3.280  0.00  0.00     0.064 H 
ATOM     52  C   LIG d   1       4.509   0.916  -2.087  0.00  0.00    -0.061 A 
ATOM     53  H   LIG d   1       2.407   1.302  -2.013  0.00  0.00     0.062 H 
ATOM     54  H   LIG d   1       4.763   1.805  -1.527  0.00  0.00     0.062 H 
ATOM     55  H   LIG d   1       6.534   0.309  -2.301  0.00  0.00     0.062 H 
ENDBRANCH  38  41
ENDBRANCH  35  38
ENDBRANCH  33  35
ENDBRANCH   1  31
TORSDOF 10
ENDMDL
MODEL 4
REMARK VINA RESULT:      -6.9      2.447      4.378
REMARK  10 active torsions:
REMARK  status: ('A' for Active; 'I' for Inactive)
REMARK    1  A    between atoms: C_1  and  O_2 
REMARK    2  A    between atoms: O_2  and  C_3 
REMARK    3  A    between atoms: C_8  and  O_9 
REMARK    4  A    between atoms: O_9  and  C_10 
REMARK    5  A    between atoms: N_13  and  C_16 
REMARK    6  A    between atoms: C_16  and  C_17 
REMARK    7  A    between atoms: C_17  and  C_18 
REMARK       I    between atoms: C_18  and  N_20 
REMARK    8  A    between atoms: N_20  and  C_21 
REMARK    9  A    between atoms: C_21  and  C_22 
REMARK   10  A    between atoms: C_22  and  C_23 
ROOT
ATOM      1  C   LIG d   1      11.264   4.351  -2.257  0.00  0.00     0.042 C 
ATOM      2  H   LIG d   1      11.952   4.857  -2.951  0.00  0.00     0.038 H 
ATOM      3  H   LIG d   1      11.799   4.100  -1.329  0.00  0.00     0.038 H 
ENDROOT
BRANCH   1   4
ATOM      4  C   LIG d   1      10.090   5.278  -1.935  0.00  0.00     0.036 C 
ATOM      5  H   LIG d   1       9.264   4.689  -1.509  0.00  0.00     0.050 H 
ATOM      6  H   LIG d   1       9.751   5.774  -2.856  0.00  0.00     0.050 H 
BRANCH   4   7
ATOM      7  N   LIG d   1      10.519   6.288  -0.965  0.00  0.00    -0.298 N 
ATOM      8  C   LIG d   1      11.239   5.913   0.125  0.00  0.00     0.099 A 
ATOM      9  N   LIG d   1      11.650   6.747   1.030  0.00  0.00    -0.237 NA
ATOM     10  H   LIG d   1      11.478   4.867   0.246  0.00  0.00     0.103 H 
ATOM     11  C   LIG d   1      11.392   8.077   0.942  0.00  0.00     0.082 A 
ATOM     12  C   LIG d   1      10.648   8.559  -0.159  0.00  0.00     0.069 A 
ATOM     13  C   LIG d   1      11.840   8.973   1.912  0.00  0.00     0.010 A 
ATOM     14  C   LIG d   1      10.365   9.920  -0.273  0.00  0.00    -0.002 A 
ATOM     15  C   LIG d   1      10.194   7.587  -1.162  0.00  0.00     0.262 A 
ATOM     16  C   LIG d   1      10.814  10.792   0.698  0.00  0.00     0.162 A 
ATOM     17  H   LIG d   1       9.796  10.289  -1.113  0.00  0.00     0.066 H 
ATOM     18  C   LIG d   1      11.551  10.318   1.788  0.00  0.00     0.164 A 
ATOM     19  O   LIG d   1       9.550   7.937  -2.135  0.00  0.00    -0.267 OA
ATOM     20  H   LIG d   1      12.409   8.616   2.758  0.00  0.00     0.068 H 
BRANCH  16  21
ATOM     21  O   LIG d   1      10.541  12.120   0.593  0.00  0.00    -0.491 OA
BRANCH  21  22
ATOM     22  C   LIG d   1      10.998  12.785  -0.587  0.00  0.00     0.079 C 
ATOM     23  H   LIG d   1      10.905  12.108  -1.449  0.00  0.00     0.066 H 
ATOM     24  H   LIG d   1      12.053  13.073  -0.460  0.00  0.00     0.066 H 
ATOM     25  H   LIG d   1      10.391  13.685  -0.759  0.00  0.00     0.066 H 
ENDBRANCH  21  22
ENDBRANCH  16  21
BRANCH  18  26
ATOM     26  O   LIG d   1      11.987  11.190   2.735  0.00  0.00    -0.491 OA
BRANCH  26  27
ATOM     27  C   LIG d   1      12.946  10.701   3.674  0.00  0.00     0.079 C 
ATOM     28  H   LIG d   1      13.720  10.126   3.144  0.00  0.00     0.066 H 
ATOM     29  H   LIG d   1      12.445  10.051   4.407  0.00  0.00     0.066 H 
ATOM     30  H   LIG d   1      13.413  11.549   4.197  0.00  0.00     0.066 H 
ENDBRANCH  26  27
ENDBRANCH  18  26
ENDBRANCH   4   7
ENDBRANCH   1   4
BRANCH   1  31
ATOM     31  C   LIG d   1      10.746   3.088  -2.895  0.00  0.00     0.215 C 
ATOM     32  O   LIG d   1      11.503   2.169  -3.124  0.00  0.00    -0.276 OA
ATOM     33  N   LIG d   1       9.440   2.979  -3.212  0.00  0.00    -0.315 N 
ATOM     34  H   LIG d   1       8.752   3.813  -3.004  0.00  0.00     0.149 HD
BRANCH  33  35
ATOM     35  C   LIG d   1       8.936   1.752  -3.833  0.00  0.00     0.016 C 
ATOM     36  H   LIG d   1       9.322   1.675  -4.860  0.00  0.00     0.046 H 
ATOM     37  H   LIG d   1       9.272   0.881  -3.250  0.00  0.00     0.046 H 
BRANCH  35  38
ATOM     38  C   LIG d   1       7.407   1.786  -3.863  0.00  0.00    -0.010 C 
ATOM     39  H   LIG d   1       7.039   2.435  -3.056  0.00  0.00     0.033 H 
ATOM     40  H   LIG d   1       7.069   2.178  -4.833  0.00  0.00     0.033 H 
BRANCH  38  41
ATOM     41  C   LIG d   1       6.869   0.391  -3.671  0.00  0.00    -0.021 A 
ATOM     42  C   LIG d   1       5.508   0.029  -3.271  0.00  0.00     0.003 A 
ATOM     43  C   LIG d   1       5.476  -1.377  -3.224  0.00  0.00     0.047 A 
ATOM     44  C   LIG d   1       4.360   0.761  -2.963  0.00  0.00    -0.052 A 
ATOM     45  N   LIG d   1       6.733  -1.823  -3.571  0.00  0.00    -0.360 N 
ATOM     46  C   LIG d   1       4.296  -2.020  -2.869  0.00  0.00    -0.038 A 
ATOM     47  C   LIG d   1       7.547  -0.756  -3.838  0.00  0.00     0.006 A 
ATOM     48  H   LIG d   1       7.124  -2.848  -3.651  0.00  0.00     0.165 HD
ATOM     49  H   LIG d   1       8.583  -0.827  -4.138  0.00  0.00     0.081 H 
ATOM     50  C   LIG d   1       3.176  -1.278  -2.567  0.00  0.00    -0.060 A 
ATOM     51  H   LIG d   1       4.259  -3.100  -2.828  0.00  0.00     0.064 H 
ATOM     52  C   LIG d   1       3.211   0.108  -2.616  0.00  0.00    -0.061 A 
ATOM     53  H   LIG d   1       2.260  -1.780  -2.292  0.00  0.00     0.062 H 
ATOM     54  H   LIG d   1       2.324   0.675  -2.376  0.00  0.00     0.062 H 
ATOM     55  H   LIG d   1       4.381   1.841  -2.997  0.00  0.00     0.062 H 
ENDBRANCH  38  41
ENDBRANCH  35  38
ENDBRANCH  33  35
ENDBRANCH   1  31
TORSDOF 10
ENDMDL
MODEL 5
REMARK VINA RESULT:      -6.8      6.358     11.152
REMARK  10 active torsions:
REMARK  status: ('A' for Active; 'I' for Inactive)
REMARK    1  A    between atoms: C_1  and  O_2 
REMARK    2  A    between atoms: O_2  and  C_3 
REMARK    3  A    between atoms: C_8  and  O_9 
REMARK    4  A    between atoms: O_9  and  C_10 
REMARK    5  A    between atoms: N_13  and  C_16 
REMARK    6  A    between atoms: C_16  and  C_17 
REMARK    7  A    between atoms: C_17  and  C_18 
REMARK       I    between atoms: C_18  and  N_20 
REMARK    8  A    between atoms: N_20  and  C_21 
REMARK    9  A    between atoms: C_21  and  C_22 
REMARK   10  A    between atoms: C_22  and  C_23 
ROOT
ATOM      1  C   LIG d   1       2.807   0.042  -7.242  0.00  0.00     0.042 C 
ATOM      2  H   LIG d   1       2.614   0.643  -6.341  0.00  0.00     0.038 H 
ATOM      3  H   LIG d   1       1.945  -0.612  -7.437  0.00  0.00     0.038 H 
ENDROOT
BRANCH   1   4
ATOM      4  C   LIG d   1       3.024   0.971  -8.438  0.00  0.00     0.036 C 
ATOM      5  H   LIG d   1       4.059   1.346  -8.429  0.00  0.00     0.050 H 
ATOM      6  H   LIG d   1       2.326   1.818  -8.375  0.00  0.00     0.050 H 
BRANCH   4   7
ATOM      7  N   LIG d   1       2.784   0.232  -9.680  0.00  0.00    -0.298 N 
ATOM      8  C   LIG d   1       1.676  -0.547  -9.797  0.00  0.00     0.099 A 
ATOM      9  N   LIG d   1       1.396  -1.235 -10.860  0.00  0.00    -0.237 NA
ATOM     10  H   LIG d   1       0.995  -0.598  -8.959  0.00  0.00     0.103 H 
ATOM     11  C   LIG d   1       2.202  -1.215 -11.952  0.00  0.00     0.082 A 
ATOM     12  C   LIG d   1       3.379  -0.432 -11.922  0.00  0.00     0.069 A 
ATOM     13  C   LIG d   1       1.898  -1.951 -13.098  0.00  0.00     0.010 A 
ATOM     14  C   LIG d   1       4.228  -0.398 -13.028  0.00  0.00    -0.002 A 
ATOM     15  C   LIG d   1       3.668   0.330 -10.700  0.00  0.00     0.262 A 
ATOM     16  C   LIG d   1       3.911  -1.133 -14.152  0.00  0.00     0.162 A 
ATOM     17  H   LIG d   1       5.127   0.199 -13.005  0.00  0.00     0.066 H 
ATOM     18  C   LIG d   1       2.747  -1.908 -14.186  0.00  0.00     0.164 A 
ATOM     19  O   LIG d   1       4.664   1.024 -10.609  0.00  0.00    -0.267 OA
ATOM     20  H   LIG d   1       1.001  -2.553 -13.132  0.00  0.00     0.068 H 
BRANCH  16  21
ATOM     21  O   LIG d   1       4.735  -1.104 -15.234  0.00  0.00    -0.491 OA
BRANCH  21  22
ATOM     22  C   LIG d   1       4.694   0.071 -16.048  0.00  0.00     0.079 C 
ATOM     23  H   LIG d   1       3.847   0.004 -16.746  0.00  0.00     0.066 H 
ATOM     24  H   LIG d   1       5.632   0.155 -16.617  0.00  0.00     0.066 H 
ATOM     25  H   LIG d   1       4.573   0.957 -15.407  0.00  0.00     0.066 H 
ENDBRANCH  21  22
ENDBRANCH  16  21
BRANCH  18  26
ATOM     26  O   LIG d   1       2.450  -2.626 -15.300  0.00  0.00    -0.491 OA
BRANCH  26  27
ATOM     27  C   LIG d   1       1.436  -2.101 -16.159  0.00  0.00     0.079 C 
ATOM     28  H   LIG d   1       1.467  -2.625 -17.126  0.00  0.00     0.066 H 
ATOM     29  H   LIG d   1       1.611  -1.026 -16.318  0.00  0.00     0.066 H 
ATOM     30  H   LIG d   1       0.450  -2.247 -15.694  0.00  0.00     0.066 H 
ENDBRANCH  26  27
ENDBRANCH  18  26
ENDBRANCH   4   7
ENDBRANCH   1   4
BRANCH   1  31
ATOM     31  C   LIG d   1       4.039  -0.800  -7.030  0.00  0.00     0.215 C 
ATOM     32  O   LIG d   1       5.140  -0.313  -7.182  0.00  0.00    -0.276 OA
ATOM     33  N   LIG d   1       3.918  -2.093  -6.672  0.00  0.00    -0.315 N 
ATOM     34  H   LIG d   1       2.919  -2.535  -6.534  0.00  0.00     0.149 HD
BRANCH  33  35
ATOM     35  C   LIG d   1       5.115  -2.912  -6.466  0.00  0.00     0.016 C 
ATOM     36  H   LIG d   1       5.042  -3.828  -7.072  0.00  0.00     0.046 H 
ATOM     37  H   LIG d   1       6.006  -2.343  -6.771  0.00  0.00     0.046 H 
BRANCH  35  38
ATOM     38  C   LIG d   1       5.229  -3.286  -4.987  0.00  0.00    -0.010 C 
ATOM     39  H   LIG d   1       4.242  -3.588  -4.609  0.00  0.00     0.033 H 
ATOM     40  H   LIG d   1       5.937  -4.121  -4.874  0.00  0.00     0.033 H 
BRANCH  38  41
ATOM     41  C   LIG d   1       5.725  -2.097  -4.205  0.00  0.00    -0.021 A 
ATOM     42  C   LIG d   1       4.902  -1.102  -3.516  0.00  0.00     0.003 A 
ATOM     43  C   LIG d   1       5.800  -0.190  -2.931  0.00  0.00     0.047 A 
ATOM     44  C   LIG d   1       3.526  -0.922  -3.359  0.00  0.00    -0.052 A 
ATOM     45  N   LIG d   1       7.072  -0.614  -3.249  0.00  0.00    -0.360 N 
ATOM     46  C   LIG d   1       5.302   0.881  -2.199  0.00  0.00    -0.038 A 
ATOM     47  C   LIG d   1       7.008  -1.753  -4.003  0.00  0.00     0.006 A 
ATOM     48  H   LIG d   1       8.049  -0.180  -2.989  0.00  0.00     0.165 HD
ATOM     49  H   LIG d   1       7.862  -2.295  -4.383  0.00  0.00     0.081 H 
ATOM     50  C   LIG d   1       3.941   1.041  -2.057  0.00  0.00    -0.060 A 
ATOM     51  H   LIG d   1       5.981   1.589  -1.745  0.00  0.00     0.064 H 
ATOM     52  C   LIG d   1       3.059   0.140  -2.637  0.00  0.00    -0.061 A 
ATOM     53  H   LIG d   1       3.557   1.874  -1.488  0.00  0.00     0.062 H 
ATOM     54  H   LIG d   1       1.995   0.279  -2.516  0.00  0.00     0.062 H 
ATOM     55  H   LIG d   1       2.833  -1.619  -3.808  0.00  0.00     0.062 H 
ENDBRANCH  38  41
ENDBRANCH  35  38
ENDBRANCH  33  35
ENDBRANCH   1  31
TORSDOF 10
ENDMDL
MODEL 6
REMARK VINA RESULT:      -6.7      2.403      4.262
REMARK  10 active torsions:
REMARK  status: ('A' for Active; 'I' for Inactive)
REMARK    1  A    between atoms: C_1  and  O_2 
REMARK    2  A    between atoms: O_2  and  C_3 
REMARK    3  A    between atoms: C_8  and  O_9 
REMARK    4  A    between atoms: O_9  and  C_10 
REMARK    5  A    between atoms: N_13  and  C_16 
REMARK    6  A    between atoms: C_16  and  C_17 
REMARK    7  A    between atoms: C_17  and  C_18 
REMARK       I    between atoms: C_18  and  N_20 
REMARK    8  A    between atoms: N_20  and  C_21 
REMARK    9  A    between atoms: C_21  and  C_22 
REMARK   10  A    between atoms: C_22  and  C_23 
ROOT
ATOM      1  C   LIG d   1      10.987   4.666  -1.750  0.00  0.00     0.042 C 
ATOM      2  H   LIG d   1      11.461   3.897  -1.123  0.00  0.00     0.038 H 
ATOM      3  H   LIG d   1      10.152   5.124  -1.199  0.00  0.00     0.038 H 
ENDROOT
BRANCH   1   4
ATOM      4  C   LIG d   1      12.015   5.742  -2.106  0.00  0.00     0.036 C 
ATOM      5  H   LIG d   1      12.118   5.803  -3.199  0.00  0.00     0.050 H 
ATOM      6  H   LIG d   1      12.985   5.483  -1.658  0.00  0.00     0.050 H 
BRANCH   4   7
ATOM      7  N   LIG d   1      11.567   7.036  -1.585  0.00  0.00    -0.298 N 
ATOM      8  C   LIG d   1      10.603   7.731  -2.245  0.00  0.00     0.099 A 
ATOM      9  N   LIG d   1      10.158   8.884  -1.850  0.00  0.00    -0.237 NA
ATOM     10  H   LIG d   1      10.190   7.303  -3.146  0.00  0.00     0.103 H 
ATOM     11  C   LIG d   1      10.627   9.480  -0.725  0.00  0.00     0.082 A 
ATOM     12  C   LIG d   1      11.632   8.830   0.028  0.00  0.00     0.069 A 
ATOM     13  C   LIG d   1      10.143  10.717  -0.298  0.00  0.00     0.010 A 
ATOM     14  C   LIG d   1      12.135   9.422   1.186  0.00  0.00    -0.002 A 
ATOM     15  C   LIG d   1      12.117   7.528  -0.450  0.00  0.00     0.262 A 
ATOM     16  C   LIG d   1      11.646  10.647   1.592  0.00  0.00     0.162 A 
ATOM     17  H   LIG d   1      12.903   8.927   1.761  0.00  0.00     0.066 H 
ATOM     18  C   LIG d   1      10.651  11.292   0.850  0.00  0.00     0.164 A 
ATOM     19  O   LIG d   1      12.980   6.916   0.151  0.00  0.00    -0.267 OA
ATOM     20  H   LIG d   1       9.375  11.223  -0.865  0.00  0.00     0.068 H 
BRANCH  16  21
ATOM     21  O   LIG d   1      12.132  11.229   2.720  0.00  0.00    -0.491 OA
BRANCH  21  22
ATOM     22  C   LIG d   1      12.588  10.355   3.756  0.00  0.00     0.079 C 
ATOM     23  H   LIG d   1      11.903  10.417   4.615  0.00  0.00     0.066 H 
ATOM     24  H   LIG d   1      13.598  10.656   4.072  0.00  0.00     0.066 H 
ATOM     25  H   LIG d   1      12.614   9.323   3.380  0.00  0.00     0.066 H 
ENDBRANCH  21  22
ENDBRANCH  16  21
BRANCH  18  26
ATOM     26  O   LIG d   1      10.180  12.497   1.264  0.00  0.00    -0.491 OA
BRANCH  26  27
ATOM     27  C   LIG d   1      10.343  13.599   0.369  0.00  0.00     0.079 C 
ATOM     28  H   LIG d   1      11.277  14.129   0.605  0.00  0.00     0.066 H 
ATOM     29  H   LIG d   1       9.493  14.289   0.477  0.00  0.00     0.066 H 
ATOM     30  H   LIG d   1      10.383  13.228  -0.666  0.00  0.00     0.066 H 
ENDBRANCH  26  27
ENDBRANCH  18  26
ENDBRANCH   4   7
ENDBRANCH   1   4
BRANCH   1  31
ATOM     31  C   LIG d   1      10.465   4.033  -3.014  0.00  0.00     0.215 C 
ATOM     32  O   LIG d   1      10.416   4.677  -4.040  0.00  0.00    -0.276 OA
ATOM     33  N   LIG d   1      10.053   2.749  -3.004  0.00  0.00    -0.315 N 
ATOM     34  H   LIG d   1      10.097   2.164  -2.073  0.00  0.00     0.149 HD
BRANCH  33  35
ATOM     35  C   LIG d   1       9.546   2.133  -4.232  0.00  0.00     0.016 C 
ATOM     36  H   LIG d   1       9.936   2.679  -5.104  0.00  0.00     0.046 H 
ATOM     37  H   LIG d   1       9.876   1.085  -4.280  0.00  0.00     0.046 H 
BRANCH  35  38
ATOM     38  C   LIG d   1       8.017   2.187  -4.237  0.00  0.00    -0.010 C 
ATOM     39  H   LIG d   1       7.671   2.848  -3.429  0.00  0.00     0.033 H 
ATOM     40  H   LIG d   1       7.667   2.577  -5.205  0.00  0.00     0.033 H 
BRANCH  38  41
ATOM     41  C   LIG d   1       7.464   0.801  -4.025  0.00  0.00    -0.021 A 
ATOM     42  C   LIG d   1       6.280   0.446  -3.240  0.00  0.00     0.003 A 
ATOM     43  C   LIG d   1       6.157  -0.953  -3.332  0.00  0.00     0.047 A 
ATOM     44  C   LIG d   1       5.353   1.179  -2.496  0.00  0.00    -0.052 A 
ATOM     45  N   LIG d   1       7.196  -1.400  -4.118  0.00  0.00    -0.360 N 
ATOM     46  C   LIG d   1       5.109  -1.589  -2.678  0.00  0.00    -0.038 A 
ATOM     47  C   LIG d   1       7.961  -0.342  -4.526  0.00  0.00     0.006 A 
ATOM     48  H   LIG d   1       7.461  -2.422  -4.429  0.00  0.00     0.165 HD
ATOM     49  H   LIG d   1       8.836  -0.415  -5.155  0.00  0.00     0.081 H 
ATOM     50  C   LIG d   1       4.206  -0.847  -1.948  0.00  0.00    -0.060 A 
ATOM     51  H   LIG d   1       5.003  -2.663  -2.739  0.00  0.00     0.064 H 
ATOM     52  C   LIG d   1       4.331   0.533  -1.861  0.00  0.00    -0.061 A 
ATOM     53  H   LIG d   1       3.392  -1.343  -1.441  0.00  0.00     0.062 H 
ATOM     54  H   LIG d   1       3.615   1.100  -1.284  0.00  0.00     0.062 H 
ATOM     55  H   LIG d   1       5.445   2.253  -2.423  0.00  0.00     0.062 H 
ENDBRANCH  38  41
ENDBRANCH  35  38
ENDBRANCH  33  35
ENDBRANCH   1  31
TORSDOF 10
ENDMDL
MODEL 7
REMARK VINA RESULT:      -6.7      1.621      2.142
REMARK  10 active torsions:
REMARK  status: ('A' for Active; 'I' for Inactive)
REMARK    1  A    between atoms: C_1  and  O_2 
REMARK    2  A    between atoms: O_2  and  C_3 
REMARK    3  A    between atoms: C_8  and  O_9 
REMARK    4  A    between atoms: O_9  and  C_10 
REMARK    5  A    between atoms: N_13  and  C_16 
REMARK    6  A    between atoms: C_16  and  C_17 
REMARK    7  A    between atoms: C_17  and  C_18 
REMARK       I    between atoms: C_18  and  N_20 
REMARK    8  A    between atoms: N_20  and  C_21 
REMARK    9  A    between atoms: C_21  and  C_22 
REMARK   10  A    between atoms: C_22  and  C_23 
ROOT
ATOM      1  C   LIG d   1       9.306   1.734  -6.111  0.00  0.00     0.042 C 
ATOM      2  H   LIG d   1       8.978   2.546  -6.776  0.00  0.00     0.038 H 
ATOM      3  H   LIG d   1      10.259   1.323  -6.477  0.00  0.00     0.038 H 
ENDROOT
BRANCH   1   4
ATOM      4  C   LIG d   1       9.497   2.279  -4.694  0.00  0.00     0.036 C 
ATOM      5  H   LIG d   1      10.411   1.852  -4.257  0.00  0.00     0.050 H 
ATOM      6  H   LIG d   1       8.630   2.004  -4.076  0.00  0.00     0.050 H 
BRANCH   4   7
ATOM      7  N   LIG d   1       9.616   3.739  -4.746  0.00  0.00    -0.298 N 
ATOM      8  C   LIG d   1       9.607   4.373  -5.948  0.00  0.00     0.099 A 
ATOM      9  N   LIG d   1       9.713   5.660  -6.076  0.00  0.00    -0.237 NA
ATOM     10  H   LIG d   1       9.511   3.775  -6.842  0.00  0.00     0.103 H 
ATOM     11  C   LIG d   1       9.833   6.475  -4.998  0.00  0.00     0.082 A 
ATOM     12  C   LIG d   1       9.852   5.902  -3.705  0.00  0.00     0.069 A 
ATOM     13  C   LIG d   1       9.941   7.858  -5.136  0.00  0.00     0.010 A 
ATOM     14  C   LIG d   1       9.978   6.716  -2.579  0.00  0.00    -0.002 A 
ATOM     15  C   LIG d   1       9.735   4.442  -3.596  0.00  0.00     0.262 A 
ATOM     16  C   LIG d   1      10.086   8.083  -2.736  0.00  0.00     0.162 A 
ATOM     17  H   LIG d   1       9.993   6.280  -1.592  0.00  0.00     0.066 H 
ATOM     18  C   LIG d   1      10.066   8.652  -4.013  0.00  0.00     0.164 A 
ATOM     19  O   LIG d   1       9.744   3.886  -2.513  0.00  0.00    -0.267 OA
ATOM     20  H   LIG d   1       9.928   8.307  -6.119  0.00  0.00     0.068 H 
BRANCH  16  21
ATOM     21  O   LIG d   1      10.209   8.881  -1.642  0.00  0.00    -0.491 OA
BRANCH  21  22
ATOM     22  C   LIG d   1       9.021   9.138  -0.888  0.00  0.00     0.079 C 
ATOM     23  H   LIG d   1       8.267   8.373  -1.123  0.00  0.00     0.066 H 
ATOM     24  H   LIG d   1       8.629  10.132  -1.150  0.00  0.00     0.066 H 
ATOM     25  H   LIG d   1       9.255   9.106   0.186  0.00  0.00     0.066 H 
ENDBRANCH  21  22
ENDBRANCH  16  21
BRANCH  18  26
ATOM     26  O   LIG d   1      10.173  10.000  -4.150  0.00  0.00    -0.491 OA
BRANCH  26  27
ATOM     27  C   LIG d   1       9.499  10.594  -5.260  0.00  0.00     0.079 C 
ATOM     28  H   LIG d   1       8.479  10.188  -5.331  0.00  0.00     0.066 H 
ATOM     29  H   LIG d   1      10.048  10.369  -6.187  0.00  0.00     0.066 H 
ATOM     30  H   LIG d   1       9.450  11.684  -5.119  0.00  0.00     0.066 H 
ENDBRANCH  26  27
ENDBRANCH  18  26
ENDBRANCH   4   7
ENDBRANCH   1   4
BRANCH   1  31
ATOM     31  C   LIG d   1       8.264   0.645  -6.094  0.00  0.00     0.215 C 
ATOM     32  O   LIG d   1       7.094   0.923  -6.246  0.00  0.00    -0.276 OA
ATOM     33  N   LIG d   1       8.633  -0.638  -5.908  0.00  0.00    -0.315 N 
ATOM     34  H   LIG d   1       9.695  -0.891  -5.770  0.00  0.00     0.149 HD
BRANCH  33  35
ATOM     35  C   LIG d   1       7.620  -1.697  -5.892  0.00  0.00     0.016 C 
ATOM     36  H   LIG d   1       6.682  -1.313  -6.321  0.00  0.00     0.046 H 
ATOM     37  H   LIG d   1       7.972  -2.551  -6.488  0.00  0.00     0.046 H 
BRANCH  35  38
ATOM     38  C   LIG d   1       7.376  -2.146  -4.450  0.00  0.00    -0.010 C 
ATOM     39  H   LIG d   1       7.643  -3.208  -4.347  0.00  0.00     0.033 H 
ATOM     40  H   LIG d   1       7.995  -1.545  -3.769  0.00  0.00     0.033 H 
BRANCH  38  41
ATOM     41  C   LIG d   1       5.921  -1.959  -4.105  0.00  0.00    -0.021 A 
ATOM     42  C   LIG d   1       5.320  -0.783  -3.471  0.00  0.00     0.003 A 
ATOM     43  C   LIG d   1       3.947  -1.064  -3.351  0.00  0.00     0.047 A 
ATOM     44  C   LIG d   1       5.823   0.437  -3.015  0.00  0.00    -0.052 A 
ATOM     45  N   LIG d   1       3.743  -2.321  -3.876  0.00  0.00    -0.360 N 
ATOM     46  C   LIG d   1       3.106  -0.118  -2.777  0.00  0.00    -0.038 A 
ATOM     47  C   LIG d   1       4.928  -2.836  -4.325  0.00  0.00     0.006 A 
ATOM     48  H   LIG d   1       2.817  -2.908  -3.969  0.00  0.00     0.165 HD
ATOM     49  H   LIG d   1       5.048  -3.806  -4.786  0.00  0.00     0.081 H 
ATOM     50  C   LIG d   1       3.623   1.079  -2.333  0.00  0.00    -0.060 A 
ATOM     51  H   LIG d   1       2.049  -0.321  -2.678  0.00  0.00     0.064 H 
ATOM     52  C   LIG d   1       4.978   1.352  -2.454  0.00  0.00    -0.061 A 
ATOM     53  H   LIG d   1       2.968   1.813  -1.888  0.00  0.00     0.062 H 
ATOM     54  H   LIG d   1       5.368   2.296  -2.100  0.00  0.00     0.062 H 
ATOM     55  H   LIG d   1       6.878   0.656  -3.105  0.00  0.00     0.062 H 
ENDBRANCH  38  41
ENDBRANCH  35  38
ENDBRANCH  33  35
ENDBRANCH   1  31
TORSDOF 10
ENDMDL
MODEL 8
REMARK VINA RESULT:      -6.6      4.628      7.643
REMARK  10 active torsions:
REMARK  status: ('A' for Active; 'I' for Inactive)
REMARK    1  A    between atoms: C_1  and  O_2 
REMARK    2  A    between atoms: O_2  and  C_3 
REMARK    3  A    between atoms: C_8  and  O_9 
REMARK    4  A    between atoms: O_9  and  C_10 
REMARK    5  A    between atoms: N_13  and  C_16 
REMARK    6  A    between atoms: C_16  and  C_17 
REMARK    7  A    between atoms: C_17  and  C_18 
REMARK       I    between atoms: C_18  and  N_20 
REMARK    8  A    between atoms: N_20  and  C_21 
REMARK    9  A    between atoms: C_21  and  C_22 
REMARK   10  A    between atoms: C_22  and  C_23 
ROOT
ATOM      1  C   LIG d   1       2.732  -0.785  -3.336  0.00  0.00     0.042 C 
ATOM      2  H   LIG d   1       2.827  -1.829  -3.668  0.00  0.00     0.038 H 
ATOM      3  H   LIG d   1       1.764  -0.649  -2.830  0.00  0.00     0.038 H 
ENDROOT
BRANCH   1   4
ATOM      4  C   LIG d   1       3.866  -0.451  -2.365  0.00  0.00     0.036 C 
ATOM      5  H   LIG d   1       3.843  -1.154  -1.519  0.00  0.00     0.050 H 
ATOM      6  H   LIG d   1       3.741   0.576  -1.994  0.00  0.00     0.050 H 
BRANCH   4   7
ATOM      7  N   LIG d   1       5.151  -0.566  -3.059  0.00  0.00    -0.298 N 
ATOM      8  C   LIG d   1       5.501  -1.745  -3.640  0.00  0.00     0.099 A 
ATOM      9  N   LIG d   1       6.621  -1.926  -4.267  0.00  0.00    -0.237 NA
ATOM     10  H   LIG d   1       4.811  -2.573  -3.571  0.00  0.00     0.103 H 
ATOM     11  C   LIG d   1       7.534  -0.930  -4.397  0.00  0.00     0.082 A 
ATOM     12  C   LIG d   1       7.255   0.333  -3.824  0.00  0.00     0.069 A 
ATOM     13  C   LIG d   1       8.736  -1.124  -5.077  0.00  0.00     0.010 A 
ATOM     14  C   LIG d   1       8.177   1.374  -3.938  0.00  0.00    -0.002 A 
ATOM     15  C   LIG d   1       5.980   0.503  -3.116  0.00  0.00     0.262 A 
ATOM     16  C   LIG d   1       9.362   1.162  -4.613  0.00  0.00     0.162 A 
ATOM     17  H   LIG d   1       7.966   2.338  -3.501  0.00  0.00     0.066 H 
ATOM     18  C   LIG d   1       9.640  -0.085  -5.181  0.00  0.00     0.164 A 
ATOM     19  O   LIG d   1       5.679   1.564  -2.602  0.00  0.00    -0.267 OA
ATOM     20  H   LIG d   1       8.959  -2.085  -5.518  0.00  0.00     0.068 H 
BRANCH  16  21
ATOM     21  O   LIG d   1      10.265   2.173  -4.728  0.00  0.00    -0.491 OA
BRANCH  21  22
ATOM     22  C   LIG d   1      11.096   2.432  -3.594  0.00  0.00     0.079 C 
ATOM     23  H   LIG d   1      10.633   3.211  -2.970  0.00  0.00     0.066 H 
ATOM     24  H   LIG d   1      12.084   2.775  -3.935  0.00  0.00     0.066 H 
ATOM     25  H   LIG d   1      11.211   1.510  -3.005  0.00  0.00     0.066 H 
ENDBRANCH  21  22
ENDBRANCH  16  21
BRANCH  18  26
ATOM     26  O   LIG d   1      10.811  -0.277  -5.843  0.00  0.00    -0.491 OA
BRANCH  26  27
ATOM     27  C   LIG d   1      11.763  -1.152  -5.235  0.00  0.00     0.079 C 
ATOM     28  H   LIG d   1      12.697  -0.602  -5.043  0.00  0.00     0.066 H 
ATOM     29  H   LIG d   1      11.968  -1.997  -5.910  0.00  0.00     0.066 H 
ATOM     30  H   LIG d   1      11.359  -1.531  -4.285  0.00  0.00     0.066 H 
ENDBRANCH  26  27
ENDBRANCH  18  26
ENDBRANCH   4   7
ENDBRANCH   1   4
BRANCH   1  31
ATOM     31  C   LIG d   1       2.807   0.131  -4.530  0.00  0.00     0.215 C 
ATOM     32  O   LIG d   1       2.769   1.333  -4.377  0.00  0.00    -0.276 OA
ATOM     33  N   LIG d   1       2.916  -0.387  -5.770  0.00  0.00    -0.315 N 
ATOM     34  H   LIG d   1       2.951  -1.478  -5.910  0.00  0.00     0.149 HD
BRANCH  33  35
ATOM     35  C   LIG d   1       2.990   0.503  -6.932  0.00  0.00     0.016 C 
ATOM     36  H   LIG d   1       2.419   1.421  -6.727  0.00  0.00     0.046 H 
ATOM     37  H   LIG d   1       4.040   0.762  -7.130  0.00  0.00     0.046 H 
BRANCH  35  38
ATOM     38  C   LIG d   1       2.399  -0.203  -8.154  0.00  0.00    -0.010 C 
ATOM     39  H   LIG d   1       2.346  -1.285  -7.962  0.00  0.00     0.033 H 
ATOM     40  H   LIG d   1       1.388   0.185  -8.348  0.00  0.00     0.033 H 
BRANCH  38  41
ATOM     41  C   LIG d   1       3.274   0.052  -9.354  0.00  0.00    -0.021 A 
ATOM     42  C   LIG d   1       3.089  -0.494 -10.700  0.00  0.00     0.003 A 
ATOM     43  C   LIG d   1       4.144   0.020 -11.477  0.00  0.00     0.047 A 
ATOM     44  C   LIG d   1       2.148  -1.346 -11.280  0.00  0.00    -0.052 A 
ATOM     45  N   LIG d   1       4.905   0.818 -10.651  0.00  0.00    -0.360 N 
ATOM     46  C   LIG d   1       4.233  -0.329 -12.819  0.00  0.00    -0.038 A 
ATOM     47  C   LIG d   1       4.369   0.829  -9.393  0.00  0.00     0.006 A 
ATOM     48  H   LIG d   1       5.815   1.397 -10.867  0.00  0.00     0.165 HD
ATOM     49  H   LIG d   1       4.769   1.380  -8.553  0.00  0.00     0.081 H 
ATOM     50  C   LIG d   1       3.293  -1.172 -13.372  0.00  0.00    -0.060 A 
ATOM     51  H   LIG d   1       5.038   0.058 -13.428  0.00  0.00     0.064 H 
ATOM     52  C   LIG d   1       2.255  -1.676 -12.601  0.00  0.00    -0.061 A 
ATOM     53  H   LIG d   1       3.364  -1.441 -14.415  0.00  0.00     0.062 H 
ATOM     54  H   LIG d   1       1.527  -2.336 -13.050  0.00  0.00     0.062 H 
ATOM     55  H   LIG d   1       1.337  -1.743 -10.686  0.00  0.00     0.062 H 
ENDBRANCH  38  41
ENDBRANCH  35  38
ENDBRANCH  33  35
ENDBRANCH   1  31
TORSDOF 10
ENDMDL
MODEL 9
REMARK VINA RESULT:      -6.4      6.475     11.241
REMARK  10 active torsions:
REMARK  status: ('A' for Active; 'I' for Inactive)
REMARK    1  A    between atoms: C_1  and  O_2 
REMARK    2  A    between atoms: O_2  and  C_3 
REMARK    3  A    between atoms: C_8  and  O_9 
REMARK    4  A    between atoms: O_9  and  C_10 
REMARK    5  A    between atoms: N_13  and  C_16 
REMARK    6  A    between atoms: C_16  and  C_17 
REMARK    7  A    between atoms: C_17  and  C_18 
REMARK       I    between atoms: C_18  and  N_20 
REMARK    8  A    between atoms: N_20  and  C_21 
REMARK    9  A    between atoms: C_21  and  C_22 
REMARK   10  A    between atoms: C_22  and  C_23 
ROOT
ATOM      1  C   LIG d   1       2.776  -0.042  -7.397  0.00  0.00     0.042 C 
ATOM      2  H   LIG d   1       2.341   0.364  -6.471  0.00  0.00     0.038 H 
ATOM      3  H   LIG d   1       2.096  -0.797  -7.820  0.00  0.00     0.038 H 
ENDROOT
BRANCH   1   4
ATOM      4  C   LIG d   1       2.975   1.090  -8.407  0.00  0.00     0.036 C 
ATOM      5  H   LIG d   1       3.860   1.680  -8.126  0.00  0.00     0.050 H 
ATOM      6  H   LIG d   1       2.086   1.737  -8.411  0.00  0.00     0.050 H 
BRANCH   4   7
ATOM      7  N   LIG d   1       3.172   0.522  -9.743  0.00  0.00    -0.298 N 
ATOM      8  C   LIG d   1       4.315   0.790 -10.428  0.00  0.00     0.099 A 
ATOM      9  N   LIG d   1       4.560   0.329 -11.615  0.00  0.00    -0.237 NA
ATOM     10  H   LIG d   1       5.055   1.423  -9.960  0.00  0.00     0.103 H 
ATOM     11  C   LIG d   1       3.679  -0.475 -12.262  0.00  0.00     0.082 A 
ATOM     12  C   LIG d   1       2.461  -0.808 -11.627  0.00  0.00     0.069 A 
ATOM     13  C   LIG d   1       3.947  -0.975 -13.537  0.00  0.00     0.010 A 
ATOM     14  C   LIG d   1       1.535  -1.629 -12.270  0.00  0.00    -0.002 A 
ATOM     15  C   LIG d   1       2.213  -0.265 -10.285  0.00  0.00     0.262 A 
ATOM     16  C   LIG d   1       1.816  -2.113 -13.532  0.00  0.00     0.162 A 
ATOM     17  H   LIG d   1       0.604  -1.884 -11.786  0.00  0.00     0.066 H 
ATOM     18  C   LIG d   1       3.021  -1.786 -14.163  0.00  0.00     0.164 A 
ATOM     19  O   LIG d   1       1.185  -0.514  -9.682  0.00  0.00    -0.267 OA
ATOM     20  H   LIG d   1       4.874  -0.727 -14.032  0.00  0.00     0.068 H 
BRANCH  16  21
ATOM     21  O   LIG d   1       0.917  -2.914 -14.165  0.00  0.00    -0.491 OA
BRANCH  21  22
ATOM     22  C   LIG d   1      -0.463  -2.564 -14.041  0.00  0.00     0.079 C 
ATOM     23  H   LIG d   1      -0.682  -1.700 -14.686  0.00  0.00     0.066 H 
ATOM     24  H   LIG d   1      -0.683  -2.304 -12.994  0.00  0.00     0.066 H 
ATOM     25  H   LIG d   1      -1.086  -3.417 -14.345  0.00  0.00     0.066 H 
ENDBRANCH  21  22
ENDBRANCH  16  21
BRANCH  18  26
ATOM     26  O   LIG d   1       3.282  -2.271 -15.405  0.00  0.00    -0.491 OA
BRANCH  26  27
ATOM     27  C   LIG d   1       3.137  -1.363 -16.499  0.00  0.00     0.079 C 
ATOM     28  H   LIG d   1       3.610  -1.791 -17.396  0.00  0.00     0.066 H 
ATOM     29  H   LIG d   1       3.622  -0.408 -16.250  0.00  0.00     0.066 H 
ATOM     30  H   LIG d   1       2.068  -1.192 -16.694  0.00  0.00     0.066 H 
ENDBRANCH  26  27
ENDBRANCH  18  26
ENDBRANCH   4   7
ENDBRANCH   1   4
BRANCH   1  31
ATOM     31  C   LIG d   1       4.106  -0.681  -7.089  0.00  0.00     0.215 C 
ATOM     32  O   LIG d   1       5.104   0.004  -7.013  0.00  0.00    -0.276 OA
ATOM     33  N   LIG d   1       4.186  -2.013  -6.900  0.00  0.00    -0.315 N 
ATOM     34  H   LIG d   1       3.280  -2.634  -6.969  0.00  0.00     0.149 HD
BRANCH  33  35
ATOM     35  C   LIG d   1       5.479  -2.634  -6.601  0.00  0.00     0.016 C 
ATOM     36  H   LIG d   1       5.621  -3.513  -7.247  0.00  0.00     0.046 H 
ATOM     37  H   LIG d   1       6.286  -1.910  -6.787  0.00  0.00     0.046 H 
BRANCH  35  38
ATOM     38  C   LIG d   1       5.510  -3.067  -5.134  0.00  0.00    -0.010 C 
ATOM     39  H   LIG d   1       4.516  -3.434  -4.839  0.00  0.00     0.033 H 
ATOM     40  H   LIG d   1       6.251  -3.869  -5.005  0.00  0.00     0.033 H 
BRANCH  38  41
ATOM     41  C   LIG d   1       5.887  -1.890  -4.271  0.00  0.00    -0.021 A 
ATOM     42  C   LIG d   1       4.966  -0.984  -3.581  0.00  0.00     0.003 A 
ATOM     43  C   LIG d   1       5.772  -0.049  -2.906  0.00  0.00     0.047 A 
ATOM     44  C   LIG d   1       3.576  -0.899  -3.490  0.00  0.00    -0.052 A 
ATOM     45  N   LIG d   1       7.083  -0.376  -3.174  0.00  0.00    -0.360 N 
ATOM     46  C   LIG d   1       5.169   0.951  -2.152  0.00  0.00    -0.038 A 
ATOM     47  C   LIG d   1       7.132  -1.477  -3.984  0.00  0.00     0.006 A 
ATOM     48  H   LIG d   1       8.015   0.105  -2.841  0.00  0.00     0.165 HD
ATOM     49  H   LIG d   1       8.039  -1.944  -4.342  0.00  0.00     0.081 H 
ATOM     50  C   LIG d   1       3.795   1.017  -2.077  0.00  0.00    -0.060 A 
ATOM     51  H   LIG d   1       5.776   1.676  -1.629  0.00  0.00     0.064 H 
ATOM     52  C   LIG d   1       3.004   0.093  -2.745  0.00  0.00    -0.061 A 
ATOM     53  H   LIG d   1       3.329   1.795  -1.491  0.00  0.00     0.062 H 
ATOM     54  H   LIG d   1       1.928   0.160  -2.675  0.00  0.00     0.062 H 
ATOM     55  H   LIG d   1       2.954  -1.614  -4.009  0.00  0.00     0.062 H 
ENDBRANCH  38  41
ENDBRANCH  35  38
ENDBRANCH  33  35
ENDBRANCH   1  31
TORSDOF 10
ENDMDL
