MODEL 1
REMARK VINA RESULT:      -6.2      0.000      0.000
REMARK  4 active torsions:
REMARK  status: ('A' for Active; 'I' for Inactive)
REMARK    1  A    between atoms: C_1  and  C_2 
REMARK    2  A    between atoms: C_5  and  O_27 
REMARK    3  A    between atoms: C_18  and  C_26 
REMARK    4  A    between atoms: C_23  and  O_25 
ROOT
ATOM      1  C   LIG d   1       4.514  -0.778  -4.820  0.00  0.00    -0.026 C 
ATOM      2  C   LIG d   1       5.757  -0.801  -3.927  0.00  0.00    -0.045 C 
ATOM      3  C   LIG d   1       5.454  -1.585  -2.649  0.00  0.00    -0.026 C 
ATOM      4  C   LIG d   1       4.301  -0.913  -1.900  0.00  0.00     0.056 C 
ATOM      5  H   LIG d   1       4.085  -1.472  -0.989  0.00  0.00     0.059 H 
ATOM      6  C   LIG d   1       3.059  -0.893  -2.791  0.00  0.00    -0.024 C 
ATOM      7  C   LIG d   1       3.361  -0.108  -4.070  0.00  0.00    -0.033 C 
ATOM      8  H   LIG d   1       3.640   0.913  -3.812  0.00  0.00     0.031 H 
ATOM      9  C   LIG d   1       2.117  -0.085  -4.959  0.00  0.00    -0.049 C 
ATOM     10  C   LIG d   1       2.418   0.696  -6.239  0.00  0.00    -0.049 C 
ATOM     11  C   LIG d   1       3.567   0.020  -6.991  0.00  0.00    -0.034 C 
ATOM     12  H   LIG d   1       3.287  -1.002  -7.246  0.00  0.00     0.031 H 
ATOM     13  C   LIG d   1       4.815   0.009  -6.095  0.00  0.00    -0.032 C 
ATOM     14  H   LIG d   1       5.066   1.035  -5.825  0.00  0.00     0.031 H 
ATOM     15  C   LIG d   1       6.014  -0.601  -6.814  0.00  0.00    -0.049 C 
ATOM     16  C   LIG d   1       6.288   0.110  -8.150  0.00  0.00    -0.045 C 
ATOM     17  C   LIG d   1       5.024   0.011  -8.982  0.00  0.00    -0.003 C 
ATOM     18  C   LIG d   1       3.899   0.793  -8.253  0.00  0.00    -0.030 C 
ATOM     19  H   LIG d   1       4.250   1.794  -8.003  0.00  0.00     0.031 H 
ATOM     20  C   LIG d   1       2.796   0.846  -9.315  0.00  0.00    -0.047 C 
ATOM     21  C   LIG d   1       3.584   1.135 -10.621  0.00  0.00    -0.026 C 
ATOM     22  C   LIG d   1       5.062   0.665 -10.359  0.00  0.00     0.061 C 
ATOM     23  H   LIG d   1       5.769   1.494 -10.365  0.00  0.00     0.060 H 
ATOM     24  H   LIG d   1       6.579  -1.279  -4.460  0.00  0.00     0.027 H 
ATOM     25  H   LIG d   1       6.038   0.220  -3.669  0.00  0.00     0.027 H 
ATOM     26  H   LIG d   1       5.174  -2.607  -2.907  0.00  0.00     0.029 H 
ATOM     27  H   LIG d   1       6.340  -1.601  -2.014  0.00  0.00     0.029 H 
ATOM     28  H   LIG d   1       2.779  -1.915  -3.050  0.00  0.00     0.029 H 
ATOM     29  H   LIG d   1       2.236  -0.415  -2.257  0.00  0.00     0.029 H 
ATOM     30  H   LIG d   1       1.835  -1.106  -5.215  0.00  0.00     0.027 H 
ATOM     31  H   LIG d   1       1.297   0.395  -4.425  0.00  0.00     0.027 H 
ATOM     32  H   LIG d   1       1.531   0.713  -6.872  0.00  0.00     0.027 H 
ATOM     33  H   LIG d   1       2.702   1.716  -5.984  0.00  0.00     0.027 H 
ATOM     34  H   LIG d   1       6.894  -0.515  -6.176  0.00  0.00     0.027 H 
ATOM     35  H   LIG d   1       5.816  -1.656  -7.006  0.00  0.00     0.027 H 
ATOM     36  H   LIG d   1       6.533   1.157  -7.969  0.00  0.00     0.027 H 
ATOM     37  H   LIG d   1       7.112  -0.380  -8.669  0.00  0.00     0.027 H 
ATOM     38  H   LIG d   1       2.277  -0.110  -9.381  0.00  0.00     0.027 H 
ATOM     39  H   LIG d   1       2.094   1.653  -9.101  0.00  0.00     0.027 H 
ATOM     40  H   LIG d   1       3.135   0.596 -11.456  0.00  0.00     0.029 H 
ATOM     41  H   LIG d   1       3.590   2.205 -10.826  0.00  0.00     0.029 H 
ENDROOT
BRANCH   1  42
ATOM     42  C   LIG d   1       4.122  -2.211  -5.184  0.00  0.00    -0.059 C 
ATOM     43  H   LIG d   1       3.479  -2.622  -4.405  0.00  0.00     0.024 H 
ATOM     44  H   LIG d   1       3.587  -2.211  -6.134  0.00  0.00     0.024 H 
ATOM     45  H   LIG d   1       5.019  -2.823  -5.274  0.00  0.00     0.024 H 
ENDBRANCH   1  42
BRANCH   4  46
ATOM     46  O   LIG d   1       4.668   0.426  -1.562  0.00  0.00    -0.392 OA
ATOM     47  H   LIG d   1       3.929   1.050  -1.567  0.00  0.00     0.210 HD
ENDBRANCH   4  46
BRANCH  17  48
ATOM     48  C   LIG d   1       4.607  -1.454  -9.116  0.00  0.00    -0.057 C 
ATOM     49  H   LIG d   1       5.343  -2.088  -8.620  0.00  0.00     0.024 H 
ATOM     50  H   LIG d   1       3.631  -1.598  -8.651  0.00  0.00     0.024 H 
ATOM     51  H   LIG d   1       4.549  -1.721 -10.171  0.00  0.00     0.024 H 
ENDBRANCH  17  48
BRANCH  22  52
ATOM     52  O   LIG d   1       5.418  -0.298 -11.354  0.00  0.00    -0.391 OA
ATOM     53  H   LIG d   1       5.214  -0.023 -12.258  0.00  0.00     0.210 HD
ENDBRANCH  22  52
TORSDOF 4
ENDMDL
MODEL 2
REMARK VINA RESULT:      -6.1      1.235      6.088
REMARK  4 active torsions:
REMARK  status: ('A' for Active; 'I' for Inactive)
REMARK    1  A    between atoms: C_1  and  C_2 
REMARK    2  A    between atoms: C_5  and  O_27 
REMARK    3  A    between atoms: C_18  and  C_26 
REMARK    4  A    between atoms: C_23  and  O_25 
ROOT
ATOM      1  C   LIG d   1       4.537  -0.209  -8.902  0.00  0.00    -0.026 C 
ATOM      2  C   LIG d   1       4.920  -1.282  -9.924  0.00  0.00    -0.045 C 
ATOM      3  C   LIG d   1       5.398  -0.612 -11.214  0.00  0.00    -0.026 C 
ATOM      4  C   LIG d   1       4.274   0.255 -11.784  0.00  0.00     0.056 C 
ATOM      5  H   LIG d   1       4.613   0.732 -12.704  0.00  0.00     0.059 H 
ATOM      6  C   LIG d   1       3.892   1.329 -10.764  0.00  0.00    -0.024 C 
ATOM      7  C   LIG d   1       3.414   0.660  -9.474  0.00  0.00    -0.033 C 
ATOM      8  H   LIG d   1       2.546   0.037  -9.687  0.00  0.00     0.031 H 
ATOM      9  C   LIG d   1       3.029   1.734  -8.456  0.00  0.00    -0.049 C 
ATOM     10  C   LIG d   1       2.554   1.067  -7.163  0.00  0.00    -0.049 C 
ATOM     11  C   LIG d   1       3.681   0.205  -6.590  0.00  0.00    -0.034 C 
ATOM     12  H   LIG d   1       4.550   0.828  -6.379  0.00  0.00     0.031 H 
ATOM     13  C   LIG d   1       4.056  -0.878  -7.615  0.00  0.00    -0.032 C 
ATOM     14  H   LIG d   1       3.171  -1.476  -7.837  0.00  0.00     0.031 H 
ATOM     15  C   LIG d   1       5.137  -1.809  -7.075  0.00  0.00    -0.049 C 
ATOM     16  C   LIG d   1       4.722  -2.429  -5.730  0.00  0.00    -0.045 C 
ATOM     17  C   LIG d   1       4.437  -1.286  -4.775  0.00  0.00    -0.003 C 
ATOM     18  C   LIG d   1       3.223  -0.487  -5.320  0.00  0.00    -0.030 C 
ATOM     19  H   LIG d   1       2.401  -1.169  -5.535  0.00  0.00     0.031 H 
ATOM     20  C   LIG d   1       2.881   0.434  -4.144  0.00  0.00    -0.047 C 
ATOM     21  C   LIG d   1       3.043  -0.500  -2.913  0.00  0.00    -0.026 C 
ATOM     22  C   LIG d   1       3.993  -1.669  -3.367  0.00  0.00     0.061 C 
ATOM     23  H   LIG d   1       3.488  -2.634  -3.379  0.00  0.00     0.060 H 
ATOM     24  H   LIG d   1       5.721  -1.901  -9.518  0.00  0.00     0.027 H 
ATOM     25  H   LIG d   1       4.053  -1.907 -10.138  0.00  0.00     0.027 H 
ATOM     26  H   LIG d   1       6.266   0.011 -10.999  0.00  0.00     0.029 H 
ATOM     27  H   LIG d   1       5.671  -1.378 -11.940  0.00  0.00     0.029 H 
ATOM     28  H   LIG d   1       4.761   1.952 -10.550  0.00  0.00     0.029 H 
ATOM     29  H   LIG d   1       3.091   1.948 -11.171  0.00  0.00     0.029 H 
ATOM     30  H   LIG d   1       3.896   2.360  -8.243  0.00  0.00     0.027 H 
ATOM     31  H   LIG d   1       2.228   2.350  -8.862  0.00  0.00     0.027 H 
ATOM     32  H   LIG d   1       2.279   1.833  -6.438  0.00  0.00     0.027 H 
ATOM     33  H   LIG d   1       1.689   0.439  -7.375  0.00  0.00     0.027 H 
ATOM     34  H   LIG d   1       5.314  -2.606  -7.796  0.00  0.00     0.027 H 
ATOM     35  H   LIG d   1       6.059  -1.243  -6.938  0.00  0.00     0.027 H 
ATOM     36  H   LIG d   1       3.826  -3.035  -5.861  0.00  0.00     0.027 H 
ATOM     37  H   LIG d   1       5.533  -3.043  -5.339  0.00  0.00     0.027 H 
ATOM     38  H   LIG d   1       3.580   1.267  -4.090  0.00  0.00     0.027 H 
ATOM     39  H   LIG d   1       1.855   0.793  -4.223  0.00  0.00     0.027 H 
ATOM     40  H   LIG d   1       3.464   0.056  -2.075  0.00  0.00     0.029 H 
ATOM     41  H   LIG d   1       2.078  -0.924  -2.635  0.00  0.00     0.029 H 
ENDROOT
BRANCH   1  42
ATOM     42  C   LIG d   1       5.755   0.666  -8.600  0.00  0.00    -0.059 C 
ATOM     43  H   LIG d   1       6.478   0.093  -8.018  0.00  0.00     0.024 H 
ATOM     44  H   LIG d   1       6.213   0.987  -9.535  0.00  0.00     0.024 H 
ATOM     45  H   LIG d   1       5.442   1.541  -8.030  0.00  0.00     0.024 H 
ENDBRANCH   1  42
BRANCH   4  46
ATOM     46  O   LIG d   1       3.136  -0.563 -12.064  0.00  0.00    -0.392 OA
ATOM     47  H   LIG d   1       2.550  -0.203 -12.745  0.00  0.00     0.210 HD
ENDBRANCH   4  46
BRANCH  17  48
ATOM     48  C   LIG d   1       5.651  -0.358  -4.700  0.00  0.00    -0.057 C 
ATOM     49  H   LIG d   1       6.147  -0.486  -3.737  0.00  0.00     0.024 H 
ATOM     50  H   LIG d   1       6.347  -0.606  -5.502  0.00  0.00     0.024 H 
ATOM     51  H   LIG d   1       5.326   0.676  -4.808  0.00  0.00     0.024 H 
ENDBRANCH  17  48
BRANCH  22  52
ATOM     52  O   LIG d   1       5.119  -1.709  -2.487  0.00  0.00    -0.391 OA
ATOM     53  H   LIG d   1       5.830  -1.099  -2.729  0.00  0.00     0.210 HD
ENDBRANCH  22  52
TORSDOF 4
ENDMDL
MODEL 3
REMARK VINA RESULT:      -5.9      3.186      4.461
REMARK  4 active torsions:
REMARK  status: ('A' for Active; 'I' for Inactive)
REMARK    1  A    between atoms: C_1  and  C_2 
REMARK    2  A    between atoms: C_5  and  O_27 
REMARK    3  A    between atoms: C_18  and  C_26 
REMARK    4  A    between atoms: C_23  and  O_25 
ROOT
ATOM      1  C   LIG d   1       5.905  -0.538  -3.746  0.00  0.00    -0.026 C 
ATOM      2  C   LIG d   1       5.202   0.045  -2.518  0.00  0.00    -0.045 C 
ATOM      3  C   LIG d   1       4.568  -1.085  -1.706  0.00  0.00    -0.026 C 
ATOM      4  C   LIG d   1       3.547  -1.825  -2.573  0.00  0.00     0.056 C 
ATOM      5  H   LIG d   1       3.095  -2.630  -1.994  0.00  0.00     0.059 H 
ATOM      6  C   LIG d   1       4.250  -2.410  -3.798  0.00  0.00    -0.024 C 
ATOM      7  C   LIG d   1       4.884  -1.280  -4.611  0.00  0.00    -0.033 C 
ATOM      8  H   LIG d   1       4.109  -0.585  -4.935  0.00  0.00     0.031 H 
ATOM      9  C   LIG d   1       5.583  -1.866  -5.839  0.00  0.00    -0.049 C 
ATOM     10  C   LIG d   1       6.221  -0.737  -6.651  0.00  0.00    -0.049 C 
ATOM     11  C   LIG d   1       7.247  -0.003  -5.785  0.00  0.00    -0.034 C 
ATOM     12  H   LIG d   1       8.021  -0.699  -5.461  0.00  0.00     0.031 H 
ATOM     13  C   LIG d   1       6.536   0.591  -4.559  0.00  0.00    -0.032 C 
ATOM     14  H   LIG d   1       5.747   1.264  -4.900  0.00  0.00     0.031 H 
ATOM     15  C   LIG d   1       7.499   1.389  -3.686  0.00  0.00    -0.049 C 
ATOM     16  C   LIG d   1       8.221   2.478  -4.498  0.00  0.00    -0.045 C 
ATOM     17  C   LIG d   1       8.940   1.787  -5.640  0.00  0.00    -0.003 C 
ATOM     18  C   LIG d   1       7.875   1.138  -6.564  0.00  0.00    -0.030 C 
ATOM     19  H   LIG d   1       7.119   1.876  -6.830  0.00  0.00     0.031 H 
ATOM     20  C   LIG d   1       8.704   0.735  -7.788  0.00  0.00    -0.047 C 
ATOM     21  C   LIG d   1       9.648   1.952  -7.984  0.00  0.00    -0.026 C 
ATOM     22  C   LIG d   1       9.723   2.683  -6.594  0.00  0.00     0.061 C 
ATOM     23  H   LIG d   1       9.283   3.679  -6.623  0.00  0.00     0.060 H 
ATOM     24  H   LIG d   1       5.929   0.573  -1.900  0.00  0.00     0.027 H 
ATOM     25  H   LIG d   1       4.427   0.741  -2.839  0.00  0.00     0.027 H 
ATOM     26  H   LIG d   1       5.344  -1.780  -1.384  0.00  0.00     0.029 H 
ATOM     27  H   LIG d   1       4.069  -0.668  -0.831  0.00  0.00     0.029 H 
ATOM     28  H   LIG d   1       5.026  -3.105  -3.476  0.00  0.00     0.029 H 
ATOM     29  H   LIG d   1       3.522  -2.939  -4.417  0.00  0.00     0.029 H 
ATOM     30  H   LIG d   1       6.357  -2.563  -5.517  0.00  0.00     0.027 H 
ATOM     31  H   LIG d   1       4.855  -2.391  -6.456  0.00  0.00     0.027 H 
ATOM     32  H   LIG d   1       6.719  -1.156  -7.527  0.00  0.00     0.027 H 
ATOM     33  H   LIG d   1       5.449  -0.039  -6.971  0.00  0.00     0.027 H 
ATOM     34  H   LIG d   1       6.940   1.859  -2.876  0.00  0.00     0.027 H 
ATOM     35  H   LIG d   1       8.239   0.711  -3.261  0.00  0.00     0.027 H 
ATOM     36  H   LIG d   1       7.495   3.189  -4.892  0.00  0.00     0.027 H 
ATOM     37  H   LIG d   1       8.943   2.995  -3.865  0.00  0.00     0.027 H 
ATOM     38  H   LIG d   1       9.278  -0.169  -7.585  0.00  0.00     0.027 H 
ATOM     39  H   LIG d   1       8.063   0.599  -8.659  0.00  0.00     0.027 H 
ATOM     40  H   LIG d   1      10.631   1.615  -8.313  0.00  0.00     0.029 H 
ATOM     41  H   LIG d   1       9.224   2.641  -8.717  0.00  0.00     0.029 H 
ENDROOT
BRANCH   1  42
ATOM     42  C   LIG d   1       6.995  -1.513  -3.294  0.00  0.00    -0.059 C 
ATOM     43  H   LIG d   1       6.872  -1.730  -2.233  0.00  0.00     0.024 H 
ATOM     44  H   LIG d   1       6.915  -2.437  -3.866  0.00  0.00     0.024 H 
ATOM     45  H   LIG d   1       7.975  -1.067  -3.463  0.00  0.00     0.024 H 
ENDBRANCH   1  42
BRANCH   4  46
ATOM     46  O   LIG d   1       2.531  -0.913  -2.996  0.00  0.00    -0.392 OA
ATOM     47  H   LIG d   1       2.074  -1.181  -3.805  0.00  0.00     0.210 HD
ENDBRANCH   4  46
BRANCH  17  48
ATOM     48  C   LIG d   1       9.855   0.692  -5.089  0.00  0.00    -0.057 C 
ATOM     49  H   LIG d   1       9.690   0.588  -4.016  0.00  0.00     0.024 H 
ATOM     50  H   LIG d   1       9.631  -0.252  -5.585  0.00  0.00     0.024 H 
ATOM     51  H   LIG d   1      10.895   0.961  -5.272  0.00  0.00     0.024 H 
ENDBRANCH  17  48
BRANCH  22  52
ATOM     52  O   LIG d   1      11.093   2.756  -6.190  0.00  0.00    -0.391 OA
ATOM     53  H   LIG d   1      11.548   3.555  -6.489  0.00  0.00     0.210 HD
ENDBRANCH  22  52
TORSDOF 4
ENDMDL
MODEL 4
REMARK VINA RESULT:      -5.7      3.180      4.615
REMARK  4 active torsions:
REMARK  status: ('A' for Active; 'I' for Inactive)
REMARK    1  A    between atoms: C_1  and  C_2 
REMARK    2  A    between atoms: C_5  and  O_27 
REMARK    3  A    between atoms: C_18  and  C_26 
REMARK    4  A    between atoms: C_23  and  O_25 
ROOT
ATOM      1  C   LIG d   1       5.240  -1.174  -3.890  0.00  0.00    -0.026 C 
ATOM      2  C   LIG d   1       5.559  -0.415  -2.600  0.00  0.00    -0.045 C 
ATOM      3  C   LIG d   1       4.255  -0.028  -1.899  0.00  0.00    -0.026 C 
ATOM      4  C   LIG d   1       3.426   0.866  -2.824  0.00  0.00     0.056 C 
ATOM      5  H   LIG d   1       2.497   1.143  -2.324  0.00  0.00     0.059 H 
ATOM      6  C   LIG d   1       3.105   0.107  -4.112  0.00  0.00    -0.024 C 
ATOM      7  C   LIG d   1       4.409  -0.281  -4.813  0.00  0.00    -0.033 C 
ATOM      8  H   LIG d   1       4.974   0.620  -5.053  0.00  0.00     0.031 H 
ATOM      9  C   LIG d   1       4.088  -1.037  -6.103  0.00  0.00    -0.049 C 
ATOM     10  C   LIG d   1       5.390  -1.428  -6.804  0.00  0.00    -0.049 C 
ATOM     11  C   LIG d   1       6.215  -2.327  -5.882  0.00  0.00    -0.034 C 
ATOM     12  H   LIG d   1       5.648  -3.226  -5.641  0.00  0.00     0.031 H 
ATOM     13  C   LIG d   1       6.542  -1.558  -4.592  0.00  0.00    -0.032 C 
ATOM     14  H   LIG d   1       7.085  -0.648  -4.851  0.00  0.00     0.031 H 
ATOM     15  C   LIG d   1       7.417  -2.384  -3.655  0.00  0.00    -0.049 C 
ATOM     16  C   LIG d   1       8.696  -2.865  -4.360  0.00  0.00    -0.045 C 
ATOM     17  C   LIG d   1       8.268  -3.663  -5.577  0.00  0.00    -0.003 C 
ATOM     18  C   LIG d   1       7.524  -2.707  -6.548  0.00  0.00    -0.030 C 
ATOM     19  H   LIG d   1       8.130  -1.820  -6.726  0.00  0.00     0.031 H 
ATOM     20  C   LIG d   1       7.406  -3.558  -7.817  0.00  0.00    -0.047 C 
ATOM     21  C   LIG d   1       8.792  -4.253  -7.901  0.00  0.00    -0.026 C 
ATOM     22  C   LIG d   1       9.383  -4.236  -6.444  0.00  0.00     0.061 C 
ATOM     23  H   LIG d   1      10.278  -3.618  -6.365  0.00  0.00     0.060 H 
ATOM     24  H   LIG d   1       6.150  -1.051  -1.940  0.00  0.00     0.027 H 
ATOM     25  H   LIG d   1       6.125   0.486  -2.838  0.00  0.00     0.027 H 
ATOM     26  H   LIG d   1       3.690  -0.928  -1.660  0.00  0.00     0.029 H 
ATOM     27  H   LIG d   1       4.484   0.512  -0.980  0.00  0.00     0.029 H 
ATOM     28  H   LIG d   1       2.540  -0.794  -3.872  0.00  0.00     0.029 H 
ATOM     29  H   LIG d   1       2.513   0.743  -4.771  0.00  0.00     0.029 H 
ATOM     30  H   LIG d   1       3.519  -1.936  -5.865  0.00  0.00     0.027 H 
ATOM     31  H   LIG d   1       3.498  -0.399  -6.762  0.00  0.00     0.027 H 
ATOM     32  H   LIG d   1       5.160  -1.966  -7.724  0.00  0.00     0.027 H 
ATOM     33  H   LIG d   1       5.959  -0.530  -7.041  0.00  0.00     0.027 H 
ATOM     34  H   LIG d   1       7.692  -1.774  -2.794  0.00  0.00     0.027 H 
ATOM     35  H   LIG d   1       6.852  -3.250  -3.310  0.00  0.00     0.027 H 
ATOM     36  H   LIG d   1       9.294  -2.008  -4.670  0.00  0.00     0.027 H 
ATOM     37  H   LIG d   1       9.275  -3.499  -3.688  0.00  0.00     0.027 H 
ATOM     38  H   LIG d   1       6.610  -4.295  -7.716  0.00  0.00     0.027 H 
ATOM     39  H   LIG d   1       7.238  -2.925  -8.690  0.00  0.00     0.027 H 
ATOM     40  H   LIG d   1       8.678  -5.270  -8.275  0.00  0.00     0.029 H 
ATOM     41  H   LIG d   1       9.457  -3.686  -8.553  0.00  0.00     0.029 H 
ENDROOT
BRANCH   1  42
ATOM     42  C   LIG d   1       4.448  -2.439  -3.555  0.00  0.00    -0.059 C 
ATOM     43  H   LIG d   1       4.011  -2.847  -4.467  0.00  0.00     0.024 H 
ATOM     44  H   LIG d   1       5.114  -3.177  -3.110  0.00  0.00     0.024 H 
ATOM     45  H   LIG d   1       3.654  -2.195  -2.849  0.00  0.00     0.024 H 
ENDBRANCH   1  42
BRANCH   4  46
ATOM     46  O   LIG d   1       4.168   2.046  -3.137  0.00  0.00    -0.392 OA
ATOM     47  H   LIG d   1       4.815   1.928  -3.847  0.00  0.00     0.210 HD
ENDBRANCH   4  46
BRANCH  17  48
ATOM     48  C   LIG d   1       7.315  -4.782  -5.152  0.00  0.00    -0.057 C 
ATOM     49  H   LIG d   1       6.978  -5.326  -6.035  0.00  0.00     0.024 H 
ATOM     50  H   LIG d   1       7.835  -5.466  -4.481  0.00  0.00     0.024 H 
ATOM     51  H   LIG d   1       6.455  -4.353  -4.639  0.00  0.00     0.024 H 
ENDBRANCH  17  48
BRANCH  22  52
ATOM     52  O   LIG d   1       9.672  -5.580  -6.053  0.00  0.00    -0.391 OA
ATOM     53  H   LIG d   1       8.892  -6.094  -5.803  0.00  0.00     0.210 HD
ENDBRANCH  22  52
TORSDOF 4
ENDMDL
MODEL 5
REMARK VINA RESULT:      -5.7      1.433      2.751
REMARK  4 active torsions:
REMARK  status: ('A' for Active; 'I' for Inactive)
REMARK    1  A    between atoms: C_1  and  C_2 
REMARK    2  A    between atoms: C_5  and  O_27 
REMARK    3  A    between atoms: C_18  and  C_26 
REMARK    4  A    between atoms: C_23  and  O_25 
ROOT
ATOM      1  C   LIG d   1       4.365  -0.742  -4.883  0.00  0.00    -0.026 C 
ATOM      2  C   LIG d   1       3.166  -0.494  -3.965  0.00  0.00    -0.045 C 
ATOM      3  C   LIG d   1       3.650  -0.336  -2.523  0.00  0.00    -0.026 C 
ATOM      4  C   LIG d   1       4.371  -1.613  -2.085  0.00  0.00     0.056 C 
ATOM      5  H   LIG d   1       4.715  -1.502  -1.057  0.00  0.00     0.059 H 
ATOM      6  C   LIG d   1       5.571  -1.859  -3.000  0.00  0.00    -0.024 C 
ATOM      7  C   LIG d   1       5.087  -2.017  -4.444  0.00  0.00    -0.033 C 
ATOM      8  H   LIG d   1       4.402  -2.862  -4.507  0.00  0.00     0.031 H 
ATOM      9  C   LIG d   1       6.287  -2.266  -5.358  0.00  0.00    -0.049 C 
ATOM     10  C   LIG d   1       5.807  -2.421  -6.802  0.00  0.00    -0.049 C 
ATOM     11  C   LIG d   1       5.092  -1.142  -7.241  0.00  0.00    -0.034 C 
ATOM     12  H   LIG d   1       5.777  -0.296  -7.175  0.00  0.00     0.031 H 
ATOM     13  C   LIG d   1       3.882  -0.902  -6.324  0.00  0.00    -0.032 C 
ATOM     14  H   LIG d   1       3.220  -1.767  -6.380  0.00  0.00     0.031 H 
ATOM     15  C   LIG d   1       3.092   0.330  -6.751  0.00  0.00    -0.049 C 
ATOM     16  C   LIG d   1       2.668   0.242  -8.227  0.00  0.00    -0.045 C 
ATOM     17  C   LIG d   1       3.931   0.072  -9.049  0.00  0.00    -0.003 C 
ATOM     18  C   LIG d   1       4.584  -1.283  -8.663  0.00  0.00    -0.030 C 
ATOM     19  H   LIG d   1       3.843  -2.078  -8.724  0.00  0.00     0.031 H 
ATOM     20  C   LIG d   1       5.659  -1.447  -9.744  0.00  0.00    -0.047 C 
ATOM     21  C   LIG d   1       4.932  -0.972 -11.032  0.00  0.00    -0.026 C 
ATOM     22  C   LIG d   1       3.750  -0.050 -10.558  0.00  0.00     0.061 C 
ATOM     23  H   LIG d   1       2.773  -0.475 -10.789  0.00  0.00     0.060 H 
ATOM     24  H   LIG d   1       2.651   0.415  -4.277  0.00  0.00     0.027 H 
ATOM     25  H   LIG d   1       2.479  -1.338  -4.029  0.00  0.00     0.027 H 
ATOM     26  H   LIG d   1       4.335   0.509  -2.460  0.00  0.00     0.029 H 
ATOM     27  H   LIG d   1       2.794  -0.159  -1.870  0.00  0.00     0.029 H 
ATOM     28  H   LIG d   1       6.256  -1.013  -2.937  0.00  0.00     0.029 H 
ATOM     29  H   LIG d   1       6.086  -2.769  -2.688  0.00  0.00     0.029 H 
ATOM     30  H   LIG d   1       6.975  -1.423  -5.293  0.00  0.00     0.027 H 
ATOM     31  H   LIG d   1       6.799  -3.177  -5.046  0.00  0.00     0.027 H 
ATOM     32  H   LIG d   1       6.663  -2.600  -7.453  0.00  0.00     0.027 H 
ATOM     33  H   LIG d   1       5.118  -3.263  -6.868  0.00  0.00     0.027 H 
ATOM     34  H   LIG d   1       2.201   0.416  -6.128  0.00  0.00     0.027 H 
ATOM     35  H   LIG d   1       3.711   1.217  -6.610  0.00  0.00     0.027 H 
ATOM     36  H   LIG d   1       2.011  -0.615  -8.373  0.00  0.00     0.027 H 
ATOM     37  H   LIG d   1       2.156   1.158  -8.521  0.00  0.00     0.027 H 
ATOM     38  H   LIG d   1       6.520  -0.815  -9.531  0.00  0.00     0.027 H 
ATOM     39  H   LIG d   1       5.958  -2.492  -9.832  0.00  0.00     0.027 H 
ATOM     40  H   LIG d   1       5.628  -0.433 -11.676  0.00  0.00     0.029 H 
ATOM     41  H   LIG d   1       4.515  -1.828 -11.564  0.00  0.00     0.029 H 
ENDROOT
BRANCH   1  42
ATOM     42  C   LIG d   1       5.327   0.445  -4.796  0.00  0.00    -0.059 C 
ATOM     43  H   LIG d   1       4.858   1.253  -4.234  0.00  0.00     0.024 H 
ATOM     44  H   LIG d   1       6.242   0.135  -4.292  0.00  0.00     0.024 H 
ATOM     45  H   LIG d   1       5.567   0.793  -5.801  0.00  0.00     0.024 H 
ENDBRANCH   1  42
BRANCH   4  46
ATOM     46  O   LIG d   1       3.471  -2.721  -2.168  0.00  0.00    -0.392 OA
ATOM     47  H   LIG d   1       3.138  -3.022  -1.312  0.00  0.00     0.210 HD
ENDBRANCH   4  46
BRANCH  17  48
ATOM     48  C   LIG d   1       4.910   1.205  -8.735  0.00  0.00    -0.057 C 
ATOM     49  H   LIG d   1       4.721   2.043  -9.406  0.00  0.00     0.024 H 
ATOM     50  H   LIG d   1       4.772   1.528  -7.703  0.00  0.00     0.024 H 
ATOM     51  H   LIG d   1       5.931   0.851  -8.872  0.00  0.00     0.024 H 
ENDBRANCH  17  48
BRANCH  22  52
ATOM     52  O   LIG d   1       3.893   1.230 -11.179  0.00  0.00    -0.391 OA
ATOM     53  H   LIG d   1       3.106   1.788 -11.115  0.00  0.00     0.210 HD
ENDBRANCH  22  52
TORSDOF 4
ENDMDL
MODEL 6
REMARK VINA RESULT:      -5.7      3.682      4.750
REMARK  4 active torsions:
REMARK  status: ('A' for Active; 'I' for Inactive)
REMARK    1  A    between atoms: C_1  and  C_2 
REMARK    2  A    between atoms: C_5  and  O_27 
REMARK    3  A    between atoms: C_18  and  C_26 
REMARK    4  A    between atoms: C_23  and  O_25 
ROOT
ATOM      1  C   LIG d   1       5.829  -1.082  -3.927  0.00  0.00    -0.026 C 
ATOM      2  C   LIG d   1       6.233   0.291  -4.468  0.00  0.00    -0.045 C 
ATOM      3  C   LIG d   1       6.437   1.261  -3.303  0.00  0.00    -0.026 C 
ATOM      4  C   LIG d   1       5.132   1.389  -2.513  0.00  0.00     0.056 C 
ATOM      5  H   LIG d   1       5.276   2.081  -1.683  0.00  0.00     0.059 H 
ATOM      6  C   LIG d   1       4.729   0.018  -1.970  0.00  0.00    -0.024 C 
ATOM      7  C   LIG d   1       4.526  -0.953  -3.136  0.00  0.00    -0.033 C 
ATOM      8  H   LIG d   1       3.739  -0.576  -3.790  0.00  0.00     0.031 H 
ATOM      9  C   LIG d   1       4.119  -2.323  -2.592  0.00  0.00    -0.049 C 
ATOM     10  C   LIG d   1       3.918  -3.296  -3.756  0.00  0.00    -0.049 C 
ATOM     11  C   LIG d   1       5.225  -3.428  -4.541  0.00  0.00    -0.034 C 
ATOM     12  H   LIG d   1       6.011  -3.804  -3.885  0.00  0.00     0.031 H 
ATOM     13  C   LIG d   1       5.622  -2.050  -5.091  0.00  0.00    -0.032 C 
ATOM     14  H   LIG d   1       4.815  -1.676  -5.722  0.00  0.00     0.031 H 
ATOM     15  C   LIG d   1       6.890  -2.129  -5.936  0.00  0.00    -0.049 C 
ATOM     16  C   LIG d   1       6.748  -3.165  -7.064  0.00  0.00    -0.045 C 
ATOM     17  C   LIG d   1       6.421  -4.496  -6.416  0.00  0.00    -0.003 C 
ATOM     18  C   LIG d   1       5.042  -4.370  -5.715  0.00  0.00    -0.030 C 
ATOM     19  H   LIG d   1       4.310  -3.967  -6.414  0.00  0.00     0.031 H 
ATOM     20  C   LIG d   1       4.720  -5.826  -5.361  0.00  0.00    -0.047 C 
ATOM     21  C   LIG d   1       5.176  -6.601  -6.628  0.00  0.00    -0.026 C 
ATOM     22  C   LIG d   1       6.223  -5.681  -7.356  0.00  0.00     0.061 C 
ATOM     23  H   LIG d   1       5.870  -5.338  -8.328  0.00  0.00     0.060 H 
ATOM     24  H   LIG d   1       7.163   0.201  -5.031  0.00  0.00     0.027 H 
ATOM     25  H   LIG d   1       5.448   0.670  -5.124  0.00  0.00     0.027 H 
ATOM     26  H   LIG d   1       7.222   0.883  -2.649  0.00  0.00     0.029 H 
ATOM     27  H   LIG d   1       6.726   2.239  -3.690  0.00  0.00     0.029 H 
ATOM     28  H   LIG d   1       5.515  -0.360  -1.316  0.00  0.00     0.029 H 
ATOM     29  H   LIG d   1       3.800   0.109  -1.407  0.00  0.00     0.029 H 
ATOM     30  H   LIG d   1       4.903  -2.700  -1.935  0.00  0.00     0.027 H 
ATOM     31  H   LIG d   1       3.189  -2.231  -2.031  0.00  0.00     0.027 H 
ATOM     32  H   LIG d   1       3.627  -4.272  -3.367  0.00  0.00     0.027 H 
ATOM     33  H   LIG d   1       3.136  -2.919  -4.414  0.00  0.00     0.027 H 
ATOM     34  H   LIG d   1       7.089  -1.150  -6.372  0.00  0.00     0.027 H 
ATOM     35  H   LIG d   1       7.727  -2.410  -5.297  0.00  0.00     0.027 H 
ATOM     36  H   LIG d   1       5.943  -2.872  -7.738  0.00  0.00     0.027 H 
ATOM     37  H   LIG d   1       7.685  -3.242  -7.616  0.00  0.00     0.027 H 
ATOM     38  H   LIG d   1       5.288  -6.146  -4.488  0.00  0.00     0.027 H 
ATOM     39  H   LIG d   1       3.650  -5.954  -5.195  0.00  0.00     0.027 H 
ATOM     40  H   LIG d   1       5.613  -7.558  -6.343  0.00  0.00     0.029 H 
ATOM     41  H   LIG d   1       4.328  -6.760  -7.295  0.00  0.00     0.029 H 
ENDROOT
BRANCH   1  42
ATOM     42  C   LIG d   1       6.932  -1.614  -3.010  0.00  0.00    -0.059 C 
ATOM     43  H   LIG d   1       6.501  -2.309  -2.288  0.00  0.00     0.024 H 
ATOM     44  H   LIG d   1       7.684  -2.129  -3.607  0.00  0.00     0.024 H 
ATOM     45  H   LIG d   1       7.397  -0.782  -2.480  0.00  0.00     0.024 H 
ENDBRANCH   1  42
BRANCH   4  46
ATOM     46  O   LIG d   1       4.102   1.884  -3.372  0.00  0.00    -0.392 OA
ATOM     47  H   LIG d   1       4.420   2.482  -4.064  0.00  0.00     0.210 HD
ENDBRANCH   4  46
BRANCH  17  48
ATOM     48  C   LIG d   1       7.483  -4.837  -5.370  0.00  0.00    -0.057 C 
ATOM     49  H   LIG d   1       7.275  -5.822  -4.949  0.00  0.00     0.024 H 
ATOM     50  H   LIG d   1       8.467  -4.843  -5.839  0.00  0.00     0.024 H 
ATOM     51  H   LIG d   1       7.464  -4.091  -4.576  0.00  0.00     0.024 H 
ENDBRANCH  17  48
BRANCH  22  52
ATOM     52  O   LIG d   1       7.446  -6.407  -7.500  0.00  0.00    -0.391 OA
ATOM     53  H   LIG d   1       8.237  -5.852  -7.486  0.00  0.00     0.210 HD
ENDBRANCH  22  52
TORSDOF 4
ENDMDL
MODEL 7
REMARK VINA RESULT:      -5.6      7.693     10.394
REMARK  4 active torsions:
REMARK  status: ('A' for Active; 'I' for Inactive)
REMARK    1  A    between atoms: C_1  and  C_2 
REMARK    2  A    between atoms: C_5  and  O_27 
REMARK    3  A    between atoms: C_18  and  C_26 
REMARK    4  A    between atoms: C_23  and  O_25 
ROOT
ATOM      1  C   LIG d   1      10.097   5.883  -7.612  0.00  0.00    -0.026 C 
ATOM      2  C   LIG d   1       9.743   4.723  -8.545  0.00  0.00    -0.045 C 
ATOM      3  C   LIG d   1      10.173   5.066  -9.972  0.00  0.00    -0.026 C 
ATOM      4  C   LIG d   1       9.446   6.331 -10.434  0.00  0.00     0.056 C 
ATOM      5  H   LIG d   1       9.751   6.575 -11.451  0.00  0.00     0.059 H 
ATOM      6  C   LIG d   1       9.802   7.490  -9.502  0.00  0.00    -0.024 C 
ATOM      7  C   LIG d   1       9.372   7.148  -8.074  0.00  0.00    -0.033 C 
ATOM      8  H   LIG d   1       8.295   6.979  -8.049  0.00  0.00     0.031 H 
ATOM      9  C   LIG d   1       9.725   8.310  -7.144  0.00  0.00    -0.049 C 
ATOM     10  C   LIG d   1       9.299   7.968  -5.715  0.00  0.00    -0.049 C 
ATOM     11  C   LIG d   1      10.032   6.707  -5.252  0.00  0.00    -0.034 C 
ATOM     12  H   LIG d   1      11.108   6.876  -5.280  0.00  0.00     0.031 H 
ATOM     13  C   LIG d   1       9.665   5.542  -6.186  0.00  0.00    -0.032 C 
ATOM     14  H   LIG d   1       8.584   5.403  -6.169  0.00  0.00     0.031 H 
ATOM     15  C   LIG d   1      10.321   4.240  -5.739  0.00  0.00    -0.049 C 
ATOM     16  C   LIG d   1       9.980   3.914  -4.275  0.00  0.00    -0.045 C 
ATOM     17  C   LIG d   1      10.436   5.090  -3.433  0.00  0.00    -0.003 C 
ATOM     18  C   LIG d   1       9.606   6.335  -3.845  0.00  0.00    -0.030 C 
ATOM     19  H   LIG d   1       8.544   6.092  -3.822  0.00  0.00     0.031 H 
ATOM     20  C   LIG d   1       9.963   7.345  -2.749  0.00  0.00    -0.047 C 
ATOM     21  C   LIG d   1       9.964   6.475  -1.462  0.00  0.00    -0.026 C 
ATOM     22  C   LIG d   1      10.186   4.991  -1.932  0.00  0.00     0.061 C 
ATOM     23  H   LIG d   1       9.321   4.358  -1.733  0.00  0.00     0.060 H 
ATOM     24  H   LIG d   1      10.261   3.821  -8.217  0.00  0.00     0.027 H 
ATOM     25  H   LIG d   1       8.667   4.552  -8.520  0.00  0.00     0.027 H 
ATOM     26  H   LIG d   1      11.250   5.236  -9.997  0.00  0.00     0.029 H 
ATOM     27  H   LIG d   1       9.921   4.239 -10.636  0.00  0.00     0.029 H 
ATOM     28  H   LIG d   1      10.878   7.660  -9.527  0.00  0.00     0.029 H 
ATOM     29  H   LIG d   1       9.284   8.393  -9.831  0.00  0.00     0.029 H 
ATOM     30  H   LIG d   1      10.801   8.482  -7.170  0.00  0.00     0.027 H 
ATOM     31  H   LIG d   1       9.205   9.210  -7.472  0.00  0.00     0.027 H 
ATOM     32  H   LIG d   1       9.550   8.797  -5.052  0.00  0.00     0.027 H 
ATOM     33  H   LIG d   1       8.224   7.794  -5.688  0.00  0.00     0.027 H 
ATOM     34  H   LIG d   1       9.971   3.427  -6.376  0.00  0.00     0.027 H 
ATOM     35  H   LIG d   1      11.402   4.331  -5.841  0.00  0.00     0.027 H 
ATOM     36  H   LIG d   1       8.904   3.775  -4.166  0.00  0.00     0.027 H 
ATOM     37  H   LIG d   1      10.505   3.011  -3.963  0.00  0.00     0.027 H 
ATOM     38  H   LIG d   1      10.949   7.773  -2.926  0.00  0.00     0.027 H 
ATOM     39  H   LIG d   1       9.207   8.127  -2.685  0.00  0.00     0.027 H 
ATOM     40  H   LIG d   1      10.756   6.805  -0.789  0.00  0.00     0.029 H 
ATOM     41  H   LIG d   1       8.997   6.542  -0.964  0.00  0.00     0.029 H 
ENDROOT
BRANCH   1  42
ATOM     42  C   LIG d   1      11.609   6.121  -7.644  0.00  0.00    -0.059 C 
ATOM     43  H   LIG d   1      11.824   7.139  -7.319  0.00  0.00     0.024 H 
ATOM     44  H   LIG d   1      12.102   5.415  -6.977  0.00  0.00     0.024 H 
ATOM     45  H   LIG d   1      11.978   5.978  -8.660  0.00  0.00     0.024 H 
ENDBRANCH   1  42
BRANCH   4  46
ATOM     46  O   LIG d   1       8.034   6.108 -10.400  0.00  0.00    -0.392 OA
ATOM     47  H   LIG d   1       7.671   5.762 -11.227  0.00  0.00     0.210 HD
ENDBRANCH   4  46
BRANCH  17  48
ATOM     48  C   LIG d   1      11.917   5.369  -3.694  0.00  0.00    -0.057 C 
ATOM     49  H   LIG d   1      12.047   5.703  -4.724  0.00  0.00     0.024 H 
ATOM     50  H   LIG d   1      12.265   6.147  -3.014  0.00  0.00     0.024 H 
ATOM     51  H   LIG d   1      12.493   4.459  -3.530  0.00  0.00     0.024 H 
ENDBRANCH  17  48
BRANCH  22  52
ATOM     52  O   LIG d   1      11.343   4.472  -1.271  0.00  0.00    -0.391 OA
ATOM     53  H   LIG d   1      11.201   4.258  -0.339  0.00  0.00     0.210 HD
ENDBRANCH  22  52
TORSDOF 4
ENDMDL
MODEL 8
REMARK VINA RESULT:      -5.6     11.724     13.459
REMARK  4 active torsions:
REMARK  status: ('A' for Active; 'I' for Inactive)
REMARK    1  A    between atoms: C_1  and  C_2 
REMARK    2  A    between atoms: C_5  and  O_27 
REMARK    3  A    between atoms: C_18  and  C_26 
REMARK    4  A    between atoms: C_23  and  O_25 
ROOT
ATOM      1  C   LIG d   1      10.095  10.699  -2.563  0.00  0.00    -0.026 C 
ATOM      2  C   LIG d   1       9.179  10.875  -3.777  0.00  0.00    -0.045 C 
ATOM      3  C   LIG d   1       9.472  12.219  -4.447  0.00  0.00    -0.026 C 
ATOM      4  C   LIG d   1       9.219  13.351  -3.450  0.00  0.00     0.056 C 
ATOM      5  H   LIG d   1       9.426  14.309  -3.927  0.00  0.00     0.059 H 
ATOM      6  C   LIG d   1      10.135  13.176  -2.238  0.00  0.00    -0.024 C 
ATOM      7  C   LIG d   1       9.843  11.833  -1.567  0.00  0.00    -0.033 C 
ATOM      8  H   LIG d   1       8.803  11.807  -1.242  0.00  0.00     0.031 H 
ATOM      9  C   LIG d   1      10.757  11.661  -0.354  0.00  0.00    -0.049 C 
ATOM     10  C   LIG d   1      10.469  10.316   0.317  0.00  0.00    -0.049 C 
ATOM     11  C   LIG d   1      10.729   9.184  -0.679  0.00  0.00    -0.034 C 
ATOM     12  H   LIG d   1      11.769   9.212  -1.004  0.00  0.00     0.031 H 
ATOM     13  C   LIG d   1       9.800   9.358  -1.891  0.00  0.00    -0.032 C 
ATOM     14  H   LIG d   1       8.766   9.356  -1.546  0.00  0.00     0.031 H 
ATOM     15  C   LIG d   1       9.971   8.222  -2.894  0.00  0.00    -0.049 C 
ATOM     16  C   LIG d   1       9.772   6.850  -2.228  0.00  0.00    -0.045 C 
ATOM     17  C   LIG d   1      10.772   6.751  -1.092  0.00  0.00    -0.003 C 
ATOM     18  C   LIG d   1      10.425   7.841  -0.042  0.00  0.00    -0.030 C 
ATOM     19  H   LIG d   1       9.370   7.776   0.221  0.00  0.00     0.031 H 
ATOM     20  C   LIG d   1      11.313   7.447   1.144  0.00  0.00    -0.047 C 
ATOM     21  C   LIG d   1      11.189   5.899   1.172  0.00  0.00    -0.026 C 
ATOM     22  C   LIG d   1      10.748   5.465  -0.274  0.00  0.00     0.061 C 
ATOM     23  H   LIG d   1       9.752   5.024  -0.290  0.00  0.00     0.060 H 
ATOM     24  H   LIG d   1       9.359  10.068  -4.487  0.00  0.00     0.027 H 
ATOM     25  H   LIG d   1       8.138  10.848  -3.454  0.00  0.00     0.027 H 
ATOM     26  H   LIG d   1      10.512  12.244  -4.771  0.00  0.00     0.029 H 
ATOM     27  H   LIG d   1       8.819  12.342  -5.312  0.00  0.00     0.029 H 
ATOM     28  H   LIG d   1      11.176  13.202  -2.562  0.00  0.00     0.029 H 
ATOM     29  H   LIG d   1       9.956  13.984  -1.527  0.00  0.00     0.029 H 
ATOM     30  H   LIG d   1      11.798  11.689  -0.676  0.00  0.00     0.027 H 
ATOM     31  H   LIG d   1      10.576  12.467   0.357  0.00  0.00     0.027 H 
ATOM     32  H   LIG d   1      11.121  10.194   1.183  0.00  0.00     0.027 H 
ATOM     33  H   LIG d   1       9.429  10.285   0.638  0.00  0.00     0.027 H 
ATOM     34  H   LIG d   1       9.240   8.340  -3.694  0.00  0.00     0.027 H 
ATOM     35  H   LIG d   1      10.974   8.270  -3.319  0.00  0.00     0.027 H 
ATOM     36  H   LIG d   1       8.757   6.771  -1.837  0.00  0.00     0.027 H 
ATOM     37  H   LIG d   1       9.955   6.056  -2.952  0.00  0.00     0.027 H 
ATOM     38  H   LIG d   1      12.345   7.748   0.970  0.00  0.00     0.027 H 
ATOM     39  H   LIG d   1      10.933   7.881   2.069  0.00  0.00     0.027 H 
ATOM     40  H   LIG d   1      12.143   5.453   1.451  0.00  0.00     0.029 H 
ATOM     41  H   LIG d   1      10.414   5.598   1.877  0.00  0.00     0.029 H 
ENDROOT
BRANCH   1  42
ATOM     42  C   LIG d   1      11.555  10.733  -3.017  0.00  0.00    -0.059 C 
ATOM     43  H   LIG d   1      11.929   9.713  -3.117  0.00  0.00     0.024 H 
ATOM     44  H   LIG d   1      11.625  11.242  -3.978  0.00  0.00     0.024 H 
ATOM     45  H   LIG d   1      12.153  11.268  -2.279  0.00  0.00     0.024 H 
ENDBRANCH   1  42
BRANCH   4  46
ATOM     46  O   LIG d   1       7.854  13.317  -3.025  0.00  0.00    -0.392 OA
ATOM     47  H   LIG d   1       7.742  13.246  -2.067  0.00  0.00     0.210 HD
ENDBRANCH   4  46
BRANCH  17  48
ATOM     48  C   LIG d   1      12.184   7.001  -1.622  0.00  0.00    -0.057 C 
ATOM     49  H   LIG d   1      12.416   6.270  -2.397  0.00  0.00     0.024 H 
ATOM     50  H   LIG d   1      12.242   8.006  -2.042  0.00  0.00     0.024 H 
ATOM     51  H   LIG d   1      12.901   6.907  -0.807  0.00  0.00     0.024 H 
ENDBRANCH  17  48
BRANCH  22  52
ATOM     52  O   LIG d   1      11.709   4.537  -0.784  0.00  0.00    -0.391 OA
ATOM     53  H   LIG d   1      12.625   4.759  -0.565  0.00  0.00     0.210 HD
ENDBRANCH  22  52
TORSDOF 4
ENDMDL
MODEL 9
REMARK VINA RESULT:      -5.5      9.621     10.909
REMARK  4 active torsions:
REMARK  status: ('A' for Active; 'I' for Inactive)
REMARK    1  A    between atoms: C_1  and  C_2 
REMARK    2  A    between atoms: C_5  and  O_27 
REMARK    3  A    between atoms: C_18  and  C_26 
REMARK    4  A    between atoms: C_23  and  O_25 
ROOT
ATOM      1  C   LIG d   1      10.513   8.498  -1.827  0.00  0.00    -0.026 C 
ATOM      2  C   LIG d   1       9.760   9.766  -2.235  0.00  0.00    -0.045 C 
ATOM      3  C   LIG d   1      10.421  10.984  -1.588  0.00  0.00    -0.026 C 
ATOM      4  C   LIG d   1      10.381  10.837  -0.065  0.00  0.00     0.056 C 
ATOM      5  H   LIG d   1      10.851  11.705   0.397  0.00  0.00     0.059 H 
ATOM      6  C   LIG d   1      11.136   9.571   0.343  0.00  0.00    -0.024 C 
ATOM      7  C   LIG d   1      10.475   8.352  -0.304  0.00  0.00    -0.033 C 
ATOM      8  H   LIG d   1       9.440   8.280   0.028  0.00  0.00     0.031 H 
ATOM      9  C   LIG d   1      11.228   7.087   0.107  0.00  0.00    -0.049 C 
ATOM     10  C   LIG d   1      10.571   5.866  -0.542  0.00  0.00    -0.049 C 
ATOM     11  C   LIG d   1      10.618   6.012  -2.064  0.00  0.00    -0.034 C 
ATOM     12  H   LIG d   1      11.654   6.086  -2.395  0.00  0.00     0.031 H 
ATOM     13  C   LIG d   1       9.851   7.280  -2.471  0.00  0.00    -0.032 C 
ATOM     14  H   LIG d   1       8.825   7.204  -2.109  0.00  0.00     0.031 H 
ATOM     15  C   LIG d   1       9.811   7.448  -3.986  0.00  0.00    -0.049 C 
ATOM     16  C   LIG d   1       9.234   6.199  -4.673  0.00  0.00    -0.045 C 
ATOM     17  C   LIG d   1      10.093   5.019  -4.261  0.00  0.00    -0.003 C 
ATOM     18  C   LIG d   1       9.949   4.824  -2.728  0.00  0.00    -0.030 C 
ATOM     19  H   LIG d   1       8.893   4.785  -2.461  0.00  0.00     0.031 H 
ATOM     20  C   LIG d   1      10.623   3.466  -2.506  0.00  0.00    -0.047 C 
ATOM     21  C   LIG d   1      10.122   2.627  -3.713  0.00  0.00    -0.026 C 
ATOM     22  C   LIG d   1       9.695   3.658  -4.821  0.00  0.00     0.061 C 
ATOM     23  H   LIG d   1       8.625   3.631  -5.024  0.00  0.00     0.060 H 
ATOM     24  H   LIG d   1       9.787   9.872  -3.320  0.00  0.00     0.027 H 
ATOM     25  H   LIG d   1       8.723   9.696  -1.904  0.00  0.00     0.027 H 
ATOM     26  H   LIG d   1      11.456  11.055  -1.920  0.00  0.00     0.029 H 
ATOM     27  H   LIG d   1       9.883  11.887  -1.880  0.00  0.00     0.029 H 
ATOM     28  H   LIG d   1      12.172   9.642   0.011  0.00  0.00     0.029 H 
ATOM     29  H   LIG d   1      11.109   9.466   1.428  0.00  0.00     0.029 H 
ATOM     30  H   LIG d   1      12.265   7.158  -0.222  0.00  0.00     0.027 H 
ATOM     31  H   LIG d   1      11.198   6.981   1.192  0.00  0.00     0.027 H 
ATOM     32  H   LIG d   1      11.108   4.964  -0.247  0.00  0.00     0.027 H 
ATOM     33  H   LIG d   1       9.535   5.795  -0.215  0.00  0.00     0.027 H 
ATOM     34  H   LIG d   1       9.191   8.310  -4.233  0.00  0.00     0.027 H 
ATOM     35  H   LIG d   1      10.823   7.621  -4.352  0.00  0.00     0.027 H 
ATOM     36  H   LIG d   1       8.205   6.040  -4.350  0.00  0.00     0.027 H 
ATOM     37  H   LIG d   1       9.269   6.321  -5.756  0.00  0.00     0.027 H 
ATOM     38  H   LIG d   1      11.708   3.565  -2.529  0.00  0.00     0.027 H 
ATOM     39  H   LIG d   1      10.296   3.023  -1.565  0.00  0.00     0.027 H 
ATOM     40  H   LIG d   1      10.915   1.967  -4.064  0.00  0.00     0.029 H 
ATOM     41  H   LIG d   1       9.248   2.043  -3.426  0.00  0.00     0.029 H 
ENDROOT
BRANCH   1  42
ATOM     42  C   LIG d   1      11.967   8.596  -2.294  0.00  0.00    -0.059 C 
ATOM     43  H   LIG d   1      12.369   7.593  -2.443  0.00  0.00     0.024 H 
ATOM     44  H   LIG d   1      12.010   9.148  -3.232  0.00  0.00     0.024 H 
ATOM     45  H   LIG d   1      12.557   9.116  -1.540  0.00  0.00     0.024 H 
ENDBRANCH   1  42
BRANCH   4  46
ATOM     46  O   LIG d   1       9.023  10.743   0.369  0.00  0.00    -0.392 OA
ATOM     47  H   LIG d   1       8.849   9.997   0.960  0.00  0.00     0.210 HD
ENDBRANCH   4  46
BRANCH  17  48
ATOM     48  C   LIG d   1      11.559   5.307  -4.591  0.00  0.00    -0.057 C 
ATOM     49  H   LIG d   1      11.692   6.378  -4.751  0.00  0.00     0.024 H 
ATOM     50  H   LIG d   1      12.188   4.982  -3.763  0.00  0.00     0.024 H 
ATOM     51  H   LIG d   1      11.841   4.767  -5.495  0.00  0.00     0.024 H 
ENDBRANCH  17  48
BRANCH  22  52
ATOM     52  O   LIG d   1      10.434   3.378  -6.013  0.00  0.00    -0.391 OA
ATOM     53  H   LIG d   1      10.313   4.034  -6.714  0.00  0.00     0.210 HD
ENDBRANCH  22  52
TORSDOF 4
ENDMDL
MODEL 10
REMARK VINA RESULT:      -5.5      3.223      5.316
REMARK  4 active torsions:
REMARK  status: ('A' for Active; 'I' for Inactive)
REMARK    1  A    between atoms: C_1  and  C_2 
REMARK    2  A    between atoms: C_5  and  O_27 
REMARK    3  A    between atoms: C_18  and  C_26 
REMARK    4  A    between atoms: C_23  and  O_25 
ROOT
ATOM      1  C   LIG d   1       5.101  -1.187  -4.106  0.00  0.00    -0.026 C 
ATOM      2  C   LIG d   1       3.716  -1.085  -3.462  0.00  0.00    -0.045 C 
ATOM      3  C   LIG d   1       3.301   0.385  -3.374  0.00  0.00    -0.026 C 
ATOM      4  C   LIG d   1       4.316   1.150  -2.522  0.00  0.00     0.056 C 
ATOM      5  H   LIG d   1       4.020   2.197  -2.458  0.00  0.00     0.059 H 
ATOM      6  C   LIG d   1       5.699   1.050  -3.167  0.00  0.00    -0.024 C 
ATOM      7  C   LIG d   1       6.115  -0.420  -3.256  0.00  0.00    -0.033 C 
ATOM      8  H   LIG d   1       6.149  -0.850  -2.254  0.00  0.00     0.031 H 
ATOM      9  C   LIG d   1       7.500  -0.519  -3.897  0.00  0.00    -0.049 C 
ATOM     10  C   LIG d   1       7.917  -1.988  -3.990  0.00  0.00    -0.049 C 
ATOM     11  C   LIG d   1       6.905  -2.751  -4.847  0.00  0.00    -0.034 C 
ATOM     12  H   LIG d   1       6.870  -2.320  -5.847  0.00  0.00     0.031 H 
ATOM     13  C   LIG d   1       5.518  -2.655  -4.192  0.00  0.00    -0.032 C 
ATOM     14  H   LIG d   1       5.575  -3.066  -3.183  0.00  0.00     0.031 H 
ATOM     15  C   LIG d   1       4.475  -3.450  -4.971  0.00  0.00    -0.049 C 
ATOM     16  C   LIG d   1       4.908  -4.914  -5.156  0.00  0.00    -0.045 C 
ATOM     17  C   LIG d   1       6.249  -4.902  -5.863  0.00  0.00    -0.003 C 
ATOM     18  C   LIG d   1       7.285  -4.217  -4.932  0.00  0.00    -0.030 C 
ATOM     19  H   LIG d   1       7.251  -4.676  -3.945  0.00  0.00     0.031 H 
ATOM     20  C   LIG d   1       8.611  -4.524  -5.636  0.00  0.00    -0.047 C 
ATOM     21  C   LIG d   1       8.433  -6.000  -6.085  0.00  0.00    -0.026 C 
ATOM     22  C   LIG d   1       6.883  -6.260  -6.145  0.00  0.00     0.061 C 
ATOM     23  H   LIG d   1       6.556  -6.991  -5.406  0.00  0.00     0.060 H 
ATOM     24  H   LIG d   1       2.993  -1.631  -4.069  0.00  0.00     0.027 H 
ATOM     25  H   LIG d   1       3.748  -1.515  -2.461  0.00  0.00     0.027 H 
ATOM     26  H   LIG d   1       3.268   0.814  -4.375  0.00  0.00     0.029 H 
ATOM     27  H   LIG d   1       2.314   0.456  -2.916  0.00  0.00     0.029 H 
ATOM     28  H   LIG d   1       5.666   1.480  -4.168  0.00  0.00     0.029 H 
ATOM     29  H   LIG d   1       6.423   1.597  -2.560  0.00  0.00     0.029 H 
ATOM     30  H   LIG d   1       7.469  -0.087  -4.897  0.00  0.00     0.027 H 
ATOM     31  H   LIG d   1       8.222   0.025  -3.289  0.00  0.00     0.027 H 
ATOM     32  H   LIG d   1       8.904  -2.058  -4.446  0.00  0.00     0.027 H 
ATOM     33  H   LIG d   1       7.946  -2.421  -2.991  0.00  0.00     0.027 H 
ATOM     34  H   LIG d   1       3.529  -3.422  -4.431  0.00  0.00     0.027 H 
ATOM     35  H   LIG d   1       4.337  -2.992  -5.951  0.00  0.00     0.027 H 
ATOM     36  H   LIG d   1       5.005  -5.397  -4.184  0.00  0.00     0.027 H 
ATOM     37  H   LIG d   1       4.174  -5.444  -5.763  0.00  0.00     0.027 H 
ATOM     38  H   LIG d   1       8.751  -3.873  -6.498  0.00  0.00     0.027 H 
ATOM     39  H   LIG d   1       9.446  -4.431  -4.940  0.00  0.00     0.027 H 
ATOM     40  H   LIG d   1       8.903  -6.154  -7.057  0.00  0.00     0.029 H 
ATOM     41  H   LIG d   1       8.871  -6.672  -5.347  0.00  0.00     0.029 H 
ENDROOT
BRANCH   1  42
ATOM     42  C   LIG d   1       5.056  -0.586  -5.512  0.00  0.00    -0.059 C 
ATOM     43  H   LIG d   1       5.213   0.491  -5.452  0.00  0.00     0.024 H 
ATOM     44  H   LIG d   1       5.838  -1.034  -6.124  0.00  0.00     0.024 H 
ATOM     45  H   LIG d   1       4.083  -0.787  -5.963  0.00  0.00     0.024 H 
ENDBRANCH   1  42
BRANCH   4  46
ATOM     46  O   LIG d   1       4.359   0.586  -1.210  0.00  0.00    -0.392 OA
ATOM     47  H   LIG d   1       4.555   1.227  -0.512  0.00  0.00     0.210 HD
ENDBRANCH   4  46
BRANCH  17  48
ATOM     48  C   LIG d   1       6.141  -4.102  -7.163  0.00  0.00    -0.057 C 
ATOM     49  H   LIG d   1       7.118  -4.062  -7.646  0.00  0.00     0.024 H 
ATOM     50  H   LIG d   1       5.426  -4.585  -7.829  0.00  0.00     0.024 H 
ATOM     51  H   LIG d   1       5.804  -3.090  -6.940  0.00  0.00     0.024 H 
ENDBRANCH  17  48
BRANCH  22  52
ATOM     52  O   LIG d   1       6.545  -6.701  -7.462  0.00  0.00    -0.391 OA
ATOM     53  H   LIG d   1       6.520  -5.992  -8.120  0.00  0.00     0.210 HD
ENDBRANCH  22  52
TORSDOF 4
ENDMDL
