MODEL 1
REMARK VINA RESULT:      -7.0      0.000      0.000
REMARK  7 active torsions:
REMARK  status: ('A' for Active; 'I' for Inactive)
REMARK    1  A    between atoms: C_1  and  C_2 
REMARK    2  A    between atoms: C_5  and  C_8 
REMARK    3  A    between atoms: C_8  and  N_52 
REMARK    4  A    between atoms: C_16  and  C_18 
REMARK    5  A    between atoms: C_20  and  C_23 
REMARK    6  A    between atoms: C_26  and  O_29 
REMARK    7  A    between atoms: O_29  and  C_30 
ROOT
ATOM      1  C   LIG d   1       7.447   0.613  -5.941  0.00  0.00     0.036 C 
ATOM      2  C   LIG d   1       7.671   1.194  -7.315  0.00  0.00     0.190 A 
ATOM      3  C   LIG d   1       8.492   2.242  -7.553  0.00  0.00     0.156 A 
ATOM      4  N   LIG d   1       8.446   2.492  -8.887  0.00  0.00    -0.247 N 
ATOM      5  H   LIG d   1       8.944   3.208  -9.376  0.00  0.00     0.310 HD
ATOM      6  C   LIG d   1       7.600   1.586  -9.430  0.00  0.00     0.243 A 
ATOM      7  C   LIG d   1       9.275   2.946  -6.475  0.00  0.00     0.065 C 
ATOM      8  C   LIG d   1       9.284   2.042  -5.234  0.00  0.00     0.068 C 
ATOM      9  H   LIG d   1       9.920   1.176  -5.419  0.00  0.00     0.096 H 
ATOM     10  H   LIG d   1       8.009  -0.315  -5.839  0.00  0.00     0.090 H 
ATOM     11  H   LIG d   1       6.385   0.417  -5.793  0.00  0.00     0.090 H 
ATOM     12  H   LIG d   1       7.344   1.513 -10.477  0.00  0.00     0.158 H 
ATOM     13  H   LIG d   1       8.801   3.898  -6.235  0.00  0.00     0.041 H 
ATOM     14  H   LIG d   1      10.297   3.117  -6.815  0.00  0.00     0.041 H 
ATOM     15  N   LIG d   1       7.896   1.616  -4.944  0.00  0.00     0.254 N 
ATOM     16  H   LIG d   1       7.280   2.435  -4.996  0.00  0.00     0.205 HD
ATOM     17  N   LIG d   1       7.142   0.816  -8.478  0.00  0.00    -0.243 N 
ATOM     18  H   LIG d   1       6.482   0.041  -8.607  0.00  0.00     0.311 HD
ENDROOT
BRANCH   8  19
ATOM     19  C   LIG d   1       9.819   2.814  -4.055  0.00  0.00     0.276 A 
ATOM     20  O   LIG d   1      10.688   2.367  -3.143  0.00  0.00    -0.332 OA
ATOM     21  N   LIG d   1      10.915   3.234  -2.326  0.00  0.00    -0.056 NA
ATOM     22  C   LIG d   1      10.232   4.312  -2.613  0.00  0.00     0.202 A 
ATOM     23  N   LIG d   1       9.520   4.047  -3.732  0.00  0.00    -0.186 NA
BRANCH  22  24
ATOM     24  C   LIG d   1      10.239   5.586  -1.854  0.00  0.00     0.023 A 
ATOM     25  C   LIG d   1       9.518   6.683  -2.324  0.00  0.00    -0.048 A 
ATOM     26  C   LIG d   1       9.526   7.866  -1.615  0.00  0.00    -0.019 A 
ATOM     27  H   LIG d   1       8.954   6.606  -3.240  0.00  0.00     0.063 H 
ATOM     28  C   LIG d   1      10.251   7.966  -0.435  0.00  0.00     0.120 A 
ATOM     29  H   LIG d   1       8.968   8.717  -1.979  0.00  0.00     0.065 H 
ATOM     30  C   LIG d   1      10.970   6.875   0.034  0.00  0.00    -0.019 A 
ATOM     31  C   LIG d   1      10.962   5.688  -0.667  0.00  0.00    -0.048 A 
ATOM     32  H   LIG d   1      11.534   6.955   0.953  0.00  0.00     0.065 H 
ATOM     33  H   LIG d   1      11.518   4.838  -0.298  0.00  0.00     0.063 H 
BRANCH  28  34
ATOM     34  O   LIG d   1      10.258   9.133   0.260  0.00  0.00    -0.495 OA
BRANCH  34  35
ATOM     35  C   LIG d   1      11.384   9.378   1.104  0.00  0.00     0.079 C 
ATOM     36  H   LIG d   1      11.431  10.439   1.348  0.00  0.00     0.066 H 
ATOM     37  H   LIG d   1      11.284   8.798   2.022  0.00  0.00     0.066 H 
ATOM     38  H   LIG d   1      12.297   9.084   0.586  0.00  0.00     0.066 H 
ENDBRANCH  34  35
ENDBRANCH  28  34
ENDBRANCH  22  24
ENDBRANCH   8  19
BRANCH  15  39
ATOM     39  C   LIG d   1       7.819   1.043  -3.585  0.00  0.00    -0.005 C 
ATOM     40  H   LIG d   1       8.535   0.230  -3.469  0.00  0.00     0.087 H 
ATOM     41  H   LIG d   1       8.041   1.829  -2.862  0.00  0.00     0.087 H 
BRANCH  39  42
ATOM     42  C   LIG d   1       6.425   0.521  -3.347  0.00  0.00    -0.003 A 
ATOM     43  C   LIG d   1       6.174  -0.836  -3.417  0.00  0.00    -0.053 A 
ATOM     44  C   LIG d   1       4.895  -1.314  -3.199  0.00  0.00    -0.058 A 
ATOM     45  H   LIG d   1       6.976  -1.523  -3.641  0.00  0.00     0.062 H 
ATOM     46  C   LIG d   1       3.868  -0.435  -2.911  0.00  0.00    -0.050 A 
ATOM     47  H   LIG d   1       4.699  -2.374  -3.254  0.00  0.00     0.062 H 
ATOM     48  C   LIG d   1       4.119   0.923  -2.841  0.00  0.00    -0.058 A 
ATOM     49  C   LIG d   1       5.399   1.400  -3.055  0.00  0.00    -0.053 A 
ATOM     50  H   LIG d   1       3.317   1.610  -2.615  0.00  0.00     0.062 H 
ATOM     51  H   LIG d   1       5.596   2.461  -2.996  0.00  0.00     0.062 H 
BRANCH  46  52
ATOM     52  C   LIG d   1       2.474  -0.956  -2.674  0.00  0.00    -0.040 C 
ATOM     53  H   LIG d   1       2.245  -1.729  -3.408  0.00  0.00     0.028 H 
ATOM     54  H   LIG d   1       2.409  -1.376  -1.671  0.00  0.00     0.028 H 
ATOM     55  H   LIG d   1       1.759  -0.138  -2.773  0.00  0.00     0.028 H 
ENDBRANCH  46  52
ENDBRANCH  39  42
ENDBRANCH  15  39
TORSDOF 7
ENDMDL
MODEL 2
REMARK VINA RESULT:      -6.9      6.666     11.697
REMARK  7 active torsions:
REMARK  status: ('A' for Active; 'I' for Inactive)
REMARK    1  A    between atoms: C_1  and  C_2 
REMARK    2  A    between atoms: C_5  and  C_8 
REMARK    3  A    between atoms: C_8  and  N_52 
REMARK    4  A    between atoms: C_16  and  C_18 
REMARK    5  A    between atoms: C_20  and  C_23 
REMARK    6  A    between atoms: C_26  and  O_29 
REMARK    7  A    between atoms: O_29  and  C_30 
ROOT
ATOM      1  C   LIG d   1       5.433  -0.382  -5.261  0.00  0.00     0.036 C 
ATOM      2  C   LIG d   1       5.090  -0.082  -3.823  0.00  0.00     0.190 A 
ATOM      3  C   LIG d   1       4.645  -1.019  -2.955  0.00  0.00     0.156 A 
ATOM      4  N   LIG d   1       4.437  -0.397  -1.766  0.00  0.00    -0.247 N 
ATOM      5  H   LIG d   1       4.107  -0.820  -0.922  0.00  0.00     0.310 HD
ATOM      6  C   LIG d   1       4.765   0.905  -1.938  0.00  0.00     0.243 A 
ATOM      7  C   LIG d   1       4.444  -2.466  -3.325  0.00  0.00     0.065 C 
ATOM      8  C   LIG d   1       5.187  -2.722  -4.644  0.00  0.00     0.068 C 
ATOM      9  H   LIG d   1       6.263  -2.702  -4.465  0.00  0.00     0.096 H 
ATOM     10  H   LIG d   1       6.516  -0.432  -5.378  0.00  0.00     0.090 H 
ATOM     11  H   LIG d   1       5.031   0.398  -5.907  0.00  0.00     0.090 H 
ATOM     12  H   LIG d   1       4.713   1.673  -1.180  0.00  0.00     0.158 H 
ATOM     13  H   LIG d   1       3.381  -2.670  -3.454  0.00  0.00     0.041 H 
ATOM     14  H   LIG d   1       4.851  -3.106  -2.542  0.00  0.00     0.041 H 
ATOM     15  N   LIG d   1       4.803  -1.677  -5.619  0.00  0.00     0.254 N 
ATOM     16  H   LIG d   1       3.783  -1.566  -5.601  0.00  0.00     0.205 HD
ATOM     17  N   LIG d   1       5.153   1.080  -3.174  0.00  0.00    -0.243 N 
ATOM     18  H   LIG d   1       5.459   1.971  -3.581  0.00  0.00     0.311 HD
ENDROOT
BRANCH   8  19
ATOM     19  C   LIG d   1       4.794  -4.072  -5.187  0.00  0.00     0.276 A 
ATOM     20  O   LIG d   1       3.649  -4.375  -5.807  0.00  0.00    -0.332 OA
ATOM     21  N   LIG d   1       3.644  -5.546  -6.121  0.00  0.00    -0.056 NA
ATOM     22  C   LIG d   1       4.760  -6.116  -5.747  0.00  0.00     0.202 A 
ATOM     23  N   LIG d   1       5.509  -5.167  -5.142  0.00  0.00    -0.186 NA
BRANCH  22  24
ATOM     24  C   LIG d   1       5.134  -7.537  -5.950  0.00  0.00     0.023 A 
ATOM     25  C   LIG d   1       4.643  -8.238  -7.050  0.00  0.00    -0.048 A 
ATOM     26  C   LIG d   1       4.993  -9.560  -7.235  0.00  0.00    -0.019 A 
ATOM     27  H   LIG d   1       3.990  -7.748  -7.756  0.00  0.00     0.063 H 
ATOM     28  C   LIG d   1       5.832 -10.191  -6.328  0.00  0.00     0.120 A 
ATOM     29  H   LIG d   1       4.611 -10.104  -8.087  0.00  0.00     0.065 H 
ATOM     30  C   LIG d   1       6.323  -9.494  -5.231  0.00  0.00    -0.019 A 
ATOM     31  C   LIG d   1       5.981  -8.172  -5.043  0.00  0.00    -0.048 A 
ATOM     32  H   LIG d   1       6.976  -9.989  -4.526  0.00  0.00     0.065 H 
ATOM     33  H   LIG d   1       6.367  -7.630  -4.192  0.00  0.00     0.063 H 
BRANCH  28  34
ATOM     34  O   LIG d   1       6.174 -11.493  -6.513  0.00  0.00    -0.495 OA
BRANCH  34  35
ATOM     35  C   LIG d   1       5.291 -12.478  -5.975  0.00  0.00     0.079 C 
ATOM     36  H   LIG d   1       4.887 -13.086  -6.784  0.00  0.00     0.066 H 
ATOM     37  H   LIG d   1       5.838 -13.116  -5.279  0.00  0.00     0.066 H 
ATOM     38  H   LIG d   1       4.473 -11.985  -5.448  0.00  0.00     0.066 H 
ENDBRANCH  34  35
ENDBRANCH  28  34
ENDBRANCH  22  24
ENDBRANCH   8  19
BRANCH  15  39
ATOM     39  C   LIG d   1       5.218  -2.080  -6.978  0.00  0.00    -0.005 C 
ATOM     40  H   LIG d   1       6.124  -1.552  -7.275  0.00  0.00     0.087 H 
ATOM     41  H   LIG d   1       5.405  -3.154  -6.982  0.00  0.00     0.087 H 
BRANCH  39  42
ATOM     42  C   LIG d   1       4.109  -1.759  -7.948  0.00  0.00    -0.003 A 
ATOM     43  C   LIG d   1       3.710  -2.701  -8.877  0.00  0.00    -0.053 A 
ATOM     44  C   LIG d   1       2.693  -2.407  -9.766  0.00  0.00    -0.058 A 
ATOM     45  H   LIG d   1       4.192  -3.667  -8.909  0.00  0.00     0.062 H 
ATOM     46  C   LIG d   1       2.076  -1.172  -9.726  0.00  0.00    -0.050 A 
ATOM     47  H   LIG d   1       2.382  -3.143 -10.493  0.00  0.00     0.062 H 
ATOM     48  C   LIG d   1       2.474  -0.229  -8.796  0.00  0.00    -0.058 A 
ATOM     49  C   LIG d   1       3.488  -0.525  -7.904  0.00  0.00    -0.053 A 
ATOM     50  H   LIG d   1       1.991   0.736  -8.763  0.00  0.00     0.062 H 
ATOM     51  H   LIG d   1       3.797   0.210  -7.174  0.00  0.00     0.062 H 
BRANCH  46  52
ATOM     52  C   LIG d   1       0.967  -0.850 -10.695  0.00  0.00    -0.040 C 
ATOM     53  H   LIG d   1       1.353  -0.211 -11.489  0.00  0.00     0.028 H 
ATOM     54  H   LIG d   1       0.582  -1.773 -11.126  0.00  0.00     0.028 H 
ATOM     55  H   LIG d   1       0.165  -0.331 -10.170  0.00  0.00     0.028 H 
ENDBRANCH  46  52
ENDBRANCH  39  42
ENDBRANCH  15  39
TORSDOF 7
ENDMDL
MODEL 3
REMARK VINA RESULT:      -6.8      7.164     11.575
REMARK  7 active torsions:
REMARK  status: ('A' for Active; 'I' for Inactive)
REMARK    1  A    between atoms: C_1  and  C_2 
REMARK    2  A    between atoms: C_5  and  C_8 
REMARK    3  A    between atoms: C_8  and  N_52 
REMARK    4  A    between atoms: C_16  and  C_18 
REMARK    5  A    between atoms: C_20  and  C_23 
REMARK    6  A    between atoms: C_26  and  O_29 
REMARK    7  A    between atoms: O_29  and  C_30 
ROOT
ATOM      1  C   LIG d   1       4.620  -2.246  -6.540  0.00  0.00     0.036 C 
ATOM      2  C   LIG d   1       3.841  -2.107  -7.825  0.00  0.00     0.190 A 
ATOM      3  C   LIG d   1       3.452  -3.163  -8.575  0.00  0.00     0.156 A 
ATOM      4  N   LIG d   1       2.783  -2.667  -9.648  0.00  0.00    -0.247 N 
ATOM      5  H   LIG d   1       2.371  -3.197 -10.389  0.00  0.00     0.310 HD
ATOM      6  C   LIG d   1       2.779  -1.319  -9.523  0.00  0.00     0.243 A 
ATOM      7  C   LIG d   1       3.750  -4.595  -8.213  0.00  0.00     0.065 C 
ATOM      8  C   LIG d   1       4.171  -4.629  -6.736  0.00  0.00     0.068 C 
ATOM      9  H   LIG d   1       3.302  -4.433  -6.106  0.00  0.00     0.096 H 
ATOM     10  H   LIG d   1       3.954  -2.098  -5.689  0.00  0.00     0.090 H 
ATOM     11  H   LIG d   1       5.420  -1.507  -6.513  0.00  0.00     0.090 H 
ATOM     12  H   LIG d   1       2.325  -0.625 -10.215  0.00  0.00     0.158 H 
ATOM     13  H   LIG d   1       4.561  -4.973  -8.836  0.00  0.00     0.041 H 
ATOM     14  H   LIG d   1       2.858  -5.204  -8.356  0.00  0.00     0.041 H 
ATOM     15  N   LIG d   1       5.216  -3.605  -6.514  0.00  0.00     0.254 N 
ATOM     16  H   LIG d   1       5.914  -3.675  -7.263  0.00  0.00     0.205 HD
ATOM     17  N   LIG d   1       3.416  -0.997  -8.428  0.00  0.00    -0.243 N 
ATOM     18  H   LIG d   1       3.564  -0.041  -8.085  0.00  0.00     0.311 HD
ENDROOT
BRANCH   8  19
ATOM     19  C   LIG d   1       4.733  -5.987  -6.406  0.00  0.00     0.276 A 
ATOM     20  O   LIG d   1       5.482  -6.752  -7.207  0.00  0.00    -0.332 OA
ATOM     21  N   LIG d   1       5.773  -7.785  -6.642  0.00  0.00    -0.056 NA
ATOM     22  C   LIG d   1       5.256  -7.801  -5.440  0.00  0.00     0.202 A 
ATOM     23  N   LIG d   1       4.581  -6.640  -5.281  0.00  0.00    -0.186 NA
BRANCH  22  24
ATOM     24  C   LIG d   1       5.385  -8.889  -4.441  0.00  0.00     0.023 A 
ATOM     25  C   LIG d   1       6.628  -9.176  -3.878  0.00  0.00    -0.048 A 
ATOM     26  C   LIG d   1       6.744 -10.188  -2.948  0.00  0.00    -0.019 A 
ATOM     27  H   LIG d   1       7.497  -8.606  -4.169  0.00  0.00     0.063 H 
ATOM     28  C   LIG d   1       5.627 -10.921  -2.573  0.00  0.00     0.120 A 
ATOM     29  H   LIG d   1       7.707 -10.411  -2.513  0.00  0.00     0.065 H 
ATOM     30  C   LIG d   1       4.387 -10.637  -3.133  0.00  0.00    -0.019 A 
ATOM     31  C   LIG d   1       4.263  -9.623  -4.059  0.00  0.00    -0.048 A 
ATOM     32  H   LIG d   1       3.519 -11.209  -2.839  0.00  0.00     0.065 H 
ATOM     33  H   LIG d   1       3.299  -9.400  -4.489  0.00  0.00     0.063 H 
BRANCH  28  34
ATOM     34  O   LIG d   1       5.745 -11.917  -1.658  0.00  0.00    -0.495 OA
BRANCH  34  35
ATOM     35  C   LIG d   1       6.802 -11.800  -0.704  0.00  0.00     0.079 C 
ATOM     36  H   LIG d   1       6.830 -12.693  -0.079  0.00  0.00     0.066 H 
ATOM     37  H   LIG d   1       7.753 -11.692  -1.226  0.00  0.00     0.066 H 
ATOM     38  H   LIG d   1       6.630 -10.924  -0.077  0.00  0.00     0.066 H 
ENDBRANCH  34  35
ENDBRANCH  28  34
ENDBRANCH  22  24
ENDBRANCH   8  19
BRANCH  15  39
ATOM     39  C   LIG d   1       5.881  -3.837  -5.216  0.00  0.00    -0.005 C 
ATOM     40  H   LIG d   1       5.558  -4.784  -4.783  0.00  0.00     0.087 H 
ATOM     41  H   LIG d   1       6.959  -3.859  -5.375  0.00  0.00     0.087 H 
BRANCH  39  42
ATOM     42  C   LIG d   1       5.534  -2.712  -4.275  0.00  0.00    -0.003 A 
ATOM     43  C   LIG d   1       6.384  -1.630  -4.149  0.00  0.00    -0.053 A 
ATOM     44  C   LIG d   1       6.066  -0.598  -3.286  0.00  0.00    -0.058 A 
ATOM     45  H   LIG d   1       7.297  -1.590  -4.725  0.00  0.00     0.062 H 
ATOM     46  C   LIG d   1       4.897  -0.648  -2.550  0.00  0.00    -0.050 A 
ATOM     47  H   LIG d   1       6.730   0.248  -3.187  0.00  0.00     0.062 H 
ATOM     48  C   LIG d   1       4.046  -1.730  -2.676  0.00  0.00    -0.058 A 
ATOM     49  C   LIG d   1       4.363  -2.760  -3.542  0.00  0.00    -0.053 A 
ATOM     50  H   LIG d   1       3.133  -1.770  -2.101  0.00  0.00     0.062 H 
ATOM     51  H   LIG d   1       3.696  -3.604  -3.644  0.00  0.00     0.062 H 
BRANCH  46  52
ATOM     52  C   LIG d   1       4.550   0.476  -1.609  0.00  0.00    -0.040 C 
ATOM     53  H   LIG d   1       4.935   0.250  -0.614  0.00  0.00     0.028 H 
ATOM     54  H   LIG d   1       4.996   1.403  -1.969  0.00  0.00     0.028 H 
ATOM     55  H   LIG d   1       3.466   0.589  -1.561  0.00  0.00     0.028 H 
ENDBRANCH  46  52
ENDBRANCH  39  42
ENDBRANCH  15  39
TORSDOF 7
ENDMDL
MODEL 4
REMARK VINA RESULT:      -6.8      2.563      4.234
REMARK  7 active torsions:
REMARK  status: ('A' for Active; 'I' for Inactive)
REMARK    1  A    between atoms: C_1  and  C_2 
REMARK    2  A    between atoms: C_5  and  C_8 
REMARK    3  A    between atoms: C_8  and  N_52 
REMARK    4  A    between atoms: C_16  and  C_18 
REMARK    5  A    between atoms: C_20  and  C_23 
REMARK    6  A    between atoms: C_26  and  O_29 
REMARK    7  A    between atoms: O_29  and  C_30 
ROOT
ATOM      1  C   LIG d   1       4.805  -1.393  -8.535  0.00  0.00     0.036 C 
ATOM      2  C   LIG d   1       4.355  -0.600  -9.737  0.00  0.00     0.190 A 
ATOM      3  C   LIG d   1       4.980   0.522 -10.162  0.00  0.00     0.156 A 
ATOM      4  N   LIG d   1       4.308   0.966 -11.255  0.00  0.00    -0.247 N 
ATOM      5  H   LIG d   1       4.524   1.777 -11.798  0.00  0.00     0.310 HD
ATOM      6  C   LIG d   1       3.289   0.101 -11.470  0.00  0.00     0.243 A 
ATOM      7  C   LIG d   1       6.196   1.103  -9.487  0.00  0.00     0.065 C 
ATOM      8  C   LIG d   1       6.781   0.025  -8.562  0.00  0.00     0.068 C 
ATOM      9  H   LIG d   1       7.236  -0.762  -9.165  0.00  0.00     0.096 H 
ATOM     10  H   LIG d   1       5.332  -2.290  -8.863  0.00  0.00     0.090 H 
ATOM     11  H   LIG d   1       3.940  -1.675  -7.935  0.00  0.00     0.090 H 
ATOM     12  H   LIG d   1       2.563   0.170 -12.267  0.00  0.00     0.158 H 
ATOM     13  H   LIG d   1       5.910   1.977  -8.901  0.00  0.00     0.041 H 
ATOM     14  H   LIG d   1       6.934   1.386 -10.237  0.00  0.00     0.041 H 
ATOM     15  N   LIG d   1       5.693  -0.526  -7.723  0.00  0.00     0.254 N 
ATOM     16  H   LIG d   1       5.141   0.252  -7.343  0.00  0.00     0.205 HD
ATOM     17  N   LIG d   1       3.329  -0.831 -10.554  0.00  0.00    -0.243 N 
ATOM     18  H   LIG d   1       2.674  -1.617 -10.477  0.00  0.00     0.311 HD
ENDROOT
BRANCH   8  19
ATOM     19  C   LIG d   1       7.827   0.643  -7.671  0.00  0.00     0.276 A 
ATOM     20  O   LIG d   1       9.061   0.175  -7.455  0.00  0.00    -0.332 OA
ATOM     21  N   LIG d   1       9.652   0.904  -6.687  0.00  0.00    -0.056 NA
ATOM     22  C   LIG d   1       8.883   1.900  -6.330  0.00  0.00     0.202 A 
ATOM     23  N   LIG d   1       7.700   1.737  -6.964  0.00  0.00    -0.186 NA
BRANCH  22  24
ATOM     24  C   LIG d   1       9.242   3.002  -5.404  0.00  0.00     0.023 A 
ATOM     25  C   LIG d   1       9.272   2.777  -4.029  0.00  0.00    -0.048 A 
ATOM     26  C   LIG d   1       9.607   3.804  -3.171  0.00  0.00    -0.019 A 
ATOM     27  H   LIG d   1       9.035   1.801  -3.636  0.00  0.00     0.063 H 
ATOM     28  C   LIG d   1       9.914   5.061  -3.676  0.00  0.00     0.120 A 
ATOM     29  H   LIG d   1       9.630   3.630  -2.105  0.00  0.00     0.065 H 
ATOM     30  C   LIG d   1       9.884   5.287  -5.046  0.00  0.00    -0.019 A 
ATOM     31  C   LIG d   1       9.555   4.264  -5.909  0.00  0.00    -0.048 A 
ATOM     32  H   LIG d   1      10.123   6.267  -5.436  0.00  0.00     0.065 H 
ATOM     33  H   LIG d   1       9.537   4.440  -6.974  0.00  0.00     0.063 H 
BRANCH  28  34
ATOM     34  O   LIG d   1      10.242   6.070  -2.829  0.00  0.00    -0.495 OA
BRANCH  34  35
ATOM     35  C   LIG d   1      10.362   5.741  -1.444  0.00  0.00     0.079 C 
ATOM     36  H   LIG d   1      10.521   4.668  -1.336  0.00  0.00     0.066 H 
ATOM     37  H   LIG d   1      11.209   6.278  -1.014  0.00  0.00     0.066 H 
ATOM     38  H   LIG d   1       9.449   6.028  -0.921  0.00  0.00     0.066 H 
ENDBRANCH  34  35
ENDBRANCH  28  34
ENDBRANCH  22  24
ENDBRANCH   8  19
BRANCH  15  39
ATOM     39  C   LIG d   1       6.265  -1.299  -6.603  0.00  0.00    -0.005 C 
ATOM     40  H   LIG d   1       5.951  -2.341  -6.655  0.00  0.00     0.087 H 
ATOM     41  H   LIG d   1       7.353  -1.245  -6.660  0.00  0.00     0.087 H 
BRANCH  39  42
ATOM     42  C   LIG d   1       5.800  -0.700  -5.300  0.00  0.00    -0.003 A 
ATOM     43  C   LIG d   1       4.451  -0.497  -5.075  0.00  0.00    -0.053 A 
ATOM     44  C   LIG d   1       4.025   0.053  -3.881  0.00  0.00    -0.058 A 
ATOM     45  H   LIG d   1       3.731  -0.769  -5.832  0.00  0.00     0.062 H 
ATOM     46  C   LIG d   1       4.947   0.400  -2.912  0.00  0.00    -0.050 A 
ATOM     47  H   LIG d   1       2.972   0.212  -3.705  0.00  0.00     0.062 H 
ATOM     48  C   LIG d   1       6.296   0.197  -3.136  0.00  0.00    -0.058 A 
ATOM     49  C   LIG d   1       6.722  -0.357  -4.329  0.00  0.00    -0.053 A 
ATOM     50  H   LIG d   1       7.017   0.467  -2.378  0.00  0.00     0.062 H 
ATOM     51  H   LIG d   1       7.776  -0.520  -4.503  0.00  0.00     0.062 H 
BRANCH  46  52
ATOM     52  C   LIG d   1       4.483   0.999  -1.610  0.00  0.00    -0.040 C 
ATOM     53  H   LIG d   1       4.197   0.202  -0.924  0.00  0.00     0.028 H 
ATOM     54  H   LIG d   1       5.290   1.584  -1.170  0.00  0.00     0.028 H 
ATOM     55  H   LIG d   1       3.624   1.646  -1.793  0.00  0.00     0.028 H 
ENDBRANCH  46  52
ENDBRANCH  39  42
ENDBRANCH  15  39
TORSDOF 7
ENDMDL
MODEL 5
REMARK VINA RESULT:      -6.6      3.502      5.825
REMARK  7 active torsions:
REMARK  status: ('A' for Active; 'I' for Inactive)
REMARK    1  A    between atoms: C_1  and  C_2 
REMARK    2  A    between atoms: C_5  and  C_8 
REMARK    3  A    between atoms: C_8  and  N_52 
REMARK    4  A    between atoms: C_16  and  C_18 
REMARK    5  A    between atoms: C_20  and  C_23 
REMARK    6  A    between atoms: C_26  and  O_29 
REMARK    7  A    between atoms: O_29  and  C_30 
ROOT
ATOM      1  C   LIG d   1       4.713  -3.368  -5.387  0.00  0.00     0.036 C 
ATOM      2  C   LIG d   1       5.791  -4.423  -5.396  0.00  0.00     0.190 A 
ATOM      3  C   LIG d   1       7.066  -4.187  -5.010  0.00  0.00     0.156 A 
ATOM      4  N   LIG d   1       7.750  -5.351  -5.152  0.00  0.00    -0.247 N 
ATOM      5  H   LIG d   1       8.718  -5.501  -4.949  0.00  0.00     0.310 HD
ATOM      6  C   LIG d   1       6.873  -6.270  -5.619  0.00  0.00     0.243 A 
ATOM      7  C   LIG d   1       7.552  -2.845  -4.526  0.00  0.00     0.065 C 
ATOM      8  C   LIG d   1       6.321  -1.994  -4.184  0.00  0.00     0.068 C 
ATOM      9  H   LIG d   1       5.851  -2.382  -3.279  0.00  0.00     0.096 H 
ATOM     10  H   LIG d   1       4.060  -3.518  -4.526  0.00  0.00     0.090 H 
ATOM     11  H   LIG d   1       4.130  -3.428  -6.305  0.00  0.00     0.090 H 
ATOM     12  H   LIG d   1       7.102  -7.303  -5.838  0.00  0.00     0.158 H 
ATOM     13  H   LIG d   1       8.132  -2.357  -5.310  0.00  0.00     0.041 H 
ATOM     14  H   LIG d   1       8.169  -2.976  -3.637  0.00  0.00     0.041 H 
ATOM     15  N   LIG d   1       5.376  -2.041  -5.322  0.00  0.00     0.254 N 
ATOM     16  H   LIG d   1       5.897  -1.888  -6.192  0.00  0.00     0.205 HD
ATOM     17  N   LIG d   1       5.705  -5.702  -5.761  0.00  0.00    -0.243 N 
ATOM     18  H   LIG d   1       4.855  -6.167  -6.099  0.00  0.00     0.311 HD
ENDROOT
BRANCH   8  19
ATOM     19  C   LIG d   1       6.745  -0.566  -3.955  0.00  0.00     0.276 A 
ATOM     20  O   LIG d   1       6.222   0.285  -3.066  0.00  0.00    -0.332 OA
ATOM     21  N   LIG d   1       6.787   1.355  -3.133  0.00  0.00    -0.056 NA
ATOM     22  C   LIG d   1       7.718   1.315  -4.051  0.00  0.00     0.202 A 
ATOM     23  N   LIG d   1       7.696   0.074  -4.588  0.00  0.00    -0.186 NA
BRANCH  22  24
ATOM     24  C   LIG d   1       8.626   2.424  -4.433  0.00  0.00     0.023 A 
ATOM     25  C   LIG d   1       9.276   3.165  -3.447  0.00  0.00    -0.048 A 
ATOM     26  C   LIG d   1      10.120   4.195  -3.806  0.00  0.00    -0.019 A 
ATOM     27  H   LIG d   1       9.119   2.933  -2.405  0.00  0.00     0.063 H 
ATOM     28  C   LIG d   1      10.324   4.494  -5.146  0.00  0.00     0.120 A 
ATOM     29  H   LIG d   1      10.623   4.771  -3.042  0.00  0.00     0.065 H 
ATOM     30  C   LIG d   1       9.677   3.757  -6.130  0.00  0.00    -0.019 A 
ATOM     31  C   LIG d   1       8.836   2.723  -5.779  0.00  0.00    -0.048 A 
ATOM     32  H   LIG d   1       9.837   3.992  -7.173  0.00  0.00     0.065 H 
ATOM     33  H   LIG d   1       8.338   2.147  -6.544  0.00  0.00     0.063 H 
BRANCH  28  34
ATOM     34  O   LIG d   1      11.155   5.510  -5.496  0.00  0.00    -0.495 OA
BRANCH  34  35
ATOM     35  C   LIG d   1      11.132   6.679  -4.675  0.00  0.00     0.079 C 
ATOM     36  H   LIG d   1      11.119   6.387  -3.625  0.00  0.00     0.066 H 
ATOM     37  H   LIG d   1      12.020   7.280  -4.874  0.00  0.00     0.066 H 
ATOM     38  H   LIG d   1      10.240   7.264  -4.900  0.00  0.00     0.066 H 
ENDBRANCH  34  35
ENDBRANCH  28  34
ENDBRANCH  22  24
ENDBRANCH   8  19
BRANCH  15  39
ATOM     39  C   LIG d   1       4.360  -0.978  -5.178  0.00  0.00    -0.005 C 
ATOM     40  H   LIG d   1       3.398  -1.403  -4.894  0.00  0.00     0.087 H 
ATOM     41  H   LIG d   1       4.692  -0.281  -4.408  0.00  0.00     0.087 H 
BRANCH  39  42
ATOM     42  C   LIG d   1       4.220  -0.249  -6.490  0.00  0.00    -0.003 A 
ATOM     43  C   LIG d   1       3.000   0.290  -6.853  0.00  0.00    -0.053 A 
ATOM     44  C   LIG d   1       2.872   0.958  -8.057  0.00  0.00    -0.058 A 
ATOM     45  H   LIG d   1       2.148   0.190  -6.198  0.00  0.00     0.062 H 
ATOM     46  C   LIG d   1       3.962   1.088  -8.896  0.00  0.00    -0.050 A 
ATOM     47  H   LIG d   1       1.919   1.379  -8.341  0.00  0.00     0.062 H 
ATOM     48  C   LIG d   1       5.183   0.549  -8.532  0.00  0.00    -0.058 A 
ATOM     49  C   LIG d   1       5.312  -0.116  -7.327  0.00  0.00    -0.053 A 
ATOM     50  H   LIG d   1       6.035   0.650  -9.187  0.00  0.00     0.062 H 
ATOM     51  H   LIG d   1       6.266  -0.534  -7.040  0.00  0.00     0.062 H 
BRANCH  46  52
ATOM     52  C   LIG d   1       3.823   1.816 -10.207  0.00  0.00    -0.040 C 
ATOM     53  H   LIG d   1       3.038   2.569 -10.123  0.00  0.00     0.028 H 
ATOM     54  H   LIG d   1       4.766   2.301 -10.457  0.00  0.00     0.028 H 
ATOM     55  H   LIG d   1       3.560   1.105 -10.992  0.00  0.00     0.028 H 
ENDBRANCH  46  52
ENDBRANCH  39  42
ENDBRANCH  15  39
TORSDOF 7
ENDMDL
MODEL 6
REMARK VINA RESULT:      -6.6      3.802      6.041
REMARK  7 active torsions:
REMARK  status: ('A' for Active; 'I' for Inactive)
REMARK    1  A    between atoms: C_1  and  C_2 
REMARK    2  A    between atoms: C_5  and  C_8 
REMARK    3  A    between atoms: C_8  and  N_52 
REMARK    4  A    between atoms: C_16  and  C_18 
REMARK    5  A    between atoms: C_20  and  C_23 
REMARK    6  A    between atoms: C_26  and  O_29 
REMARK    7  A    between atoms: O_29  and  C_30 
ROOT
ATOM      1  C   LIG d   1       3.832  -4.639  -6.538  0.00  0.00     0.036 C 
ATOM      2  C   LIG d   1       3.814  -4.598  -8.045  0.00  0.00     0.190 A 
ATOM      3  C   LIG d   1       4.771  -3.992  -8.784  0.00  0.00     0.156 A 
ATOM      4  N   LIG d   1       4.431  -4.150 -10.089  0.00  0.00    -0.247 N 
ATOM      5  H   LIG d   1       4.940  -3.812 -10.881  0.00  0.00     0.310 HD
ATOM      6  C   LIG d   1       3.275  -4.852 -10.114  0.00  0.00     0.243 A 
ATOM      7  C   LIG d   1       5.964  -3.291  -8.185  0.00  0.00     0.065 C 
ATOM      8  C   LIG d   1       6.084  -3.736  -6.720  0.00  0.00     0.068 C 
ATOM      9  H   LIG d   1       6.415  -4.776  -6.682  0.00  0.00     0.096 H 
ATOM     10  H   LIG d   1       4.156  -5.624  -6.201  0.00  0.00     0.090 H 
ATOM     11  H   LIG d   1       2.836  -4.428  -6.151  0.00  0.00     0.090 H 
ATOM     12  H   LIG d   1       2.737  -5.147 -11.003  0.00  0.00     0.158 H 
ATOM     13  H   LIG d   1       5.820  -2.212  -8.232  0.00  0.00     0.041 H 
ATOM     14  H   LIG d   1       6.866  -3.569  -8.730  0.00  0.00     0.041 H 
ATOM     15  N   LIG d   1       4.765  -3.586  -6.065  0.00  0.00     0.254 N 
ATOM     16  H   LIG d   1       4.378  -2.666  -6.307  0.00  0.00     0.205 HD
ATOM     17  N   LIG d   1       2.916  -5.113  -8.884  0.00  0.00    -0.243 N 
ATOM     18  H   LIG d   1       2.076  -5.635  -8.608  0.00  0.00     0.311 HD
ENDROOT
BRANCH   8  19
ATOM     19  C   LIG d   1       7.089  -2.865  -6.012  0.00  0.00     0.276 A 
ATOM     20  O   LIG d   1       8.129  -3.284  -5.283  0.00  0.00    -0.332 OA
ATOM     21  N   LIG d   1       8.743  -2.332  -4.850  0.00  0.00    -0.056 NA
ATOM     22  C   LIG d   1       8.180  -1.218  -5.241  0.00  0.00     0.202 A 
ATOM     23  N   LIG d   1       7.108  -1.556  -5.994  0.00  0.00    -0.186 NA
BRANCH  22  24
ATOM     24  C   LIG d   1       8.632   0.157  -4.920  0.00  0.00     0.023 A 
ATOM     25  C   LIG d   1       9.851   0.624  -5.410  0.00  0.00    -0.048 A 
ATOM     26  C   LIG d   1      10.268   1.904  -5.109  0.00  0.00    -0.019 A 
ATOM     27  H   LIG d   1      10.467  -0.015  -6.024  0.00  0.00     0.063 H 
ATOM     28  C   LIG d   1       9.477   2.726  -4.319  0.00  0.00     0.120 A 
ATOM     29  H   LIG d   1      11.213   2.265  -5.487  0.00  0.00     0.065 H 
ATOM     30  C   LIG d   1       8.262   2.263  -3.830  0.00  0.00    -0.019 A 
ATOM     31  C   LIG d   1       7.837   0.987  -4.131  0.00  0.00    -0.048 A 
ATOM     32  H   LIG d   1       7.648   2.906  -3.215  0.00  0.00     0.065 H 
ATOM     33  H   LIG d   1       6.890   0.630  -3.754  0.00  0.00     0.063 H 
BRANCH  28  34
ATOM     34  O   LIG d   1       9.891   3.986  -4.024  0.00  0.00    -0.495 OA
BRANCH  34  35
ATOM     35  C   LIG d   1      10.135   4.283  -2.648  0.00  0.00     0.079 C 
ATOM     36  H   LIG d   1       9.662   5.230  -2.390  0.00  0.00     0.066 H 
ATOM     37  H   LIG d   1       9.720   3.489  -2.026  0.00  0.00     0.066 H 
ATOM     38  H   LIG d   1      11.209   4.354  -2.476  0.00  0.00     0.066 H 
ENDBRANCH  34  35
ENDBRANCH  28  34
ENDBRANCH  22  24
ENDBRANCH   8  19
BRANCH  15  39
ATOM     39  C   LIG d   1       4.919  -3.671  -4.599  0.00  0.00    -0.005 C 
ATOM     40  H   LIG d   1       4.266  -4.440  -4.188  0.00  0.00     0.087 H 
ATOM     41  H   LIG d   1       5.957  -3.915  -4.370  0.00  0.00     0.087 H 
BRANCH  39  42
ATOM     42  C   LIG d   1       4.570  -2.337  -3.988  0.00  0.00    -0.003 A 
ATOM     43  C   LIG d   1       4.885  -2.078  -2.668  0.00  0.00    -0.053 A 
ATOM     44  C   LIG d   1       4.565  -0.856  -2.108  0.00  0.00    -0.058 A 
ATOM     45  H   LIG d   1       5.383  -2.831  -2.073  0.00  0.00     0.062 H 
ATOM     46  C   LIG d   1       3.930   0.107  -2.868  0.00  0.00    -0.050 A 
ATOM     47  H   LIG d   1       4.811  -0.653  -1.076  0.00  0.00     0.062 H 
ATOM     48  C   LIG d   1       3.614  -0.151  -4.189  0.00  0.00    -0.058 A 
ATOM     49  C   LIG d   1       3.938  -1.372  -4.750  0.00  0.00    -0.053 A 
ATOM     50  H   LIG d   1       3.118   0.601  -4.784  0.00  0.00     0.062 H 
ATOM     51  H   LIG d   1       3.696  -1.574  -5.784  0.00  0.00     0.062 H 
BRANCH  46  52
ATOM     52  C   LIG d   1       3.580   1.440  -2.258  0.00  0.00    -0.040 C 
ATOM     53  H   LIG d   1       4.151   2.227  -2.752  0.00  0.00     0.028 H 
ATOM     54  H   LIG d   1       2.515   1.631  -2.385  0.00  0.00     0.028 H 
ATOM     55  H   LIG d   1       3.823   1.429  -1.195  0.00  0.00     0.028 H 
ENDBRANCH  46  52
ENDBRANCH  39  42
ENDBRANCH  15  39
TORSDOF 7
ENDMDL
MODEL 7
REMARK VINA RESULT:      -6.4      2.692      5.132
REMARK  7 active torsions:
REMARK  status: ('A' for Active; 'I' for Inactive)
REMARK    1  A    between atoms: C_1  and  C_2 
REMARK    2  A    between atoms: C_5  and  C_8 
REMARK    3  A    between atoms: C_8  and  N_52 
REMARK    4  A    between atoms: C_16  and  C_18 
REMARK    5  A    between atoms: C_20  and  C_23 
REMARK    6  A    between atoms: C_26  and  O_29 
REMARK    7  A    between atoms: O_29  and  C_30 
ROOT
ATOM      1  C   LIG d   1       8.473  -0.869  -5.289  0.00  0.00     0.036 C 
ATOM      2  C   LIG d   1       7.224  -1.209  -4.515  0.00  0.00     0.190 A 
ATOM      3  C   LIG d   1       6.597  -0.334  -3.695  0.00  0.00     0.156 A 
ATOM      4  N   LIG d   1       5.523  -0.976  -3.169  0.00  0.00    -0.247 N 
ATOM      5  H   LIG d   1       4.859  -0.596  -2.525  0.00  0.00     0.310 HD
ATOM      6  C   LIG d   1       5.519  -2.228  -3.685  0.00  0.00     0.243 A 
ATOM      7  C   LIG d   1       7.074   1.077  -3.464  0.00  0.00     0.065 C 
ATOM      8  C   LIG d   1       8.075   1.423  -4.577  0.00  0.00     0.068 C 
ATOM      9  H   LIG d   1       7.543   1.537  -5.522  0.00  0.00     0.096 H 
ATOM     10  H   LIG d   1       8.220  -0.685  -6.333  0.00  0.00     0.090 H 
ATOM     11  H   LIG d   1       9.183  -1.693  -5.223  0.00  0.00     0.090 H 
ATOM     12  H   LIG d   1       4.791  -2.995  -3.468  0.00  0.00     0.158 H 
ATOM     13  H   LIG d   1       7.564   1.148  -2.493  0.00  0.00     0.041 H 
ATOM     14  H   LIG d   1       6.228   1.763  -3.504  0.00  0.00     0.041 H 
ATOM     15  N   LIG d   1       9.077   0.338  -4.671  0.00  0.00     0.254 N 
ATOM     16  H   LIG d   1       9.400   0.101  -3.726  0.00  0.00     0.205 HD
ATOM     17  N   LIG d   1       6.543  -2.354  -4.487  0.00  0.00    -0.243 N 
ATOM     18  H   LIG d   1       6.784  -3.200  -5.015  0.00  0.00     0.311 HD
ENDROOT
BRANCH   8  19
ATOM     19  C   LIG d   1       8.776   2.713  -4.238  0.00  0.00     0.276 A 
ATOM     20  O   LIG d   1       9.040   3.718  -5.080  0.00  0.00    -0.332 OA
ATOM     21  N   LIG d   1       9.614   4.611  -4.494  0.00  0.00    -0.056 NA
ATOM     22  C   LIG d   1       9.780   4.290  -3.237  0.00  0.00     0.202 A 
ATOM     23  N   LIG d   1       9.240   3.062  -3.064  0.00  0.00    -0.186 NA
BRANCH  22  24
ATOM     24  C   LIG d   1      10.437   5.117  -2.197  0.00  0.00     0.023 A 
ATOM     25  C   LIG d   1      11.662   4.722  -1.660  0.00  0.00    -0.048 A 
ATOM     26  C   LIG d   1      12.270   5.495  -0.693  0.00  0.00    -0.019 A 
ATOM     27  H   LIG d   1      12.133   3.814  -2.002  0.00  0.00     0.063 H 
ATOM     28  C   LIG d   1      11.666   6.665  -0.254  0.00  0.00     0.120 A 
ATOM     29  H   LIG d   1      13.219   5.189  -0.277  0.00  0.00     0.065 H 
ATOM     30  C   LIG d   1      10.445   7.060  -0.787  0.00  0.00    -0.019 A 
ATOM     31  C   LIG d   1       9.834   6.295  -1.757  0.00  0.00    -0.048 A 
ATOM     32  H   LIG d   1       9.976   7.971  -0.443  0.00  0.00     0.065 H 
ATOM     33  H   LIG d   1       8.888   6.606  -2.174  0.00  0.00     0.063 H 
BRANCH  28  34
ATOM     34  O   LIG d   1      12.267   7.423   0.699  0.00  0.00    -0.495 OA
BRANCH  34  35
ATOM     35  C   LIG d   1      11.481   8.453   1.300  0.00  0.00     0.079 C 
ATOM     36  H   LIG d   1      10.480   8.074   1.506  0.00  0.00     0.066 H 
ATOM     37  H   LIG d   1      11.948   8.770   2.233  0.00  0.00     0.066 H 
ATOM     38  H   LIG d   1      11.415   9.303   0.620  0.00  0.00     0.066 H 
ENDBRANCH  34  35
ENDBRANCH  28  34
ENDBRANCH  22  24
ENDBRANCH   8  19
BRANCH  15  39
ATOM     39  C   LIG d   1      10.233   0.789  -5.474  0.00  0.00    -0.005 C 
ATOM     40  H   LIG d   1      10.228   0.313  -6.454  0.00  0.00     0.087 H 
ATOM     41  H   LIG d   1      10.173   1.871  -5.595  0.00  0.00     0.087 H 
BRANCH  39  42
ATOM     42  C   LIG d   1      11.506   0.433  -4.749  0.00  0.00    -0.003 A 
ATOM     43  C   LIG d   1      11.921  -0.883  -4.687  0.00  0.00    -0.053 A 
ATOM     44  C   LIG d   1      13.089  -1.209  -4.022  0.00  0.00    -0.058 A 
ATOM     45  H   LIG d   1      11.334  -1.658  -5.158  0.00  0.00     0.062 H 
ATOM     46  C   LIG d   1      13.840  -0.218  -3.420  0.00  0.00    -0.050 A 
ATOM     47  H   LIG d   1      13.413  -2.238  -3.972  0.00  0.00     0.062 H 
ATOM     48  C   LIG d   1      13.425   1.100  -3.482  0.00  0.00    -0.058 A 
ATOM     49  C   LIG d   1      12.260   1.425  -4.151  0.00  0.00    -0.053 A 
ATOM     50  H   LIG d   1      14.013   1.875  -3.013  0.00  0.00     0.062 H 
ATOM     51  H   LIG d   1      11.938   2.455  -4.204  0.00  0.00     0.062 H 
BRANCH  46  52
ATOM     52  C   LIG d   1      15.113  -0.572  -2.695  0.00  0.00    -0.040 C 
ATOM     53  H   LIG d   1      14.943  -0.527  -1.619  0.00  0.00     0.028 H 
ATOM     54  H   LIG d   1      15.421  -1.580  -2.972  0.00  0.00     0.028 H 
ATOM     55  H   LIG d   1      15.896   0.136  -2.968  0.00  0.00     0.028 H 
ENDBRANCH  46  52
ENDBRANCH  39  42
ENDBRANCH  15  39
TORSDOF 7
ENDMDL
MODEL 8
REMARK VINA RESULT:      -6.4      6.343      9.377
REMARK  7 active torsions:
REMARK  status: ('A' for Active; 'I' for Inactive)
REMARK    1  A    between atoms: C_1  and  C_2 
REMARK    2  A    between atoms: C_5  and  C_8 
REMARK    3  A    between atoms: C_8  and  N_52 
REMARK    4  A    between atoms: C_16  and  C_18 
REMARK    5  A    between atoms: C_20  and  C_23 
REMARK    6  A    between atoms: C_26  and  O_29 
REMARK    7  A    between atoms: O_29  and  C_30 
ROOT
ATOM      1  C   LIG d   1       4.413  -3.192  -7.215  0.00  0.00     0.036 C 
ATOM      2  C   LIG d   1       4.948  -2.888  -8.592  0.00  0.00     0.190 A 
ATOM      3  C   LIG d   1       6.243  -3.065  -8.942  0.00  0.00     0.156 A 
ATOM      4  N   LIG d   1       6.362  -2.689 -10.241  0.00  0.00    -0.247 N 
ATOM      5  H   LIG d   1       7.198  -2.703 -10.790  0.00  0.00     0.310 HD
ATOM      6  C   LIG d   1       5.135  -2.295 -10.653  0.00  0.00     0.243 A 
ATOM      7  C   LIG d   1       7.295  -3.588  -7.997  0.00  0.00     0.065 C 
ATOM      8  C   LIG d   1       6.576  -4.225  -6.799  0.00  0.00     0.068 C 
ATOM      9  H   LIG d   1       6.100  -5.155  -7.113  0.00  0.00     0.096 H 
ATOM     10  H   LIG d   1       3.865  -4.135  -7.234  0.00  0.00     0.090 H 
ATOM     11  H   LIG d   1       3.752  -2.390  -6.891  0.00  0.00     0.090 H 
ATOM     12  H   LIG d   1       4.888  -1.936 -11.641  0.00  0.00     0.158 H 
ATOM     13  H   LIG d   1       7.925  -2.767  -7.655  0.00  0.00     0.041 H 
ATOM     14  H   LIG d   1       7.904  -4.337  -8.503  0.00  0.00     0.041 H 
ATOM     15  N   LIG d   1       5.567  -3.272  -6.285  0.00  0.00     0.254 N 
ATOM     16  H   LIG d   1       5.997  -2.343  -6.209  0.00  0.00     0.205 HD
ATOM     17  N   LIG d   1       4.298  -2.418  -9.656  0.00  0.00    -0.243 N 
ATOM     18  H   LIG d   1       3.298  -2.190  -9.688  0.00  0.00     0.311 HD
ENDROOT
BRANCH   8  19
ATOM     19  C   LIG d   1       7.577  -4.517  -5.711  0.00  0.00     0.276 A 
ATOM     20  O   LIG d   1       8.492  -3.671  -5.227  0.00  0.00    -0.332 OA
ATOM     21  N   LIG d   1       9.141  -4.214  -4.358  0.00  0.00    -0.056 NA
ATOM     22  C   LIG d   1       8.727  -5.443  -4.190  0.00  0.00     0.202 A 
ATOM     23  N   LIG d   1       7.715  -5.646  -5.063  0.00  0.00    -0.186 NA
BRANCH  22  24
ATOM     24  C   LIG d   1       9.267  -6.429  -3.222  0.00  0.00     0.023 A 
ATOM     25  C   LIG d   1      10.061  -6.002  -2.159  0.00  0.00    -0.048 A 
ATOM     26  C   LIG d   1      10.561  -6.922  -1.261  0.00  0.00    -0.019 A 
ATOM     27  H   LIG d   1      10.284  -4.953  -2.039  0.00  0.00     0.063 H 
ATOM     28  C   LIG d   1      10.275  -8.271  -1.415  0.00  0.00     0.120 A 
ATOM     29  H   LIG d   1      11.178  -6.591  -0.438  0.00  0.00     0.065 H 
ATOM     30  C   LIG d   1       9.484  -8.699  -2.473  0.00  0.00    -0.019 A 
ATOM     31  C   LIG d   1       8.977  -7.785  -3.371  0.00  0.00    -0.048 A 
ATOM     32  H   LIG d   1       9.262  -9.751  -2.590  0.00  0.00     0.065 H 
ATOM     33  H   LIG d   1       8.358  -8.118  -4.191  0.00  0.00     0.063 H 
BRANCH  28  34
ATOM     34  O   LIG d   1      10.769  -9.175  -0.529  0.00  0.00    -0.495 OA
BRANCH  34  35
ATOM     35  C   LIG d   1      11.180  -8.676   0.745  0.00  0.00     0.079 C 
ATOM     36  H   LIG d   1      11.222  -9.497   1.461  0.00  0.00     0.066 H 
ATOM     37  H   LIG d   1      12.166  -8.220   0.657  0.00  0.00     0.066 H 
ATOM     38  H   LIG d   1      10.464  -7.929   1.091  0.00  0.00     0.066 H 
ENDBRANCH  34  35
ENDBRANCH  28  34
ENDBRANCH  22  24
ENDBRANCH   8  19
BRANCH  15  39
ATOM     39  C   LIG d   1       5.107  -3.698  -4.948  0.00  0.00    -0.005 C 
ATOM     40  H   LIG d   1       4.141  -4.196  -5.015  0.00  0.00     0.087 H 
ATOM     41  H   LIG d   1       5.843  -4.385  -4.528  0.00  0.00     0.087 H 
BRANCH  39  42
ATOM     42  C   LIG d   1       4.987  -2.486  -4.058  0.00  0.00    -0.003 A 
ATOM     43  C   LIG d   1       5.779  -1.378  -4.290  0.00  0.00    -0.053 A 
ATOM     44  C   LIG d   1       5.669  -0.267  -3.474  0.00  0.00    -0.058 A 
ATOM     45  H   LIG d   1       6.485  -1.379  -5.107  0.00  0.00     0.062 H 
ATOM     46  C   LIG d   1       4.766  -0.266  -2.427  0.00  0.00    -0.050 A 
ATOM     47  H   LIG d   1       6.288   0.598  -3.654  0.00  0.00     0.062 H 
ATOM     48  C   LIG d   1       3.972  -1.374  -2.196  0.00  0.00    -0.058 A 
ATOM     49  C   LIG d   1       4.080  -2.483  -3.015  0.00  0.00    -0.053 A 
ATOM     50  H   LIG d   1       3.266  -1.373  -1.380  0.00  0.00     0.062 H 
ATOM     51  H   LIG d   1       3.458  -3.348  -2.837  0.00  0.00     0.062 H 
BRANCH  46  52
ATOM     52  C   LIG d   1       4.645   0.944  -1.538  0.00  0.00    -0.040 C 
ATOM     53  H   LIG d   1       4.893   0.668  -0.513  0.00  0.00     0.028 H 
ATOM     54  H   LIG d   1       5.330   1.719  -1.881  0.00  0.00     0.028 H 
ATOM     55  H   LIG d   1       3.622   1.321  -1.574  0.00  0.00     0.028 H 
ENDBRANCH  46  52
ENDBRANCH  39  42
ENDBRANCH  15  39
TORSDOF 7
ENDMDL
MODEL 9
REMARK VINA RESULT:      -6.3      2.957      8.399
REMARK  7 active torsions:
REMARK  status: ('A' for Active; 'I' for Inactive)
REMARK    1  A    between atoms: C_1  and  C_2 
REMARK    2  A    between atoms: C_5  and  C_8 
REMARK    3  A    between atoms: C_8  and  N_52 
REMARK    4  A    between atoms: C_16  and  C_18 
REMARK    5  A    between atoms: C_20  and  C_23 
REMARK    6  A    between atoms: C_26  and  O_29 
REMARK    7  A    between atoms: O_29  and  C_30 
ROOT
ATOM      1  C   LIG d   1      11.113   8.205  -3.747  0.00  0.00     0.036 C 
ATOM      2  C   LIG d   1      10.322   8.872  -2.649  0.00  0.00     0.190 A 
ATOM      3  C   LIG d   1       9.522   8.196  -1.793  0.00  0.00     0.156 A 
ATOM      4  N   LIG d   1       8.973   9.109  -0.952  0.00  0.00    -0.247 N 
ATOM      5  H   LIG d   1       8.335   8.922  -0.205  0.00  0.00     0.310 HD
ATOM      6  C   LIG d   1       9.454  10.321  -1.315  0.00  0.00     0.243 A 
ATOM      7  C   LIG d   1       9.334   6.702  -1.837  0.00  0.00     0.065 C 
ATOM      8  C   LIG d   1      10.461   6.110  -2.695  0.00  0.00     0.068 C 
ATOM      9  H   LIG d   1      11.406   6.183  -2.155  0.00  0.00     0.096 H 
ATOM     10  H   LIG d   1      12.160   8.132  -3.452  0.00  0.00     0.090 H 
ATOM     11  H   LIG d   1      11.029   8.784  -4.666  0.00  0.00     0.090 H 
ATOM     12  H   LIG d   1       9.211  11.262  -0.842  0.00  0.00     0.158 H 
ATOM     13  H   LIG d   1       8.368   6.464  -2.282  0.00  0.00     0.041 H 
ATOM     14  H   LIG d   1       9.386   6.294  -0.827  0.00  0.00     0.041 H 
ATOM     15  N   LIG d   1      10.533   6.857  -3.971  0.00  0.00     0.254 N 
ATOM     16  H   LIG d   1       9.584   6.963  -4.347  0.00  0.00     0.205 HD
ATOM     17  N   LIG d   1      10.259  10.165  -2.333  0.00  0.00    -0.243 N 
ATOM     18  H   LIG d   1      10.765  10.919  -2.811  0.00  0.00     0.311 HD
ENDROOT
BRANCH   8  19
ATOM     19  C   LIG d   1      10.162   4.662  -2.988  0.00  0.00     0.276 A 
ATOM     20  O   LIG d   1      10.891   3.608  -2.605  0.00  0.00    -0.332 OA
ATOM     21  N   LIG d   1      10.378   2.583  -3.001  0.00  0.00    -0.056 NA
ATOM     22  C   LIG d   1       9.286   2.855  -3.668  0.00  0.00     0.202 A 
ATOM     23  N   LIG d   1       9.141   4.200  -3.663  0.00  0.00    -0.186 NA
BRANCH  22  24
ATOM     24  C   LIG d   1       8.379   1.873  -4.309  0.00  0.00     0.023 A 
ATOM     25  C   LIG d   1       8.500   1.593  -5.669  0.00  0.00    -0.048 A 
ATOM     26  C   LIG d   1       7.654   0.678  -6.261  0.00  0.00    -0.019 A 
ATOM     27  H   LIG d   1       9.255   2.091  -6.258  0.00  0.00     0.063 H 
ATOM     28  C   LIG d   1       6.683   0.037  -5.505  0.00  0.00     0.120 A 
ATOM     29  H   LIG d   1       7.748   0.462  -7.316  0.00  0.00     0.065 H 
ATOM     30  C   LIG d   1       6.560   0.314  -4.149  0.00  0.00    -0.019 A 
ATOM     31  C   LIG d   1       7.406   1.223  -3.550  0.00  0.00    -0.048 A 
ATOM     32  H   LIG d   1       5.803  -0.187  -3.563  0.00  0.00     0.065 H 
ATOM     33  H   LIG d   1       7.312   1.435  -2.495  0.00  0.00     0.063 H 
BRANCH  28  34
ATOM     34  O   LIG d   1       5.852  -0.863  -6.091  0.00  0.00    -0.495 OA
BRANCH  34  35
ATOM     35  C   LIG d   1       4.464  -0.774  -5.762  0.00  0.00     0.079 C 
ATOM     36  H   LIG d   1       4.213   0.257  -5.515  0.00  0.00     0.066 H 
ATOM     37  H   LIG d   1       3.866  -1.099  -6.614  0.00  0.00     0.066 H 
ATOM     38  H   LIG d   1       4.252  -1.414  -4.905  0.00  0.00     0.066 H 
ENDBRANCH  34  35
ENDBRANCH  28  34
ENDBRANCH  22  24
ENDBRANCH   8  19
BRANCH  15  39
ATOM     39  C   LIG d   1      11.354   6.111  -4.946  0.00  0.00    -0.005 C 
ATOM     40  H   LIG d   1      12.317   6.601  -5.091  0.00  0.00     0.087 H 
ATOM     41  H   LIG d   1      11.514   5.101  -4.567  0.00  0.00     0.087 H 
BRANCH  39  42
ATOM     42  C   LIG d   1      10.621   6.045  -6.261  0.00  0.00    -0.003 A 
ATOM     43  C   LIG d   1      10.234   7.210  -6.896  0.00  0.00    -0.053 A 
ATOM     44  C   LIG d   1       9.561   7.149  -8.102  0.00  0.00    -0.058 A 
ATOM     45  H   LIG d   1      10.458   8.168  -6.451  0.00  0.00     0.062 H 
ATOM     46  C   LIG d   1       9.276   5.923  -8.673  0.00  0.00    -0.050 A 
ATOM     47  H   LIG d   1       9.258   8.059  -8.598  0.00  0.00     0.062 H 
ATOM     48  C   LIG d   1       9.663   4.757  -8.038  0.00  0.00    -0.058 A 
ATOM     49  C   LIG d   1      10.339   4.819  -6.834  0.00  0.00    -0.053 A 
ATOM     50  H   LIG d   1       9.441   3.799  -8.484  0.00  0.00     0.062 H 
ATOM     51  H   LIG d   1      10.646   3.908  -6.339  0.00  0.00     0.062 H 
BRANCH  46  52
ATOM     52  C   LIG d   1       8.542   5.855  -9.987  0.00  0.00    -0.040 C 
ATOM     53  H   LIG d   1       8.918   5.014 -10.571  0.00  0.00     0.028 H 
ATOM     54  H   LIG d   1       7.477   5.722  -9.803  0.00  0.00     0.028 H 
ATOM     55  H   LIG d   1       8.703   6.781 -10.541  0.00  0.00     0.028 H 
ENDBRANCH  46  52
ENDBRANCH  39  42
ENDBRANCH  15  39
TORSDOF 7
ENDMDL
MODEL 10
REMARK VINA RESULT:      -6.3      6.209      9.498
REMARK  7 active torsions:
REMARK  status: ('A' for Active; 'I' for Inactive)
REMARK    1  A    between atoms: C_1  and  C_2 
REMARK    2  A    between atoms: C_5  and  C_8 
REMARK    3  A    between atoms: C_8  and  N_52 
REMARK    4  A    between atoms: C_16  and  C_18 
REMARK    5  A    between atoms: C_20  and  C_23 
REMARK    6  A    between atoms: C_26  and  O_29 
REMARK    7  A    between atoms: O_29  and  C_30 
ROOT
ATOM      1  C   LIG d   1      12.388  -6.407  -3.069  0.00  0.00     0.036 C 
ATOM      2  C   LIG d   1      11.976  -7.120  -1.805  0.00  0.00     0.190 A 
ATOM      3  C   LIG d   1      10.746  -7.003  -1.254  0.00  0.00     0.156 A 
ATOM      4  N   LIG d   1      10.734  -7.773  -0.135  0.00  0.00    -0.247 N 
ATOM      5  H   LIG d   1       9.966  -7.896   0.494  0.00  0.00     0.310 HD
ATOM      6  C   LIG d   1      11.958  -8.342  -0.033  0.00  0.00     0.243 A 
ATOM      7  C   LIG d   1       9.649  -6.153  -1.841  0.00  0.00     0.065 C 
ATOM      8  C   LIG d   1      10.038  -5.817  -3.288  0.00  0.00     0.068 C 
ATOM      9  H   LIG d   1       9.955  -6.714  -3.904  0.00  0.00     0.096 H 
ATOM     10  H   LIG d   1      12.383  -7.109  -3.904  0.00  0.00     0.090 H 
ATOM     11  H   LIG d   1      13.386  -5.988  -2.947  0.00  0.00     0.090 H 
ATOM     12  H   LIG d   1      12.275  -9.015   0.750  0.00  0.00     0.158 H 
ATOM     13  H   LIG d   1       9.546  -5.233  -1.264  0.00  0.00     0.041 H 
ATOM     14  H   LIG d   1       8.709  -6.705  -1.830  0.00  0.00     0.041 H 
ATOM     15  N   LIG d   1      11.425  -5.302  -3.303  0.00  0.00     0.254 N 
ATOM     16  H   LIG d   1      11.529  -4.607  -2.555  0.00  0.00     0.205 HD
ATOM     17  N   LIG d   1      12.691  -7.942  -1.038  0.00  0.00    -0.243 N 
ATOM     18  H   LIG d   1      13.664  -8.219  -1.211  0.00  0.00     0.311 HD
ENDROOT
BRANCH   8  19
ATOM     19  C   LIG d   1       9.112  -4.755  -3.823  0.00  0.00     0.276 A 
ATOM     20  O   LIG d   1       8.595  -4.701  -5.055  0.00  0.00    -0.332 OA
ATOM     21  N   LIG d   1       7.889  -3.721  -5.166  0.00  0.00    -0.056 NA
ATOM     22  C   LIG d   1       7.872  -3.050  -4.044  0.00  0.00     0.202 A 
ATOM     23  N   LIG d   1       8.662  -3.714  -3.170  0.00  0.00    -0.186 NA
BRANCH  22  24
ATOM     24  C   LIG d   1       7.126  -1.796  -3.779  0.00  0.00     0.023 A 
ATOM     25  C   LIG d   1       7.628  -0.576  -4.229  0.00  0.00    -0.048 A 
ATOM     26  C   LIG d   1       6.931   0.588  -3.981  0.00  0.00    -0.019 A 
ATOM     27  H   LIG d   1       8.561  -0.542  -4.770  0.00  0.00     0.063 H 
ATOM     28  C   LIG d   1       5.730   0.546  -3.286  0.00  0.00     0.120 A 
ATOM     29  H   LIG d   1       7.321   1.534  -4.329  0.00  0.00     0.065 H 
ATOM     30  C   LIG d   1       5.227  -0.668  -2.837  0.00  0.00    -0.019 A 
ATOM     31  C   LIG d   1       5.917  -1.836  -3.085  0.00  0.00    -0.048 A 
ATOM     32  H   LIG d   1       4.293  -0.698  -2.295  0.00  0.00     0.065 H 
ATOM     33  H   LIG d   1       5.523  -2.780  -2.740  0.00  0.00     0.063 H 
BRANCH  28  34
ATOM     34  O   LIG d   1       5.047   1.695  -3.043  0.00  0.00    -0.495 OA
BRANCH  34  35
ATOM     35  C   LIG d   1       3.667   1.567  -2.695  0.00  0.00     0.079 C 
ATOM     36  H   LIG d   1       3.339   2.463  -2.169  0.00  0.00     0.066 H 
ATOM     37  H   LIG d   1       3.073   1.439  -3.601  0.00  0.00     0.066 H 
ATOM     38  H   LIG d   1       3.534   0.698  -2.049  0.00  0.00     0.066 H 
ENDBRANCH  34  35
ENDBRANCH  28  34
ENDBRANCH  22  24
ENDBRANCH   8  19
BRANCH  15  39
ATOM     39  C   LIG d   1      11.708  -4.655  -4.600  0.00  0.00    -0.005 C 
ATOM     40  H   LIG d   1      12.416  -5.247  -5.179  0.00  0.00     0.087 H 
ATOM     41  H   LIG d   1      10.774  -4.561  -5.155  0.00  0.00     0.087 H 
BRANCH  39  42
ATOM     42  C   LIG d   1      12.285  -3.284  -4.353  0.00  0.00    -0.003 A 
ATOM     43  C   LIG d   1      13.540  -3.154  -3.788  0.00  0.00    -0.053 A 
ATOM     44  C   LIG d   1      14.068  -1.897  -3.561  0.00  0.00    -0.058 A 
ATOM     45  H   LIG d   1      14.107  -4.035  -3.525  0.00  0.00     0.062 H 
ATOM     46  C   LIG d   1      13.343  -0.771  -3.899  0.00  0.00    -0.050 A 
ATOM     47  H   LIG d   1      15.048  -1.796  -3.120  0.00  0.00     0.062 H 
ATOM     48  C   LIG d   1      12.087  -0.901  -4.464  0.00  0.00    -0.058 A 
ATOM     49  C   LIG d   1      11.561  -2.158  -4.695  0.00  0.00    -0.053 A 
ATOM     50  H   LIG d   1      11.520  -0.021  -4.730  0.00  0.00     0.062 H 
ATOM     51  H   LIG d   1      10.581  -2.260  -5.141  0.00  0.00     0.062 H 
BRANCH  46  52
ATOM     52  C   LIG d   1      13.918   0.599  -3.652  0.00  0.00    -0.040 C 
ATOM     53  H   LIG d   1      13.735   0.890  -2.617  0.00  0.00     0.028 H 
ATOM     54  H   LIG d   1      14.991   0.583  -3.839  0.00  0.00     0.028 H 
ATOM     55  H   LIG d   1      13.443   1.319  -4.320  0.00  0.00     0.028 H 
ENDBRANCH  46  52
ENDBRANCH  39  42
ENDBRANCH  15  39
TORSDOF 7
ENDMDL
