MODEL 1
REMARK VINA RESULT:      -7.4      0.000      0.000
REMARK  12 active torsions:
REMARK  status: ('A' for Active; 'I' for Inactive)
REMARK    1  A    between atoms: C_3  and  N_39 
REMARK    2  A    between atoms: C_6  and  C_7 
REMARK    3  A    between atoms: C_7  and  O_8 
REMARK    4  A    between atoms: O_8  and  C_9 
REMARK       I    between atoms: C_9  and  N_11 
REMARK    5  A    between atoms: N_11  and  C_12 
REMARK    6  A    between atoms: C_12  and  C_13 
REMARK       I    between atoms: C_13  and  N_15 
REMARK    7  A    between atoms: N_15  and  C_16 
REMARK    8  A    between atoms: C_16  and  C_18 
REMARK    9  A    between atoms: C_16  and  C_32 
REMARK   10  A    between atoms: C_18  and  S_19 
REMARK   11  A    between atoms: S_19  and  C_20 
REMARK   12  A    between atoms: C_23  and  N_29 
REMARK       I    between atoms: C_32  and  N_34 
REMARK       I    between atoms: N_34  and  CA_35 
REMARK       I    between atoms: CA_35  and  C_36 
ROOT
ATOM      1  C   UNK d   1      -0.365  -5.069 -10.801  0.00  0.00     0.109 C 
ATOM      2  H   UNK d   1      -0.540  -5.273 -11.858  0.00  0.00     0.060 H 
ENDROOT
BRANCH   1   3
ATOM      3  N   UNK d   1       0.189  -3.722 -10.650  0.00  0.00    -0.302 N 
ATOM      4  C   UNK d   0       0.365  -2.939 -11.733  0.00  0.00     0.231 C 
ATOM      5  O   UNK d   0       0.065  -3.350 -12.833  0.00  0.00    -0.274 OA
ATOM      6  H   UNK d   1       0.429  -3.392  -9.769  0.00  0.00     0.149 HD
BRANCH   4   7
ATOM      7  C   UNK d   0       0.935  -1.552 -11.576  0.00  0.00     0.091 C 
ATOM      8  H   UNK d   0       0.318  -0.843 -12.128  0.00  0.00     0.056 H 
ATOM      9  H   UNK d   0       1.951  -1.531 -11.967  0.00  0.00     0.056 H 
BRANCH   7  10
ATOM     10  N   UNK d   0       0.949  -1.187 -10.157  0.00  0.00    -0.273 N 
ATOM     11  C   UNK d   0       2.079  -0.717  -9.594  0.00  0.00     0.401 C 
ATOM     12  O   UNK d   0       3.086  -0.595 -10.263  0.00  0.00    -0.227 OA
ATOM     13  H   UNK d   0       0.144  -1.285  -9.623  0.00  0.00     0.152 HD
BRANCH  11  14
ATOM     14  O   UNK d   0       2.093  -0.382  -8.290  0.00  0.00    -0.446 OA
BRANCH  14  15
ATOM     15  C   UNK d   0       3.187   0.417  -7.837  0.00  0.00     0.119 C 
ATOM     16  H   UNK d   0       2.938   1.472  -7.953  0.00  0.00     0.075 H 
ATOM     17  H   UNK d   0       4.074   0.186  -8.425  0.00  0.00     0.075 H 
BRANCH  15  18
ATOM     18  C   UNK d   0       3.456   0.122  -6.383  0.00  0.00    -0.010 A 
ATOM     19  C   UNK d   0       4.664  -0.431  -6.004  0.00  0.00    -0.049 A 
ATOM     20  C   UNK d   0       4.912  -0.702  -4.670  0.00  0.00     0.016 A 
ATOM     21  H   UNK d   0       5.416  -0.648  -6.747  0.00  0.00     0.062 H 
ATOM     22  C   UNK d   0       3.951  -0.419  -3.718  0.00  0.00     0.273 A 
ATOM     23  H   UNK d   0       5.856  -1.134  -4.374  0.00  0.00     0.069 H 
ATOM     24  C   UNK d   0       2.743   0.135  -4.098  0.00  0.00     0.016 A 
ATOM     25  C   UNK d   0       2.496   0.406  -5.431  0.00  0.00    -0.049 A 
ATOM     26  H   UNK d   0       1.992   0.355  -3.354  0.00  0.00     0.069 H 
ATOM     27  H   UNK d   0       1.551   0.839  -5.728  0.00  0.00     0.062 H 
BRANCH  22  28
ATOM     28  N   UNK d   0       4.215  -0.710  -2.291  0.00  0.00     0.080 N 
ATOM     29  O   UNK d   0       4.158  -1.848  -1.885  0.00  0.00     0.041 OA
ATOM     30  O   UNK d   0       4.489   0.189  -1.531  0.00  0.00    -0.576 OA
ENDBRANCH  22  28
ENDBRANCH  15  18
ENDBRANCH  14  15
ENDBRANCH  11  14
ENDBRANCH   7  10
ENDBRANCH   4   7
ENDBRANCH   1   3
BRANCH   1  31
ATOM     31  C   UNK d   1       0.624  -6.093 -10.240  0.00  0.00     0.025 C 
ATOM     32  H   UNK d   1       0.555  -6.106  -9.153  0.00  0.00     0.040 H 
ATOM     33  H   UNK d   1       0.383  -7.082 -10.631  0.00  0.00     0.040 H 
BRANCH  31  34
ATOM     34  S   UNK d   1       2.309  -5.640 -10.735  0.00  0.00    -0.121 SA
BRANCH  34  35
ATOM     35  C   UNK d   1       3.116  -5.274  -9.211  0.00  0.00     0.039 A 
ATOM     36  C   UNK d   1       3.532  -6.355  -8.307  0.00  0.00     0.154 A 
ATOM     37  C   UNK d   1       4.209  -5.986  -7.049  0.00  0.00     0.212 A 
ATOM     38  N   UNK d   1       3.442  -7.660  -8.358  0.00  0.00    -0.048 NA
ATOM     39  C   UNK d   1       4.412  -4.612  -6.771  0.00  0.00     0.304 A 
ATOM     40  N   UNK d   1       4.498  -7.093  -6.404  0.00  0.00    -0.042 NA
ATOM     41  C   UNK d   1       3.998  -3.668  -7.647  0.00  0.00     0.019 A 
ATOM     42  C   UNK d   1       3.361  -3.983  -8.848  0.00  0.00    -0.040 A 
ATOM     43  H   UNK d   1       4.168  -2.628  -7.407  0.00  0.00     0.069 H 
ATOM     44  H   UNK d   1       3.053  -3.184  -9.506  0.00  0.00     0.063 H 
ATOM     45  O   UNK d   1       4.030  -8.184  -7.178  0.00  0.00    -0.241 OA
BRANCH  39  46
ATOM     46  N   UNK d   1       5.084  -4.206  -5.514  0.00  0.00     0.082 N 
ATOM     47  O   UNK d   1       4.445  -4.103  -4.494  0.00  0.00     0.042 OA
ATOM     48  O   UNK d   1       6.271  -3.979  -5.509  0.00  0.00    -0.576 OA
ENDBRANCH  39  46
ENDBRANCH  34  35
ENDBRANCH  31  34
ENDBRANCH   1  31
BRANCH   1  49
ATOM     49  C   UNK d   1      -1.668  -5.164 -10.050  0.00  0.00     0.234 C 
ATOM     50  O   UNK d   1      -1.750  -5.867  -9.065  0.00  0.00    -0.274 OA
ATOM     51  N   GLY d   2      -2.742  -4.469 -10.473  0.00  0.00    -0.308 N 
ATOM     52  CA  GLY d   2      -4.009  -4.562  -9.743  0.00  0.00     0.051 C 
ATOM     53  H   GLY d   2      -2.676  -3.907 -11.261  0.00  0.00     0.149 HD
ATOM     54  C   GLY d   2      -5.041  -3.695 -10.416  0.00  0.00     0.059 C 
ATOM     55  HA1 GLY d   2      -4.350  -5.598  -9.739  0.00  0.00     0.052 H 
ATOM     56  HA2 GLY d   2      -3.863  -4.223  -8.717  0.00  0.00     0.052 H 
ATOM     57  O   GLY d   2      -4.746  -3.059 -11.413  0.00  0.00    -0.548 OA
ATOM     58  OXT GLY d   2      -6.172  -3.630  -9.964  0.00  0.00    -0.548 OA
ENDBRANCH   1  49
TORSDOF 14
ENDMDL
MODEL 2
REMARK VINA RESULT:      -7.1      4.512      8.005
REMARK  12 active torsions:
REMARK  status: ('A' for Active; 'I' for Inactive)
REMARK    1  A    between atoms: C_3  and  N_39 
REMARK    2  A    between atoms: C_6  and  C_7 
REMARK    3  A    between atoms: C_7  and  O_8 
REMARK    4  A    between atoms: O_8  and  C_9 
REMARK       I    between atoms: C_9  and  N_11 
REMARK    5  A    between atoms: N_11  and  C_12 
REMARK    6  A    between atoms: C_12  and  C_13 
REMARK       I    between atoms: C_13  and  N_15 
REMARK    7  A    between atoms: N_15  and  C_16 
REMARK    8  A    between atoms: C_16  and  C_18 
REMARK    9  A    between atoms: C_16  and  C_32 
REMARK   10  A    between atoms: C_18  and  S_19 
REMARK   11  A    between atoms: S_19  and  C_20 
REMARK   12  A    between atoms: C_23  and  N_29 
REMARK       I    between atoms: C_32  and  N_34 
REMARK       I    between atoms: N_34  and  CA_35 
REMARK       I    between atoms: CA_35  and  C_36 
ROOT
ATOM      1  C   UNK d   1       4.682  -0.819  -7.775  0.00  0.00     0.109 C 
ATOM      2  H   UNK d   1       4.522   0.007  -8.469  0.00  0.00     0.060 H 
ENDROOT
BRANCH   1   3
ATOM      3  N   UNK d   1       3.679  -0.762  -6.709  0.00  0.00    -0.302 N 
ATOM      4  C   UNK d   0       2.973   0.368  -6.507  0.00  0.00     0.231 C 
ATOM      5  O   UNK d   0       3.167   1.337  -7.208  0.00  0.00    -0.274 OA
ATOM      6  H   UNK d   1       3.523  -1.539  -6.147  0.00  0.00     0.149 HD
BRANCH   4   7
ATOM      7  C   UNK d   0       1.941   0.425  -5.409  0.00  0.00     0.091 C 
ATOM      8  H   UNK d   0       1.014  -0.028  -5.759  0.00  0.00     0.056 H 
ATOM      9  H   UNK d   0       1.757   1.464  -5.138  0.00  0.00     0.056 H 
BRANCH   7  10
ATOM     10  N   UNK d   0       2.431  -0.306  -4.238  0.00  0.00    -0.273 N 
ATOM     11  C   UNK d   0       3.212   0.317  -3.334  0.00  0.00     0.401 C 
ATOM     12  O   UNK d   0       3.510   1.485  -3.490  0.00  0.00    -0.227 OA
ATOM     13  H   UNK d   0       2.194  -1.239  -4.115  0.00  0.00     0.152 HD
BRANCH  11  14
ATOM     14  O   UNK d   0       3.664  -0.354  -2.258  0.00  0.00    -0.446 OA
BRANCH  14  15
ATOM     15  C   UNK d   0       3.708  -1.779  -2.352  0.00  0.00     0.119 C 
ATOM     16  H   UNK d   0       2.820  -2.135  -2.874  0.00  0.00     0.075 H 
ATOM     17  H   UNK d   0       3.738  -2.209  -1.352  0.00  0.00     0.075 H 
BRANCH  15  18
ATOM     18  C   UNK d   0       4.939  -2.195  -3.115  0.00  0.00    -0.010 A 
ATOM     19  C   UNK d   0       4.839  -3.121  -4.136  0.00  0.00    -0.049 A 
ATOM     20  C   UNK d   0       5.969  -3.504  -4.836  0.00  0.00     0.016 A 
ATOM     21  H   UNK d   0       3.879  -3.543  -4.391  0.00  0.00     0.062 H 
ATOM     22  C   UNK d   0       7.198  -2.960  -4.513  0.00  0.00     0.273 A 
ATOM     23  H   UNK d   0       5.891  -4.227  -5.633  0.00  0.00     0.069 H 
ATOM     24  C   UNK d   0       7.298  -2.034  -3.492  0.00  0.00     0.016 A 
ATOM     25  C   UNK d   0       6.168  -1.651  -2.793  0.00  0.00    -0.049 A 
ATOM     26  H   UNK d   0       8.258  -1.609  -3.239  0.00  0.00     0.069 H 
ATOM     27  H   UNK d   0       6.246  -0.927  -1.995  0.00  0.00     0.062 H 
BRANCH  22  28
ATOM     28  N   UNK d   0       8.408  -3.370  -5.261  0.00  0.00     0.080 N 
ATOM     29  O   UNK d   0       8.638  -4.543  -5.442  0.00  0.00     0.041 OA
ATOM     30  O   UNK d   0       9.166  -2.532  -5.691  0.00  0.00    -0.576 OA
ENDBRANCH  22  28
ENDBRANCH  15  18
ENDBRANCH  14  15
ENDBRANCH  11  14
ENDBRANCH   7  10
ENDBRANCH   4   7
ENDBRANCH   1   3
BRANCH   1  31
ATOM     31  C   UNK d   1       6.081  -0.709  -7.166  0.00  0.00     0.025 C 
ATOM     32  H   UNK d   1       5.998  -0.544  -6.092  0.00  0.00     0.040 H 
ATOM     33  H   UNK d   1       6.630  -1.633  -7.349  0.00  0.00     0.040 H 
BRANCH  31  34
ATOM     34  S   UNK d   1       6.963   0.682  -7.925  0.00  0.00    -0.121 SA
BRANCH  34  35
ATOM     35  C   UNK d   1       7.842   1.412  -6.583  0.00  0.00     0.039 A 
ATOM     36  C   UNK d   1       8.802   2.498  -6.821  0.00  0.00     0.154 A 
ATOM     37  C   UNK d   1       9.501   3.074  -5.656  0.00  0.00     0.212 A 
ATOM     38  N   UNK d   1       9.210   3.125  -7.896  0.00  0.00    -0.048 NA
ATOM     39  C   UNK d   1       9.223   2.543  -4.372  0.00  0.00     0.304 A 
ATOM     40  N   UNK d   1      10.298   4.025  -6.090  0.00  0.00    -0.042 NA
ATOM     41  C   UNK d   1       8.330   1.537  -4.227  0.00  0.00     0.019 A 
ATOM     42  C   UNK d   1       7.646   0.976  -5.306  0.00  0.00    -0.040 A 
ATOM     43  H   UNK d   1       8.137   1.155  -3.235  0.00  0.00     0.069 H 
ATOM     44  H   UNK d   1       6.945   0.175  -5.126  0.00  0.00     0.063 H 
ATOM     45  O   UNK d   1      10.163   4.097  -7.499  0.00  0.00    -0.241 OA
BRANCH  39  46
ATOM     46  N   UNK d   1       9.912   3.094  -3.182  0.00  0.00     0.082 N 
ATOM     47  O   UNK d   1      10.847   2.502  -2.698  0.00  0.00     0.042 OA
ATOM     48  O   UNK d   1       9.540   4.136  -2.696  0.00  0.00    -0.576 OA
ENDBRANCH  39  46
ENDBRANCH  34  35
ENDBRANCH  31  34
ENDBRANCH   1  31
BRANCH   1  49
ATOM     49  C   UNK d   1       4.556  -2.126  -8.514  0.00  0.00     0.234 C 
ATOM     50  O   UNK d   1       4.805  -2.179  -9.700  0.00  0.00    -0.274 OA
ATOM     51  N   GLY d   2       4.167  -3.237  -7.857  0.00  0.00    -0.308 N 
ATOM     52  CA  GLY d   2       4.044  -4.508  -8.575  0.00  0.00     0.051 C 
ATOM     53  H   GLY d   2       3.968  -3.194  -6.908  0.00  0.00     0.149 HD
ATOM     54  C   GLY d   2       3.598  -5.584  -7.620  0.00  0.00     0.059 C 
ATOM     55  HA1 GLY d   2       3.310  -4.404  -9.375  0.00  0.00     0.052 H 
ATOM     56  HA2 GLY d   2       5.010  -4.779  -9.002  0.00  0.00     0.052 H 
ATOM     57  O   GLY d   2       3.400  -5.314  -6.448  0.00  0.00    -0.548 OA
ATOM     58  OXT GLY d   2       3.433  -6.724  -8.018  0.00  0.00    -0.548 OA
ENDBRANCH   1  49
TORSDOF 14
ENDMDL
MODEL 3
REMARK VINA RESULT:      -7.1      3.820      9.216
REMARK  12 active torsions:
REMARK  status: ('A' for Active; 'I' for Inactive)
REMARK    1  A    between atoms: C_3  and  N_39 
REMARK    2  A    between atoms: C_6  and  C_7 
REMARK    3  A    between atoms: C_7  and  O_8 
REMARK    4  A    between atoms: O_8  and  C_9 
REMARK       I    between atoms: C_9  and  N_11 
REMARK    5  A    between atoms: N_11  and  C_12 
REMARK    6  A    between atoms: C_12  and  C_13 
REMARK       I    between atoms: C_13  and  N_15 
REMARK    7  A    between atoms: N_15  and  C_16 
REMARK    8  A    between atoms: C_16  and  C_18 
REMARK    9  A    between atoms: C_16  and  C_32 
REMARK   10  A    between atoms: C_18  and  S_19 
REMARK   11  A    between atoms: S_19  and  C_20 
REMARK   12  A    between atoms: C_23  and  N_29 
REMARK       I    between atoms: C_32  and  N_34 
REMARK       I    between atoms: N_34  and  CA_35 
REMARK       I    between atoms: CA_35  and  C_36 
ROOT
ATOM      1  C   UNK d   1       6.616  -0.432  -3.536  0.00  0.00     0.109 C 
ATOM      2  H   UNK d   1       6.728  -0.900  -2.557  0.00  0.00     0.060 H 
ENDROOT
BRANCH   1   3
ATOM      3  N   UNK d   1       5.192  -0.308  -3.858  0.00  0.00    -0.302 N 
ATOM      4  C   UNK d   0       4.264  -0.527  -2.906  0.00  0.00     0.231 C 
ATOM      5  O   UNK d   0       4.607  -0.824  -1.782  0.00  0.00    -0.274 OA
ATOM      6  H   UNK d   1       4.917  -0.070  -4.758  0.00  0.00     0.149 HD
BRANCH   4   7
ATOM      7  C   UNK d   0       2.799  -0.399  -3.238  0.00  0.00     0.091 C 
ATOM      8  H   UNK d   0       2.451   0.597  -2.966  0.00  0.00     0.056 H 
ATOM      9  H   UNK d   0       2.234  -1.147  -2.682  0.00  0.00     0.056 H 
BRANCH   7  10
ATOM     10  N   UNK d   0       2.604  -0.609  -4.675  0.00  0.00    -0.273 N 
ATOM     11  C   UNK d   0       2.587   0.445  -5.514  0.00  0.00     0.401 C 
ATOM     12  O   UNK d   0       2.734   1.571  -5.078  0.00  0.00    -0.227 OA
ATOM     13  H   UNK d   0       2.486  -1.508  -5.023  0.00  0.00     0.152 HD
BRANCH  11  14
ATOM     14  O   UNK d   0       2.407   0.254  -6.834  0.00  0.00    -0.446 OA
BRANCH  14  15
ATOM     15  C   UNK d   0       2.888   1.274  -7.710  0.00  0.00     0.119 C 
ATOM     16  H   UNK d   0       3.864   1.617  -7.366  0.00  0.00     0.075 H 
ATOM     17  H   UNK d   0       2.189   2.110  -7.712  0.00  0.00     0.075 H 
BRANCH  15  18
ATOM     18  C   UNK d   0       3.013   0.721  -9.106  0.00  0.00    -0.010 A 
ATOM     19  C   UNK d   0       2.060  -0.155  -9.590  0.00  0.00    -0.049 A 
ATOM     20  C   UNK d   0       2.175  -0.663 -10.871  0.00  0.00     0.016 A 
ATOM     21  H   UNK d   0       1.223  -0.439  -8.970  0.00  0.00     0.062 H 
ATOM     22  C   UNK d   0       3.243  -0.295 -11.667  0.00  0.00     0.273 A 
ATOM     23  H   UNK d   0       1.430  -1.347 -11.249  0.00  0.00     0.069 H 
ATOM     24  C   UNK d   0       4.196   0.581 -11.183  0.00  0.00     0.016 A 
ATOM     25  C   UNK d   0       4.081   1.090  -9.902  0.00  0.00    -0.049 A 
ATOM     26  H   UNK d   0       5.032   0.868 -11.804  0.00  0.00     0.069 H 
ATOM     27  H   UNK d   0       4.826   1.774  -9.524  0.00  0.00     0.062 H 
BRANCH  22  28
ATOM     28  N   UNK d   0       3.367  -0.840 -13.038  0.00  0.00     0.080 N 
ATOM     29  O   UNK d   0       4.265  -0.469 -13.757  0.00  0.00     0.041 OA
ATOM     30  O   UNK d   0       2.570  -1.655 -13.439  0.00  0.00    -0.576 OA
ENDBRANCH  22  28
ENDBRANCH  15  18
ENDBRANCH  14  15
ENDBRANCH  11  14
ENDBRANCH   7  10
ENDBRANCH   4   7
ENDBRANCH   1   3
BRANCH   1  31
ATOM     31  C   UNK d   1       7.306  -1.293  -4.596  0.00  0.00     0.025 C 
ATOM     32  H   UNK d   1       7.082  -0.899  -5.586  0.00  0.00     0.040 H 
ATOM     33  H   UNK d   1       8.384  -1.274  -4.433  0.00  0.00     0.040 H 
BRANCH  31  34
ATOM     34  S   UNK d   1       6.705  -3.000  -4.473  0.00  0.00    -0.121 SA
BRANCH  34  35
ATOM     35  C   UNK d   1       5.779  -3.232  -5.955  0.00  0.00     0.039 A 
ATOM     36  C   UNK d   1       5.006  -4.462  -6.169  0.00  0.00     0.154 A 
ATOM     37  C   UNK d   1       4.246  -4.595  -7.426  0.00  0.00     0.212 A 
ATOM     38  N   UNK d   1       4.814  -5.545  -5.457  0.00  0.00    -0.048 NA
ATOM     39  C   UNK d   1       4.309  -3.538  -8.367  0.00  0.00     0.304 A 
ATOM     40  N   UNK d   1       3.629  -5.755  -7.407  0.00  0.00    -0.042 NA
ATOM     41  C   UNK d   1       5.046  -2.434  -8.107  0.00  0.00     0.019 A 
ATOM     42  C   UNK d   1       5.771  -2.273  -6.926  0.00  0.00    -0.040 A 
ATOM     43  H   UNK d   1       5.074  -1.644  -8.844  0.00  0.00     0.069 H 
ATOM     44  H   UNK d   1       6.340  -1.368  -6.776  0.00  0.00     0.063 H 
ATOM     45  O   UNK d   1       3.957  -6.404  -6.191  0.00  0.00    -0.241 OA
BRANCH  39  46
ATOM     46  N   UNK d   1       3.563  -3.642  -9.643  0.00  0.00     0.082 N 
ATOM     47  O   UNK d   1       4.151  -3.570 -10.695  0.00  0.00     0.042 OA
ATOM     48  O   UNK d   1       2.364  -3.799  -9.630  0.00  0.00    -0.576 OA
ENDBRANCH  39  46
ENDBRANCH  34  35
ENDBRANCH  31  34
ENDBRANCH   1  31
BRANCH   1  49
ATOM     49  C   UNK d   1       7.246   0.937  -3.512  0.00  0.00     0.234 C 
ATOM     50  O   UNK d   1       6.555   1.919  -3.338  0.00  0.00    -0.274 OA
ATOM     51  N   GLY d   2       8.576   1.070  -3.683  0.00  0.00    -0.308 N 
ATOM     52  CA  GLY d   2       9.188   2.401  -3.659  0.00  0.00     0.051 C 
ATOM     53  H   GLY d   2       9.128   0.284  -3.822  0.00  0.00     0.149 HD
ATOM     54  C   GLY d   2      10.674   2.273  -3.873  0.00  0.00     0.059 C 
ATOM     55  HA1 GLY d   2       8.758   3.012  -4.453  0.00  0.00     0.052 H 
ATOM     56  HA2 GLY d   2       8.998   2.871  -2.695  0.00  0.00     0.052 H 
ATOM     57  O   GLY d   2      11.175   1.173  -4.030  0.00  0.00    -0.548 OA
ATOM     58  OXT GLY d   2      11.376   3.270  -3.889  0.00  0.00    -0.548 OA
ENDBRANCH   1  49
TORSDOF 14
ENDMDL
MODEL 4
REMARK VINA RESULT:      -7.0      3.372      7.930
REMARK  12 active torsions:
REMARK  status: ('A' for Active; 'I' for Inactive)
REMARK    1  A    between atoms: C_3  and  N_39 
REMARK    2  A    between atoms: C_6  and  C_7 
REMARK    3  A    between atoms: C_7  and  O_8 
REMARK    4  A    between atoms: O_8  and  C_9 
REMARK       I    between atoms: C_9  and  N_11 
REMARK    5  A    between atoms: N_11  and  C_12 
REMARK    6  A    between atoms: C_12  and  C_13 
REMARK       I    between atoms: C_13  and  N_15 
REMARK    7  A    between atoms: N_15  and  C_16 
REMARK    8  A    between atoms: C_16  and  C_18 
REMARK    9  A    between atoms: C_16  and  C_32 
REMARK   10  A    between atoms: C_18  and  S_19 
REMARK   11  A    between atoms: S_19  and  C_20 
REMARK   12  A    between atoms: C_23  and  N_29 
REMARK       I    between atoms: C_32  and  N_34 
REMARK       I    between atoms: N_34  and  CA_35 
REMARK       I    between atoms: CA_35  and  C_36 
ROOT
ATOM      1  C   UNK d   1       5.049  -6.150  -6.468  0.00  0.00     0.109 C 
ATOM      2  H   UNK d   1       5.968  -5.964  -7.025  0.00  0.00     0.060 H 
ENDROOT
BRANCH   1   3
ATOM      3  N   UNK d   1       3.914  -6.177  -7.393  0.00  0.00    -0.302 N 
ATOM      4  C   UNK d   0       4.127  -6.123  -8.723  0.00  0.00     0.231 C 
ATOM      5  O   UNK d   0       5.258  -6.055  -9.154  0.00  0.00    -0.274 OA
ATOM      6  H   UNK d   1       3.008  -6.232  -7.049  0.00  0.00     0.149 HD
BRANCH   4   7
ATOM      7  C   UNK d   0       2.958  -6.150  -9.675  0.00  0.00     0.091 C 
ATOM      8  H   UNK d   0       2.360  -7.042  -9.490  0.00  0.00     0.056 H 
ATOM      9  H   UNK d   0       3.326  -6.166 -10.701  0.00  0.00     0.056 H 
BRANCH   7  10
ATOM     10  N   UNK d   0       2.134  -4.957  -9.470  0.00  0.00    -0.273 N 
ATOM     11  C   UNK d   0       1.892  -4.120 -10.498  0.00  0.00     0.401 C 
ATOM     12  O   UNK d   0       2.358  -4.356 -11.596  0.00  0.00    -0.227 OA
ATOM     13  H   UNK d   0       1.763  -4.768  -8.593  0.00  0.00     0.152 HD
BRANCH  11  14
ATOM     14  O   UNK d   0       1.135  -3.023 -10.311  0.00  0.00    -0.446 OA
BRANCH  14  15
ATOM     15  C   UNK d   0       1.201  -2.009 -11.314  0.00  0.00     0.119 C 
ATOM     16  H   UNK d   0       0.201  -1.619 -11.502  0.00  0.00     0.075 H 
ATOM     17  H   UNK d   0       1.605  -2.433 -12.233  0.00  0.00     0.075 H 
BRANCH  15  18
ATOM     18  C   UNK d   0       2.095  -0.891 -10.842  0.00  0.00    -0.010 A 
ATOM     19  C   UNK d   0       3.137  -0.457 -11.639  0.00  0.00    -0.049 A 
ATOM     20  C   UNK d   0       3.959   0.568 -11.205  0.00  0.00     0.016 A 
ATOM     21  H   UNK d   0       3.309  -0.915 -12.601  0.00  0.00     0.062 H 
ATOM     22  C   UNK d   0       3.736   1.158  -9.975  0.00  0.00     0.273 A 
ATOM     23  H   UNK d   0       4.773   0.907 -11.828  0.00  0.00     0.069 H 
ATOM     24  C   UNK d   0       2.693   0.724  -9.179  0.00  0.00     0.016 A 
ATOM     25  C   UNK d   0       1.872  -0.301  -9.612  0.00  0.00    -0.049 A 
ATOM     26  H   UNK d   0       2.519   1.184  -8.217  0.00  0.00     0.069 H 
ATOM     27  H   UNK d   0       1.057  -0.640  -8.990  0.00  0.00     0.062 H 
BRANCH  22  28
ATOM     28  N   UNK d   0       4.615   2.255  -9.511  0.00  0.00     0.080 N 
ATOM     29  O   UNK d   0       5.815   2.107  -9.506  0.00  0.00     0.041 OA
ATOM     30  O   UNK d   0       4.133   3.298  -9.136  0.00  0.00    -0.576 OA
ENDBRANCH  22  28
ENDBRANCH  15  18
ENDBRANCH  14  15
ENDBRANCH  11  14
ENDBRANCH   7  10
ENDBRANCH   4   7
ENDBRANCH   1   3
BRANCH   1  31
ATOM     31  C   UNK d   1       4.843  -5.038  -5.438  0.00  0.00     0.025 C 
ATOM     32  H   UNK d   1       3.875  -4.566  -5.603  0.00  0.00     0.040 H 
ATOM     33  H   UNK d   1       4.873  -5.462  -4.435  0.00  0.00     0.040 H 
BRANCH  31  34
ATOM     34  S   UNK d   1       6.157  -3.801  -5.614  0.00  0.00    -0.121 SA
BRANCH  34  35
ATOM     35  C   UNK d   1       5.626  -2.467  -4.592  0.00  0.00     0.039 A 
ATOM     36  C   UNK d   1       6.164  -1.114  -4.788  0.00  0.00     0.154 A 
ATOM     37  C   UNK d   1       5.675  -0.038  -3.906  0.00  0.00     0.212 A 
ATOM     38  N   UNK d   1       7.031  -0.599  -5.623  0.00  0.00    -0.048 NA
ATOM     39  C   UNK d   1       4.724  -0.364  -2.907  0.00  0.00     0.304 A 
ATOM     40  N   UNK d   1       6.273   1.078  -4.256  0.00  0.00    -0.042 NA
ATOM     41  C   UNK d   1       4.276  -1.634  -2.778  0.00  0.00     0.019 A 
ATOM     42  C   UNK d   1       4.712  -2.673  -3.600  0.00  0.00    -0.040 A 
ATOM     43  H   UNK d   1       3.550  -1.852  -2.008  0.00  0.00     0.069 H 
ATOM     44  H   UNK d   1       4.317  -3.667  -3.448  0.00  0.00     0.063 H 
ATOM     45  O   UNK d   1       7.149   0.784  -5.331  0.00  0.00    -0.241 OA
BRANCH  39  46
ATOM     46  N   UNK d   1       4.217   0.692  -2.000  0.00  0.00     0.082 N 
ATOM     47  O   UNK d   1       3.106   1.139  -2.154  0.00  0.00     0.042 OA
ATOM     48  O   UNK d   1       4.916   1.105  -1.104  0.00  0.00    -0.576 OA
ENDBRANCH  39  46
ENDBRANCH  34  35
ENDBRANCH  31  34
ENDBRANCH   1  31
BRANCH   1  49
ATOM     49  C   UNK d   1       5.151  -7.477  -5.761  0.00  0.00     0.234 C 
ATOM     50  O   UNK d   1       4.250  -8.284  -5.852  0.00  0.00    -0.274 OA
ATOM     51  N   GLY d   2       6.243  -7.768  -5.027  0.00  0.00    -0.308 N 
ATOM     52  CA  GLY d   2       6.343  -9.058  -4.339  0.00  0.00     0.051 C 
ATOM     53  H   GLY d   2       6.964  -7.122  -4.954  0.00  0.00     0.149 HD
ATOM     54  C   GLY d   2       7.651  -9.131  -3.595  0.00  0.00     0.059 C 
ATOM     55  HA1 GLY d   2       5.517  -9.157  -3.634  0.00  0.00     0.052 H 
ATOM     56  HA2 GLY d   2       6.295  -9.864  -5.071  0.00  0.00     0.052 H 
ATOM     57  O   GLY d   2       8.428  -8.193  -3.636  0.00  0.00    -0.548 OA
ATOM     58  OXT GLY d   2       7.932 -10.128  -2.953  0.00  0.00    -0.548 OA
ENDBRANCH   1  49
TORSDOF 14
ENDMDL
MODEL 5
REMARK VINA RESULT:      -6.9      8.135     11.136
REMARK  12 active torsions:
REMARK  status: ('A' for Active; 'I' for Inactive)
REMARK    1  A    between atoms: C_3  and  N_39 
REMARK    2  A    between atoms: C_6  and  C_7 
REMARK    3  A    between atoms: C_7  and  O_8 
REMARK    4  A    between atoms: O_8  and  C_9 
REMARK       I    between atoms: C_9  and  N_11 
REMARK    5  A    between atoms: N_11  and  C_12 
REMARK    6  A    between atoms: C_12  and  C_13 
REMARK       I    between atoms: C_13  and  N_15 
REMARK    7  A    between atoms: N_15  and  C_16 
REMARK    8  A    between atoms: C_16  and  C_18 
REMARK    9  A    between atoms: C_16  and  C_32 
REMARK   10  A    between atoms: C_18  and  S_19 
REMARK   11  A    between atoms: S_19  and  C_20 
REMARK   12  A    between atoms: C_23  and  N_29 
REMARK       I    between atoms: C_32  and  N_34 
REMARK       I    between atoms: N_34  and  CA_35 
REMARK       I    between atoms: CA_35  and  C_36 
ROOT
ATOM      1  C   UNK d   1       8.317 -10.058  -2.590  0.00  0.00     0.109 C 
ATOM      2  H   UNK d   1       8.486 -10.620  -3.510  0.00  0.00     0.060 H 
ENDROOT
BRANCH   1   3
ATOM      3  N   UNK d   1       8.718  -8.664  -2.789  0.00  0.00    -0.302 N 
ATOM      4  C   UNK d   0       8.574  -8.087  -3.998  0.00  0.00     0.231 C 
ATOM      5  O   UNK d   0       8.111  -8.721  -4.922  0.00  0.00    -0.274 OA
ATOM      6  H   UNK d   1       9.089  -8.155  -2.050  0.00  0.00     0.149 HD
BRANCH   4   7
ATOM      7  C   UNK d   0       8.987  -6.651  -4.203  0.00  0.00     0.091 C 
ATOM      8  H   UNK d   0       9.924  -6.620  -4.758  0.00  0.00     0.056 H 
ATOM      9  H   UNK d   0       9.122  -6.171  -3.234  0.00  0.00     0.056 H 
BRANCH   7  10
ATOM     10  N   UNK d   0       7.948  -5.947  -4.958  0.00  0.00    -0.273 N 
ATOM     11  C   UNK d   0       7.787  -4.618  -4.804  0.00  0.00     0.401 C 
ATOM     12  O   UNK d   0       8.505  -4.004  -4.039  0.00  0.00    -0.227 OA
ATOM     13  H   UNK d   0       7.374  -6.438  -5.568  0.00  0.00     0.152 HD
BRANCH  11  14
ATOM     14  O   UNK d   0       6.832  -3.970  -5.497  0.00  0.00    -0.446 OA
BRANCH  14  15
ATOM     15  C   UNK d   0       5.513  -3.978  -4.949  0.00  0.00     0.119 C 
ATOM     16  H   UNK d   0       5.433  -4.773  -4.208  0.00  0.00     0.075 H 
ATOM     17  H   UNK d   0       4.790  -4.149  -5.745  0.00  0.00     0.075 H 
BRANCH  15  18
ATOM     18  C   UNK d   0       5.234  -2.650  -4.292  0.00  0.00    -0.010 A 
ATOM     19  C   UNK d   0       4.289  -2.562  -3.287  0.00  0.00    -0.049 A 
ATOM     20  C   UNK d   0       4.032  -1.344  -2.685  0.00  0.00     0.016 A 
ATOM     21  H   UNK d   0       3.755  -3.444  -2.969  0.00  0.00     0.062 H 
ATOM     22  C   UNK d   0       4.720  -0.215  -3.089  0.00  0.00     0.273 A 
ATOM     23  H   UNK d   0       3.294  -1.275  -1.901  0.00  0.00     0.069 H 
ATOM     24  C   UNK d   0       5.665  -0.303  -4.093  0.00  0.00     0.016 A 
ATOM     25  C   UNK d   0       5.922  -1.521  -4.695  0.00  0.00    -0.049 A 
ATOM     26  H   UNK d   0       6.202   0.579  -4.410  0.00  0.00     0.069 H 
ATOM     27  H   UNK d   0       6.661  -1.590  -5.481  0.00  0.00     0.062 H 
BRANCH  22  28
ATOM     28  N   UNK d   0       4.444   1.089  -2.445  0.00  0.00     0.080 N 
ATOM     29  O   UNK d   0       4.751   1.270  -1.290  0.00  0.00     0.041 OA
ATOM     30  O   UNK d   0       3.913   1.974  -3.075  0.00  0.00    -0.576 OA
ENDBRANCH  22  28
ENDBRANCH  15  18
ENDBRANCH  14  15
ENDBRANCH  11  14
ENDBRANCH   7  10
ENDBRANCH   4   7
ENDBRANCH   1   3
BRANCH   1  31
ATOM     31  C   UNK d   1       9.144 -10.671  -1.458  0.00  0.00     0.025 C 
ATOM     32  H   UNK d   1       8.475 -11.087  -0.705  0.00  0.00     0.040 H 
ATOM     33  H   UNK d   1       9.777 -11.463  -1.858  0.00  0.00     0.040 H 
BRANCH  31  34
ATOM     34  S   UNK d   1      10.180  -9.388  -0.704  0.00  0.00    -0.121 SA
BRANCH  34  35
ATOM     35  C   UNK d   1      10.640 -10.072   0.853  0.00  0.00     0.039 A 
ATOM     36  C   UNK d   1      11.136  -9.208   1.932  0.00  0.00     0.154 A 
ATOM     37  C   UNK d   1      11.498  -9.839   3.216  0.00  0.00     0.212 A 
ATOM     38  N   UNK d   1      11.344  -7.919   2.035  0.00  0.00    -0.048 NA
ATOM     39  C   UNK d   1      11.362 -11.244   3.339  0.00  0.00     0.304 A 
ATOM     40  N   UNK d   1      11.905  -8.893   4.033  0.00  0.00    -0.042 NA
ATOM     41  C   UNK d   1      10.903 -11.980   2.301  0.00  0.00     0.019 A 
ATOM     42  C   UNK d   1      10.546 -11.414   1.077  0.00  0.00    -0.040 A 
ATOM     43  H   UNK d   1      10.809 -13.049   2.425  0.00  0.00     0.069 H 
ATOM     44  H   UNK d   1      10.186 -12.055   0.285  0.00  0.00     0.063 H 
ATOM     45  O   UNK d   1      11.838  -7.659   3.339  0.00  0.00    -0.241 OA
BRANCH  39  46
ATOM     46  N   UNK d   1      11.723 -11.910   4.612  0.00  0.00     0.082 N 
ATOM     47  O   UNK d   1      10.856 -12.322   5.346  0.00  0.00     0.042 OA
ATOM     48  O   UNK d   1      12.885 -12.041   4.917  0.00  0.00    -0.576 OA
ENDBRANCH  39  46
ENDBRANCH  34  35
ENDBRANCH  31  34
ENDBRANCH   1  31
BRANCH   1  49
ATOM     49  C   UNK d   1       6.854 -10.113  -2.231  0.00  0.00     0.234 C 
ATOM     50  O   UNK d   1       6.496  -9.851  -1.102  0.00  0.00    -0.274 OA
ATOM     51  N   GLY d   2       5.943 -10.455  -3.164  0.00  0.00    -0.308 N 
ATOM     52  CA  GLY d   2       4.521 -10.508  -2.815  0.00  0.00     0.051 C 
ATOM     53  H   GLY d   2       6.229 -10.664  -4.067  0.00  0.00     0.149 HD
ATOM     54  C   GLY d   2       3.721 -10.911  -4.026  0.00  0.00     0.059 C 
ATOM     55  HA1 GLY d   2       4.370 -11.239  -2.020  0.00  0.00     0.052 H 
ATOM     56  HA2 GLY d   2       4.194  -9.526  -2.473  0.00  0.00     0.052 H 
ATOM     57  O   GLY d   2       4.286 -11.133  -5.083  0.00  0.00    -0.548 OA
ATOM     58  OXT GLY d   2       2.509 -11.016  -3.950  0.00  0.00    -0.548 OA
ENDBRANCH   1  49
TORSDOF 14
ENDMDL
MODEL 6
REMARK VINA RESULT:      -6.9      2.578      8.712
REMARK  12 active torsions:
REMARK  status: ('A' for Active; 'I' for Inactive)
REMARK    1  A    between atoms: C_3  and  N_39 
REMARK    2  A    between atoms: C_6  and  C_7 
REMARK    3  A    between atoms: C_7  and  O_8 
REMARK    4  A    between atoms: O_8  and  C_9 
REMARK       I    between atoms: C_9  and  N_11 
REMARK    5  A    between atoms: N_11  and  C_12 
REMARK    6  A    between atoms: C_12  and  C_13 
REMARK       I    between atoms: C_13  and  N_15 
REMARK    7  A    between atoms: N_15  and  C_16 
REMARK    8  A    between atoms: C_16  and  C_18 
REMARK    9  A    between atoms: C_16  and  C_32 
REMARK   10  A    between atoms: C_18  and  S_19 
REMARK   11  A    between atoms: S_19  and  C_20 
REMARK   12  A    between atoms: C_23  and  N_29 
REMARK       I    between atoms: C_32  and  N_34 
REMARK       I    between atoms: N_34  and  CA_35 
REMARK       I    between atoms: CA_35  and  C_36 
ROOT
ATOM      1  C   UNK d   1       3.994  -0.696  -7.504  0.00  0.00     0.109 C 
ATOM      2  H   UNK d   1       4.669  -0.489  -8.335  0.00  0.00     0.060 H 
ENDROOT
BRANCH   1   3
ATOM      3  N   UNK d   1       3.592  -2.104  -7.542  0.00  0.00    -0.302 N 
ATOM      4  C   UNK d   0       4.164  -2.946  -8.425  0.00  0.00     0.231 C 
ATOM      5  O   UNK d   0       5.014  -2.538  -9.187  0.00  0.00    -0.274 OA
ATOM      6  H   UNK d   1       2.911  -2.431  -6.931  0.00  0.00     0.149 HD
BRANCH   4   7
ATOM      7  C   UNK d   0       3.749  -4.394  -8.463  0.00  0.00     0.091 C 
ATOM      8  H   UNK d   0       3.413  -4.702  -7.473  0.00  0.00     0.056 H 
ATOM      9  H   UNK d   0       4.598  -5.007  -8.766  0.00  0.00     0.056 H 
BRANCH   7  10
ATOM     10  N   UNK d   0       2.656  -4.564  -9.425  0.00  0.00    -0.273 N 
ATOM     11  C   UNK d   0       2.209  -5.799  -9.725  0.00  0.00     0.401 C 
ATOM     12  O   UNK d   0       2.712  -6.772  -9.198  0.00  0.00    -0.227 OA
ATOM     13  H   UNK d   0       2.256  -3.787  -9.846  0.00  0.00     0.152 HD
BRANCH  11  14
ATOM     14  O   UNK d   0       1.206  -5.955 -10.609  0.00  0.00    -0.446 OA
BRANCH  14  15
ATOM     15  C   UNK d   0       0.182  -6.892 -10.269  0.00  0.00     0.119 C 
ATOM     16  H   UNK d   0       0.416  -7.354  -9.311  0.00  0.00     0.075 H 
ATOM     17  H   UNK d   0       0.123  -7.661 -11.039  0.00  0.00     0.075 H 
BRANCH  15  18
ATOM     18  C   UNK d   0      -1.141  -6.177 -10.172  0.00  0.00    -0.010 A 
ATOM     19  C   UNK d   0      -1.455  -5.179 -11.075  0.00  0.00    -0.049 A 
ATOM     20  C   UNK d   0      -2.669  -4.522 -10.985  0.00  0.00     0.016 A 
ATOM     21  H   UNK d   0      -0.755  -4.914 -11.852  0.00  0.00     0.062 H 
ATOM     22  C   UNK d   0      -3.568  -4.865  -9.993  0.00  0.00     0.273 A 
ATOM     23  H   UNK d   0      -2.914  -3.743 -11.690  0.00  0.00     0.069 H 
ATOM     24  C   UNK d   0      -3.255  -5.864  -9.091  0.00  0.00     0.016 A 
ATOM     25  C   UNK d   0      -2.041  -6.521  -9.180  0.00  0.00    -0.049 A 
ATOM     26  H   UNK d   0      -3.956  -6.132  -8.315  0.00  0.00     0.069 H 
ATOM     27  H   UNK d   0      -1.796  -7.301  -8.475  0.00  0.00     0.062 H 
BRANCH  22  28
ATOM     28  N   UNK d   0      -4.868  -4.163  -9.896  0.00  0.00     0.080 N 
ATOM     29  O   UNK d   0      -5.621  -4.152 -10.842  0.00  0.00     0.041 OA
ATOM     30  O   UNK d   0      -5.176  -3.599  -8.872  0.00  0.00    -0.576 OA
ENDBRANCH  22  28
ENDBRANCH  15  18
ENDBRANCH  14  15
ENDBRANCH  11  14
ENDBRANCH   7  10
ENDBRANCH   4   7
ENDBRANCH   1   3
BRANCH   1  31
ATOM     31  C   UNK d   1       2.755   0.193  -7.619  0.00  0.00     0.025 C 
ATOM     32  H   UNK d   1       1.879  -0.428  -7.804  0.00  0.00     0.040 H 
ATOM     33  H   UNK d   1       2.618   0.747  -6.690  0.00  0.00     0.040 H 
BRANCH  31  34
ATOM     34  S   UNK d   1       2.972   1.358  -8.992  0.00  0.00    -0.121 SA
BRANCH  34  35
ATOM     35  C   UNK d   1       3.181   0.320 -10.401  0.00  0.00     0.039 A 
ATOM     36  C   UNK d   1       2.332  -0.864 -10.590  0.00  0.00     0.154 A 
ATOM     37  C   UNK d   1       2.550  -1.690 -11.793  0.00  0.00     0.212 A 
ATOM     38  N   UNK d   1       1.356  -1.396  -9.898  0.00  0.00    -0.048 NA
ATOM     39  C   UNK d   1       3.573  -1.308 -12.697  0.00  0.00     0.304 A 
ATOM     40  N   UNK d   1       1.688  -2.681 -11.767  0.00  0.00    -0.042 NA
ATOM     41  C   UNK d   1       4.322  -0.207 -12.456  0.00  0.00     0.019 A 
ATOM     42  C   UNK d   1       4.137   0.599 -11.333  0.00  0.00    -0.040 A 
ATOM     43  H   UNK d   1       5.094   0.059 -13.164  0.00  0.00     0.069 H 
ATOM     44  H   UNK d   1       4.767   1.466 -11.197  0.00  0.00     0.063 H 
ATOM     45  O   UNK d   1       0.912  -2.553 -10.589  0.00  0.00    -0.241 OA
BRANCH  39  46
ATOM     46  N   UNK d   1       3.823  -2.118 -13.911  0.00  0.00     0.082 N 
ATOM     47  O   UNK d   1       3.389  -1.756 -14.979  0.00  0.00     0.042 OA
ATOM     48  O   UNK d   1       4.462  -3.142 -13.834  0.00  0.00    -0.576 OA
ENDBRANCH  39  46
ENDBRANCH  34  35
ENDBRANCH  31  34
ENDBRANCH   1  31
BRANCH   1  49
ATOM     49  C   UNK d   1       4.699  -0.411  -6.203  0.00  0.00     0.234 C 
ATOM     50  O   UNK d   1       5.735   0.221  -6.200  0.00  0.00    -0.274 OA
ATOM     51  N   GLY d   2       4.180  -0.858  -5.042  0.00  0.00    -0.308 N 
ATOM     52  CA  GLY d   2       4.865  -0.580  -3.777  0.00  0.00     0.051 C 
ATOM     53  H   GLY d   2       3.352  -1.363  -5.045  0.00  0.00     0.149 HD
ATOM     54  C   GLY d   2       4.084  -1.184  -2.640  0.00  0.00     0.059 C 
ATOM     55  HA1 GLY d   2       5.865  -1.015  -3.803  0.00  0.00     0.052 H 
ATOM     56  HA2 GLY d   2       4.941   0.498  -3.634  0.00  0.00     0.052 H 
ATOM     57  O   GLY d   2       3.050  -1.790  -2.864  0.00  0.00    -0.548 OA
ATOM     58  OXT GLY d   2       4.485  -1.068  -1.494  0.00  0.00    -0.548 OA
ENDBRANCH   1  49
TORSDOF 14
ENDMDL
MODEL 7
REMARK VINA RESULT:      -6.8      6.769     11.501
REMARK  12 active torsions:
REMARK  status: ('A' for Active; 'I' for Inactive)
REMARK    1  A    between atoms: C_3  and  N_39 
REMARK    2  A    between atoms: C_6  and  C_7 
REMARK    3  A    between atoms: C_7  and  O_8 
REMARK    4  A    between atoms: O_8  and  C_9 
REMARK       I    between atoms: C_9  and  N_11 
REMARK    5  A    between atoms: N_11  and  C_12 
REMARK    6  A    between atoms: C_12  and  C_13 
REMARK       I    between atoms: C_13  and  N_15 
REMARK    7  A    between atoms: N_15  and  C_16 
REMARK    8  A    between atoms: C_16  and  C_18 
REMARK    9  A    between atoms: C_16  and  C_32 
REMARK   10  A    between atoms: C_18  and  S_19 
REMARK   11  A    between atoms: S_19  and  C_20 
REMARK   12  A    between atoms: C_23  and  N_29 
REMARK       I    between atoms: C_32  and  N_34 
REMARK       I    between atoms: N_34  and  CA_35 
REMARK       I    between atoms: CA_35  and  C_36 
ROOT
ATOM      1  C   UNK d   1       9.977  -8.266  -0.847  0.00  0.00     0.109 C 
ATOM      2  H   UNK d   1       9.276  -7.631  -0.304  0.00  0.00     0.060 H 
ENDROOT
BRANCH   1   3
ATOM      3  N   UNK d   1      10.273  -7.664  -2.149  0.00  0.00    -0.302 N 
ATOM      4  C   UNK d   0      10.064  -6.347  -2.346  0.00  0.00     0.231 C 
ATOM      5  O   UNK d   0       9.631  -5.661  -1.446  0.00  0.00    -0.274 OA
ATOM      6  H   UNK d   1      10.620  -8.213  -2.870  0.00  0.00     0.149 HD
BRANCH   4   7
ATOM      7  C   UNK d   0      10.369  -5.727  -3.686  0.00  0.00     0.091 C 
ATOM      8  H   UNK d   0      10.518  -6.515  -4.424  0.00  0.00     0.056 H 
ATOM      9  H   UNK d   0      11.273  -5.125  -3.610  0.00  0.00     0.056 H 
BRANCH   7  10
ATOM     10  N   UNK d   0       9.248  -4.878  -4.098  0.00  0.00    -0.273 N 
ATOM     11  C   UNK d   0       9.431  -3.554  -4.262  0.00  0.00     0.401 C 
ATOM     12  O   UNK d   0      10.526  -3.063  -4.069  0.00  0.00    -0.227 OA
ATOM     13  H   UNK d   0       8.373  -5.270  -4.251  0.00  0.00     0.152 HD
BRANCH  11  14
ATOM     14  O   UNK d   0       8.402  -2.773  -4.640  0.00  0.00    -0.446 OA
BRANCH  14  15
ATOM     15  C   UNK d   0       7.086  -3.247  -4.351  0.00  0.00     0.119 C 
ATOM     16  H   UNK d   0       7.125  -3.930  -3.502  0.00  0.00     0.075 H 
ATOM     17  H   UNK d   0       6.689  -3.770  -5.220  0.00  0.00     0.075 H 
BRANCH  15  18
ATOM     18  C   UNK d   0       6.193  -2.081  -4.016  0.00  0.00    -0.010 A 
ATOM     19  C   UNK d   0       4.836  -2.155  -4.268  0.00  0.00    -0.049 A 
ATOM     20  C   UNK d   0       4.016  -1.084  -3.962  0.00  0.00     0.016 A 
ATOM     21  H   UNK d   0       4.415  -3.050  -4.702  0.00  0.00     0.062 H 
ATOM     22  C   UNK d   0       4.554   0.060  -3.402  0.00  0.00     0.273 A 
ATOM     23  H   UNK d   0       2.957  -1.142  -4.159  0.00  0.00     0.069 H 
ATOM     24  C   UNK d   0       5.910   0.133  -3.149  0.00  0.00     0.016 A 
ATOM     25  C   UNK d   0       6.730  -0.937  -3.455  0.00  0.00    -0.049 A 
ATOM     26  H   UNK d   0       6.331   1.027  -2.713  0.00  0.00     0.069 H 
ATOM     27  H   UNK d   0       7.791  -0.879  -3.258  0.00  0.00     0.062 H 
BRANCH  22  28
ATOM     28  N   UNK d   0       3.677   1.206  -3.074  0.00  0.00     0.080 N 
ATOM     29  O   UNK d   0       3.185   1.864  -3.962  0.00  0.00     0.041 OA
ATOM     30  O   UNK d   0       3.452   1.485  -1.920  0.00  0.00    -0.576 OA
ENDBRANCH  22  28
ENDBRANCH  15  18
ENDBRANCH  14  15
ENDBRANCH  11  14
ENDBRANCH   7  10
ENDBRANCH   4   7
ENDBRANCH   1   3
BRANCH   1  31
ATOM     31  C   UNK d   1       9.358  -9.650  -1.054  0.00  0.00     0.025 C 
ATOM     32  H   UNK d   1      10.012 -10.408  -0.623  0.00  0.00     0.040 H 
ATOM     33  H   UNK d   1       8.385  -9.689  -0.564  0.00  0.00     0.040 H 
BRANCH  31  34
ATOM     34  S   UNK d   1       9.157  -9.962  -2.829  0.00  0.00    -0.121 SA
BRANCH  34  35
ATOM     35  C   UNK d   1       7.411 -10.049  -3.050  0.00  0.00     0.039 A 
ATOM     36  C   UNK d   1       6.729  -9.141  -3.982  0.00  0.00     0.154 A 
ATOM     37  C   UNK d   1       5.266  -9.267  -4.130  0.00  0.00     0.212 A 
ATOM     38  N   UNK d   1       7.140  -8.181  -4.773  0.00  0.00    -0.048 NA
ATOM     39  C   UNK d   1       4.593 -10.246  -3.358  0.00  0.00     0.304 A 
ATOM     40  N   UNK d   1       4.869  -8.374  -5.008  0.00  0.00    -0.042 NA
ATOM     41  C   UNK d   1       5.284 -11.046  -2.514  0.00  0.00     0.019 A 
ATOM     42  C   UNK d   1       6.667 -10.958  -2.356  0.00  0.00    -0.040 A 
ATOM     43  H   UNK d   1       4.742 -11.784  -1.940  0.00  0.00     0.069 H 
ATOM     44  H   UNK d   1       7.162 -11.625  -1.666  0.00  0.00     0.063 H 
ATOM     45  O   UNK d   1       6.008  -7.653  -5.443  0.00  0.00    -0.241 OA
BRANCH  39  46
ATOM     46  N   UNK d   1       3.124 -10.395  -3.477  0.00  0.00     0.082 N 
ATOM     47  O   UNK d   1       2.390  -9.608  -2.926  0.00  0.00     0.042 OA
ATOM     48  O   UNK d   1       2.659 -11.303  -4.126  0.00  0.00    -0.576 OA
ENDBRANCH  39  46
ENDBRANCH  34  35
ENDBRANCH  31  34
ENDBRANCH   1  31
BRANCH   1  49
ATOM     49  C   UNK d   1      11.252  -8.399  -0.054  0.00  0.00     0.234 C 
ATOM     50  O   UNK d   1      12.307  -8.576  -0.626  0.00  0.00    -0.274 OA
ATOM     51  N   GLY d   2      11.219  -8.321   1.291  0.00  0.00    -0.308 N 
ATOM     52  CA  GLY d   2      12.459  -8.450   2.063  0.00  0.00     0.051 C 
ATOM     53  H   GLY d   2      10.376  -8.179   1.749  0.00  0.00     0.149 HD
ATOM     54  C   GLY d   2      12.150  -8.327   3.532  0.00  0.00     0.059 C 
ATOM     55  HA1 GLY d   2      12.909  -9.424   1.866  0.00  0.00     0.052 H 
ATOM     56  HA2 GLY d   2      13.153  -7.662   1.769  0.00  0.00     0.052 H 
ATOM     57  O   GLY d   2      11.002  -8.148   3.901  0.00  0.00    -0.548 OA
ATOM     58  OXT GLY d   2      13.048  -8.406   4.353  0.00  0.00    -0.548 OA
ENDBRANCH   1  49
TORSDOF 14
ENDMDL
MODEL 8
REMARK VINA RESULT:      -6.8      3.176      5.617
REMARK  12 active torsions:
REMARK  status: ('A' for Active; 'I' for Inactive)
REMARK    1  A    between atoms: C_3  and  N_39 
REMARK    2  A    between atoms: C_6  and  C_7 
REMARK    3  A    between atoms: C_7  and  O_8 
REMARK    4  A    between atoms: O_8  and  C_9 
REMARK       I    between atoms: C_9  and  N_11 
REMARK    5  A    between atoms: N_11  and  C_12 
REMARK    6  A    between atoms: C_12  and  C_13 
REMARK       I    between atoms: C_13  and  N_15 
REMARK    7  A    between atoms: N_15  and  C_16 
REMARK    8  A    between atoms: C_16  and  C_18 
REMARK    9  A    between atoms: C_16  and  C_32 
REMARK   10  A    between atoms: C_18  and  S_19 
REMARK   11  A    between atoms: S_19  and  C_20 
REMARK   12  A    between atoms: C_23  and  N_29 
REMARK       I    between atoms: C_32  and  N_34 
REMARK       I    between atoms: N_34  and  CA_35 
REMARK       I    between atoms: CA_35  and  C_36 
ROOT
ATOM      1  C   UNK d   1       3.475  -1.744 -11.508  0.00  0.00     0.109 C 
ATOM      2  H   UNK d   1       2.733  -1.190 -10.932  0.00  0.00     0.060 H 
ENDROOT
BRANCH   1   3
ATOM      3  N   UNK d   1       3.838  -2.967 -10.789  0.00  0.00    -0.302 N 
ATOM      4  C   UNK d   0       2.951  -3.551  -9.960  0.00  0.00     0.231 C 
ATOM      5  O   UNK d   0       1.851  -3.064  -9.810  0.00  0.00    -0.274 OA
ATOM      6  H   UNK d   1       4.719  -3.358 -10.910  0.00  0.00     0.149 HD
BRANCH   4   7
ATOM      7  C   UNK d   0       3.325  -4.810  -9.221  0.00  0.00     0.091 C 
ATOM      8  H   UNK d   0       4.362  -5.063  -9.437  0.00  0.00     0.056 H 
ATOM      9  H   UNK d   0       2.677  -5.625  -9.541  0.00  0.00     0.056 H 
BRANCH   7  10
ATOM     10  N   UNK d   0       3.164  -4.596  -7.780  0.00  0.00    -0.273 N 
ATOM     11  C   UNK d   0       4.221  -4.738  -6.956  0.00  0.00     0.401 C 
ATOM     12  O   UNK d   0       5.308  -5.043  -7.409  0.00  0.00    -0.227 OA
ATOM     13  H   UNK d   0       2.297  -4.353  -7.419  0.00  0.00     0.152 HD
BRANCH  11  14
ATOM     14  O   UNK d   0       4.075  -4.542  -5.633  0.00  0.00    -0.446 OA
BRANCH  14  15
ATOM     15  C   UNK d   0       5.268  -4.390  -4.863  0.00  0.00     0.119 C 
ATOM     16  H   UNK d   0       6.136  -4.493  -5.514  0.00  0.00     0.075 H 
ATOM     17  H   UNK d   0       5.302  -5.156  -4.089  0.00  0.00     0.075 H 
BRANCH  15  18
ATOM     18  C   UNK d   0       5.282  -3.026  -4.220  0.00  0.00    -0.010 A 
ATOM     19  C   UNK d   0       6.372  -2.194  -4.390  0.00  0.00    -0.049 A 
ATOM     20  C   UNK d   0       6.385  -0.943  -3.801  0.00  0.00     0.016 A 
ATOM     21  H   UNK d   0       7.212  -2.518  -4.986  0.00  0.00     0.062 H 
ATOM     22  C   UNK d   0       5.308  -0.525  -3.042  0.00  0.00     0.273 A 
ATOM     23  H   UNK d   0       7.237  -0.293  -3.933  0.00  0.00     0.069 H 
ATOM     24  C   UNK d   0       4.217  -1.358  -2.873  0.00  0.00     0.016 A 
ATOM     25  C   UNK d   0       4.204  -2.609  -3.463  0.00  0.00    -0.049 A 
ATOM     26  H   UNK d   0       3.376  -1.033  -2.280  0.00  0.00     0.069 H 
ATOM     27  H   UNK d   0       3.352  -3.259  -3.330  0.00  0.00     0.062 H 
BRANCH  22  28
ATOM     28  N   UNK d   0       5.322   0.813  -2.410  0.00  0.00     0.080 N 
ATOM     29  O   UNK d   0       4.792   0.980  -1.336  0.00  0.00     0.041 OA
ATOM     30  O   UNK d   0       5.863   1.740  -2.968  0.00  0.00    -0.576 OA
ENDBRANCH  22  28
ENDBRANCH  15  18
ENDBRANCH  14  15
ENDBRANCH  11  14
ENDBRANCH   7  10
ENDBRANCH   4   7
ENDBRANCH   1   3
BRANCH   1  31
ATOM     31  C   UNK d   1       4.721  -0.876 -11.702  0.00  0.00     0.025 C 
ATOM     32  H   UNK d   1       5.240  -1.185 -12.608  0.00  0.00     0.040 H 
ATOM     33  H   UNK d   1       4.425   0.169 -11.791  0.00  0.00     0.040 H 
BRANCH  31  34
ATOM     34  S   UNK d   1       5.823  -1.076 -10.275  0.00  0.00    -0.121 SA
BRANCH  34  35
ATOM     35  C   UNK d   1       4.856  -0.524  -8.910  0.00  0.00     0.039 A 
ATOM     36  C   UNK d   1       4.159   0.768  -8.960  0.00  0.00     0.154 A 
ATOM     37  C   UNK d   1       3.358   1.172  -7.788  0.00  0.00     0.212 A 
ATOM     38  N   UNK d   1       4.069   1.712  -9.863  0.00  0.00    -0.048 NA
ATOM     39  C   UNK d   1       3.312   0.301  -6.671  0.00  0.00     0.304 A 
ATOM     40  N   UNK d   1       2.822   2.343  -8.047  0.00  0.00    -0.042 NA
ATOM     41  C   UNK d   1       3.984  -0.873  -6.690  0.00  0.00     0.019 A 
ATOM     42  C   UNK d   1       4.744  -1.288  -7.785  0.00  0.00    -0.040 A 
ATOM     43  H   UNK d   1       3.929  -1.516  -5.824  0.00  0.00     0.069 H 
ATOM     44  H   UNK d   1       5.257  -2.236  -7.740  0.00  0.00     0.063 H 
ATOM     45  O   UNK d   1       3.243   2.739  -9.341  0.00  0.00    -0.241 OA
BRANCH  39  46
ATOM     46  N   UNK d   1       2.523   0.679  -5.475  0.00  0.00     0.082 N 
ATOM     47  O   UNK d   1       2.674   1.767  -4.971  0.00  0.00     0.042 OA
ATOM     48  O   UNK d   1       1.729  -0.101  -5.005  0.00  0.00    -0.576 OA
ENDBRANCH  39  46
ENDBRANCH  34  35
ENDBRANCH  31  34
ENDBRANCH   1  31
BRANCH   1  49
ATOM     49  C   UNK d   1       2.899  -2.104 -12.853  0.00  0.00     0.234 C 
ATOM     50  O   UNK d   1       3.638  -2.334 -13.788  0.00  0.00    -0.274 OA
ATOM     51  N   GLY d   2       1.563  -2.170 -13.019  0.00  0.00    -0.308 N 
ATOM     52  CA  GLY d   2       1.003  -2.520 -14.327  0.00  0.00     0.051 C 
ATOM     53  H   GLY d   2       0.973  -1.986 -12.271  0.00  0.00     0.149 HD
ATOM     54  C   GLY d   2      -0.501  -2.525 -14.244  0.00  0.00     0.059 C 
ATOM     55  HA1 GLY d   2       1.324  -1.786 -15.067  0.00  0.00     0.052 H 
ATOM     56  HA2 GLY d   2       1.355  -3.510 -14.620  0.00  0.00     0.052 H 
ATOM     57  O   GLY d   2      -1.054  -2.262 -13.190  0.00  0.00    -0.548 OA
ATOM     58  OXT GLY d   2      -1.165  -2.793 -15.230  0.00  0.00    -0.548 OA
ENDBRANCH   1  49
TORSDOF 14
ENDMDL
MODEL 9
REMARK VINA RESULT:      -6.8      3.533      8.904
REMARK  12 active torsions:
REMARK  status: ('A' for Active; 'I' for Inactive)
REMARK    1  A    between atoms: C_3  and  N_39 
REMARK    2  A    between atoms: C_6  and  C_7 
REMARK    3  A    between atoms: C_7  and  O_8 
REMARK    4  A    between atoms: O_8  and  C_9 
REMARK       I    between atoms: C_9  and  N_11 
REMARK    5  A    between atoms: N_11  and  C_12 
REMARK    6  A    between atoms: C_12  and  C_13 
REMARK       I    between atoms: C_13  and  N_15 
REMARK    7  A    between atoms: N_15  and  C_16 
REMARK    8  A    between atoms: C_16  and  C_18 
REMARK    9  A    between atoms: C_16  and  C_32 
REMARK   10  A    between atoms: C_18  and  S_19 
REMARK   11  A    between atoms: S_19  and  C_20 
REMARK   12  A    between atoms: C_23  and  N_29 
REMARK       I    between atoms: C_32  and  N_34 
REMARK       I    between atoms: N_34  and  CA_35 
REMARK       I    between atoms: CA_35  and  C_36 
ROOT
ATOM      1  C   UNK d   1       4.498  -1.002  -7.035  0.00  0.00     0.109 C 
ATOM      2  H   UNK d   1       5.279  -0.833  -7.777  0.00  0.00     0.060 H 
ENDROOT
BRANCH   1   3
ATOM      3  N   UNK d   1       3.916  -2.332  -7.232  0.00  0.00    -0.302 N 
ATOM      4  C   UNK d   0       4.286  -3.080  -8.291  0.00  0.00     0.231 C 
ATOM      5  O   UNK d   0       5.102  -2.652  -9.079  0.00  0.00    -0.274 OA
ATOM      6  H   UNK d   1       3.263  -2.675  -6.601  0.00  0.00     0.149 HD
BRANCH   4   7
ATOM      7  C   UNK d   0       3.688  -4.448  -8.494  0.00  0.00     0.091 C 
ATOM      8  H   UNK d   0       3.628  -4.663  -9.560  0.00  0.00     0.056 H 
ATOM      9  H   UNK d   0       2.688  -4.475  -8.061  0.00  0.00     0.056 H 
BRANCH   7  10
ATOM     10  N   UNK d   0       4.531  -5.452  -7.839  0.00  0.00    -0.273 N 
ATOM     11  C   UNK d   0       4.294  -5.799  -6.559  0.00  0.00     0.401 C 
ATOM     12  O   UNK d   0       3.382  -5.280  -5.947  0.00  0.00    -0.227 OA
ATOM     13  H   UNK d   0       5.260  -5.866  -8.328  0.00  0.00     0.152 HD
BRANCH  11  14
ATOM     14  O   UNK d   0       5.069  -6.721  -5.957  0.00  0.00    -0.446 OA
BRANCH  14  15
ATOM     15  C   UNK d   0       4.729  -8.093  -6.168  0.00  0.00     0.119 C 
ATOM     16  H   UNK d   0       5.229  -8.456  -7.066  0.00  0.00     0.075 H 
ATOM     17  H   UNK d   0       3.651  -8.186  -6.289  0.00  0.00     0.075 H 
BRANCH  15  18
ATOM     18  C   UNK d   0       5.174  -8.909  -4.982  0.00  0.00    -0.010 A 
ATOM     19  C   UNK d   0       6.508  -8.933  -4.621  0.00  0.00    -0.049 A 
ATOM     20  C   UNK d   0       6.916  -9.683  -3.532  0.00  0.00     0.016 A 
ATOM     21  H   UNK d   0       7.230  -8.364  -5.186  0.00  0.00     0.062 H 
ATOM     22  C   UNK d   0       5.989 -10.406  -2.806  0.00  0.00     0.273 A 
ATOM     23  H   UNK d   0       7.957  -9.702  -3.251  0.00  0.00     0.069 H 
ATOM     24  C   UNK d   0       4.655 -10.381  -3.166  0.00  0.00     0.016 A 
ATOM     25  C   UNK d   0       4.247  -9.632  -4.254  0.00  0.00    -0.049 A 
ATOM     26  H   UNK d   0       3.931 -10.947  -2.599  0.00  0.00     0.069 H 
ATOM     27  H   UNK d   0       3.205  -9.613  -4.536  0.00  0.00     0.062 H 
BRANCH  22  28
ATOM     28  N   UNK d   0       6.426 -11.209  -1.641  0.00  0.00     0.080 N 
ATOM     29  O   UNK d   0       7.007 -12.255  -1.812  0.00  0.00     0.041 OA
ATOM     30  O   UNK d   0       6.201 -10.819  -0.519  0.00  0.00    -0.576 OA
ENDBRANCH  22  28
ENDBRANCH  15  18
ENDBRANCH  14  15
ENDBRANCH  11  14
ENDBRANCH   7  10
ENDBRANCH   4   7
ENDBRANCH   1   3
BRANCH   1  31
ATOM     31  C   UNK d   1       3.407   0.060  -7.191  0.00  0.00     0.025 C 
ATOM     32  H   UNK d   1       2.430  -0.421  -7.197  0.00  0.00     0.040 H 
ATOM     33  H   UNK d   1       3.462   0.761  -6.358  0.00  0.00     0.040 H 
BRANCH  31  34
ATOM     34  S   UNK d   1       3.652   0.952  -8.751  0.00  0.00    -0.121 SA
BRANCH  34  35
ATOM     35  C   UNK d   1       2.847  -0.058  -9.949  0.00  0.00     0.039 A 
ATOM     36  C   UNK d   1       3.438  -0.254 -11.280  0.00  0.00     0.154 A 
ATOM     37  C   UNK d   1       2.721  -1.117 -12.238  0.00  0.00     0.212 A 
ATOM     38  N   UNK d   1       4.530   0.181 -11.858  0.00  0.00    -0.048 NA
ATOM     39  C   UNK d   1       1.495  -1.701 -11.833  0.00  0.00     0.304 A 
ATOM     40  N   UNK d   1       3.421  -1.160 -13.349  0.00  0.00    -0.042 NA
ATOM     41  C   UNK d   1       1.006  -1.472 -10.592  0.00  0.00     0.019 A 
ATOM     42  C   UNK d   1       1.662  -0.668  -9.660  0.00  0.00    -0.040 A 
ATOM     43  H   UNK d   1       0.069  -1.933 -10.312  0.00  0.00     0.069 H 
ATOM     44  H   UNK d   1       1.221  -0.524  -8.685  0.00  0.00     0.063 H 
ATOM     45  O   UNK d   1       4.571  -0.352 -13.171  0.00  0.00    -0.241 OA
BRANCH  39  46
ATOM     46  N   UNK d   1       0.745  -2.567 -12.772  0.00  0.00     0.082 N 
ATOM     47  O   UNK d   1      -0.042  -2.079 -13.547  0.00  0.00     0.042 OA
ATOM     48  O   UNK d   1       0.922  -3.763 -12.763  0.00  0.00    -0.576 OA
ENDBRANCH  39  46
ENDBRANCH  34  35
ENDBRANCH  31  34
ENDBRANCH   1  31
BRANCH   1  49
ATOM     49  C   UNK d   1       5.091  -0.914  -5.652  0.00  0.00     0.234 C 
ATOM     50  O   UNK d   1       5.969  -1.683  -5.319  0.00  0.00    -0.274 OA
ATOM     51  N   GLY d   2       4.647   0.018  -4.786  0.00  0.00    -0.308 N 
ATOM     52  CA  GLY d   2       5.225   0.104  -3.442  0.00  0.00     0.051 C 
ATOM     53  H   GLY d   2       3.946   0.633  -5.053  0.00  0.00     0.149 HD
ATOM     54  C   GLY d   2       4.559   1.220  -2.680  0.00  0.00     0.059 C 
ATOM     55  HA1 GLY d   2       5.066  -0.839  -2.919  0.00  0.00     0.052 H 
ATOM     56  HA2 GLY d   2       6.294   0.302  -3.518  0.00  0.00     0.052 H 
ATOM     57  O   GLY d   2       3.685   1.884  -3.211  0.00  0.00    -0.548 OA
ATOM     58  OXT GLY d   2       4.896   1.461  -1.534  0.00  0.00    -0.548 OA
ENDBRANCH   1  49
TORSDOF 14
ENDMDL
MODEL 10
REMARK VINA RESULT:      -6.8      4.217      9.282
REMARK  12 active torsions:
REMARK  status: ('A' for Active; 'I' for Inactive)
REMARK    1  A    between atoms: C_3  and  N_39 
REMARK    2  A    between atoms: C_6  and  C_7 
REMARK    3  A    between atoms: C_7  and  O_8 
REMARK    4  A    between atoms: O_8  and  C_9 
REMARK       I    between atoms: C_9  and  N_11 
REMARK    5  A    between atoms: N_11  and  C_12 
REMARK    6  A    between atoms: C_12  and  C_13 
REMARK       I    between atoms: C_13  and  N_15 
REMARK    7  A    between atoms: N_15  and  C_16 
REMARK    8  A    between atoms: C_16  and  C_18 
REMARK    9  A    between atoms: C_16  and  C_32 
REMARK   10  A    between atoms: C_18  and  S_19 
REMARK   11  A    between atoms: S_19  and  C_20 
REMARK   12  A    between atoms: C_23  and  N_29 
REMARK       I    between atoms: C_32  and  N_34 
REMARK       I    between atoms: N_34  and  CA_35 
REMARK       I    between atoms: CA_35  and  C_36 
ROOT
ATOM      1  C   UNK d   1       7.641   0.286  -4.974  0.00  0.00     0.109 C 
ATOM      2  H   UNK d   1       8.042  -0.470  -4.296  0.00  0.00     0.060 H 
ENDROOT
BRANCH   1   3
ATOM      3  N   UNK d   1       6.177   0.241  -4.945  0.00  0.00    -0.302 N 
ATOM      4  C   UNK d   0       5.545  -0.628  -4.131  0.00  0.00     0.231 C 
ATOM      5  O   UNK d   0       6.188  -1.371  -3.421  0.00  0.00    -0.274 OA
ATOM      6  H   UNK d   1       5.662   0.835  -5.514  0.00  0.00     0.149 HD
BRANCH   4   7
ATOM      7  C   UNK d   0       4.039  -0.674  -4.102  0.00  0.00     0.091 C 
ATOM      8  H   UNK d   0       3.659   0.203  -3.579  0.00  0.00     0.056 H 
ATOM      9  H   UNK d   0       3.713  -1.575  -3.583  0.00  0.00     0.056 H 
BRANCH   7  10
ATOM     10  N   UNK d   0       3.524  -0.687  -5.474  0.00  0.00    -0.273 N 
ATOM     11  C   UNK d   0       2.824   0.366  -5.940  0.00  0.00     0.401 C 
ATOM     12  O   UNK d   0       2.620   1.326  -5.223  0.00  0.00    -0.227 OA
ATOM     13  H   UNK d   0       3.687  -1.454  -6.046  0.00  0.00     0.152 HD
BRANCH  11  14
ATOM     14  O   UNK d   0       2.351   0.355  -7.200  0.00  0.00    -0.446 OA
BRANCH  14  15
ATOM     15  C   UNK d   0       2.907   1.304  -8.112  0.00  0.00     0.119 C 
ATOM     16  H   UNK d   0       3.897   1.601  -7.766  0.00  0.00     0.075 H 
ATOM     17  H   UNK d   0       2.261   2.180  -8.163  0.00  0.00     0.075 H 
BRANCH  15  18
ATOM     18  C   UNK d   0       3.019   0.682  -9.480  0.00  0.00    -0.010 A 
ATOM     19  C   UNK d   0       4.051   1.047 -10.322  0.00  0.00    -0.049 A 
ATOM     20  C   UNK d   0       4.154   0.477 -11.578  0.00  0.00     0.016 A 
ATOM     21  H   UNK d   0       4.780   1.775  -9.999  0.00  0.00     0.062 H 
ATOM     22  C   UNK d   0       3.224  -0.459 -11.990  0.00  0.00     0.273 A 
ATOM     23  H   UNK d   0       4.960   0.763 -12.236  0.00  0.00     0.069 H 
ATOM     24  C   UNK d   0       2.192  -0.826 -11.146  0.00  0.00     0.016 A 
ATOM     25  C   UNK d   0       2.090  -0.255  -9.891  0.00  0.00    -0.049 A 
ATOM     26  H   UNK d   0       1.465  -1.556 -11.468  0.00  0.00     0.069 H 
ATOM     27  H   UNK d   0       1.283  -0.542  -9.232  0.00  0.00     0.062 H 
BRANCH  22  28
ATOM     28  N   UNK d   0       3.333  -1.070 -13.334  0.00  0.00     0.080 N 
ATOM     29  O   UNK d   0       4.220  -0.729 -14.082  0.00  0.00     0.041 OA
ATOM     30  O   UNK d   0       2.536  -1.909 -13.683  0.00  0.00    -0.576 OA
ENDBRANCH  22  28
ENDBRANCH  15  18
ENDBRANCH  14  15
ENDBRANCH  11  14
ENDBRANCH   7  10
ENDBRANCH   4   7
ENDBRANCH   1   3
BRANCH   1  31
ATOM     31  C   UNK d   1       8.133   0.009  -6.396  0.00  0.00     0.025 C 
ATOM     32  H   UNK d   1       7.285   0.012  -7.080  0.00  0.00     0.040 H 
ATOM     33  H   UNK d   1       8.842   0.782  -6.692  0.00  0.00     0.040 H 
BRANCH  31  34
ATOM     34  S   UNK d   1       8.947  -1.611  -6.448  0.00  0.00    -0.121 SA
BRANCH  34  35
ATOM     35  C   UNK d   1       7.616  -2.760  -6.324  0.00  0.00     0.039 A 
ATOM     36  C   UNK d   1       6.344  -2.507  -7.013  0.00  0.00     0.154 A 
ATOM     37  C   UNK d   1       5.270  -3.510  -6.877  0.00  0.00     0.212 A 
ATOM     38  N   UNK d   1       5.906  -1.537  -7.777  0.00  0.00    -0.048 NA
ATOM     39  C   UNK d   1       5.514  -4.656  -6.081  0.00  0.00     0.304 A 
ATOM     40  N   UNK d   1       4.235  -3.093  -7.572  0.00  0.00    -0.042 NA
ATOM     41  C   UNK d   1       6.709  -4.822  -5.470  0.00  0.00     0.019 A 
ATOM     42  C   UNK d   1       7.748  -3.897  -5.583  0.00  0.00    -0.040 A 
ATOM     43  H   UNK d   1       6.866  -5.707  -4.870  0.00  0.00     0.069 H 
ATOM     44  H   UNK d   1       8.680  -4.086  -5.072  0.00  0.00     0.063 H 
ATOM     45  O   UNK d   1       4.575  -1.847  -8.156  0.00  0.00    -0.241 OA
BRANCH  39  46
ATOM     46  N   UNK d   1       4.455  -5.679  -5.918  0.00  0.00     0.082 N 
ATOM     47  O   UNK d   1       4.141  -6.378  -6.852  0.00  0.00     0.042 OA
ATOM     48  O   UNK d   1       3.905  -5.814  -4.851  0.00  0.00    -0.576 OA
ENDBRANCH  39  46
ENDBRANCH  34  35
ENDBRANCH  31  34
ENDBRANCH   1  31
BRANCH   1  49
ATOM     49  C   UNK d   1       8.110   1.650  -4.536  0.00  0.00     0.234 C 
ATOM     50  O   UNK d   1       7.904   2.027  -3.401  0.00  0.00    -0.274 OA
ATOM     51  N   GLY d   2       8.756   2.451  -5.406  0.00  0.00    -0.308 N 
ATOM     52  CA  GLY d   2       9.212   3.778  -4.980  0.00  0.00     0.051 C 
ATOM     53  H   GLY d   2       8.920   2.150  -6.313  0.00  0.00     0.149 HD
ATOM     54  C   GLY d   2       9.900   4.465  -6.131  0.00  0.00     0.059 C 
ATOM     55  HA1 GLY d   2       8.354   4.371  -4.663  0.00  0.00     0.052 H 
ATOM     56  HA2 GLY d   2       9.909   3.673  -4.149  0.00  0.00     0.052 H 
ATOM     57  O   GLY d   2      10.001   3.900  -7.206  0.00  0.00    -0.548 OA
ATOM     58  OXT GLY d   2      10.356   5.586  -5.987  0.00  0.00    -0.548 OA
ENDBRANCH   1  49
TORSDOF 14
ENDMDL
