MODEL 1
REMARK VINA RESULT:      -5.6      0.000      0.000
REMARK  7 active torsions:
REMARK  status: ('A' for Active; 'I' for Inactive)
REMARK    1  A    between atoms: C_1  and  O_2 
REMARK    2  A    between atoms: O_2  and  C_3 
REMARK    3  A    between atoms: C_7  and  C_15 
REMARK    4  A    between atoms: C_12  and  O_14 
REMARK    5  A    between atoms: C_15  and  C_16 
REMARK    6  A    between atoms: C_16  and  C_18 
REMARK    7  A    between atoms: C_16  and  O_20 
ROOT
ATOM      1  C   LIG d   1       8.669  -2.643  -4.784  0.00  0.00     0.124 A 
ATOM      2  C   LIG d   1       7.594  -2.407  -3.941  0.00  0.00    -0.012 A 
ATOM      3  C   LIG d   1       7.163  -1.103  -3.727  0.00  0.00    -0.001 A 
ATOM      4  C   LIG d   1       6.035  -0.789  -2.843  0.00  0.00    -0.015 A 
ATOM      5  C   LIG d   1       5.664   0.487  -2.683  0.00  0.00     0.113 A 
ATOM      6  O   LIG d   1       6.284   1.506  -3.300  0.00  0.00    -0.427 OA
ATOM      7  C   LIG d   1       7.328   1.327  -4.130  0.00  0.00     0.348 A 
ATOM      8  O   LIG d   1       7.858   2.282  -4.668  0.00  0.00    -0.244 OA
ATOM      9  C   LIG d   1       7.818  -0.029  -4.379  0.00  0.00     0.108 A 
ATOM     10  C   LIG d   1       8.898  -0.286  -5.231  0.00  0.00     0.135 A 
ATOM     11  C   LIG d   1       9.314  -1.591  -5.425  0.00  0.00     0.022 A 
ATOM     12  H   LIG d   1       7.097  -3.231  -3.451  0.00  0.00     0.066 H 
ATOM     13  H   LIG d   1       5.509  -1.579  -2.328  0.00  0.00     0.066 H 
ATOM     14  H   LIG d   1      10.148  -1.794  -6.082  0.00  0.00     0.069 H 
ENDROOT
BRANCH   5  15
ATOM     15  C   LIG d   1       4.503   0.794  -1.773  0.00  0.00     0.037 C 
ATOM     16  H   LIG d   1       4.242  -0.098  -1.203  0.00  0.00     0.037 H 
ATOM     17  H   LIG d   1       4.781   1.594  -1.088  0.00  0.00     0.037 H 
BRANCH  15  18
ATOM     18  C   LIG d   1       3.301   1.233  -2.611  0.00  0.00     0.101 C 
ATOM     19  H   LIG d   1       2.484   1.526  -1.951  0.00  0.00     0.066 H 
BRANCH  18  20
ATOM     20  C   LIG d   1       2.854   0.089  -3.486  0.00  0.00     0.070 C 
ATOM     21  O   LIG d   1       2.506  -0.955  -2.985  0.00  0.00    -0.547 OA
ATOM     22  O   LIG d   1       2.843   0.229  -4.820  0.00  0.00    -0.547 OA
ENDBRANCH  18  20
BRANCH  18  23
ATOM     23  O   LIG d   1       3.671   2.342  -3.432  0.00  0.00    -0.386 OA
ATOM     24  H   LIG d   1       4.260   2.111  -4.163  0.00  0.00     0.210 HD
ENDBRANCH  18  23
ENDBRANCH  15  18
ENDBRANCH   5  15
BRANCH   1  25
ATOM     25  O   LIG d   1       9.093  -3.916  -4.989  0.00  0.00    -0.495 OA
BRANCH  25  26
ATOM     26  C   LIG d   1       9.235  -4.746  -3.834  0.00  0.00     0.079 C 
ATOM     27  H   LIG d   1       8.345  -4.657  -3.211  0.00  0.00     0.066 H 
ATOM     28  H   LIG d   1      10.109  -4.431  -3.265  0.00  0.00     0.066 H 
ATOM     29  H   LIG d   1       9.358  -5.784  -4.145  0.00  0.00     0.066 H 
ENDBRANCH  25  26
ENDBRANCH   1  25
BRANCH  10  30
ATOM     30  O   LIG d   1       9.532   0.736  -5.860  0.00  0.00    -0.506 OA
ATOM     31  H   LIG d   1       9.230   1.613  -5.585  0.00  0.00     0.292 HD
ENDBRANCH  10  30
TORSDOF 7
ENDMDL
MODEL 2
REMARK VINA RESULT:      -5.2      8.247      9.488
REMARK  7 active torsions:
REMARK  status: ('A' for Active; 'I' for Inactive)
REMARK    1  A    between atoms: C_1  and  O_2 
REMARK    2  A    between atoms: O_2  and  C_3 
REMARK    3  A    between atoms: C_7  and  C_15 
REMARK    4  A    between atoms: C_12  and  O_14 
REMARK    5  A    between atoms: C_15  and  C_16 
REMARK    6  A    between atoms: C_16  and  C_18 
REMARK    7  A    between atoms: C_16  and  O_20 
ROOT
ATOM      1  C   LIG d   1       9.518   6.295  -8.630  0.00  0.00     0.124 A 
ATOM      2  C   LIG d   1       9.708   5.787  -7.354  0.00  0.00    -0.012 A 
ATOM      3  C   LIG d   1       9.709   6.649  -6.264  0.00  0.00    -0.001 A 
ATOM      4  C   LIG d   1       9.910   6.171  -4.892  0.00  0.00    -0.015 A 
ATOM      5  C   LIG d   1       9.894   7.052  -3.884  0.00  0.00     0.113 A 
ATOM      6  O   LIG d   1       9.702   8.367  -4.071  0.00  0.00    -0.427 OA
ATOM      7  C   LIG d   1       9.509   8.907  -5.288  0.00  0.00     0.348 A 
ATOM      8  O   LIG d   1       9.338  10.107  -5.409  0.00  0.00    -0.244 OA
ATOM      9  C   LIG d   1       9.507   8.037  -6.464  0.00  0.00     0.108 A 
ATOM     10  C   LIG d   1       9.311   8.533  -7.758  0.00  0.00     0.135 A 
ATOM     11  C   LIG d   1       9.319   7.658  -8.830  0.00  0.00     0.022 A 
ATOM     12  H   LIG d   1       9.857   4.727  -7.209  0.00  0.00     0.066 H 
ATOM     13  H   LIG d   1      10.067   5.121  -4.697  0.00  0.00     0.066 H 
ATOM     14  H   LIG d   1       9.169   8.036  -9.830  0.00  0.00     0.069 H 
ENDROOT
BRANCH   5  15
ATOM     15  C   LIG d   1      10.100   6.546  -2.479  0.00  0.00     0.037 C 
ATOM     16  H   LIG d   1       9.448   5.691  -2.301  0.00  0.00     0.037 H 
ATOM     17  H   LIG d   1      11.139   6.243  -2.352  0.00  0.00     0.037 H 
BRANCH  15  18
ATOM     18  C   LIG d   1       9.766   7.658  -1.483  0.00  0.00     0.101 C 
ATOM     19  H   LIG d   1      10.115   8.614  -1.875  0.00  0.00     0.066 H 
BRANCH  18  20
ATOM     20  C   LIG d   1      10.447   7.375  -0.168  0.00  0.00     0.070 C 
ATOM     21  O   LIG d   1      10.360   6.280   0.335  0.00  0.00    -0.547 OA
ATOM     22  O   LIG d   1      11.151   8.340   0.445  0.00  0.00    -0.547 OA
ENDBRANCH  18  20
BRANCH  18  23
ATOM     23  O   LIG d   1       8.352   7.712  -1.285  0.00  0.00    -0.386 OA
ATOM     24  H   LIG d   1       7.839   7.659  -2.102  0.00  0.00     0.210 HD
ENDBRANCH  18  23
ENDBRANCH  15  18
ENDBRANCH   5  15
BRANCH   1  25
ATOM     25  O   LIG d   1       9.522   5.454  -9.695  0.00  0.00    -0.495 OA
BRANCH  25  26
ATOM     26  C   LIG d   1       9.136   6.004 -10.957  0.00  0.00     0.079 C 
ATOM     27  H   LIG d   1       9.193   7.091 -10.913  0.00  0.00     0.066 H 
ATOM     28  H   LIG d   1       8.113   5.703 -11.187  0.00  0.00     0.066 H 
ATOM     29  H   LIG d   1       9.806   5.636 -11.734  0.00  0.00     0.066 H 
ENDBRANCH  25  26
ENDBRANCH   1  25
BRANCH  10  30
ATOM     30  O   LIG d   1       9.116   9.860  -7.960  0.00  0.00    -0.506 OA
ATOM     31  H   LIG d   1       9.717  10.251  -8.608  0.00  0.00     0.292 HD
ENDBRANCH  10  30
TORSDOF 7
ENDMDL
MODEL 3
REMARK VINA RESULT:      -5.2      3.325      4.641
REMARK  7 active torsions:
REMARK  status: ('A' for Active; 'I' for Inactive)
REMARK    1  A    between atoms: C_1  and  O_2 
REMARK    2  A    between atoms: O_2  and  C_3 
REMARK    3  A    between atoms: C_7  and  C_15 
REMARK    4  A    between atoms: C_12  and  O_14 
REMARK    5  A    between atoms: C_15  and  C_16 
REMARK    6  A    between atoms: C_16  and  C_18 
REMARK    7  A    between atoms: C_16  and  O_20 
ROOT
ATOM      1  C   LIG d   1       6.618  -2.394  -4.222  0.00  0.00     0.124 A 
ATOM      2  C   LIG d   1       5.986  -2.238  -5.446  0.00  0.00    -0.012 A 
ATOM      3  C   LIG d   1       4.972  -1.297  -5.581  0.00  0.00    -0.001 A 
ATOM      4  C   LIG d   1       4.263  -1.089  -6.848  0.00  0.00    -0.015 A 
ATOM      5  C   LIG d   1       3.300  -0.162  -6.915  0.00  0.00     0.113 A 
ATOM      6  O   LIG d   1       2.947   0.595  -5.864  0.00  0.00    -0.427 OA
ATOM      7  C   LIG d   1       3.533   0.484  -4.658  0.00  0.00     0.348 A 
ATOM      8  O   LIG d   1       3.180   1.194  -3.734  0.00  0.00    -0.244 OA
ATOM      9  C   LIG d   1       4.600  -0.499  -4.471  0.00  0.00     0.108 A 
ATOM     10  C   LIG d   1       5.253  -0.665  -3.244  0.00  0.00     0.135 A 
ATOM     11  C   LIG d   1       6.255  -1.612  -3.130  0.00  0.00     0.022 A 
ATOM     12  H   LIG d   1       6.277  -2.847  -6.289  0.00  0.00     0.066 H 
ATOM     13  H   LIG d   1       4.516  -1.677  -7.718  0.00  0.00     0.066 H 
ATOM     14  H   LIG d   1       6.761  -1.744  -2.185  0.00  0.00     0.069 H 
ENDROOT
BRANCH   5  15
ATOM     15  C   LIG d   1       2.581   0.040  -8.224  0.00  0.00     0.037 C 
ATOM     16  H   LIG d   1       2.844  -0.764  -8.912  0.00  0.00     0.037 H 
ATOM     17  H   LIG d   1       1.506   0.034  -8.052  0.00  0.00     0.037 H 
BRANCH  15  18
ATOM     18  C   LIG d   1       2.994   1.384  -8.829  0.00  0.00     0.101 C 
ATOM     19  H   LIG d   1       2.354   1.610  -9.682  0.00  0.00     0.066 H 
BRANCH  18  20
ATOM     20  C   LIG d   1       4.430   1.309  -9.284  0.00  0.00     0.070 C 
ATOM     21  O   LIG d   1       4.731   0.609 -10.222  0.00  0.00    -0.547 OA
ATOM     22  O   LIG d   1       5.373   2.021  -8.648  0.00  0.00    -0.547 OA
ENDBRANCH  18  20
BRANCH  18  23
ATOM     23  O   LIG d   1       2.859   2.411  -7.845  0.00  0.00    -0.386 OA
ATOM     24  H   LIG d   1       2.854   3.306  -8.209  0.00  0.00     0.210 HD
ENDBRANCH  18  23
ENDBRANCH  15  18
ENDBRANCH   5  15
BRANCH   1  25
ATOM     25  O   LIG d   1       7.605  -3.317  -4.089  0.00  0.00    -0.495 OA
BRANCH  25  26
ATOM     26  C   LIG d   1       7.557  -4.447  -4.964  0.00  0.00     0.079 C 
ATOM     27  H   LIG d   1       8.213  -4.274  -5.817  0.00  0.00     0.066 H 
ATOM     28  H   LIG d   1       6.535  -4.592  -5.315  0.00  0.00     0.066 H 
ATOM     29  H   LIG d   1       7.886  -5.336  -4.426  0.00  0.00     0.066 H 
ENDBRANCH  25  26
ENDBRANCH   1  25
BRANCH  10  30
ATOM     30  O   LIG d   1       4.905   0.095  -2.175  0.00  0.00    -0.506 OA
ATOM     31  H   LIG d   1       4.657  -0.418  -1.393  0.00  0.00     0.292 HD
ENDBRANCH  10  30
TORSDOF 7
ENDMDL
MODEL 4
REMARK VINA RESULT:      -5.2      2.396      3.983
REMARK  7 active torsions:
REMARK  status: ('A' for Active; 'I' for Inactive)
REMARK    1  A    between atoms: C_1  and  O_2 
REMARK    2  A    between atoms: O_2  and  C_3 
REMARK    3  A    between atoms: C_7  and  C_15 
REMARK    4  A    between atoms: C_12  and  O_14 
REMARK    5  A    between atoms: C_15  and  C_16 
REMARK    6  A    between atoms: C_16  and  C_18 
REMARK    7  A    between atoms: C_16  and  O_20 
ROOT
ATOM      1  C   LIG d   1       9.107  -4.210  -4.938  0.00  0.00     0.124 A 
ATOM      2  C   LIG d   1       8.425  -3.246  -4.210  0.00  0.00    -0.012 A 
ATOM      3  C   LIG d   1       7.036  -3.212  -4.248  0.00  0.00    -0.001 A 
ATOM      4  C   LIG d   1       6.259  -2.214  -3.504  0.00  0.00    -0.015 A 
ATOM      5  C   LIG d   1       4.923  -2.238  -3.577  0.00  0.00     0.113 A 
ATOM      6  O   LIG d   1       4.251  -3.142  -4.309  0.00  0.00    -0.427 OA
ATOM      7  C   LIG d   1       4.868  -4.097  -5.028  0.00  0.00     0.348 A 
ATOM      8  O   LIG d   1       4.216  -4.896  -5.676  0.00  0.00    -0.244 OA
ATOM      9  C   LIG d   1       6.329  -4.166  -5.021  0.00  0.00     0.108 A 
ATOM     10  C   LIG d   1       7.033  -5.135  -5.745  0.00  0.00     0.135 A 
ATOM     11  C   LIG d   1       8.416  -5.148  -5.698  0.00  0.00     0.022 A 
ATOM     12  H   LIG d   1       8.970  -2.525  -3.620  0.00  0.00     0.066 H 
ATOM     13  H   LIG d   1       6.760  -1.470  -2.903  0.00  0.00     0.066 H 
ATOM     14  H   LIG d   1       8.963  -5.893  -6.255  0.00  0.00     0.069 H 
ENDROOT
BRANCH   5  15
ATOM     15  C   LIG d   1       4.139  -1.208  -2.807  0.00  0.00     0.037 C 
ATOM     16  H   LIG d   1       3.271  -1.680  -2.345  0.00  0.00     0.037 H 
ATOM     17  H   LIG d   1       4.771  -0.775  -2.032  0.00  0.00     0.037 H 
BRANCH  15  18
ATOM     18  C   LIG d   1       3.671  -0.106  -3.760  0.00  0.00     0.101 C 
ATOM     19  H   LIG d   1       4.370  -0.025  -4.593  0.00  0.00     0.066 H 
BRANCH  18  20
ATOM     20  C   LIG d   1       3.617   1.208  -3.021  0.00  0.00     0.070 C 
ATOM     21  O   LIG d   1       3.371   2.228  -3.619  0.00  0.00    -0.547 OA
ATOM     22  O   LIG d   1       3.842   1.243  -1.698  0.00  0.00    -0.547 OA
ENDBRANCH  18  20
BRANCH  18  23
ATOM     23  O   LIG d   1       2.371  -0.426  -4.257  0.00  0.00    -0.386 OA
ATOM     24  H   LIG d   1       1.909  -1.103  -3.744  0.00  0.00     0.210 HD
ENDBRANCH  18  23
ENDBRANCH  15  18
ENDBRANCH   5  15
BRANCH   1  25
ATOM     25  O   LIG d   1      10.464  -4.240  -4.905  0.00  0.00    -0.495 OA
BRANCH  25  26
ATOM     26  C   LIG d   1      11.111  -3.322  -4.020  0.00  0.00     0.079 C 
ATOM     27  H   LIG d   1      10.690  -2.326  -4.158  0.00  0.00     0.066 H 
ATOM     28  H   LIG d   1      12.179  -3.298  -4.238  0.00  0.00     0.066 H 
ATOM     29  H   LIG d   1      10.958  -3.642  -2.989  0.00  0.00     0.066 H 
ENDBRANCH  25  26
ENDBRANCH   1  25
BRANCH  10  30
ATOM     30  O   LIG d   1       6.365  -6.053  -6.488  0.00  0.00    -0.506 OA
ATOM     31  H   LIG d   1       6.405  -6.951  -6.131  0.00  0.00     0.292 HD
ENDBRANCH  10  30
TORSDOF 7
ENDMDL
MODEL 5
REMARK VINA RESULT:      -5.1      6.017      7.177
REMARK  7 active torsions:
REMARK  status: ('A' for Active; 'I' for Inactive)
REMARK    1  A    between atoms: C_1  and  O_2 
REMARK    2  A    between atoms: O_2  and  C_3 
REMARK    3  A    between atoms: C_7  and  C_15 
REMARK    4  A    between atoms: C_12  and  O_14 
REMARK    5  A    between atoms: C_15  and  C_16 
REMARK    6  A    between atoms: C_16  and  C_18 
REMARK    7  A    between atoms: C_16  and  O_20 
ROOT
ATOM      1  C   LIG d   1       1.635  -1.494 -11.609  0.00  0.00     0.124 A 
ATOM      2  C   LIG d   1       1.429  -1.302 -10.251  0.00  0.00    -0.012 A 
ATOM      3  C   LIG d   1       2.311  -0.506  -9.528  0.00  0.00    -0.001 A 
ATOM      4  C   LIG d   1       2.149  -0.269  -8.090  0.00  0.00    -0.015 A 
ATOM      5  C   LIG d   1       3.029   0.512  -7.452  0.00  0.00     0.113 A 
ATOM      6  O   LIG d   1       4.067   1.095  -8.074  0.00  0.00    -0.427 OA
ATOM      7  C   LIG d   1       4.305   0.942  -9.389  0.00  0.00     0.348 A 
ATOM      8  O   LIG d   1       5.259   1.491  -9.910  0.00  0.00    -0.244 OA
ATOM      9  C   LIG d   1       3.405   0.108 -10.186  0.00  0.00     0.108 A 
ATOM     10  C   LIG d   1       3.595  -0.092 -11.558  0.00  0.00     0.135 A 
ATOM     11  C   LIG d   1       2.708  -0.892 -12.257  0.00  0.00     0.022 A 
ATOM     12  H   LIG d   1       0.591  -1.769  -9.757  0.00  0.00     0.066 H 
ATOM     13  H   LIG d   1       1.328  -0.719  -7.551  0.00  0.00     0.066 H 
ATOM     14  H   LIG d   1       2.851  -1.050 -13.316  0.00  0.00     0.069 H 
ENDROOT
BRANCH   5  15
ATOM     15  C   LIG d   1       2.849   0.747  -5.975  0.00  0.00     0.037 C 
ATOM     16  H   LIG d   1       3.061   1.791  -5.743  0.00  0.00     0.037 H 
ATOM     17  H   LIG d   1       1.823   0.513  -5.692  0.00  0.00     0.037 H 
BRANCH  15  18
ATOM     18  C   LIG d   1       3.811  -0.153  -5.195  0.00  0.00     0.101 C 
ATOM     19  H   LIG d   1       3.498  -1.193  -5.294  0.00  0.00     0.066 H 
BRANCH  18  20
ATOM     20  C   LIG d   1       3.796   0.239  -3.739  0.00  0.00     0.070 C 
ATOM     21  O   LIG d   1       4.008   1.385  -3.420  0.00  0.00    -0.547 OA
ATOM     22  O   LIG d   1       3.547  -0.685  -2.798  0.00  0.00    -0.547 OA
ENDBRANCH  18  20
BRANCH  18  23
ATOM     23  O   LIG d   1       5.133  -0.001  -5.715  0.00  0.00    -0.386 OA
ATOM     24  H   LIG d   1       5.264   0.809  -6.225  0.00  0.00     0.210 HD
ENDBRANCH  18  23
ENDBRANCH  15  18
ENDBRANCH   5  15
BRANCH   1  25
ATOM     25  O   LIG d   1       0.776  -2.274 -12.313  0.00  0.00    -0.495 OA
BRANCH  25  26
ATOM     26  C   LIG d   1       1.168  -2.635 -13.639  0.00  0.00     0.079 C 
ATOM     27  H   LIG d   1       0.744  -3.607 -13.892  0.00  0.00     0.066 H 
ATOM     28  H   LIG d   1       2.255  -2.688 -13.696  0.00  0.00     0.066 H 
ATOM     29  H   LIG d   1       0.803  -1.886 -14.342  0.00  0.00     0.066 H 
ENDBRANCH  25  26
ENDBRANCH   1  25
BRANCH  10  30
ATOM     30  O   LIG d   1       4.639   0.492 -12.197  0.00  0.00    -0.506 OA
ATOM     31  H   LIG d   1       4.571   0.472 -13.161  0.00  0.00     0.292 HD
ENDBRANCH  10  30
TORSDOF 7
ENDMDL
MODEL 6
REMARK VINA RESULT:      -4.9      8.457     11.025
REMARK  7 active torsions:
REMARK  status: ('A' for Active; 'I' for Inactive)
REMARK    1  A    between atoms: C_1  and  O_2 
REMARK    2  A    between atoms: O_2  and  C_3 
REMARK    3  A    between atoms: C_7  and  C_15 
REMARK    4  A    between atoms: C_12  and  O_14 
REMARK    5  A    between atoms: C_15  and  C_16 
REMARK    6  A    between atoms: C_16  and  C_18 
REMARK    7  A    between atoms: C_16  and  O_20 
ROOT
ATOM      1  C   LIG d   1      11.585  10.756   0.179  0.00  0.00     0.124 A 
ATOM      2  C   LIG d   1      11.142   9.876  -0.797  0.00  0.00    -0.012 A 
ATOM      3  C   LIG d   1      10.959   8.535  -0.480  0.00  0.00    -0.001 A 
ATOM      4  C   LIG d   1      10.497   7.555  -1.469  0.00  0.00    -0.015 A 
ATOM      5  C   LIG d   1      10.334   6.279  -1.100  0.00  0.00     0.113 A 
ATOM      6  O   LIG d   1      10.578   5.847   0.147  0.00  0.00    -0.427 OA
ATOM      7  C   LIG d   1      11.005   6.663   1.128  0.00  0.00     0.348 A 
ATOM      8  O   LIG d   1      11.213   6.226   2.246  0.00  0.00    -0.244 OA
ATOM      9  C   LIG d   1      11.217   8.081   0.837  0.00  0.00     0.108 A 
ATOM     10  C   LIG d   1      11.659   8.984   1.811  0.00  0.00     0.135 A 
ATOM     11  C   LIG d   1      11.840  10.313   1.473  0.00  0.00     0.022 A 
ATOM     12  H   LIG d   1      10.943  10.230  -1.797  0.00  0.00     0.066 H 
ATOM     13  H   LIG d   1      10.289   7.861  -2.484  0.00  0.00     0.066 H 
ATOM     14  H   LIG d   1      12.181  11.013   2.221  0.00  0.00     0.069 H 
ENDROOT
BRANCH   5  15
ATOM     15  C   LIG d   1       9.858   5.285  -2.128  0.00  0.00     0.037 C 
ATOM     16  H   LIG d   1       9.096   4.642  -1.687  0.00  0.00     0.037 H 
ATOM     17  H   LIG d   1       9.435   5.817  -2.979  0.00  0.00     0.037 H 
BRANCH  15  18
ATOM     18  C   LIG d   1      11.038   4.430  -2.595  0.00  0.00     0.101 C 
ATOM     19  H   LIG d   1      11.507   4.899  -3.459  0.00  0.00     0.066 H 
BRANCH  18  20
ATOM     20  C   LIG d   1      10.544   3.057  -2.974  0.00  0.00     0.070 C 
ATOM     21  O   LIG d   1      11.333   2.161  -3.162  0.00  0.00    -0.547 OA
ATOM     22  O   LIG d   1       9.227   2.830  -3.104  0.00  0.00    -0.547 OA
ENDBRANCH  18  20
BRANCH  18  23
ATOM     23  O   LIG d   1      11.992   4.317  -1.537  0.00  0.00    -0.386 OA
ATOM     24  H   LIG d   1      12.615   3.586  -1.646  0.00  0.00     0.210 HD
ENDBRANCH  18  23
ENDBRANCH  15  18
ENDBRANCH   5  15
BRANCH   1  25
ATOM     25  O   LIG d   1      11.769  12.064  -0.132  0.00  0.00    -0.495 OA
BRANCH  25  26
ATOM     26  C   LIG d   1      11.685  12.421  -1.513  0.00  0.00     0.079 C 
ATOM     27  H   LIG d   1      10.734  12.076  -1.921  0.00  0.00     0.066 H 
ATOM     28  H   LIG d   1      12.505  11.953  -2.060  0.00  0.00     0.066 H 
ATOM     29  H   LIG d   1      11.752  13.504  -1.614  0.00  0.00     0.066 H 
ENDBRANCH  25  26
ENDBRANCH   1  25
BRANCH  10  30
ATOM     30  O   LIG d   1      11.908   8.559   3.075  0.00  0.00    -0.506 OA
ATOM     31  H   LIG d   1      12.825   8.291   3.225  0.00  0.00     0.292 HD
ENDBRANCH  10  30
TORSDOF 7
ENDMDL
MODEL 7
REMARK VINA RESULT:      -4.8      9.113     11.490
REMARK  7 active torsions:
REMARK  status: ('A' for Active; 'I' for Inactive)
REMARK    1  A    between atoms: C_1  and  O_2 
REMARK    2  A    between atoms: O_2  and  C_3 
REMARK    3  A    between atoms: C_7  and  C_15 
REMARK    4  A    between atoms: C_12  and  O_14 
REMARK    5  A    between atoms: C_15  and  C_16 
REMARK    6  A    between atoms: C_16  and  C_18 
REMARK    7  A    between atoms: C_16  and  O_20 
ROOT
ATOM      1  C   LIG d   1      10.454  10.886  -5.203  0.00  0.00     0.124 A 
ATOM      2  C   LIG d   1      11.221   9.919  -4.570  0.00  0.00    -0.012 A 
ATOM      3  C   LIG d   1      10.851   9.467  -3.308  0.00  0.00    -0.001 A 
ATOM      4  C   LIG d   1      11.624   8.450  -2.586  0.00  0.00    -0.015 A 
ATOM      5  C   LIG d   1      11.213   8.052  -1.377  0.00  0.00     0.113 A 
ATOM      6  O   LIG d   1      10.114   8.546  -0.784  0.00  0.00    -0.427 OA
ATOM      7  C   LIG d   1       9.336   9.482  -1.359  0.00  0.00     0.348 A 
ATOM      8  O   LIG d   1       8.348   9.899  -0.784  0.00  0.00    -0.244 OA
ATOM      9  C   LIG d   1       9.692   9.989  -2.684  0.00  0.00     0.108 A 
ATOM     10  C   LIG d   1       8.926  10.961  -3.340  0.00  0.00     0.135 A 
ATOM     11  C   LIG d   1       9.315  11.401  -4.593  0.00  0.00     0.022 A 
ATOM     12  H   LIG d   1      12.101   9.522  -5.053  0.00  0.00     0.066 H 
ATOM     13  H   LIG d   1      12.515   8.026  -3.027  0.00  0.00     0.066 H 
ATOM     14  H   LIG d   1       8.727  12.151  -5.102  0.00  0.00     0.069 H 
ENDROOT
BRANCH   5  15
ATOM     15  C   LIG d   1      12.016   7.006  -0.648  0.00  0.00     0.037 C 
ATOM     16  H   LIG d   1      12.680   6.502  -1.351  0.00  0.00     0.037 H 
ATOM     17  H   LIG d   1      12.608   7.482   0.133  0.00  0.00     0.037 H 
BRANCH  15  18
ATOM     18  C   LIG d   1      11.069   5.983  -0.018  0.00  0.00     0.101 C 
ATOM     19  H   LIG d   1      10.062   6.131  -0.408  0.00  0.00     0.066 H 
BRANCH  18  20
ATOM     20  C   LIG d   1      11.059   6.163   1.479  0.00  0.00     0.070 C 
ATOM     21  O   LIG d   1      10.649   5.278   2.192  0.00  0.00    -0.547 OA
ATOM     22  O   LIG d   1      11.505   7.308   2.020  0.00  0.00    -0.547 OA
ENDBRANCH  18  20
BRANCH  18  23
ATOM     23  O   LIG d   1      11.514   4.663  -0.335  0.00  0.00    -0.386 OA
ATOM     24  H   LIG d   1      11.251   3.994   0.310  0.00  0.00     0.210 HD
ENDBRANCH  18  23
ENDBRANCH  15  18
ENDBRANCH   5  15
BRANCH   1  25
ATOM     25  O   LIG d   1      10.817  11.331  -6.432  0.00  0.00    -0.495 OA
BRANCH  25  26
ATOM     26  C   LIG d   1      12.159  11.066  -6.847  0.00  0.00     0.079 C 
ATOM     27  H   LIG d   1      12.147  10.474  -7.762  0.00  0.00     0.066 H 
ATOM     28  H   LIG d   1      12.680  10.513  -6.064  0.00  0.00     0.066 H 
ATOM     29  H   LIG d   1      12.676  12.008  -7.030  0.00  0.00     0.066 H 
ENDBRANCH  25  26
ENDBRANCH   1  25
BRANCH  10  30
ATOM     30  O   LIG d   1       7.814  11.467  -2.751  0.00  0.00    -0.506 OA
ATOM     31  H   LIG d   1       7.567  12.347  -3.068  0.00  0.00     0.292 HD
ENDBRANCH  10  30
TORSDOF 7
ENDMDL
MODEL 8
REMARK VINA RESULT:      -4.8      9.490     11.489
REMARK  7 active torsions:
REMARK  status: ('A' for Active; 'I' for Inactive)
REMARK    1  A    between atoms: C_1  and  O_2 
REMARK    2  A    between atoms: O_2  and  C_3 
REMARK    3  A    between atoms: C_7  and  C_15 
REMARK    4  A    between atoms: C_12  and  O_14 
REMARK    5  A    between atoms: C_15  and  C_16 
REMARK    6  A    between atoms: C_16  and  C_18 
REMARK    7  A    between atoms: C_16  and  O_20 
ROOT
ATOM      1  C   LIG d   1      13.402   7.273  -0.297  0.00  0.00     0.124 A 
ATOM      2  C   LIG d   1      13.117   8.566  -0.710  0.00  0.00    -0.012 A 
ATOM      3  C   LIG d   1      11.800   8.932  -0.962  0.00  0.00    -0.001 A 
ATOM      4  C   LIG d   1      11.436  10.282  -1.405  0.00  0.00    -0.015 A 
ATOM      5  C   LIG d   1      10.149  10.574  -1.626  0.00  0.00     0.113 A 
ATOM      6  O   LIG d   1       9.163   9.679  -1.461  0.00  0.00    -0.427 OA
ATOM      7  C   LIG d   1       9.388   8.414  -1.059  0.00  0.00     0.348 A 
ATOM      8  O   LIG d   1       8.461   7.637  -0.922  0.00  0.00    -0.244 OA
ATOM      9  C   LIG d   1      10.760   7.986  -0.787  0.00  0.00     0.108 A 
ATOM     10  C   LIG d   1      11.065   6.686  -0.365  0.00  0.00     0.135 A 
ATOM     11  C   LIG d   1      12.383   6.342  -0.124  0.00  0.00     0.022 A 
ATOM     12  H   LIG d   1      13.914   9.283  -0.837  0.00  0.00     0.066 H 
ATOM     13  H   LIG d   1      12.199  11.033  -1.550  0.00  0.00     0.066 H 
ATOM     14  H   LIG d   1      12.623   5.340   0.201  0.00  0.00     0.069 H 
ENDROOT
BRANCH   5  15
ATOM     15  C   LIG d   1       9.791  11.966  -2.080  0.00  0.00     0.037 C 
ATOM     16  H   LIG d   1       9.210  12.463  -1.304  0.00  0.00     0.037 H 
ATOM     17  H   LIG d   1      10.703  12.531  -2.270  0.00  0.00     0.037 H 
BRANCH  15  18
ATOM     18  C   LIG d   1       8.963  11.886  -3.365  0.00  0.00     0.101 C 
ATOM     19  H   LIG d   1       9.348  11.084  -3.996  0.00  0.00     0.066 H 
BRANCH  18  20
ATOM     20  C   LIG d   1       9.056  13.196  -4.104  0.00  0.00     0.070 C 
ATOM     21  O   LIG d   1       8.695  14.218  -3.570  0.00  0.00    -0.547 OA
ATOM     22  O   LIG d   1       9.539  13.228  -5.356  0.00  0.00    -0.547 OA
ENDBRANCH  18  20
BRANCH  18  23
ATOM     23  O   LIG d   1       7.599  11.620  -3.036  0.00  0.00    -0.386 OA
ATOM     24  H   LIG d   1       7.095  12.405  -2.783  0.00  0.00     0.210 HD
ENDBRANCH  18  23
ENDBRANCH  15  18
ENDBRANCH   5  15
BRANCH   1  25
ATOM     25  O   LIG d   1      14.688   6.914  -0.055  0.00  0.00    -0.495 OA
BRANCH  25  26
ATOM     26  C   LIG d   1      15.233   5.869  -0.863  0.00  0.00     0.079 C 
ATOM     27  H   LIG d   1      14.589   5.705  -1.728  0.00  0.00     0.066 H 
ATOM     28  H   LIG d   1      15.294   4.951  -0.278  0.00  0.00     0.066 H 
ATOM     29  H   LIG d   1      16.229   6.152  -1.201  0.00  0.00     0.066 H 
ENDBRANCH  25  26
ENDBRANCH   1  25
BRANCH  10  30
ATOM     30  O   LIG d   1      10.077   5.773  -0.194  0.00  0.00    -0.506 OA
ATOM     31  H   LIG d   1       9.285   5.949  -0.721  0.00  0.00     0.292 HD
ENDBRANCH  10  30
TORSDOF 7
ENDMDL
MODEL 9
REMARK VINA RESULT:      -4.7      4.680      6.070
REMARK  7 active torsions:
REMARK  status: ('A' for Active; 'I' for Inactive)
REMARK    1  A    between atoms: C_1  and  O_2 
REMARK    2  A    between atoms: O_2  and  C_3 
REMARK    3  A    between atoms: C_7  and  C_15 
REMARK    4  A    between atoms: C_12  and  O_14 
REMARK    5  A    between atoms: C_15  and  C_16 
REMARK    6  A    between atoms: C_16  and  C_18 
REMARK    7  A    between atoms: C_16  and  O_20 
ROOT
ATOM      1  C   LIG d   1       2.726  -1.037 -10.155  0.00  0.00     0.124 A 
ATOM      2  C   LIG d   1       2.593  -0.288  -8.996  0.00  0.00    -0.012 A 
ATOM      3  C   LIG d   1       3.228  -0.705  -7.831  0.00  0.00    -0.001 A 
ATOM      4  C   LIG d   1       3.121   0.042  -6.574  0.00  0.00    -0.015 A 
ATOM      5  C   LIG d   1       3.761  -0.409  -5.488  0.00  0.00     0.113 A 
ATOM      6  O   LIG d   1       4.503  -1.527  -5.495  0.00  0.00    -0.427 OA
ATOM      7  C   LIG d   1       4.665  -2.285  -6.595  0.00  0.00     0.348 A 
ATOM      8  O   LIG d   1       5.350  -3.292  -6.554  0.00  0.00    -0.244 OA
ATOM      9  C   LIG d   1       4.011  -1.886  -7.841  0.00  0.00     0.108 A 
ATOM     10  C   LIG d   1       4.138  -2.628  -9.021  0.00  0.00     0.135 A 
ATOM     11  C   LIG d   1       3.494  -2.197 -10.167  0.00  0.00     0.022 A 
ATOM     12  H   LIG d   1       1.998   0.613  -8.997  0.00  0.00     0.066 H 
ATOM     13  H   LIG d   1       2.534   0.947  -6.525  0.00  0.00     0.066 H 
ATOM     14  H   LIG d   1       3.590  -2.767 -11.080  0.00  0.00     0.069 H 
ENDROOT
BRANCH   5  15
ATOM     15  C   LIG d   1       3.643   0.370  -4.204  0.00  0.00     0.037 C 
ATOM     16  H   LIG d   1       3.407   1.411  -4.430  0.00  0.00     0.037 H 
ATOM     17  H   LIG d   1       2.849  -0.057  -3.592  0.00  0.00     0.037 H 
BRANCH  15  18
ATOM     18  C   LIG d   1       4.968   0.301  -3.442  0.00  0.00     0.101 C 
ATOM     19  H   LIG d   1       5.540  -0.562  -3.785  0.00  0.00     0.066 H 
BRANCH  18  20
ATOM     20  C   LIG d   1       4.693   0.168  -1.966  0.00  0.00     0.070 C 
ATOM     21  O   LIG d   1       4.762   1.138  -1.249  0.00  0.00    -0.547 OA
ATOM     22  O   LIG d   1       4.371  -1.027  -1.449  0.00  0.00    -0.547 OA
ENDBRANCH  18  20
BRANCH  18  23
ATOM     23  O   LIG d   1       5.717   1.494  -3.681  0.00  0.00    -0.386 OA
ATOM     24  H   LIG d   1       6.673   1.358  -3.715  0.00  0.00     0.210 HD
ENDBRANCH  18  23
ENDBRANCH  15  18
ENDBRANCH   5  15
BRANCH   1  25
ATOM     25  O   LIG d   1       2.102  -0.633 -11.291  0.00  0.00    -0.495 OA
BRANCH  25  26
ATOM     26  C   LIG d   1       2.435  -1.326 -12.495  0.00  0.00     0.079 C 
ATOM     27  H   LIG d   1       2.832  -2.311 -12.250  0.00  0.00     0.066 H 
ATOM     28  H   LIG d   1       3.187  -0.759 -13.046  0.00  0.00     0.066 H 
ATOM     29  H   LIG d   1       1.542  -1.437 -13.110  0.00  0.00     0.066 H 
ENDBRANCH  25  26
ENDBRANCH   1  25
BRANCH  10  30
ATOM     30  O   LIG d   1       4.886  -3.759  -9.040  0.00  0.00    -0.506 OA
ATOM     31  H   LIG d   1       4.444  -4.516  -9.449  0.00  0.00     0.292 HD
ENDBRANCH  10  30
TORSDOF 7
ENDMDL
