MODEL 1
REMARK VINA RESULT:      -7.1      0.000      0.000
REMARK  5 active torsions:
REMARK  status: ('A' for Active; 'I' for Inactive)
REMARK    1  A    between atoms: C_1  and  C_2 
REMARK    2  A    between atoms: C_5  and  C_8 
REMARK    3  A    between atoms: C_8  and  N_9 
REMARK       I    between atoms: N_9  and  C_10 
REMARK    4  A    between atoms: C_10  and  C_12 
REMARK    5  A    between atoms: N_18  and  C_19 
ROOT
ATOM      1  C   LIG d   1       3.778  -0.651  -4.349  0.00  0.00     0.106 C 
ATOM      2  H   LIG d   1       3.946  -1.702  -4.583  0.00  0.00     0.060 H 
ATOM      3  C   LIG d   1       2.869  -0.519  -3.105  0.00  0.00    -0.017 C 
ATOM      4  C   LIG d   1       3.456   0.736  -2.419  0.00  0.00     0.026 C 
ATOM      5  C   LIG d   1       4.889   0.786  -2.901  0.00  0.00     0.219 C 
ATOM      6  O   LIG d   1       5.771   1.444  -2.391  0.00  0.00    -0.276 OA
ATOM      7  N   LIG d   1       5.043  -0.005  -3.976  0.00  0.00    -0.251 N 
ATOM      8  H   LIG d   1       2.955  -1.393  -2.459  0.00  0.00     0.029 H 
ATOM      9  H   LIG d   1       1.832  -0.354  -3.399  0.00  0.00     0.029 H 
ATOM     10  H   LIG d   1       3.422   0.629  -1.334  0.00  0.00     0.036 H 
ATOM     11  H   LIG d   1       2.916   1.629  -2.732  0.00  0.00     0.036 H 
ENDROOT
BRANCH   1  12
ATOM     12  C   LIG d   1       3.162   0.055  -5.528  0.00  0.00     0.234 C 
ATOM     13  N   LIG d   1       3.027  -0.590  -6.704  0.00  0.00    -0.310 N 
ATOM     14  H   LIG d   1       3.328  -1.508  -6.791  0.00  0.00     0.149 HD
ATOM     15  O   LIG d   1       2.786   1.203  -5.420  0.00  0.00    -0.274 OA
BRANCH  13  16
ATOM     16  C   LIG d   1       2.426   0.096  -7.851  0.00  0.00     0.037 C 
ATOM     17  H   LIG d   1       1.420  -0.288  -8.018  0.00  0.00     0.051 H 
ATOM     18  H   LIG d   1       2.379   1.166  -7.650  0.00  0.00     0.051 H 
BRANCH  16  19
ATOM     19  C   LIG d   1       3.266  -0.149  -9.078  0.00  0.00    -0.030 A 
ATOM     20  C   LIG d   1       3.790  -1.405  -9.319  0.00  0.00    -0.057 A 
ATOM     21  C   LIG d   1       4.559  -1.630 -10.445  0.00  0.00    -0.059 A 
ATOM     22  H   LIG d   1       3.597  -2.212  -8.627  0.00  0.00     0.062 H 
ATOM     23  C   LIG d   1       4.806  -0.598 -11.331  0.00  0.00    -0.050 A 
ATOM     24  H   LIG d   1       4.968  -2.612 -10.632  0.00  0.00     0.062 H 
ATOM     25  C   LIG d   1       4.282   0.659 -11.091  0.00  0.00    -0.059 A 
ATOM     26  C   LIG d   1       3.508   0.882  -9.967  0.00  0.00    -0.057 A 
ATOM     27  H   LIG d   1       4.474   1.465 -11.784  0.00  0.00     0.062 H 
ATOM     28  H   LIG d   1       3.095   1.863  -9.782  0.00  0.00     0.062 H 
BRANCH  23  29
ATOM     29  C   LIG d   1       5.644  -0.843 -12.559  0.00  0.00    -0.040 C 
ATOM     30  H   LIG d   1       6.626  -0.392 -12.425  0.00  0.00     0.028 H 
ATOM     31  H   LIG d   1       5.754  -1.916 -12.715  0.00  0.00     0.028 H 
ATOM     32  H   LIG d   1       5.155  -0.399 -13.426  0.00  0.00     0.028 H 
ENDBRANCH  23  29
ENDBRANCH  16  19
ENDBRANCH  13  16
ENDBRANCH   1  12
BRANCH   7  33
ATOM     33  C   LIG d   1       6.309  -0.196  -4.688  0.00  0.00     0.201 A 
ATOM     34  H   LIG d   1       7.147   0.019  -4.023  0.00  0.00     0.101 H 
ATOM     35  O   LIG d   1       6.362   0.670  -5.854  0.00  0.00    -0.435 OA
ATOM     36  C   LIG d   1       6.481  -0.088  -6.957  0.00  0.00     0.342 A 
ATOM     37  C   LIG d   1       6.507  -1.516  -6.593  0.00  0.00     0.067 A 
ATOM     38  O   LIG d   1       6.551   0.342  -8.091  0.00  0.00    -0.245 OA
ATOM     39  C   LIG d   1       6.406  -1.610  -5.202  0.00  0.00     0.025 A 
ATOM     40  C   LIG d   1       6.613  -2.683  -7.353  0.00  0.00    -0.047 A 
ATOM     41  C   LIG d   1       6.412  -2.840  -4.588  0.00  0.00    -0.053 A 
ATOM     42  C   LIG d   1       6.517  -3.993  -5.348  0.00  0.00    -0.061 A 
ATOM     43  H   LIG d   1       6.333  -2.908  -3.513  0.00  0.00     0.062 H 
ATOM     44  C   LIG d   1       6.618  -3.911  -6.727  0.00  0.00    -0.061 A 
ATOM     45  H   LIG d   1       6.521  -4.959  -4.865  0.00  0.00     0.062 H 
ATOM     46  H   LIG d   1       6.700  -4.813  -7.314  0.00  0.00     0.062 H 
ATOM     47  H   LIG d   1       6.692  -2.623  -8.429  0.00  0.00     0.063 H 
ENDBRANCH   7  33
TORSDOF 5
ENDMDL
MODEL 2
REMARK VINA RESULT:      -7.0      3.018      5.145
REMARK  5 active torsions:
REMARK  status: ('A' for Active; 'I' for Inactive)
REMARK    1  A    between atoms: C_1  and  C_2 
REMARK    2  A    between atoms: C_5  and  C_8 
REMARK    3  A    between atoms: C_8  and  N_9 
REMARK       I    between atoms: N_9  and  C_10 
REMARK    4  A    between atoms: C_10  and  C_12 
REMARK    5  A    between atoms: N_18  and  C_19 
ROOT
ATOM      1  C   LIG d   1       4.838   0.105  -3.809  0.00  0.00     0.106 C 
ATOM      2  H   LIG d   1       4.379   0.813  -4.499  0.00  0.00     0.060 H 
ATOM      3  C   LIG d   1       4.158   0.192  -2.423  0.00  0.00    -0.017 C 
ATOM      4  C   LIG d   1       4.198  -1.283  -1.962  0.00  0.00     0.026 C 
ATOM      5  C   LIG d   1       4.259  -2.074  -3.250  0.00  0.00     0.219 C 
ATOM      6  O   LIG d   1       4.024  -3.260  -3.349  0.00  0.00    -0.276 OA
ATOM      7  N   LIG d   1       4.611  -1.271  -4.269  0.00  0.00    -0.251 N 
ATOM      8  H   LIG d   1       3.131   0.546  -2.509  0.00  0.00     0.029 H 
ATOM      9  H   LIG d   1       4.733   0.828  -1.749  0.00  0.00     0.029 H 
ATOM     10  H   LIG d   1       3.296  -1.533  -1.403  0.00  0.00     0.036 H 
ATOM     11  H   LIG d   1       5.086  -1.469  -1.357  0.00  0.00     0.036 H 
ENDROOT
BRANCH   1  12
ATOM     12  C   LIG d   1       6.315   0.377  -3.689  0.00  0.00     0.234 C 
ATOM     13  N   LIG d   1       6.808   1.583  -4.034  0.00  0.00    -0.310 N 
ATOM     14  H   LIG d   1       6.213   2.275  -4.360  0.00  0.00     0.149 HD
ATOM     15  O   LIG d   1       7.060  -0.489  -3.282  0.00  0.00    -0.274 OA
BRANCH  13  16
ATOM     16  C   LIG d   1       8.245   1.847  -3.916  0.00  0.00     0.037 C 
ATOM     17  H   LIG d   1       8.431   2.455  -3.030  0.00  0.00     0.051 H 
ATOM     18  H   LIG d   1       8.782   0.903  -3.829  0.00  0.00     0.051 H 
BRANCH  16  19
ATOM     19  C   LIG d   1       8.721   2.586  -5.140  0.00  0.00    -0.030 A 
ATOM     20  C   LIG d   1       8.539   2.036  -6.394  0.00  0.00    -0.057 A 
ATOM     21  C   LIG d   1       8.975   2.715  -7.517  0.00  0.00    -0.059 A 
ATOM     22  H   LIG d   1       8.056   1.076  -6.498  0.00  0.00     0.062 H 
ATOM     23  C   LIG d   1       9.593   3.944  -7.385  0.00  0.00    -0.050 A 
ATOM     24  H   LIG d   1       8.832   2.284  -8.497  0.00  0.00     0.062 H 
ATOM     25  C   LIG d   1       9.776   4.495  -6.130  0.00  0.00    -0.059 A 
ATOM     26  C   LIG d   1       9.335   3.818  -5.008  0.00  0.00    -0.057 A 
ATOM     27  H   LIG d   1      10.258   5.456  -6.027  0.00  0.00     0.062 H 
ATOM     28  H   LIG d   1       9.473   4.250  -4.028  0.00  0.00     0.062 H 
BRANCH  23  29
ATOM     29  C   LIG d   1      10.068   4.684  -8.609  0.00  0.00    -0.040 C 
ATOM     30  H   LIG d   1      11.055   4.323  -8.893  0.00  0.00     0.028 H 
ATOM     31  H   LIG d   1       9.369   4.516  -9.428  0.00  0.00     0.028 H 
ATOM     32  H   LIG d   1      10.120   5.751  -8.390  0.00  0.00     0.028 H 
ENDBRANCH  23  29
ENDBRANCH  16  19
ENDBRANCH  13  16
ENDBRANCH   1  12
BRANCH   7  33
ATOM     33  C   LIG d   1       4.755  -1.712  -5.658  0.00  0.00     0.201 A 
ATOM     34  H   LIG d   1       4.161  -2.611  -5.827  0.00  0.00     0.101 H 
ATOM     35  O   LIG d   1       6.153  -1.975  -5.957  0.00  0.00    -0.435 OA
ATOM     36  C   LIG d   1       6.547  -1.163  -6.952  0.00  0.00     0.342 A 
ATOM     37  C   LIG d   1       5.432  -0.297  -7.376  0.00  0.00     0.067 A 
ATOM     38  O   LIG d   1       7.665  -1.141  -7.429  0.00  0.00    -0.245 OA
ATOM     39  C   LIG d   1       4.316  -0.618  -6.597  0.00  0.00     0.025 A 
ATOM     40  C   LIG d   1       5.325   0.698  -8.349  0.00  0.00    -0.047 A 
ATOM     41  C   LIG d   1       3.124   0.041  -6.789  0.00  0.00    -0.053 A 
ATOM     42  C   LIG d   1       3.027   1.027  -7.756  0.00  0.00    -0.061 A 
ATOM     43  H   LIG d   1       2.265  -0.209  -6.185  0.00  0.00     0.062 H 
ATOM     44  C   LIG d   1       4.126   1.352  -8.533  0.00  0.00    -0.061 A 
ATOM     45  H   LIG d   1       2.090   1.544  -7.906  0.00  0.00     0.062 H 
ATOM     46  H   LIG d   1       4.043   2.121  -9.286  0.00  0.00     0.062 H 
ATOM     47  H   LIG d   1       6.181   0.954  -8.957  0.00  0.00     0.063 H 
ENDBRANCH   7  33
TORSDOF 5
ENDMDL
MODEL 3
REMARK VINA RESULT:      -6.9      2.007      4.306
REMARK  5 active torsions:
REMARK  status: ('A' for Active; 'I' for Inactive)
REMARK    1  A    between atoms: C_1  and  C_2 
REMARK    2  A    between atoms: C_5  and  C_8 
REMARK    3  A    between atoms: C_8  and  N_9 
REMARK       I    between atoms: N_9  and  C_10 
REMARK    4  A    between atoms: C_10  and  C_12 
REMARK    5  A    between atoms: N_18  and  C_19 
ROOT
ATOM      1  C   LIG d   1       6.039  -1.119  -5.833  0.00  0.00     0.106 C 
ATOM      2  H   LIG d   1       6.284  -0.545  -4.939  0.00  0.00     0.060 H 
ATOM      3  C   LIG d   1       7.160  -2.141  -6.135  0.00  0.00    -0.017 C 
ATOM      4  C   LIG d   1       6.352  -3.336  -6.690  0.00  0.00     0.026 C 
ATOM      5  C   LIG d   1       4.977  -3.170  -6.083  0.00  0.00     0.219 C 
ATOM      6  O   LIG d   1       4.129  -4.035  -6.036  0.00  0.00    -0.276 OA
ATOM      7  N   LIG d   1       4.832  -1.923  -5.604  0.00  0.00    -0.251 N 
ATOM      8  H   LIG d   1       7.695  -2.419  -5.227  0.00  0.00     0.029 H 
ATOM      9  H   LIG d   1       7.847  -1.750  -6.887  0.00  0.00     0.029 H 
ATOM     10  H   LIG d   1       6.798  -4.279  -6.372  0.00  0.00     0.036 H 
ATOM     11  H   LIG d   1       6.299  -3.288  -7.778  0.00  0.00     0.036 H 
ENDROOT
BRANCH   1  12
ATOM     12  C   LIG d   1       5.836  -0.198  -7.007  0.00  0.00     0.234 C 
ATOM     13  N   LIG d   1       4.912  -0.493  -7.943  0.00  0.00    -0.310 N 
ATOM     14  H   LIG d   1       4.379  -1.299  -7.862  0.00  0.00     0.149 HD
ATOM     15  O   LIG d   1       6.502   0.810  -7.109  0.00  0.00    -0.274 OA
BRANCH  13  16
ATOM     16  C   LIG d   1       4.714   0.405  -9.085  0.00  0.00     0.037 C 
ATOM     17  H   LIG d   1       4.463   1.402  -8.724  0.00  0.00     0.051 H 
ATOM     18  H   LIG d   1       5.630   0.451  -9.674  0.00  0.00     0.051 H 
BRANCH  16  19
ATOM     19  C   LIG d   1       3.590  -0.116  -9.943  0.00  0.00    -0.030 A 
ATOM     20  C   LIG d   1       2.333  -0.300  -9.399  0.00  0.00    -0.057 A 
ATOM     21  C   LIG d   1       1.301  -0.777 -10.186  0.00  0.00    -0.059 A 
ATOM     22  H   LIG d   1       2.156  -0.072  -8.358  0.00  0.00     0.062 H 
ATOM     23  C   LIG d   1       1.527  -1.070 -11.518  0.00  0.00    -0.050 A 
ATOM     24  H   LIG d   1       0.319  -0.921  -9.760  0.00  0.00     0.062 H 
ATOM     25  C   LIG d   1       2.784  -0.885 -12.063  0.00  0.00    -0.059 A 
ATOM     26  C   LIG d   1       3.814  -0.403 -11.277  0.00  0.00    -0.057 A 
ATOM     27  H   LIG d   1       2.960  -1.113 -13.104  0.00  0.00     0.062 H 
ATOM     28  H   LIG d   1       4.795  -0.255 -11.703  0.00  0.00     0.062 H 
BRANCH  23  29
ATOM     29  C   LIG d   1       0.403  -1.588 -12.377  0.00  0.00    -0.040 C 
ATOM     30  H   LIG d   1       0.251  -0.917 -13.222  0.00  0.00     0.028 H 
ATOM     31  H   LIG d   1       0.655  -2.583 -12.743  0.00  0.00     0.028 H 
ATOM     32  H   LIG d   1      -0.511  -1.640 -11.785  0.00  0.00     0.028 H 
ENDBRANCH  23  29
ENDBRANCH  16  19
ENDBRANCH  13  16
ENDBRANCH   1  12
BRANCH   7  33
ATOM     33  C   LIG d   1       3.623  -1.428  -4.941  0.00  0.00     0.201 A 
ATOM     34  H   LIG d   1       2.939  -2.254  -4.747  0.00  0.00     0.101 H 
ATOM     35  O   LIG d   1       2.972  -0.427  -5.772  0.00  0.00    -0.435 OA
ATOM     36  C   LIG d   1       2.923   0.735  -5.099  0.00  0.00     0.342 A 
ATOM     37  C   LIG d   1       3.549   0.583  -3.773  0.00  0.00     0.067 A 
ATOM     38  O   LIG d   1       2.439   1.765  -5.526  0.00  0.00    -0.245 OA
ATOM     39  C   LIG d   1       3.985  -0.739  -3.650  0.00  0.00     0.025 A 
ATOM     40  C   LIG d   1       3.750   1.472  -2.716  0.00  0.00    -0.047 A 
ATOM     41  C   LIG d   1       4.605  -1.160  -2.497  0.00  0.00    -0.053 A 
ATOM     42  C   LIG d   1       4.802  -0.272  -1.453  0.00  0.00    -0.061 A 
ATOM     43  H   LIG d   1       4.941  -2.183  -2.406  0.00  0.00     0.062 H 
ATOM     44  C   LIG d   1       4.374   1.040  -1.565  0.00  0.00    -0.061 A 
ATOM     45  H   LIG d   1       5.289  -0.603  -0.548  0.00  0.00     0.062 H 
ATOM     46  H   LIG d   1       4.529   1.728  -0.747  0.00  0.00     0.062 H 
ATOM     47  H   LIG d   1       3.418   2.497  -2.800  0.00  0.00     0.063 H 
ENDBRANCH   7  33
TORSDOF 5
ENDMDL
MODEL 4
REMARK VINA RESULT:      -6.6      2.041      4.144
REMARK  5 active torsions:
REMARK  status: ('A' for Active; 'I' for Inactive)
REMARK    1  A    between atoms: C_1  and  C_2 
REMARK    2  A    between atoms: C_5  and  C_8 
REMARK    3  A    between atoms: C_8  and  N_9 
REMARK       I    between atoms: N_9  and  C_10 
REMARK    4  A    between atoms: C_10  and  C_12 
REMARK    5  A    between atoms: N_18  and  C_19 
ROOT
ATOM      1  C   LIG d   1       6.580   0.163  -6.004  0.00  0.00     0.106 C 
ATOM      2  H   LIG d   1       6.255   0.976  -5.354  0.00  0.00     0.060 H 
ATOM      3  C   LIG d   1       7.607   0.684  -7.037  0.00  0.00    -0.017 C 
ATOM      4  C   LIG d   1       8.558  -0.527  -7.170  0.00  0.00     0.026 C 
ATOM      5  C   LIG d   1       8.405  -1.267  -5.860  0.00  0.00     0.219 C 
ATOM      6  O   LIG d   1       9.172  -2.109  -5.443  0.00  0.00    -0.276 OA
ATOM      7  N   LIG d   1       7.295  -0.854  -5.224  0.00  0.00    -0.251 N 
ATOM      8  H   LIG d   1       8.138   1.558  -6.658  0.00  0.00     0.029 H 
ATOM      9  H   LIG d   1       7.121   0.906  -7.987  0.00  0.00     0.029 H 
ATOM     10  H   LIG d   1       9.587  -0.192  -7.301  0.00  0.00     0.036 H 
ATOM     11  H   LIG d   1       8.254  -1.160  -8.004  0.00  0.00     0.036 H 
ENDROOT
BRANCH   1  12
ATOM     12  C   LIG d   1       5.396  -0.452  -6.703  0.00  0.00     0.234 C 
ATOM     13  N   LIG d   1       4.333   0.310  -7.025  0.00  0.00    -0.310 N 
ATOM     14  H   LIG d   1       4.329   1.255  -6.805  0.00  0.00     0.149 HD
ATOM     15  O   LIG d   1       5.401  -1.633  -6.978  0.00  0.00    -0.274 OA
BRANCH  13  16
ATOM     16  C   LIG d   1       3.182  -0.289  -7.706  0.00  0.00     0.037 C 
ATOM     17  H   LIG d   1       3.033  -1.306  -7.343  0.00  0.00     0.051 H 
ATOM     18  H   LIG d   1       2.290   0.304  -7.502  0.00  0.00     0.051 H 
BRANCH  16  19
ATOM     19  C   LIG d   1       3.438  -0.319  -9.191  0.00  0.00    -0.030 A 
ATOM     20  C   LIG d   1       3.802   0.837  -9.854  0.00  0.00    -0.057 A 
ATOM     21  C   LIG d   1       4.038   0.809 -11.215  0.00  0.00    -0.059 A 
ATOM     22  H   LIG d   1       3.904   1.763  -9.308  0.00  0.00     0.062 H 
ATOM     23  C   LIG d   1       3.909  -0.376 -11.915  0.00  0.00    -0.050 A 
ATOM     24  H   LIG d   1       4.323   1.713 -11.733  0.00  0.00     0.062 H 
ATOM     25  C   LIG d   1       3.544  -1.534 -11.252  0.00  0.00    -0.059 A 
ATOM     26  C   LIG d   1       3.314  -1.506  -9.890  0.00  0.00    -0.057 A 
ATOM     27  H   LIG d   1       3.444  -2.460 -11.799  0.00  0.00     0.062 H 
ATOM     28  H   LIG d   1       3.033  -2.411  -9.371  0.00  0.00     0.062 H 
BRANCH  23  29
ATOM     29  C   LIG d   1       4.167  -0.408 -13.399  0.00  0.00    -0.040 C 
ATOM     30  H   LIG d   1       3.801  -1.347 -13.812  0.00  0.00     0.028 H 
ATOM     31  H   LIG d   1       3.649   0.425 -13.875  0.00  0.00     0.028 H 
ATOM     32  H   LIG d   1       5.238  -0.322 -13.583  0.00  0.00     0.028 H 
ENDBRANCH  23  29
ENDBRANCH  16  19
ENDBRANCH  13  16
ENDBRANCH   1  12
BRANCH   7  33
ATOM     33  C   LIG d   1       6.852  -1.359  -3.922  0.00  0.00     0.201 A 
ATOM     34  H   LIG d   1       7.703  -1.445  -3.246  0.00  0.00     0.101 H 
ATOM     35  O   LIG d   1       6.210  -2.654  -4.081  0.00  0.00    -0.435 OA
ATOM     36  C   LIG d   1       4.940  -2.568  -3.649  0.00  0.00     0.342 A 
ATOM     37  C   LIG d   1       4.653  -1.201  -3.181  0.00  0.00     0.067 A 
ATOM     38  O   LIG d   1       4.142  -3.485  -3.651  0.00  0.00    -0.245 OA
ATOM     39  C   LIG d   1       5.814  -0.438  -3.335  0.00  0.00     0.025 A 
ATOM     40  C   LIG d   1       3.507  -0.605  -2.650  0.00  0.00    -0.047 A 
ATOM     41  C   LIG d   1       5.827   0.887  -2.966  0.00  0.00    -0.053 A 
ATOM     42  C   LIG d   1       4.687   1.471  -2.441  0.00  0.00    -0.061 A 
ATOM     43  H   LIG d   1       6.726   1.473  -3.088  0.00  0.00     0.062 H 
ATOM     44  C   LIG d   1       3.531   0.724  -2.284  0.00  0.00    -0.061 A 
ATOM     45  H   LIG d   1       4.698   2.511  -2.152  0.00  0.00     0.062 H 
ATOM     46  H   LIG d   1       2.646   1.185  -1.872  0.00  0.00     0.062 H 
ATOM     47  H   LIG d   1       2.604  -1.184  -2.526  0.00  0.00     0.063 H 
ENDBRANCH   7  33
TORSDOF 5
ENDMDL
MODEL 5
REMARK VINA RESULT:      -6.5      4.265      7.115
REMARK  5 active torsions:
REMARK  status: ('A' for Active; 'I' for Inactive)
REMARK    1  A    between atoms: C_1  and  C_2 
REMARK    2  A    between atoms: C_5  and  C_8 
REMARK    3  A    between atoms: C_8  and  N_9 
REMARK       I    between atoms: N_9  and  C_10 
REMARK    4  A    between atoms: C_10  and  C_12 
REMARK    5  A    between atoms: N_18  and  C_19 
ROOT
ATOM      1  C   LIG d   1       8.728   0.200  -4.880  0.00  0.00     0.106 C 
ATOM      2  H   LIG d   1       9.417  -0.599  -4.604  0.00  0.00     0.060 H 
ATOM      3  C   LIG d   1       8.944   0.605  -6.357  0.00  0.00    -0.017 C 
ATOM      4  C   LIG d   1       7.502   0.935  -6.805  0.00  0.00     0.026 C 
ATOM      5  C   LIG d   1       6.628   0.129  -5.870  0.00  0.00     0.219 C 
ATOM      6  O   LIG d   1       5.455  -0.116  -6.054  0.00  0.00    -0.276 OA
ATOM      7  N   LIG d   1       7.342  -0.277  -4.806  0.00  0.00    -0.251 N 
ATOM      8  H   LIG d   1       9.353  -0.223  -6.937  0.00  0.00     0.029 H 
ATOM      9  H   LIG d   1       9.586   1.483  -6.428  0.00  0.00     0.029 H 
ATOM     10  H   LIG d   1       7.342   0.626  -7.838  0.00  0.00     0.036 H 
ATOM     11  H   LIG d   1       7.302   2.001  -6.690  0.00  0.00     0.036 H 
ENDROOT
BRANCH   1  12
ATOM     12  C   LIG d   1       8.919   1.389  -3.975  0.00  0.00     0.234 C 
ATOM     13  N   LIG d   1      10.154   1.888  -3.770  0.00  0.00    -0.310 N 
ATOM     14  H   LIG d   1      10.920   1.481  -4.204  0.00  0.00     0.149 HD
ATOM     15  O   LIG d   1       7.961   1.898  -3.433  0.00  0.00    -0.274 OA
BRANCH  13  16
ATOM     16  C   LIG d   1      10.339   3.046  -2.890  0.00  0.00     0.037 C 
ATOM     17  H   LIG d   1       9.655   2.972  -2.045  0.00  0.00     0.051 H 
ATOM     18  H   LIG d   1      11.366   3.066  -2.527  0.00  0.00     0.051 H 
BRANCH  16  19
ATOM     19  C   LIG d   1      10.052   4.310  -3.659  0.00  0.00    -0.030 A 
ATOM     20  C   LIG d   1       9.788   5.486  -2.982  0.00  0.00    -0.057 A 
ATOM     21  C   LIG d   1       9.526   6.646  -3.687  0.00  0.00    -0.059 A 
ATOM     22  H   LIG d   1       9.787   5.499  -1.902  0.00  0.00     0.062 H 
ATOM     23  C   LIG d   1       9.527   6.630  -5.069  0.00  0.00    -0.050 A 
ATOM     24  H   LIG d   1       9.320   7.565  -3.157  0.00  0.00     0.062 H 
ATOM     25  C   LIG d   1       9.791   5.454  -5.747  0.00  0.00    -0.059 A 
ATOM     26  C   LIG d   1      10.058   4.295  -5.041  0.00  0.00    -0.057 A 
ATOM     27  H   LIG d   1       9.793   5.442  -6.827  0.00  0.00     0.062 H 
ATOM     28  H   LIG d   1      10.269   3.377  -5.570  0.00  0.00     0.062 H 
BRANCH  23  29
ATOM     29  C   LIG d   1       9.242   7.894  -5.838  0.00  0.00    -0.040 C 
ATOM     30  H   LIG d   1       9.910   7.956  -6.697  0.00  0.00     0.028 H 
ATOM     31  H   LIG d   1       8.208   7.885  -6.181  0.00  0.00     0.028 H 
ATOM     32  H   LIG d   1       9.403   8.756  -5.191  0.00  0.00     0.028 H 
ENDBRANCH  23  29
ENDBRANCH  16  19
ENDBRANCH  13  16
ENDBRANCH   1  12
BRANCH   7  33
ATOM     33  C   LIG d   1       6.805  -1.088  -3.711  0.00  0.00     0.201 A 
ATOM     34  H   LIG d   1       7.536  -1.160  -2.905  0.00  0.00     0.101 H 
ATOM     35  O   LIG d   1       6.462  -2.416  -4.194  0.00  0.00    -0.435 OA
ATOM     36  C   LIG d   1       5.149  -2.624  -4.006  0.00  0.00     0.342 A 
ATOM     37  C   LIG d   1       4.527  -1.438  -3.391  0.00  0.00     0.067 A 
ATOM     38  O   LIG d   1       4.557  -3.642  -4.308  0.00  0.00    -0.245 OA
ATOM     39  C   LIG d   1       5.525  -0.479  -3.195  0.00  0.00     0.025 A 
ATOM     40  C   LIG d   1       3.217  -1.151  -3.003  0.00  0.00    -0.047 A 
ATOM     41  C   LIG d   1       5.219   0.734  -2.625  0.00  0.00    -0.053 A 
ATOM     42  C   LIG d   1       3.917   1.011  -2.244  0.00  0.00    -0.061 A 
ATOM     43  H   LIG d   1       5.994   1.472  -2.477  0.00  0.00     0.062 H 
ATOM     44  C   LIG d   1       2.921   0.068  -2.433  0.00  0.00    -0.061 A 
ATOM     45  H   LIG d   1       3.678   1.965  -1.796  0.00  0.00     0.062 H 
ATOM     46  H   LIG d   1       1.908   0.290  -2.132  0.00  0.00     0.062 H 
ATOM     47  H   LIG d   1       2.437  -1.884  -3.149  0.00  0.00     0.063 H 
ENDBRANCH   7  33
TORSDOF 5
ENDMDL
MODEL 6
REMARK VINA RESULT:      -6.3      2.712      6.912
REMARK  5 active torsions:
REMARK  status: ('A' for Active; 'I' for Inactive)
REMARK    1  A    between atoms: C_1  and  C_2 
REMARK    2  A    between atoms: C_5  and  C_8 
REMARK    3  A    between atoms: C_8  and  N_9 
REMARK       I    between atoms: N_9  and  C_10 
REMARK    4  A    between atoms: C_10  and  C_12 
REMARK    5  A    between atoms: N_18  and  C_19 
ROOT
ATOM      1  C   LIG d   1       3.939  -4.333  -8.092  0.00  0.00     0.106 C 
ATOM      2  H   LIG d   1       3.028  -3.754  -7.941  0.00  0.00     0.060 H 
ATOM      3  C   LIG d   1       3.592  -5.753  -8.599  0.00  0.00    -0.017 C 
ATOM      4  C   LIG d   1       4.768  -6.036  -9.563  0.00  0.00     0.026 C 
ATOM      5  C   LIG d   1       5.239  -4.664  -9.989  0.00  0.00     0.219 C 
ATOM      6  O   LIG d   1       5.951  -4.439 -10.945  0.00  0.00    -0.276 OA
ATOM      7  N   LIG d   1       4.754  -3.729  -9.154  0.00  0.00    -0.251 N 
ATOM      8  H   LIG d   1       2.641  -5.759  -9.131  0.00  0.00     0.029 H 
ATOM      9  H   LIG d   1       3.582  -6.466  -7.774  0.00  0.00     0.029 H 
ATOM     10  H   LIG d   1       4.424  -6.607 -10.426  0.00  0.00     0.036 H 
ATOM     11  H   LIG d   1       5.565  -6.570  -9.044  0.00  0.00     0.036 H 
ENDROOT
BRANCH   1  12
ATOM     12  C   LIG d   1       4.728  -4.410  -6.811  0.00  0.00     0.234 C 
ATOM     13  N   LIG d   1       4.310  -3.735  -5.721  0.00  0.00    -0.310 N 
ATOM     14  H   LIG d   1       3.502  -3.199  -5.763  0.00  0.00     0.149 HD
ATOM     15  O   LIG d   1       5.738  -5.079  -6.759  0.00  0.00    -0.274 OA
BRANCH  13  16
ATOM     16  C   LIG d   1       5.077  -3.810  -4.475  0.00  0.00     0.037 C 
ATOM     17  H   LIG d   1       4.689  -4.621  -3.858  0.00  0.00     0.051 H 
ATOM     18  H   LIG d   1       6.126  -3.998  -4.704  0.00  0.00     0.051 H 
BRANCH  16  19
ATOM     19  C   LIG d   1       4.950  -2.507  -3.728  0.00  0.00    -0.030 A 
ATOM     20  C   LIG d   1       3.815  -2.244  -2.985  0.00  0.00    -0.057 A 
ATOM     21  C   LIG d   1       3.699  -1.049  -2.300  0.00  0.00    -0.059 A 
ATOM     22  H   LIG d   1       3.018  -2.971  -2.940  0.00  0.00     0.062 H 
ATOM     23  C   LIG d   1       4.718  -0.117  -2.357  0.00  0.00    -0.050 A 
ATOM     24  H   LIG d   1       2.811  -0.844  -1.719  0.00  0.00     0.062 H 
ATOM     25  C   LIG d   1       5.854  -0.381  -3.101  0.00  0.00    -0.059 A 
ATOM     26  C   LIG d   1       5.972  -1.578  -3.782  0.00  0.00    -0.057 A 
ATOM     27  H   LIG d   1       6.651   0.347  -3.145  0.00  0.00     0.062 H 
ATOM     28  H   LIG d   1       6.861  -1.786  -4.359  0.00  0.00     0.062 H 
BRANCH  23  29
ATOM     29  C   LIG d   1       4.593   1.185  -1.610  0.00  0.00    -0.040 C 
ATOM     30  H   LIG d   1       5.487   1.785  -1.771  0.00  0.00     0.028 H 
ATOM     31  H   LIG d   1       3.720   1.728  -1.971  0.00  0.00     0.028 H 
ATOM     32  H   LIG d   1       4.478   0.982  -0.545  0.00  0.00     0.028 H 
ENDBRANCH  23  29
ENDBRANCH  16  19
ENDBRANCH  13  16
ENDBRANCH   1  12
BRANCH   7  33
ATOM     33  C   LIG d   1       5.009  -2.293  -9.284  0.00  0.00     0.201 A 
ATOM     34  H   LIG d   1       5.807  -2.119 -10.006  0.00  0.00     0.101 H 
ATOM     35  O   LIG d   1       5.374  -1.731  -7.993  0.00  0.00    -0.435 OA
ATOM     36  C   LIG d   1       4.477  -0.789  -7.656  0.00  0.00     0.342 A 
ATOM     37  C   LIG d   1       3.447  -0.669  -8.704  0.00  0.00     0.067 A 
ATOM     38  O   LIG d   1       4.506  -0.136  -6.632  0.00  0.00    -0.245 OA
ATOM     39  C   LIG d   1       3.753  -1.581  -9.719  0.00  0.00     0.025 A 
ATOM     40  C   LIG d   1       2.319   0.144  -8.831  0.00  0.00    -0.047 A 
ATOM     41  C   LIG d   1       2.951  -1.675 -10.831  0.00  0.00    -0.053 A 
ATOM     42  C   LIG d   1       1.834  -0.865 -10.950  0.00  0.00    -0.061 A 
ATOM     43  H   LIG d   1       3.191  -2.381 -11.612  0.00  0.00     0.062 H 
ATOM     44  C   LIG d   1       1.522   0.041  -9.952  0.00  0.00    -0.061 A 
ATOM     45  H   LIG d   1       1.205  -0.940 -11.825  0.00  0.00     0.062 H 
ATOM     46  H   LIG d   1       0.650   0.671 -10.051  0.00  0.00     0.062 H 
ATOM     47  H   LIG d   1       2.072   0.852  -8.054  0.00  0.00     0.063 H 
ENDBRANCH   7  33
TORSDOF 5
ENDMDL
MODEL 7
REMARK VINA RESULT:      -6.0      2.509      6.407
REMARK  5 active torsions:
REMARK  status: ('A' for Active; 'I' for Inactive)
REMARK    1  A    between atoms: C_1  and  C_2 
REMARK    2  A    between atoms: C_5  and  C_8 
REMARK    3  A    between atoms: C_8  and  N_9 
REMARK       I    between atoms: N_9  and  C_10 
REMARK    4  A    between atoms: C_10  and  C_12 
REMARK    5  A    between atoms: N_18  and  C_19 
ROOT
ATOM      1  C   LIG d   1       7.270  -3.557  -7.254  0.00  0.00     0.106 C 
ATOM      2  H   LIG d   1       7.032  -4.556  -7.620  0.00  0.00     0.060 H 
ATOM      3  C   LIG d   1       8.709  -3.167  -7.665  0.00  0.00    -0.017 C 
ATOM      4  C   LIG d   1       8.558  -1.651  -7.932  0.00  0.00     0.026 C 
ATOM      5  C   LIG d   1       7.096  -1.478  -8.276  0.00  0.00     0.219 C 
ATOM      6  O   LIG d   1       6.620  -0.503  -8.818  0.00  0.00    -0.276 OA
ATOM      7  N   LIG d   1       6.400  -2.563  -7.893  0.00  0.00    -0.251 N 
ATOM      8  H   LIG d   1       9.018  -3.693  -8.569  0.00  0.00     0.029 H 
ATOM      9  H   LIG d   1       9.408  -3.352  -6.849  0.00  0.00     0.029 H 
ATOM     10  H   LIG d   1       9.186  -1.347  -8.769  0.00  0.00     0.036 H 
ATOM     11  H   LIG d   1       8.811  -1.080  -7.038  0.00  0.00     0.036 H 
ENDROOT
BRANCH   1  12
ATOM     12  C   LIG d   1       7.116  -3.498  -5.757  0.00  0.00     0.234 C 
ATOM     13  N   LIG d   1       7.783  -2.567  -5.047  0.00  0.00    -0.310 N 
ATOM     14  H   LIG d   1       8.364  -1.935  -5.500  0.00  0.00     0.149 HD
ATOM     15  O   LIG d   1       6.391  -4.288  -5.191  0.00  0.00    -0.274 OA
BRANCH  13  16
ATOM     16  C   LIG d   1       7.632  -2.509  -3.591  0.00  0.00     0.037 C 
ATOM     17  H   LIG d   1       7.315  -3.484  -3.220  0.00  0.00     0.051 H 
ATOM     18  H   LIG d   1       8.586  -2.240  -3.137  0.00  0.00     0.051 H 
BRANCH  16  19
ATOM     19  C   LIG d   1       6.596  -1.475  -3.234  0.00  0.00    -0.030 A 
ATOM     20  C   LIG d   1       6.853  -0.135  -3.450  0.00  0.00    -0.057 A 
ATOM     21  C   LIG d   1       5.902   0.814  -3.124  0.00  0.00    -0.059 A 
ATOM     22  H   LIG d   1       7.798   0.173  -3.873  0.00  0.00     0.062 H 
ATOM     23  C   LIG d   1       4.692   0.421  -2.582  0.00  0.00    -0.050 A 
ATOM     24  H   LIG d   1       6.104   1.861  -3.293  0.00  0.00     0.062 H 
ATOM     25  C   LIG d   1       4.434  -0.920  -2.367  0.00  0.00    -0.059 A 
ATOM     26  C   LIG d   1       5.384  -1.868  -2.697  0.00  0.00    -0.057 A 
ATOM     27  H   LIG d   1       3.488  -1.227  -1.944  0.00  0.00     0.062 H 
ATOM     28  H   LIG d   1       5.181  -2.916  -2.533  0.00  0.00     0.062 H 
BRANCH  23  29
ATOM     29  C   LIG d   1       3.654   1.454  -2.228  0.00  0.00    -0.040 C 
ATOM     30  H   LIG d   1       3.590   2.194  -3.025  0.00  0.00     0.028 H 
ATOM     31  H   LIG d   1       2.686   0.969  -2.104  0.00  0.00     0.028 H 
ATOM     32  H   LIG d   1       3.935   1.946  -1.297  0.00  0.00     0.028 H 
ENDBRANCH  23  29
ENDBRANCH  16  19
ENDBRANCH  13  16
ENDBRANCH   1  12
BRANCH   7  33
ATOM     33  C   LIG d   1       4.957  -2.729  -8.086  0.00  0.00     0.201 A 
ATOM     34  H   LIG d   1       4.632  -3.682  -7.668  0.00  0.00     0.101 H 
ATOM     35  O   LIG d   1       4.632  -2.669  -9.502  0.00  0.00    -0.435 OA
ATOM     36  C   LIG d   1       3.793  -1.641  -9.714  0.00  0.00     0.342 A 
ATOM     37  C   LIG d   1       3.511  -0.943  -8.447  0.00  0.00     0.067 A 
ATOM     38  O   LIG d   1       3.337  -1.329 -10.797  0.00  0.00    -0.245 OA
ATOM     39  C   LIG d   1       4.212  -1.595  -7.429  0.00  0.00     0.025 A 
ATOM     40  C   LIG d   1       2.720   0.164  -8.134  0.00  0.00    -0.047 A 
ATOM     41  C   LIG d   1       4.123  -1.150  -6.131  0.00  0.00    -0.053 A 
ATOM     42  C   LIG d   1       3.337  -0.051  -5.828  0.00  0.00    -0.061 A 
ATOM     43  H   LIG d   1       4.668  -1.656  -5.347  0.00  0.00     0.062 H 
ATOM     44  C   LIG d   1       2.637   0.602  -6.829  0.00  0.00    -0.061 A 
ATOM     45  H   LIG d   1       3.268   0.298  -4.808  0.00  0.00     0.062 H 
ATOM     46  H   LIG d   1       2.025   1.457  -6.587  0.00  0.00     0.062 H 
ATOM     47  H   LIG d   1       2.173   0.676  -8.912  0.00  0.00     0.063 H 
ENDBRANCH   7  33
TORSDOF 5
ENDMDL
MODEL 8
REMARK VINA RESULT:      -5.9      3.078      4.984
REMARK  5 active torsions:
REMARK  status: ('A' for Active; 'I' for Inactive)
REMARK    1  A    between atoms: C_1  and  C_2 
REMARK    2  A    between atoms: C_5  and  C_8 
REMARK    3  A    between atoms: C_8  and  N_9 
REMARK       I    between atoms: N_9  and  C_10 
REMARK    4  A    between atoms: C_10  and  C_12 
REMARK    5  A    between atoms: N_18  and  C_19 
ROOT
ATOM      1  C   LIG d   1       4.673  -0.101  -4.303  0.00  0.00     0.106 C 
ATOM      2  H   LIG d   1       4.777  -0.115  -5.389  0.00  0.00     0.060 H 
ATOM      3  C   LIG d   1       3.283   0.448  -3.907  0.00  0.00    -0.017 C 
ATOM      4  C   LIG d   1       2.957  -0.398  -2.655  0.00  0.00     0.026 C 
ATOM      5  C   LIG d   1       3.770  -1.660  -2.838  0.00  0.00     0.219 C 
ATOM      6  O   LIG d   1       3.592  -2.695  -2.231  0.00  0.00    -0.276 OA
ATOM      7  N   LIG d   1       4.717  -1.469  -3.772  0.00  0.00    -0.251 N 
ATOM      8  H   LIG d   1       2.551   0.275  -4.697  0.00  0.00     0.029 H 
ATOM      9  H   LIG d   1       3.343   1.508  -3.658  0.00  0.00     0.029 H 
ATOM     10  H   LIG d   1       1.893  -0.631  -2.618  0.00  0.00     0.036 H 
ATOM     11  H   LIG d   1       3.265   0.127  -1.750  0.00  0.00     0.036 H 
ENDROOT
BRANCH   1  12
ATOM     12  C   LIG d   1       5.765   0.733  -3.685  0.00  0.00     0.234 C 
ATOM     13  N   LIG d   1       6.896   0.980  -4.374  0.00  0.00    -0.310 N 
ATOM     14  H   LIG d   1       7.009   0.620  -5.268  0.00  0.00     0.149 HD
ATOM     15  O   LIG d   1       5.625   1.183  -2.568  0.00  0.00    -0.274 OA
BRANCH  13  16
ATOM     16  C   LIG d   1       7.958   1.792  -3.772  0.00  0.00     0.037 C 
ATOM     17  H   LIG d   1       7.529   2.442  -3.010  0.00  0.00     0.051 H 
ATOM     18  H   LIG d   1       8.702   1.138  -3.317  0.00  0.00     0.051 H 
BRANCH  16  19
ATOM     19  C   LIG d   1       8.612   2.632  -4.839  0.00  0.00    -0.030 A 
ATOM     20  C   LIG d   1       9.154   3.861  -4.515  0.00  0.00    -0.057 A 
ATOM     21  C   LIG d   1       9.754   4.632  -5.493  0.00  0.00    -0.059 A 
ATOM     22  H   LIG d   1       9.109   4.220  -3.498  0.00  0.00     0.062 H 
ATOM     23  C   LIG d   1       9.813   4.172  -6.796  0.00  0.00    -0.050 A 
ATOM     24  H   LIG d   1      10.178   5.592  -5.239  0.00  0.00     0.062 H 
ATOM     25  C   LIG d   1       9.270   2.943  -7.120  0.00  0.00    -0.059 A 
ATOM     26  C   LIG d   1       8.674   2.170  -6.141  0.00  0.00    -0.057 A 
ATOM     27  H   LIG d   1       9.317   2.584  -8.138  0.00  0.00     0.062 H 
ATOM     28  H   LIG d   1       8.254   1.208  -6.393  0.00  0.00     0.062 H 
BRANCH  23  29
ATOM     29  C   LIG d   1      10.468   5.011  -7.862  0.00  0.00    -0.040 C 
ATOM     30  H   LIG d   1       9.790   5.807  -8.168  0.00  0.00     0.028 H 
ATOM     31  H   LIG d   1      11.386   5.447  -7.468  0.00  0.00     0.028 H 
ATOM     32  H   LIG d   1      10.704   4.385  -8.723  0.00  0.00     0.028 H 
ENDBRANCH  23  29
ENDBRANCH  16  19
ENDBRANCH  13  16
ENDBRANCH   1  12
BRANCH   7  33
ATOM     33  C   LIG d   1       5.673  -2.492  -4.202  0.00  0.00     0.201 A 
ATOM     34  H   LIG d   1       5.406  -3.457  -3.770  0.00  0.00     0.101 H 
ATOM     35  O   LIG d   1       7.019  -2.120  -3.797  0.00  0.00    -0.435 OA
ATOM     36  C   LIG d   1       7.787  -1.998  -4.892  0.00  0.00     0.342 A 
ATOM     37  C   LIG d   1       6.995  -2.275  -6.104  0.00  0.00     0.067 A 
ATOM     38  O   LIG d   1       8.964  -1.696  -4.885  0.00  0.00    -0.245 OA
ATOM     39  C   LIG d   1       5.691  -2.586  -5.706  0.00  0.00     0.025 A 
ATOM     40  C   LIG d   1       7.317  -2.281  -7.462  0.00  0.00    -0.047 A 
ATOM     41  C   LIG d   1       4.735  -2.894  -6.645  0.00  0.00    -0.053 A 
ATOM     42  C   LIG d   1       5.062  -2.898  -7.990  0.00  0.00    -0.061 A 
ATOM     43  H   LIG d   1       3.729  -3.133  -6.333  0.00  0.00     0.062 H 
ATOM     44  C   LIG d   1       6.350  -2.592  -8.395  0.00  0.00    -0.061 A 
ATOM     45  H   LIG d   1       4.310  -3.140  -8.727  0.00  0.00     0.062 H 
ATOM     46  H   LIG d   1       6.599  -2.598  -9.446  0.00  0.00     0.062 H 
ATOM     47  H   LIG d   1       8.321  -2.043  -7.782  0.00  0.00     0.063 H 
ENDBRANCH   7  33
TORSDOF 5
ENDMDL
MODEL 9
REMARK VINA RESULT:      -5.8      2.813      5.823
REMARK  5 active torsions:
REMARK  status: ('A' for Active; 'I' for Inactive)
REMARK    1  A    between atoms: C_1  and  C_2 
REMARK    2  A    between atoms: C_5  and  C_8 
REMARK    3  A    between atoms: C_8  and  N_9 
REMARK       I    between atoms: N_9  and  C_10 
REMARK    4  A    between atoms: C_10  and  C_12 
REMARK    5  A    between atoms: N_18  and  C_19 
ROOT
ATOM      1  C   LIG d   1       5.773  -0.725  -6.914  0.00  0.00     0.106 C 
ATOM      2  H   LIG d   1       4.809  -0.564  -6.430  0.00  0.00     0.060 H 
ATOM      3  C   LIG d   1       6.082   0.435  -7.889  0.00  0.00    -0.017 C 
ATOM      4  C   LIG d   1       7.615   0.570  -7.737  0.00  0.00     0.026 C 
ATOM      5  C   LIG d   1       7.902   0.017  -6.359  0.00  0.00     0.219 C 
ATOM      6  O   LIG d   1       8.931   0.192  -5.740  0.00  0.00    -0.276 OA
ATOM      7  N   LIG d   1       6.851  -0.697  -5.920  0.00  0.00    -0.251 N 
ATOM      8  H   LIG d   1       5.577   1.352  -7.584  0.00  0.00     0.029 H 
ATOM      9  H   LIG d   1       5.813   0.165  -8.910  0.00  0.00     0.029 H 
ATOM     10  H   LIG d   1       7.914   1.617  -7.798  0.00  0.00     0.036 H 
ATOM     11  H   LIG d   1       8.127  -0.018  -8.499  0.00  0.00     0.036 H 
ENDROOT
BRANCH   1  12
ATOM     12  C   LIG d   1       5.775  -2.042  -7.647  0.00  0.00     0.234 C 
ATOM     13  N   LIG d   1       4.807  -2.949  -7.404  0.00  0.00    -0.310 N 
ATOM     14  H   LIG d   1       4.110  -2.754  -6.758  0.00  0.00     0.149 HD
ATOM     15  O   LIG d   1       6.646  -2.286  -8.454  0.00  0.00    -0.274 OA
BRANCH  13  16
ATOM     16  C   LIG d   1       4.809  -4.229  -8.118  0.00  0.00     0.037 C 
ATOM     17  H   LIG d   1       3.793  -4.473  -8.429  0.00  0.00     0.051 H 
ATOM     18  H   LIG d   1       5.451  -4.155  -8.995  0.00  0.00     0.051 H 
BRANCH  16  19
ATOM     19  C   LIG d   1       5.326  -5.311  -7.205  0.00  0.00    -0.030 A 
ATOM     20  C   LIG d   1       4.456  -5.991  -6.375  0.00  0.00    -0.057 A 
ATOM     21  C   LIG d   1       4.931  -6.984  -5.538  0.00  0.00    -0.059 A 
ATOM     22  H   LIG d   1       3.404  -5.747  -6.380  0.00  0.00     0.062 H 
ATOM     23  C   LIG d   1       6.277  -7.297  -5.532  0.00  0.00    -0.050 A 
ATOM     24  H   LIG d   1       4.249  -7.515  -4.890  0.00  0.00     0.062 H 
ATOM     25  C   LIG d   1       7.149  -6.616  -6.362  0.00  0.00    -0.059 A 
ATOM     26  C   LIG d   1       6.672  -5.627  -7.202  0.00  0.00    -0.057 A 
ATOM     27  H   LIG d   1       8.201  -6.861  -6.357  0.00  0.00     0.062 H 
ATOM     28  H   LIG d   1       7.352  -5.099  -7.854  0.00  0.00     0.062 H 
BRANCH  23  29
ATOM     29  C   LIG d   1       6.795  -8.379  -4.621  0.00  0.00    -0.040 C 
ATOM     30  H   LIG d   1       7.883  -8.331  -4.580  0.00  0.00     0.028 H 
ATOM     31  H   LIG d   1       6.387  -8.237  -3.620  0.00  0.00     0.028 H 
ATOM     32  H   LIG d   1       6.488  -9.353  -5.003  0.00  0.00     0.028 H 
ENDBRANCH  23  29
ENDBRANCH  16  19
ENDBRANCH  13  16
ENDBRANCH   1  12
BRANCH   7  33
ATOM     33  C   LIG d   1       6.792  -1.364  -4.617  0.00  0.00     0.201 A 
ATOM     34  H   LIG d   1       7.799  -1.501  -4.221  0.00  0.00     0.101 H 
ATOM     35  O   LIG d   1       6.127  -2.650  -4.744  0.00  0.00    -0.435 OA
ATOM     36  C   LIG d   1       5.031  -2.654  -3.967  0.00  0.00     0.342 A 
ATOM     37  C   LIG d   1       4.892  -1.360  -3.275  0.00  0.00     0.067 A 
ATOM     38  O   LIG d   1       4.261  -3.589  -3.856  0.00  0.00    -0.245 OA
ATOM     39  C   LIG d   1       5.965  -0.549  -3.655  0.00  0.00     0.025 A 
ATOM     40  C   LIG d   1       3.944  -0.866  -2.376  0.00  0.00    -0.047 A 
ATOM     41  C   LIG d   1       6.086   0.723  -3.148  0.00  0.00    -0.053 A 
ATOM     42  C   LIG d   1       5.142   1.206  -2.258  0.00  0.00    -0.061 A 
ATOM     43  H   LIG d   1       6.916   1.347  -3.445  0.00  0.00     0.062 H 
ATOM     44  C   LIG d   1       4.075   0.411  -1.874  0.00  0.00    -0.061 A 
ATOM     45  H   LIG d   1       5.238   2.206  -1.860  0.00  0.00     0.062 H 
ATOM     46  H   LIG d   1       3.343   0.793  -1.179  0.00  0.00     0.062 H 
ATOM     47  H   LIG d   1       3.110  -1.484  -2.076  0.00  0.00     0.063 H 
ENDBRANCH   7  33
TORSDOF 5
ENDMDL
