MODEL 1
REMARK VINA RESULT:      -6.1      0.000      0.000
REMARK  6 active torsions:
REMARK  status: ('A' for Active; 'I' for Inactive)
REMARK    1  A    between atoms: C_1  and  C_2 
REMARK    2  A    between atoms: C_2  and  C_4 
REMARK    3  A    between atoms: C_2  and  N_6 
REMARK    4  A    between atoms: N_6  and  O_7 
REMARK    5  A    between atoms: O_7  and  C_8 
REMARK    6  A    between atoms: C_8  and  C_9 
ROOT
ATOM      1  C   LIG d   1       2.168   0.403  -5.047  0.00  0.00     0.094 C 
ATOM      2  H   LIG d   1       1.273   0.956  -4.760  0.00  0.00     0.063 H 
ATOM      3  H   LIG d   1       1.879  -0.539  -5.513  0.00  0.00     0.063 H 
ENDROOT
BRANCH   1   4
ATOM      4  O   LIG d   1       2.929   1.180  -5.974  0.00  0.00    -0.294 OA
BRANCH   4   5
ATOM      5  N   LIG d   1       3.830   0.390  -6.813  0.00  0.00    -0.193 NA
ATOM      6  H   LIG d   1       3.618  -0.593  -6.747  0.00  0.00     0.154 HD
BRANCH   5   7
ATOM      7  C   LIG d   1       3.785   0.846  -8.209  0.00  0.00     0.069 C 
ATOM      8  H   LIG d   1       3.470   0.022  -8.850  0.00  0.00     0.054 H 
BRANCH   7   9
ATOM      9  C   LIG d   1       2.788   2.001  -8.336  0.00  0.00    -0.042 C 
ATOM     10  H   LIG d   1       1.899   1.657  -8.863  0.00  0.00     0.025 H 
ATOM     11  H   LIG d   1       2.511   2.352  -7.342  0.00  0.00     0.025 H 
ATOM     12  H   LIG d   1       3.248   2.817  -8.895  0.00  0.00     0.025 H 
ENDBRANCH   7   9
BRANCH   7  13
ATOM     13  C   LIG d   1       5.154   1.316  -8.629  0.00  0.00     0.061 C 
ATOM     14  O   LIG d   1       6.089   1.205  -7.872  0.00  0.00    -0.548 OA
ATOM     15  O   LIG d   1       5.334   1.855  -9.845  0.00  0.00    -0.548 OA
ENDBRANCH   7  13
ENDBRANCH   5   7
ENDBRANCH   4   5
ENDBRANCH   1   4
BRANCH   1  16
ATOM     16  C   LIG d   1       3.001   0.125  -3.823  0.00  0.00    -0.020 A 
ATOM     17  C   LIG d   1       3.569   1.170  -3.120  0.00  0.00    -0.056 A 
ATOM     18  C   LIG d   1       4.333   0.913  -1.997  0.00  0.00    -0.061 A 
ATOM     19  H   LIG d   1       3.418   2.187  -3.448  0.00  0.00     0.062 H 
ATOM     20  C   LIG d   1       4.527  -0.388  -1.576  0.00  0.00    -0.062 A 
ATOM     21  H   LIG d   1       4.777   1.731  -1.448  0.00  0.00     0.062 H 
ATOM     22  C   LIG d   1       3.958  -1.434  -2.278  0.00  0.00    -0.061 A 
ATOM     23  H   LIG d   1       5.124  -0.589  -0.699  0.00  0.00     0.062 H 
ATOM     24  C   LIG d   1       3.190  -1.177  -3.399  0.00  0.00    -0.056 A 
ATOM     25  H   LIG d   1       4.110  -2.452  -1.949  0.00  0.00     0.062 H 
ATOM     26  H   LIG d   1       2.742  -1.994  -3.945  0.00  0.00     0.062 H 
ENDBRANCH   1  16
TORSDOF 6
ENDMDL
MODEL 2
REMARK VINA RESULT:      -6.0      0.818      1.630
REMARK  6 active torsions:
REMARK  status: ('A' for Active; 'I' for Inactive)
REMARK    1  A    between atoms: C_1  and  C_2 
REMARK    2  A    between atoms: C_2  and  C_4 
REMARK    3  A    between atoms: C_2  and  N_6 
REMARK    4  A    between atoms: N_6  and  O_7 
REMARK    5  A    between atoms: O_7  and  C_8 
REMARK    6  A    between atoms: C_8  and  C_9 
ROOT
ATOM      1  C   LIG d   1       2.294   0.624  -4.814  0.00  0.00     0.094 C 
ATOM      2  H   LIG d   1       1.893   1.603  -4.550  0.00  0.00     0.063 H 
ATOM      3  H   LIG d   1       1.472  -0.056  -5.036  0.00  0.00     0.063 H 
ENDROOT
BRANCH   1   4
ATOM      4  O   LIG d   1       3.134   0.749  -5.963  0.00  0.00    -0.294 OA
BRANCH   4   5
ATOM      5  N   LIG d   1       2.688  -0.036  -7.114  0.00  0.00    -0.193 NA
ATOM      6  H   LIG d   1       1.681  -0.062  -7.166  0.00  0.00     0.154 HD
BRANCH   5   7
ATOM      7  C   LIG d   1       3.266   0.484  -8.361  0.00  0.00     0.069 C 
ATOM      8  H   LIG d   1       2.939  -0.134  -9.198  0.00  0.00     0.054 H 
BRANCH   7   9
ATOM      9  C   LIG d   1       2.798   1.925  -8.578  0.00  0.00    -0.042 C 
ATOM     10  H   LIG d   1       2.412   2.033  -9.592  0.00  0.00     0.025 H 
ATOM     11  H   LIG d   1       2.011   2.163  -7.862  0.00  0.00     0.025 H 
ATOM     12  H   LIG d   1       3.638   2.605  -8.435  0.00  0.00     0.025 H 
ENDBRANCH   7   9
BRANCH   7  13
ATOM     13  C   LIG d   1       4.770   0.453  -8.269  0.00  0.00     0.061 C 
ATOM     14  O   LIG d   1       5.399   1.484  -8.303  0.00  0.00    -0.548 OA
ATOM     15  O   LIG d   1       5.410  -0.721  -8.148  0.00  0.00    -0.548 OA
ENDBRANCH   7  13
ENDBRANCH   5   7
ENDBRANCH   4   5
ENDBRANCH   1   4
BRANCH   1  16
ATOM     16  C   LIG d   1       3.098   0.083  -3.660  0.00  0.00    -0.020 A 
ATOM     17  C   LIG d   1       3.195  -1.282  -3.465  0.00  0.00    -0.056 A 
ATOM     18  C   LIG d   1       3.933  -1.777  -2.406  0.00  0.00    -0.061 A 
ATOM     19  H   LIG d   1       2.695  -1.961  -4.139  0.00  0.00     0.062 H 
ATOM     20  C   LIG d   1       4.573  -0.909  -1.543  0.00  0.00    -0.062 A 
ATOM     21  H   LIG d   1       4.009  -2.844  -2.254  0.00  0.00     0.062 H 
ATOM     22  C   LIG d   1       4.477   0.457  -1.739  0.00  0.00    -0.061 A 
ATOM     23  H   LIG d   1       5.149  -1.296  -0.716  0.00  0.00     0.062 H 
ATOM     24  C   LIG d   1       3.743   0.952  -2.800  0.00  0.00    -0.056 A 
ATOM     25  H   LIG d   1       4.977   1.136  -1.063  0.00  0.00     0.062 H 
ATOM     26  H   LIG d   1       3.670   2.019  -2.955  0.00  0.00     0.062 H 
ENDBRANCH   1  16
TORSDOF 6
ENDMDL
MODEL 3
REMARK VINA RESULT:      -5.8      1.551      1.853
REMARK  6 active torsions:
REMARK  status: ('A' for Active; 'I' for Inactive)
REMARK    1  A    between atoms: C_1  and  C_2 
REMARK    2  A    between atoms: C_2  and  C_4 
REMARK    3  A    between atoms: C_2  and  N_6 
REMARK    4  A    between atoms: N_6  and  O_7 
REMARK    5  A    between atoms: O_7  and  C_8 
REMARK    6  A    between atoms: C_8  and  C_9 
ROOT
ATOM      1  C   LIG d   1       2.370   0.743  -4.924  0.00  0.00     0.094 C 
ATOM      2  H   LIG d   1       2.574   1.810  -5.013  0.00  0.00     0.063 H 
ATOM      3  H   LIG d   1       1.301   0.588  -4.777  0.00  0.00     0.063 H 
ENDROOT
BRANCH   1   4
ATOM      4  O   LIG d   1       2.787   0.079  -6.118  0.00  0.00    -0.294 OA
BRANCH   4   5
ATOM      5  N   LIG d   1       3.548   0.926  -7.037  0.00  0.00    -0.193 NA
ATOM      6  H   LIG d   1       4.450   0.523  -7.237  0.00  0.00     0.154 HD
BRANCH   5   7
ATOM      7  C   LIG d   1       2.794   1.171  -8.274  0.00  0.00     0.069 C 
ATOM      8  H   LIG d   1       1.790   1.517  -8.025  0.00  0.00     0.054 H 
BRANCH   7   9
ATOM      9  C   LIG d   1       3.510   2.239  -9.104  0.00  0.00    -0.042 C 
ATOM     10  H   LIG d   1       4.115   2.864  -8.448  0.00  0.00     0.025 H 
ATOM     11  H   LIG d   1       4.152   1.755  -9.842  0.00  0.00     0.025 H 
ATOM     12  H   LIG d   1       2.771   2.856  -9.616  0.00  0.00     0.025 H 
ENDBRANCH   7   9
BRANCH   7  13
ATOM     13  C   LIG d   1       2.703  -0.107  -9.068  0.00  0.00     0.061 C 
ATOM     14  O   LIG d   1       1.633  -0.491  -9.475  0.00  0.00    -0.548 OA
ATOM     15  O   LIG d   1       3.813  -0.817  -9.323  0.00  0.00    -0.548 OA
ENDBRANCH   7  13
ENDBRANCH   5   7
ENDBRANCH   4   5
ENDBRANCH   1   4
BRANCH   1  16
ATOM     16  C   LIG d   1       3.126   0.183  -3.747  0.00  0.00    -0.020 A 
ATOM     17  C   LIG d   1       3.794   1.033  -2.886  0.00  0.00    -0.056 A 
ATOM     18  C   LIG d   1       4.487   0.518  -1.806  0.00  0.00    -0.061 A 
ATOM     19  H   LIG d   1       3.774   2.099  -3.056  0.00  0.00     0.062 H 
ATOM     20  C   LIG d   1       4.513  -0.846  -1.588  0.00  0.00    -0.062 A 
ATOM     21  H   LIG d   1       5.009   1.183  -1.133  0.00  0.00     0.062 H 
ATOM     22  C   LIG d   1       3.844  -1.697  -2.449  0.00  0.00    -0.061 A 
ATOM     23  H   LIG d   1       5.055  -1.248  -0.745  0.00  0.00     0.062 H 
ATOM     24  C   LIG d   1       3.147  -1.181  -3.526  0.00  0.00    -0.056 A 
ATOM     25  H   LIG d   1       3.865  -2.763  -2.278  0.00  0.00     0.062 H 
ATOM     26  H   LIG d   1       2.622  -1.846  -4.196  0.00  0.00     0.062 H 
ENDBRANCH   1  16
TORSDOF 6
ENDMDL
MODEL 4
REMARK VINA RESULT:      -5.5      2.065      2.405
REMARK  6 active torsions:
REMARK  status: ('A' for Active; 'I' for Inactive)
REMARK    1  A    between atoms: C_1  and  C_2 
REMARK    2  A    between atoms: C_2  and  C_4 
REMARK    3  A    between atoms: C_2  and  N_6 
REMARK    4  A    between atoms: N_6  and  O_7 
REMARK    5  A    between atoms: O_7  and  C_8 
REMARK    6  A    between atoms: C_8  and  C_9 
ROOT
ATOM      1  C   LIG d   1       2.256   0.614  -4.801  0.00  0.00     0.094 C 
ATOM      2  H   LIG d   1       1.915   1.623  -4.566  0.00  0.00     0.063 H 
ATOM      3  H   LIG d   1       1.393  -0.032  -4.966  0.00  0.00     0.063 H 
ENDROOT
BRANCH   1   4
ATOM      4  O   LIG d   1       3.059   0.646  -5.981  0.00  0.00    -0.294 OA
BRANCH   4   5
ATOM      5  N   LIG d   1       2.802  -0.457  -6.907  0.00  0.00    -0.193 NA
ATOM      6  H   LIG d   1       2.137  -0.186  -7.616  0.00  0.00     0.154 HD
BRANCH   5   7
ATOM      7  C   LIG d   1       4.051  -0.937  -7.513  0.00  0.00     0.069 C 
ATOM      8  H   LIG d   1       4.724  -0.095  -7.675  0.00  0.00     0.054 H 
BRANCH   7   9
ATOM      9  C   LIG d   1       4.717  -1.948  -6.576  0.00  0.00    -0.042 C 
ATOM     10  H   LIG d   1       4.089  -2.834  -6.492  0.00  0.00     0.025 H 
ATOM     11  H   LIG d   1       5.692  -2.228  -6.977  0.00  0.00     0.025 H 
ATOM     12  H   LIG d   1       4.845  -1.498  -5.591  0.00  0.00     0.025 H 
ENDBRANCH   7   9
BRANCH   7  13
ATOM     13  C   LIG d   1       3.747  -1.600  -8.832  0.00  0.00     0.061 C 
ATOM     14  O   LIG d   1       3.724  -0.945  -9.847  0.00  0.00    -0.548 OA
ATOM     15  O   LIG d   1       3.502  -2.919  -8.878  0.00  0.00    -0.548 OA
ENDBRANCH   7  13
ENDBRANCH   5   7
ENDBRANCH   4   5
ENDBRANCH   1   4
BRANCH   1  16
ATOM     16  C   LIG d   1       3.072   0.080  -3.652  0.00  0.00    -0.020 A 
ATOM     17  C   LIG d   1       3.780   0.949  -2.844  0.00  0.00    -0.056 A 
ATOM     18  C   LIG d   1       4.528   0.457  -1.790  0.00  0.00    -0.061 A 
ATOM     19  H   LIG d   1       3.750   2.011  -3.035  0.00  0.00     0.062 H 
ATOM     20  C   LIG d   1       4.567  -0.902  -1.544  0.00  0.00    -0.062 A 
ATOM     21  H   LIG d   1       5.082   1.137  -1.158  0.00  0.00     0.062 H 
ATOM     22  C   LIG d   1       3.857  -1.771  -2.352  0.00  0.00    -0.061 A 
ATOM     23  H   LIG d   1       5.152  -1.285  -0.721  0.00  0.00     0.062 H 
ATOM     24  C   LIG d   1       3.106  -1.279  -3.403  0.00  0.00    -0.056 A 
ATOM     25  H   LIG d   1       3.889  -2.834  -2.160  0.00  0.00     0.062 H 
ATOM     26  H   LIG d   1       2.548  -1.958  -4.031  0.00  0.00     0.062 H 
ENDBRANCH   1  16
TORSDOF 6
ENDMDL
MODEL 5
REMARK VINA RESULT:      -5.3      2.098      5.776
REMARK  6 active torsions:
REMARK  status: ('A' for Active; 'I' for Inactive)
REMARK    1  A    between atoms: C_1  and  C_2 
REMARK    2  A    between atoms: C_2  and  C_4 
REMARK    3  A    between atoms: C_2  and  N_6 
REMARK    4  A    between atoms: N_6  and  O_7 
REMARK    5  A    between atoms: O_7  and  C_8 
REMARK    6  A    between atoms: C_8  and  C_9 
ROOT
ATOM      1  C   LIG d   1       3.963  -0.664  -6.585  0.00  0.00     0.094 C 
ATOM      2  H   LIG d   1       4.834  -1.310  -6.706  0.00  0.00     0.063 H 
ATOM      3  H   LIG d   1       3.054  -1.250  -6.721  0.00  0.00     0.063 H 
ENDROOT
BRANCH   1   4
ATOM      4  O   LIG d   1       3.972  -0.095  -5.275  0.00  0.00    -0.294 OA
BRANCH   4   5
ATOM      5  N   LIG d   1       2.683  -0.163  -4.588  0.00  0.00    -0.193 NA
ATOM      6  H   LIG d   1       2.122  -0.922  -4.945  0.00  0.00     0.154 HD
BRANCH   5   7
ATOM      7  C   LIG d   1       2.866  -0.283  -3.135  0.00  0.00     0.069 C 
ATOM      8  H   LIG d   1       1.892  -0.292  -2.645  0.00  0.00     0.054 H 
BRANCH   7   9
ATOM      9  C   LIG d   1       3.607  -1.584  -2.820  0.00  0.00    -0.042 C 
ATOM     10  H   LIG d   1       3.806  -2.123  -3.747  0.00  0.00     0.025 H 
ATOM     11  H   LIG d   1       4.550  -1.354  -2.323  0.00  0.00     0.025 H 
ATOM     12  H   LIG d   1       2.992  -2.202  -2.165  0.00  0.00     0.025 H 
ENDBRANCH   7   9
BRANCH   7  13
ATOM     13  C   LIG d   1       3.671   0.888  -2.632  0.00  0.00     0.061 C 
ATOM     14  O   LIG d   1       4.402   0.755  -1.680  0.00  0.00    -0.548 OA
ATOM     15  O   LIG d   1       3.576   2.079  -3.245  0.00  0.00    -0.548 OA
ENDBRANCH   7  13
ENDBRANCH   5   7
ENDBRANCH   4   5
ENDBRANCH   1   4
BRANCH   1  16
ATOM     16  C   LIG d   1       4.010   0.438  -7.613  0.00  0.00    -0.020 A 
ATOM     17  C   LIG d   1       5.198   0.736  -8.253  0.00  0.00    -0.056 A 
ATOM     18  C   LIG d   1       5.240   1.747  -9.195  0.00  0.00    -0.061 A 
ATOM     19  H   LIG d   1       6.093   0.181  -8.018  0.00  0.00     0.062 H 
ATOM     20  C   LIG d   1       4.094   2.459  -9.497  0.00  0.00    -0.062 A 
ATOM     21  H   LIG d   1       6.168   1.981  -9.696  0.00  0.00     0.062 H 
ATOM     22  C   LIG d   1       2.906   2.159  -8.857  0.00  0.00    -0.061 A 
ATOM     23  H   LIG d   1       4.127   3.248 -10.232  0.00  0.00     0.062 H 
ATOM     24  C   LIG d   1       2.863   1.145  -7.918  0.00  0.00    -0.056 A 
ATOM     25  H   LIG d   1       2.010   2.716  -9.092  0.00  0.00     0.062 H 
ATOM     26  H   LIG d   1       1.934   0.909  -7.421  0.00  0.00     0.062 H 
ENDBRANCH   1  16
TORSDOF 6
ENDMDL
MODEL 6
REMARK VINA RESULT:      -5.3      2.250      6.110
REMARK  6 active torsions:
REMARK  status: ('A' for Active; 'I' for Inactive)
REMARK    1  A    between atoms: C_1  and  C_2 
REMARK    2  A    between atoms: C_2  and  C_4 
REMARK    3  A    between atoms: C_2  and  N_6 
REMARK    4  A    between atoms: N_6  and  O_7 
REMARK    5  A    between atoms: O_7  and  C_8 
REMARK    6  A    between atoms: C_8  and  C_9 
ROOT
ATOM      1  C   LIG d   1       2.704   0.019  -6.850  0.00  0.00     0.094 C 
ATOM      2  H   LIG d   1       2.773  -1.070  -6.847  0.00  0.00     0.063 H 
ATOM      3  H   LIG d   1       1.683   0.319  -6.616  0.00  0.00     0.063 H 
ENDROOT
BRANCH   1   4
ATOM      4  O   LIG d   1       3.595   0.554  -5.870  0.00  0.00    -0.294 OA
BRANCH   4   5
ATOM      5  N   LIG d   1       3.004   0.690  -4.539  0.00  0.00    -0.193 NA
ATOM      6  H   LIG d   1       2.203   0.087  -4.436  0.00  0.00     0.154 HD
BRANCH   5   7
ATOM      7  C   LIG d   1       4.000   0.427  -3.492  0.00  0.00     0.069 C 
ATOM      8  H   LIG d   1       5.002   0.553  -3.903  0.00  0.00     0.054 H 
BRANCH   7   9
ATOM      9  C   LIG d   1       3.796   1.409  -2.336  0.00  0.00    -0.042 C 
ATOM     10  H   LIG d   1       4.026   2.420  -2.673  0.00  0.00     0.025 H 
ATOM     11  H   LIG d   1       2.760   1.364  -1.999  0.00  0.00     0.025 H 
ATOM     12  H   LIG d   1       4.458   1.141  -1.511  0.00  0.00     0.025 H 
ENDBRANCH   7   9
BRANCH   7  13
ATOM     13  C   LIG d   1       3.837  -0.984  -2.987  0.00  0.00     0.061 C 
ATOM     14  O   LIG d   1       3.252  -1.802  -3.657  0.00  0.00    -0.548 OA
ATOM     15  O   LIG d   1       4.342  -1.332  -1.793  0.00  0.00    -0.548 OA
ENDBRANCH   7  13
ENDBRANCH   5   7
ENDBRANCH   4   5
ENDBRANCH   1   4
BRANCH   1  16
ATOM     16  C   LIG d   1       3.082   0.542  -8.212  0.00  0.00    -0.020 A 
ATOM     17  C   LIG d   1       3.213   1.902  -8.419  0.00  0.00    -0.056 A 
ATOM     18  C   LIG d   1       3.560   2.380  -9.669  0.00  0.00    -0.061 A 
ATOM     19  H   LIG d   1       3.044   2.590  -7.605  0.00  0.00     0.062 H 
ATOM     20  C   LIG d   1       3.776   1.499 -10.711  0.00  0.00    -0.062 A 
ATOM     21  H   LIG d   1       3.662   3.444  -9.830  0.00  0.00     0.062 H 
ATOM     22  C   LIG d   1       3.646   0.138 -10.504  0.00  0.00    -0.061 A 
ATOM     23  H   LIG d   1       4.046   1.873 -11.687  0.00  0.00     0.062 H 
ATOM     24  C   LIG d   1       3.303  -0.340  -9.253  0.00  0.00    -0.056 A 
ATOM     25  H   LIG d   1       3.814  -0.550 -11.319  0.00  0.00     0.062 H 
ATOM     26  H   LIG d   1       3.206  -1.404  -9.091  0.00  0.00     0.062 H 
ENDBRANCH   1  16
TORSDOF 6
ENDMDL
MODEL 7
REMARK VINA RESULT:      -5.2      4.027      4.912
REMARK  6 active torsions:
REMARK  status: ('A' for Active; 'I' for Inactive)
REMARK    1  A    between atoms: C_1  and  C_2 
REMARK    2  A    between atoms: C_2  and  C_4 
REMARK    3  A    between atoms: C_2  and  N_6 
REMARK    4  A    between atoms: N_6  and  O_7 
REMARK    5  A    between atoms: O_7  and  C_8 
REMARK    6  A    between atoms: C_8  and  C_9 
ROOT
ATOM      1  C   LIG d   1       5.488  -2.537  -3.817  0.00  0.00     0.094 C 
ATOM      2  H   LIG d   1       6.118  -3.016  -3.068  0.00  0.00     0.063 H 
ATOM      3  H   LIG d   1       6.075  -2.342  -4.715  0.00  0.00     0.063 H 
ENDROOT
BRANCH   1   4
ATOM      4  O   LIG d   1       4.396  -3.400  -4.140  0.00  0.00    -0.294 OA
BRANCH   4   5
ATOM      5  N   LIG d   1       3.992  -3.349  -5.545  0.00  0.00    -0.193 NA
ATOM      6  H   LIG d   1       4.214  -2.454  -5.953  0.00  0.00     0.154 HD
BRANCH   5   7
ATOM      7  C   LIG d   1       4.607  -4.443  -6.310  0.00  0.00     0.069 C 
ATOM      8  H   LIG d   1       5.631  -4.173  -6.569  0.00  0.00     0.054 H 
BRANCH   7   9
ATOM      9  C   LIG d   1       4.615  -5.716  -5.461  0.00  0.00    -0.042 C 
ATOM     10  H   LIG d   1       4.972  -5.482  -4.458  0.00  0.00     0.025 H 
ATOM     11  H   LIG d   1       3.604  -6.121  -5.403  0.00  0.00     0.025 H 
ATOM     12  H   LIG d   1       5.276  -6.453  -5.919  0.00  0.00     0.025 H 
ENDBRANCH   7   9
BRANCH   7  13
ATOM     13  C   LIG d   1       3.815  -4.683  -7.569  0.00  0.00     0.061 C 
ATOM     14  O   LIG d   1       3.580  -3.766  -8.320  0.00  0.00    -0.548 OA
ATOM     15  O   LIG d   1       3.370  -5.916  -7.856  0.00  0.00    -0.548 OA
ENDBRANCH   7  13
ENDBRANCH   5   7
ENDBRANCH   4   5
ENDBRANCH   1   4
BRANCH   1  16
ATOM     16  C   LIG d   1       4.957  -1.237  -3.271  0.00  0.00    -0.020 A 
ATOM     17  C   LIG d   1       3.615  -1.112  -2.965  0.00  0.00    -0.056 A 
ATOM     18  C   LIG d   1       3.129   0.081  -2.464  0.00  0.00    -0.061 A 
ATOM     19  H   LIG d   1       2.946  -1.945  -3.119  0.00  0.00     0.062 H 
ATOM     20  C   LIG d   1       3.984   1.148  -2.267  0.00  0.00    -0.062 A 
ATOM     21  H   LIG d   1       2.080   0.179  -2.225  0.00  0.00     0.062 H 
ATOM     22  C   LIG d   1       5.328   1.023  -2.571  0.00  0.00    -0.061 A 
ATOM     23  H   LIG d   1       3.605   2.080  -1.875  0.00  0.00     0.062 H 
ATOM     24  C   LIG d   1       5.814  -0.172  -3.069  0.00  0.00    -0.056 A 
ATOM     25  H   LIG d   1       5.996   1.857  -2.418  0.00  0.00     0.062 H 
ATOM     26  H   LIG d   1       6.864  -0.271  -3.303  0.00  0.00     0.062 H 
ENDBRANCH   1  16
TORSDOF 6
ENDMDL
MODEL 8
REMARK VINA RESULT:      -4.8      4.608      5.295
REMARK  6 active torsions:
REMARK  status: ('A' for Active; 'I' for Inactive)
REMARK    1  A    between atoms: C_1  and  C_2 
REMARK    2  A    between atoms: C_2  and  C_4 
REMARK    3  A    between atoms: C_2  and  N_6 
REMARK    4  A    between atoms: N_6  and  O_7 
REMARK    5  A    between atoms: O_7  and  C_8 
REMARK    6  A    between atoms: C_8  and  C_9 
ROOT
ATOM      1  C   LIG d   1       5.306  -2.748  -4.108  0.00  0.00     0.094 C 
ATOM      2  H   LIG d   1       5.831  -3.356  -3.371  0.00  0.00     0.063 H 
ATOM      3  H   LIG d   1       5.994  -2.469  -4.906  0.00  0.00     0.063 H 
ENDROOT
BRANCH   1   4
ATOM      4  O   LIG d   1       4.220  -3.497  -4.655  0.00  0.00    -0.294 OA
BRANCH   4   5
ATOM      5  N   LIG d   1       4.592  -4.833  -5.121  0.00  0.00    -0.193 NA
ATOM      6  H   LIG d   1       4.387  -5.530  -4.422  0.00  0.00     0.154 HD
BRANCH   5   7
ATOM      7  C   LIG d   1       3.928  -5.151  -6.392  0.00  0.00     0.069 C 
ATOM      8  H   LIG d   1       2.856  -5.262  -6.224  0.00  0.00     0.054 H 
BRANCH   7   9
ATOM      9  C   LIG d   1       4.172  -4.019  -7.393  0.00  0.00    -0.042 C 
ATOM     10  H   LIG d   1       3.276  -3.865  -7.994  0.00  0.00     0.025 H 
ATOM     11  H   LIG d   1       4.411  -3.102  -6.853  0.00  0.00     0.025 H 
ATOM     12  H   LIG d   1       5.005  -4.285  -8.044  0.00  0.00     0.025 H 
ENDBRANCH   7   9
BRANCH   7  13
ATOM     13  C   LIG d   1       4.487  -6.438  -6.943  0.00  0.00     0.061 C 
ATOM     14  O   LIG d   1       3.950  -7.489  -6.685  0.00  0.00    -0.548 OA
ATOM     15  O   LIG d   1       5.581  -6.415  -7.720  0.00  0.00    -0.548 OA
ENDBRANCH   7  13
ENDBRANCH   5   7
ENDBRANCH   4   5
ENDBRANCH   1   4
BRANCH   1  16
ATOM     16  C   LIG d   1       4.774  -1.503  -3.444  0.00  0.00    -0.020 A 
ATOM     17  C   LIG d   1       5.650  -0.571  -2.921  0.00  0.00    -0.056 A 
ATOM     18  C   LIG d   1       5.161   0.570  -2.312  0.00  0.00    -0.061 A 
ATOM     19  H   LIG d   1       6.715  -0.734  -2.986  0.00  0.00     0.062 H 
ATOM     20  C   LIG d   1       3.798   0.779  -2.228  0.00  0.00    -0.062 A 
ATOM     21  H   LIG d   1       5.846   1.299  -1.903  0.00  0.00     0.062 H 
ATOM     22  C   LIG d   1       2.922  -0.153  -2.753  0.00  0.00    -0.061 A 
ATOM     23  H   LIG d   1       3.417   1.670  -1.752  0.00  0.00     0.062 H 
ATOM     24  C   LIG d   1       3.411  -1.292  -3.365  0.00  0.00    -0.056 A 
ATOM     25  H   LIG d   1       1.856   0.010  -2.686  0.00  0.00     0.062 H 
ATOM     26  H   LIG d   1       2.726  -2.019  -3.778  0.00  0.00     0.062 H 
ENDBRANCH   1  16
TORSDOF 6
ENDMDL
MODEL 9
REMARK VINA RESULT:      -4.5      2.539      6.066
REMARK  6 active torsions:
REMARK  status: ('A' for Active; 'I' for Inactive)
REMARK    1  A    between atoms: C_1  and  C_2 
REMARK    2  A    between atoms: C_2  and  C_4 
REMARK    3  A    between atoms: C_2  and  N_6 
REMARK    4  A    between atoms: N_6  and  O_7 
REMARK    5  A    between atoms: O_7  and  C_8 
REMARK    6  A    between atoms: C_8  and  C_9 
ROOT
ATOM      1  C   LIG d   1       4.189  -0.980  -6.998  0.00  0.00     0.094 C 
ATOM      2  H   LIG d   1       4.692  -1.749  -7.584  0.00  0.00     0.063 H 
ATOM      3  H   LIG d   1       3.182  -1.315  -6.746  0.00  0.00     0.063 H 
ENDROOT
BRANCH   1   4
ATOM      4  O   LIG d   1       4.925  -0.740  -5.798  0.00  0.00    -0.294 OA
BRANCH   4   5
ATOM      5  N   LIG d   1       4.839  -1.823  -4.818  0.00  0.00    -0.193 NA
ATOM      6  H   LIG d   1       5.260  -2.667  -5.175  0.00  0.00     0.154 HD
BRANCH   5   7
ATOM      7  C   LIG d   1       5.450  -1.428  -3.542  0.00  0.00     0.069 C 
ATOM      8  H   LIG d   1       6.297  -2.081  -3.327  0.00  0.00     0.054 H 
BRANCH   7   9
ATOM      9  C   LIG d   1       5.934   0.021  -3.634  0.00  0.00    -0.042 C 
ATOM     10  H   LIG d   1       5.741   0.530  -2.690  0.00  0.00     0.025 H 
ATOM     11  H   LIG d   1       7.004   0.033  -3.843  0.00  0.00     0.025 H 
ATOM     12  H   LIG d   1       5.401   0.530  -4.437  0.00  0.00     0.025 H 
ENDBRANCH   7   9
BRANCH   7  13
ATOM     13  C   LIG d   1       4.429  -1.548  -2.439  0.00  0.00     0.061 C 
ATOM     14  O   LIG d   1       4.360  -0.695  -1.585  0.00  0.00    -0.548 OA
ATOM     15  O   LIG d   1       3.598  -2.601  -2.406  0.00  0.00    -0.548 OA
ENDBRANCH   7  13
ENDBRANCH   5   7
ENDBRANCH   4   5
ENDBRANCH   1   4
BRANCH   1  16
ATOM     16  C   LIG d   1       4.109   0.292  -7.802  0.00  0.00    -0.020 A 
ATOM     17  C   LIG d   1       2.919   0.991  -7.874  0.00  0.00    -0.056 A 
ATOM     18  C   LIG d   1       2.847   2.158  -8.612  0.00  0.00    -0.061 A 
ATOM     19  H   LIG d   1       2.046   0.627  -7.354  0.00  0.00     0.062 H 
ATOM     20  C   LIG d   1       3.964   2.625  -9.277  0.00  0.00    -0.062 A 
ATOM     21  H   LIG d   1       1.916   2.704  -8.668  0.00  0.00     0.062 H 
ATOM     22  C   LIG d   1       5.155   1.926  -9.204  0.00  0.00    -0.061 A 
ATOM     23  H   LIG d   1       3.907   3.536  -9.854  0.00  0.00     0.062 H 
ATOM     24  C   LIG d   1       5.228   0.762  -8.463  0.00  0.00    -0.056 A 
ATOM     25  H   LIG d   1       6.028   2.291  -9.725  0.00  0.00     0.062 H 
ATOM     26  H   LIG d   1       6.159   0.218  -8.403  0.00  0.00     0.062 H 
ENDBRANCH   1  16
TORSDOF 6
ENDMDL
