MODEL 1
REMARK VINA RESULT:      -5.9      0.000      0.000
REMARK  0 active torsions:
REMARK  status: ('A' for Active; 'I' for Inactive)
ROOT
ATOM      1  C   LIG d   1       2.939   0.118  -6.387  0.00  0.00    -0.021 C 
ATOM      2  C   LIG d   1       4.345  -0.299  -6.824  0.00  0.00     0.018 C 
ATOM      3  N   LIG d   1       4.785  -1.444  -6.027  0.00  0.00    -0.284 N 
ATOM      4  C   LIG d   1       5.927  -2.244  -6.470  0.00  0.00     0.032 C 
ATOM      5  C   LIG d   1       7.146  -1.931  -5.595  0.00  0.00     0.032 C 
ATOM      6  N   LIG d   1       6.814  -0.870  -4.646  0.00  0.00    -0.284 N 
ATOM      7  C   LIG d   1       7.233   0.507  -4.922  0.00  0.00     0.018 C 
ATOM      8  C   LIG d   1       7.176   1.328  -3.634  0.00  0.00    -0.021 C 
ATOM      9  C   LIG d   1       5.794   1.192  -2.989  0.00  0.00     0.018 C 
ATOM     10  N   LIG d   1       5.467  -0.226  -2.833  0.00  0.00    -0.284 N 
ATOM     11  C   LIG d   1       6.122  -1.171  -3.532  0.00  0.00     0.305 C 
ATOM     12  O   LIG d   1       6.088  -2.324  -3.147  0.00  0.00    -0.252 OA
ATOM     13  C   LIG d   1       4.376  -0.626  -1.942  0.00  0.00     0.032 C 
ATOM     14  C   LIG d   1       3.163  -1.054  -2.773  0.00  0.00     0.032 C 
ATOM     15  N   LIG d   1       3.439  -0.848  -4.195  0.00  0.00    -0.284 N 
ATOM     16  C   LIG d   1       2.909   0.337  -4.873  0.00  0.00     0.018 C 
ATOM     17  C   LIG d   1       4.184  -1.751  -4.862  0.00  0.00     0.305 C 
ATOM     18  O   LIG d   1       4.315  -2.868  -4.401  0.00  0.00    -0.252 OA
ATOM     19  H   LIG d   1       2.663   1.044  -6.892  0.00  0.00     0.030 H 
ATOM     20  H   LIG d   1       2.229  -0.664  -6.654  0.00  0.00     0.030 H 
ATOM     21  H   LIG d   1       4.329  -0.575  -7.879  0.00  0.00     0.046 H 
ATOM     22  H   LIG d   1       5.033   0.532  -6.676  0.00  0.00     0.046 H 
ATOM     23  H   LIG d   1       5.683  -3.303  -6.386  0.00  0.00     0.048 H 
ATOM     24  H   LIG d   1       6.155  -2.006  -7.508  0.00  0.00     0.048 H 
ATOM     25  H   LIG d   1       7.438  -2.828  -5.048  0.00  0.00     0.048 H 
ATOM     26  H   LIG d   1       7.972  -1.608  -6.228  0.00  0.00     0.048 H 
ATOM     27  H   LIG d   1       8.253   0.506  -5.307  0.00  0.00     0.046 H 
ATOM     28  H   LIG d   1       6.566   0.947  -5.664  0.00  0.00     0.046 H 
ATOM     29  H   LIG d   1       7.936   0.968  -2.941  0.00  0.00     0.030 H 
ATOM     30  H   LIG d   1       7.365   2.377  -3.864  0.00  0.00     0.030 H 
ATOM     31  H   LIG d   1       5.802   1.674  -2.011  0.00  0.00     0.046 H 
ATOM     32  H   LIG d   1       5.049   1.669  -3.625  0.00  0.00     0.046 H 
ATOM     33  H   LIG d   1       4.703  -1.460  -1.322  0.00  0.00     0.048 H 
ATOM     34  H   LIG d   1       4.102   0.214  -1.305  0.00  0.00     0.048 H 
ATOM     35  H   LIG d   1       2.955  -2.109  -2.595  0.00  0.00     0.048 H 
ATOM     36  H   LIG d   1       2.296  -0.460  -2.483  0.00  0.00     0.048 H 
ATOM     37  H   LIG d   1       3.519   1.204  -4.618  0.00  0.00     0.046 H 
ATOM     38  H   LIG d   1       1.882   0.510  -4.552  0.00  0.00     0.046 H 
ENDROOT
TORSDOF 0
ENDMDL
MODEL 2
REMARK VINA RESULT:      -5.9      0.057      4.075
REMARK  0 active torsions:
REMARK  status: ('A' for Active; 'I' for Inactive)
ROOT
ATOM      1  C   LIG d   1       7.218   1.315  -3.705  0.00  0.00    -0.021 C 
ATOM      2  C   LIG d   1       5.849   1.205  -3.030  0.00  0.00     0.018 C 
ATOM      3  N   LIG d   1       5.507  -0.205  -2.848  0.00  0.00    -0.284 N 
ATOM      4  C   LIG d   1       4.432  -0.580  -1.930  0.00  0.00     0.032 C 
ATOM      5  C   LIG d   1       3.195  -1.004  -2.729  0.00  0.00     0.032 C 
ATOM      6  N   LIG d   1       3.442  -0.820  -4.158  0.00  0.00    -0.284 N 
ATOM      7  C   LIG d   1       2.912   0.363  -4.840  0.00  0.00     0.018 C 
ATOM      8  C   LIG d   1       2.908   0.125  -6.350  0.00  0.00    -0.021 C 
ATOM      9  C   LIG d   1       4.298  -0.317  -6.813  0.00  0.00     0.018 C 
ATOM     10  N   LIG d   1       4.740  -1.457  -6.010  0.00  0.00    -0.284 N 
ATOM     11  C   LIG d   1       4.161  -1.741  -4.828  0.00  0.00     0.305 C 
ATOM     12  O   LIG d   1       4.290  -2.854  -4.356  0.00  0.00    -0.252 OA
ATOM     13  C   LIG d   1       5.863  -2.277  -6.467  0.00  0.00     0.032 C 
ATOM     14  C   LIG d   1       7.103  -1.969  -5.624  0.00  0.00     0.032 C 
ATOM     15  N   LIG d   1       6.807  -0.891  -4.682  0.00  0.00    -0.284 N 
ATOM     16  C   LIG d   1       7.236   0.476  -4.985  0.00  0.00     0.018 C 
ATOM     17  C   LIG d   1       6.135  -1.169  -3.548  0.00  0.00     0.305 C 
ATOM     18  O   LIG d   1       6.096  -2.316  -3.148  0.00  0.00    -0.252 OA
ATOM     19  H   LIG d   1       7.416   2.358  -3.954  0.00  0.00     0.030 H 
ATOM     20  H   LIG d   1       7.988   0.953  -3.025  0.00  0.00     0.030 H 
ATOM     21  H   LIG d   1       5.883   1.699  -2.059  0.00  0.00     0.046 H 
ATOM     22  H   LIG d   1       5.097   1.684  -3.656  0.00  0.00     0.046 H 
ATOM     23  H   LIG d   1       4.761  -1.411  -1.305  0.00  0.00     0.048 H 
ATOM     24  H   LIG d   1       4.181   0.271  -1.298  0.00  0.00     0.048 H 
ATOM     25  H   LIG d   1       2.978  -2.055  -2.531  0.00  0.00     0.048 H 
ATOM     26  H   LIG d   1       2.343  -0.395  -2.427  0.00  0.00     0.048 H 
ATOM     27  H   LIG d   1       1.895   0.554  -4.499  0.00  0.00     0.046 H 
ATOM     28  H   LIG d   1       3.539   1.225  -4.610  0.00  0.00     0.046 H 
ATOM     29  H   LIG d   1       2.181  -0.651  -6.592  0.00  0.00     0.030 H 
ATOM     30  H   LIG d   1       2.633   1.049  -6.862  0.00  0.00     0.030 H 
ATOM     31  H   LIG d   1       4.255  -0.606  -7.863  0.00  0.00     0.046 H 
ATOM     32  H   LIG d   1       5.000   0.508  -6.691  0.00  0.00     0.046 H 
ATOM     33  H   LIG d   1       5.606  -3.332  -6.364  0.00  0.00     0.048 H 
ATOM     34  H   LIG d   1       6.070  -2.056  -7.514  0.00  0.00     0.048 H 
ATOM     35  H   LIG d   1       7.397  -2.862  -5.071  0.00  0.00     0.048 H 
ATOM     36  H   LIG d   1       7.920  -1.664  -6.278  0.00  0.00     0.048 H 
ATOM     37  H   LIG d   1       6.559   0.916  -5.718  0.00  0.00     0.046 H 
ATOM     38  H   LIG d   1       8.247   0.457  -5.392  0.00  0.00     0.046 H 
ENDROOT
TORSDOF 0
ENDMDL
MODEL 3
REMARK VINA RESULT:      -5.0      8.987     11.289
REMARK  0 active torsions:
REMARK  status: ('A' for Active; 'I' for Inactive)
ROOT
ATOM      1  C   LIG d   1      13.940   6.242  -0.823  0.00  0.00    -0.021 C 
ATOM      2  C   LIG d   1      13.470   7.608  -0.318  0.00  0.00     0.018 C 
ATOM      3  N   LIG d   1      12.079   7.513   0.123  0.00  0.00    -0.284 N 
ATOM      4  C   LIG d   1      11.507   8.569   0.958  0.00  0.00     0.032 C 
ATOM      5  C   LIG d   1      10.553   9.429   0.121  0.00  0.00     0.032 C 
ATOM      6  N   LIG d   1      10.577   8.982  -1.271  0.00  0.00    -0.284 N 
ATOM      7  C   LIG d   1      11.372   9.719  -2.256  0.00  0.00     0.018 C 
ATOM      8  C   LIG d   1      10.906   9.356  -3.666  0.00  0.00    -0.021 C 
ATOM      9  C   LIG d   1      10.908   7.836  -3.842  0.00  0.00     0.018 C 
ATOM     10  N   LIG d   1      10.141   7.218  -2.760  0.00  0.00    -0.284 N 
ATOM     11  C   LIG d   1       9.870   7.894  -1.628  0.00  0.00     0.305 C 
ATOM     12  O   LIG d   1       8.964   7.512  -0.911  0.00  0.00    -0.252 OA
ATOM     13  C   LIG d   1       9.702   5.827  -2.882  0.00  0.00     0.032 C 
ATOM     14  C   LIG d   1      10.557   4.936  -1.976  0.00  0.00     0.032 C 
ATOM     15  N   LIG d   1      11.602   5.735  -1.338  0.00  0.00    -0.284 N 
ATOM     16  C   LIG d   1      12.964   5.712  -1.876  0.00  0.00     0.018 C 
ATOM     17  C   LIG d   1      11.295   6.489  -0.265  0.00  0.00     0.305 C 
ATOM     18  O   LIG d   1      10.288   6.238   0.369  0.00  0.00    -0.252 OA
ATOM     19  H   LIG d   1      14.931   6.341  -1.266  0.00  0.00     0.030 H 
ATOM     20  H   LIG d   1      13.986   5.543   0.012  0.00  0.00     0.030 H 
ATOM     21  H   LIG d   1      14.096   7.921   0.518  0.00  0.00     0.046 H 
ATOM     22  H   LIG d   1      13.547   8.338  -1.123  0.00  0.00     0.046 H 
ATOM     23  H   LIG d   1      10.957   8.120   1.785  0.00  0.00     0.048 H 
ATOM     24  H   LIG d   1      12.307   9.194   1.352  0.00  0.00     0.048 H 
ATOM     25  H   LIG d   1       9.540   9.335   0.514  0.00  0.00     0.048 H 
ATOM     26  H   LIG d   1      10.866  10.472   0.173  0.00  0.00     0.048 H 
ATOM     27  H   LIG d   1      11.248  10.789  -2.096  0.00  0.00     0.046 H 
ATOM     28  H   LIG d   1      12.425   9.455  -2.142  0.00  0.00     0.046 H 
ATOM     29  H   LIG d   1       9.896   9.737  -3.823  0.00  0.00     0.030 H 
ATOM     30  H   LIG d   1      11.578   9.806  -4.398  0.00  0.00     0.030 H 
ATOM     31  H   LIG d   1      10.455   7.581  -4.801  0.00  0.00     0.046 H 
ATOM     32  H   LIG d   1      11.934   7.470  -3.815  0.00  0.00     0.046 H 
ATOM     33  H   LIG d   1       8.656   5.750  -2.584  0.00  0.00     0.048 H 
ATOM     34  H   LIG d   1       9.809   5.503  -3.916  0.00  0.00     0.048 H 
ATOM     35  H   LIG d   1       9.926   4.486  -1.209  0.00  0.00     0.048 H 
ATOM     36  H   LIG d   1      11.018   4.148  -2.573  0.00  0.00     0.048 H 
ATOM     37  H   LIG d   1      13.014   6.339  -2.766  0.00  0.00     0.046 H 
ATOM     38  H   LIG d   1      13.234   4.689  -2.138  0.00  0.00     0.046 H 
ENDROOT
TORSDOF 0
ENDMDL
MODEL 4
REMARK VINA RESULT:      -5.0      9.074     10.919
REMARK  0 active torsions:
REMARK  status: ('A' for Active; 'I' for Inactive)
ROOT
ATOM      1  C   LIG d   1      10.783   9.456  -3.611  0.00  0.00    -0.021 C 
ATOM      2  C   LIG d   1      10.837   7.936  -3.780  0.00  0.00     0.018 C 
ATOM      3  N   LIG d   1      10.105   7.296  -2.686  0.00  0.00    -0.284 N 
ATOM      4  C   LIG d   1       9.713   5.892  -2.796  0.00  0.00     0.032 C 
ATOM      5  C   LIG d   1      10.609   5.034  -1.896  0.00  0.00     0.032 C 
ATOM      6  N   LIG d   1      11.632   5.872  -1.275  0.00  0.00    -0.284 N 
ATOM      7  C   LIG d   1      12.989   5.893  -1.828  0.00  0.00     0.018 C 
ATOM      8  C   LIG d   1      13.957   6.462  -0.791  0.00  0.00    -0.021 C 
ATOM      9  C   LIG d   1      13.446   7.813  -0.286  0.00  0.00     0.018 C 
ATOM     10  N   LIG d   1      12.064   7.672   0.172  0.00  0.00    -0.284 N 
ATOM     11  C   LIG d   1      11.313   6.620  -0.202  0.00  0.00     0.305 C 
ATOM     12  O   LIG d   1      10.322   6.339   0.445  0.00  0.00    -0.252 OA
ATOM     13  C   LIG d   1      11.466   8.713   1.010  0.00  0.00     0.032 C 
ATOM     14  C   LIG d   1      10.474   9.535   0.181  0.00  0.00     0.032 C 
ATOM     15  N   LIG d   1      10.497   9.082  -1.209  0.00  0.00    -0.284 N 
ATOM     16  C   LIG d   1      11.254   9.841  -2.207  0.00  0.00     0.018 C 
ATOM     17  C   LIG d   1       9.823   7.968  -1.553  0.00  0.00     0.305 C 
ATOM     18  O   LIG d   1       8.940   7.559  -0.825  0.00  0.00    -0.252 OA
ATOM     19  H   LIG d   1      11.430   9.925  -4.352  0.00  0.00     0.030 H 
ATOM     20  H   LIG d   1       9.759   9.800  -3.756  0.00  0.00     0.030 H 
ATOM     21  H   LIG d   1      10.382   7.660  -4.731  0.00  0.00     0.046 H 
ATOM     22  H   LIG d   1      11.875   7.605  -3.764  0.00  0.00     0.046 H 
ATOM     23  H   LIG d   1       8.674   5.779  -2.485  0.00  0.00     0.048 H 
ATOM     24  H   LIG d   1       9.818   5.565  -3.830  0.00  0.00     0.048 H 
ATOM     25  H   LIG d   1      10.003   4.566  -1.120  0.00  0.00     0.048 H 
ATOM     26  H   LIG d   1      11.089   4.260  -2.496  0.00  0.00     0.048 H 
ATOM     27  H   LIG d   1      13.290   4.879  -2.089  0.00  0.00     0.046 H 
ATOM     28  H   LIG d   1      13.005   6.518  -2.722  0.00  0.00     0.046 H 
ATOM     29  H   LIG d   1      14.039   5.769   0.046  0.00  0.00     0.030 H 
ATOM     30  H   LIG d   1      14.940   6.594  -1.247  0.00  0.00     0.030 H 
ATOM     31  H   LIG d   1      14.072   8.151   0.541  0.00  0.00     0.046 H 
ATOM     32  H   LIG d   1      13.489   8.542  -1.095  0.00  0.00     0.046 H 
ATOM     33  H   LIG d   1      10.943   8.248   1.846  0.00  0.00     0.048 H 
ATOM     34  H   LIG d   1      12.250   9.366   1.391  0.00  0.00     0.048 H 
ATOM     35  H   LIG d   1       9.470   9.408   0.587  0.00  0.00     0.048 H 
ATOM     36  H   LIG d   1      10.751  10.588   0.223  0.00  0.00     0.048 H 
ATOM     37  H   LIG d   1      12.316   9.614  -2.106  0.00  0.00     0.046 H 
ATOM     38  H   LIG d   1      11.095  10.907  -2.051  0.00  0.00     0.046 H 
ENDROOT
TORSDOF 0
ENDMDL
MODEL 5
REMARK VINA RESULT:      -4.7      8.846     10.986
REMARK  0 active torsions:
REMARK  status: ('A' for Active; 'I' for Inactive)
ROOT
ATOM      1  C   LIG d   1      13.843   8.134  -2.761  0.00  0.00    -0.021 C 
ATOM      2  C   LIG d   1      13.289   6.707  -2.767  0.00  0.00     0.018 C 
ATOM      3  N   LIG d   1      11.848   6.743  -3.018  0.00  0.00    -0.284 N 
ATOM      4  C   LIG d   1      11.147   5.522  -3.415  0.00  0.00     0.032 C 
ATOM      5  C   LIG d   1      10.321   4.996  -2.236  0.00  0.00     0.032 C 
ATOM      6  N   LIG d   1      10.556   5.827  -1.057  0.00  0.00    -0.284 N 
ATOM      7  C   LIG d   1      11.483   5.368  -0.019  0.00  0.00     0.018 C 
ATOM      8  C   LIG d   1      11.235   6.150   1.272  0.00  0.00    -0.021 C 
ATOM      9  C   LIG d   1      11.279   7.653   0.987  0.00  0.00     0.018 C 
ATOM     10  N   LIG d   1      10.366   7.969  -0.111  0.00  0.00    -0.284 N 
ATOM     11  C   LIG d   1       9.921   7.008  -0.943  0.00  0.00     0.305 C 
ATOM     12  O   LIG d   1       8.923   7.213  -1.607  0.00  0.00    -0.252 OA
ATOM     13  C   LIG d   1       9.963   9.356  -0.346  0.00  0.00     0.032 C 
ATOM     14  C   LIG d   1      10.683   9.898  -1.585  0.00  0.00     0.032 C 
ATOM     15  N   LIG d   1      11.612   8.893  -2.097  0.00  0.00    -0.284 N 
ATOM     16  C   LIG d   1      13.040   8.999  -1.787  0.00  0.00     0.018 C 
ATOM     17  C   LIG d   1      11.141   7.876  -2.845  0.00  0.00     0.305 C 
ATOM     18  O   LIG d   1      10.054   7.985  -3.377  0.00  0.00    -0.252 OA
ATOM     19  H   LIG d   1      14.887   8.115  -2.451  0.00  0.00     0.030 H 
ATOM     20  H   LIG d   1      13.770   8.555  -3.763  0.00  0.00     0.030 H 
ATOM     21  H   LIG d   1      13.780   6.131  -3.552  0.00  0.00     0.046 H 
ATOM     22  H   LIG d   1      13.478   6.240  -1.801  0.00  0.00     0.046 H 
ATOM     23  H   LIG d   1      10.485   5.739  -4.253  0.00  0.00     0.048 H 
ATOM     24  H   LIG d   1      11.874   4.768  -3.713  0.00  0.00     0.048 H 
ATOM     25  H   LIG d   1       9.262   5.025  -2.494  0.00  0.00     0.048 H 
ATOM     26  H   LIG d   1      10.613   3.968  -2.020  0.00  0.00     0.048 H 
ATOM     27  H   LIG d   1      11.326   4.305   0.165  0.00  0.00     0.046 H 
ATOM     28  H   LIG d   1      12.509   5.531  -0.351  0.00  0.00     0.046 H 
ATOM     29  H   LIG d   1      10.257   5.885   1.673  0.00  0.00     0.030 H 
ATOM     30  H   LIG d   1      12.005   5.898   2.002  0.00  0.00     0.030 H 
ATOM     31  H   LIG d   1      10.977   8.200   1.881  0.00  0.00     0.046 H 
ATOM     32  H   LIG d   1      12.294   7.940   0.711  0.00  0.00     0.046 H 
ATOM     33  H   LIG d   1       8.886   9.399  -0.504  0.00  0.00     0.048 H 
ATOM     34  H   LIG d   1      10.227   9.962   0.521  0.00  0.00     0.048 H 
ATOM     35  H   LIG d   1       9.949  10.138  -2.355  0.00  0.00     0.048 H 
ATOM     36  H   LIG d   1      11.235  10.800  -1.319  0.00  0.00     0.048 H 
ATOM     37  H   LIG d   1      13.216   8.656  -0.766  0.00  0.00     0.046 H 
ATOM     38  H   LIG d   1      13.355  10.038  -1.880  0.00  0.00     0.046 H 
ENDROOT
TORSDOF 0
ENDMDL
MODEL 6
REMARK VINA RESULT:      -4.5      1.797      3.349
REMARK  0 active torsions:
REMARK  status: ('A' for Active; 'I' for Inactive)
ROOT
ATOM      1  C   LIG d   1       6.367  -4.475  -5.312  0.00  0.00    -0.021 C 
ATOM      2  C   LIG d   1       7.342  -3.444  -5.886  0.00  0.00     0.018 C 
ATOM      3  N   LIG d   1       7.456  -2.314  -4.965  0.00  0.00    -0.284 N 
ATOM      4  C   LIG d   1       8.566  -1.371  -5.103  0.00  0.00     0.032 C 
ATOM      5  C   LIG d   1       8.055  -0.056  -5.702  0.00  0.00     0.032 C 
ATOM      6  N   LIG d   1       6.636  -0.181  -6.029  0.00  0.00    -0.284 N 
ATOM      7  C   LIG d   1       6.229  -0.437  -7.413  0.00  0.00     0.018 C 
ATOM      8  C   LIG d   1       4.749  -0.092  -7.585  0.00  0.00    -0.021 C 
ATOM      9  C   LIG d   1       3.918  -0.817  -6.525  0.00  0.00     0.018 C 
ATOM     10  N   LIG d   1       4.467  -0.536  -5.198  0.00  0.00    -0.284 N 
ATOM     11  C   LIG d   1       5.718  -0.064  -5.050  0.00  0.00     0.305 C 
ATOM     12  O   LIG d   1       6.028   0.481  -4.008  0.00  0.00    -0.252 OA
ATOM     13  C   LIG d   1       3.667  -0.818  -4.005  0.00  0.00     0.032 C 
ATOM     14  C   LIG d   1       4.208  -2.069  -3.305  0.00  0.00     0.032 C 
ATOM     15  N   LIG d   1       5.300  -2.642  -4.091  0.00  0.00    -0.284 N 
ATOM     16  C   LIG d   1       5.043  -3.797  -4.955  0.00  0.00     0.018 C 
ATOM     17  C   LIG d   1       6.529  -2.097  -4.013  0.00  0.00     0.305 C 
ATOM     18  O   LIG d   1       6.806  -1.393  -3.062  0.00  0.00    -0.252 OA
ATOM     19  H   LIG d   1       6.187  -5.254  -6.053  0.00  0.00     0.030 H 
ATOM     20  H   LIG d   1       6.798  -4.921  -4.416  0.00  0.00     0.030 H 
ATOM     21  H   LIG d   1       8.321  -3.905  -6.019  0.00  0.00     0.046 H 
ATOM     22  H   LIG d   1       6.972  -3.092  -6.849  0.00  0.00     0.046 H 
ATOM     23  H   LIG d   1       9.003  -1.177  -4.123  0.00  0.00     0.048 H 
ATOM     24  H   LIG d   1       9.324  -1.798  -5.759  0.00  0.00     0.048 H 
ATOM     25  H   LIG d   1       8.191   0.748  -4.978  0.00  0.00     0.048 H 
ATOM     26  H   LIG d   1       8.617   0.172  -6.607  0.00  0.00     0.048 H 
ATOM     27  H   LIG d   1       6.826   0.177  -8.086  0.00  0.00     0.046 H 
ATOM     28  H   LIG d   1       6.386  -1.491  -7.648  0.00  0.00     0.046 H 
ATOM     29  H   LIG d   1       4.614   0.984  -7.479  0.00  0.00     0.030 H 
ATOM     30  H   LIG d   1       4.418  -0.401  -8.578  0.00  0.00     0.030 H 
ATOM     31  H   LIG d   1       2.886  -0.469  -6.573  0.00  0.00     0.046 H 
ATOM     32  H   LIG d   1       3.949  -1.891  -6.711  0.00  0.00     0.046 H 
ATOM     33  H   LIG d   1       3.721   0.031  -3.324  0.00  0.00     0.048 H 
ATOM     34  H   LIG d   1       2.630  -0.985  -4.296  0.00  0.00     0.048 H 
ATOM     35  H   LIG d   1       4.577  -1.799  -2.315  0.00  0.00     0.048 H 
ATOM     36  H   LIG d   1       3.409  -2.803  -3.205  0.00  0.00     0.048 H 
ATOM     37  H   LIG d   1       4.548  -3.464  -5.868  0.00  0.00     0.046 H 
ATOM     38  H   LIG d   1       4.401  -4.506  -4.433  0.00  0.00     0.046 H 
ENDROOT
TORSDOF 0
ENDMDL
MODEL 7
REMARK VINA RESULT:      -4.5      1.828      3.988
REMARK  0 active torsions:
REMARK  status: ('A' for Active; 'I' for Inactive)
ROOT
ATOM      1  C   LIG d   1       2.686   0.317  -5.145  0.00  0.00    -0.021 C 
ATOM      2  C   LIG d   1       3.419  -0.440  -4.035  0.00  0.00     0.018 C 
ATOM      3  N   LIG d   1       4.863  -0.341  -4.247  0.00  0.00    -0.284 N 
ATOM      4  C   LIG d   1       5.782  -0.673  -3.159  0.00  0.00     0.032 C 
ATOM      5  C   LIG d   1       6.442  -2.029  -3.437  0.00  0.00     0.032 C 
ATOM      6  N   LIG d   1       5.883  -2.609  -4.657  0.00  0.00    -0.284 N 
ATOM      7  C   LIG d   1       4.852  -3.645  -4.562  0.00  0.00     0.018 C 
ATOM      8  C   LIG d   1       4.750  -4.391  -5.893  0.00  0.00    -0.021 C 
ATOM      9  C   LIG d   1       4.557  -3.393  -7.037  0.00  0.00     0.018 C 
ATOM     10  N   LIG d   1       5.606  -2.375  -6.978  0.00  0.00    -0.284 N 
ATOM     11  C   LIG d   1       6.321  -2.178  -5.855  0.00  0.00     0.305 C 
ATOM     12  O   LIG d   1       7.388  -1.597  -5.924  0.00  0.00    -0.252 OA
ATOM     13  C   LIG d   1       5.854  -1.518  -8.139  0.00  0.00     0.032 C 
ATOM     14  C   LIG d   1       5.308  -0.113  -7.869  0.00  0.00     0.032 C 
ATOM     15  N   LIG d   1       4.633  -0.085  -6.572  0.00  0.00    -0.284 N 
ATOM     16  C   LIG d   1       3.171  -0.166  -6.513  0.00  0.00     0.018 C 
ATOM     17  C   LIG d   1       5.366   0.009  -5.446  0.00  0.00     0.305 C 
ATOM     18  O   LIG d   1       6.508   0.420  -5.514  0.00  0.00    -0.252 OA
ATOM     19  H   LIG d   1       1.614   0.139  -5.057  0.00  0.00     0.030 H 
ATOM     20  H   LIG d   1       2.883   1.384  -5.047  0.00  0.00     0.030 H 
ATOM     21  H   LIG d   1       3.162  -0.004  -3.069  0.00  0.00     0.046 H 
ATOM     22  H   LIG d   1       3.120  -1.487  -4.052  0.00  0.00     0.046 H 
ATOM     23  H   LIG d   1       6.552   0.096  -3.087  0.00  0.00     0.048 H 
ATOM     24  H   LIG d   1       5.232  -0.723  -2.221  0.00  0.00     0.048 H 
ATOM     25  H   LIG d   1       7.516  -1.891  -3.561  0.00  0.00     0.048 H 
ATOM     26  H   LIG d   1       6.256  -2.700  -2.598  0.00  0.00     0.048 H 
ATOM     27  H   LIG d   1       5.115  -4.348  -3.771  0.00  0.00     0.046 H 
ATOM     28  H   LIG d   1       3.892  -3.182  -4.331  0.00  0.00     0.046 H 
ATOM     29  H   LIG d   1       5.665  -4.961  -6.060  0.00  0.00     0.030 H 
ATOM     30  H   LIG d   1       3.901  -5.074  -5.862  0.00  0.00     0.030 H 
ATOM     31  H   LIG d   1       4.613  -3.919  -7.990  0.00  0.00     0.046 H 
ATOM     32  H   LIG d   1       3.582  -2.916  -6.941  0.00  0.00     0.046 H 
ATOM     33  H   LIG d   1       6.927  -1.461  -8.325  0.00  0.00     0.048 H 
ATOM     34  H   LIG d   1       5.356  -1.939  -9.012  0.00  0.00     0.048 H 
ATOM     35  H   LIG d   1       6.132   0.601  -7.863  0.00  0.00     0.048 H 
ATOM     36  H   LIG d   1       4.600   0.158  -8.651  0.00  0.00     0.048 H 
ATOM     37  H   LIG d   1       2.859  -1.200  -6.665  0.00  0.00     0.046 H 
ATOM     38  H   LIG d   1       2.741   0.461  -7.293  0.00  0.00     0.046 H 
ENDROOT
TORSDOF 0
ENDMDL
MODEL 8
REMARK VINA RESULT:      -4.5     10.458     11.714
REMARK  0 active torsions:
REMARK  status: ('A' for Active; 'I' for Inactive)
ROOT
ATOM      1  C   LIG d   1      14.174   7.469  -2.369  0.00  0.00    -0.021 C 
ATOM      2  C   LIG d   1      13.788   6.874  -1.012  0.00  0.00     0.018 C 
ATOM      3  N   LIG d   1      12.399   6.417  -1.057  0.00  0.00    -0.284 N 
ATOM      4  C   LIG d   1      11.899   5.510  -0.024  0.00  0.00     0.032 C 
ATOM      5  C   LIG d   1      10.984   6.277   0.937  0.00  0.00     0.032 C 
ATOM      6  N   LIG d   1      10.965   7.694   0.577  0.00  0.00    -0.284 N 
ATOM      7  C   LIG d   1      11.788   8.645   1.327  0.00  0.00     0.018 C 
ATOM      8  C   LIG d   1      11.284  10.067   1.079  0.00  0.00    -0.021 C 
ATOM      9  C   LIG d   1      11.199  10.335  -0.425  0.00  0.00     0.018 C 
ATOM     10  N   LIG d   1      10.412   9.281  -1.065  0.00  0.00    -0.284 N 
ATOM     11  C   LIG d   1      10.193   8.105  -0.447  0.00  0.00     0.305 C 
ATOM     12  O   LIG d   1       9.277   7.399  -0.822  0.00  0.00    -0.252 OA
ATOM     13  C   LIG d   1       9.893   9.480  -2.419  0.00  0.00     0.032 C 
ATOM     14  C   LIG d   1      10.708   8.645  -3.411  0.00  0.00     0.032 C 
ATOM     15  N   LIG d   1      11.804   7.976  -2.712  0.00  0.00    -0.284 N 
ATOM     16  C   LIG d   1      13.156   8.536  -2.778  0.00  0.00     0.018 C 
ATOM     17  C   LIG d   1      11.554   6.854  -2.010  0.00  0.00     0.305 C 
ATOM     18  O   LIG d   1      10.543   6.221  -2.243  0.00  0.00    -0.252 OA
ATOM     19  H   LIG d   1      15.163   7.921  -2.297  0.00  0.00     0.030 H 
ATOM     20  H   LIG d   1      14.191   6.679  -3.119  0.00  0.00     0.030 H 
ATOM     21  H   LIG d   1      14.441   6.031  -0.787  0.00  0.00     0.046 H 
ATOM     22  H   LIG d   1      13.896   7.634  -0.239  0.00  0.00     0.046 H 
ATOM     23  H   LIG d   1      11.335   4.702  -0.492  0.00  0.00     0.048 H 
ATOM     24  H   LIG d   1      12.738   5.092   0.530  0.00  0.00     0.048 H 
ATOM     25  H   LIG d   1       9.973   5.874   0.876  0.00  0.00     0.048 H 
ATOM     26  H   LIG d   1      11.357   6.167   1.956  0.00  0.00     0.048 H 
ATOM     27  H   LIG d   1      11.727   8.419   2.391  0.00  0.00     0.046 H 
ATOM     28  H   LIG d   1      12.825   8.565   0.999  0.00  0.00     0.046 H 
ATOM     29  H   LIG d   1      10.296  10.184   1.525  0.00  0.00     0.030 H 
ATOM     30  H   LIG d   1      11.971  10.781   1.535  0.00  0.00     0.030 H 
ATOM     31  H   LIG d   1      10.720  11.300  -0.595  0.00  0.00     0.046 H 
ATOM     32  H   LIG d   1      12.203  10.348  -0.849  0.00  0.00     0.046 H 
ATOM     33  H   LIG d   1       8.849   9.170  -2.456  0.00  0.00     0.048 H 
ATOM     34  H   LIG d   1       9.969  10.534  -2.684  0.00  0.00     0.048 H 
ATOM     35  H   LIG d   1      10.063   7.896  -3.872  0.00  0.00     0.048 H 
ATOM     36  H   LIG d   1      11.116   9.296  -4.185  0.00  0.00     0.048 H 
ATOM     37  H   LIG d   1      13.230   9.387  -2.100  0.00  0.00     0.046 H 
ATOM     38  H   LIG d   1      13.364   8.864  -3.796  0.00  0.00     0.046 H 
ENDROOT
TORSDOF 0
ENDMDL
MODEL 9
REMARK VINA RESULT:      -4.5      1.960      3.922
REMARK  0 active torsions:
REMARK  status: ('A' for Active; 'I' for Inactive)
ROOT
ATOM      1  C   LIG d   1       8.968  -2.000  -6.222  0.00  0.00    -0.021 C 
ATOM      2  C   LIG d   1       7.707  -2.541  -6.902  0.00  0.00     0.018 C 
ATOM      3  N   LIG d   1       6.755  -1.448  -7.105  0.00  0.00    -0.284 N 
ATOM      4  C   LIG d   1       5.637  -1.621  -8.032  0.00  0.00     0.032 C 
ATOM      5  C   LIG d   1       4.336  -1.805  -7.242  0.00  0.00     0.032 C 
ATOM      6  N   LIG d   1       4.628  -1.838  -5.810  0.00  0.00    -0.284 N 
ATOM      7  C   LIG d   1       4.697  -3.124  -5.112  0.00  0.00     0.018 C 
ATOM      8  C   LIG d   1       4.570  -2.898  -3.605  0.00  0.00    -0.021 C 
ATOM      9  C   LIG d   1       5.596  -1.860  -3.146  0.00  0.00     0.018 C 
ATOM     10  N   LIG d   1       5.471  -0.654  -3.964  0.00  0.00    -0.284 N 
ATOM     11  C   LIG d   1       4.837  -0.682  -5.151  0.00  0.00     0.305 C 
ATOM     12  O   LIG d   1       4.443   0.360  -5.639  0.00  0.00    -0.252 OA
ATOM     13  C   LIG d   1       6.086   0.597  -3.516  0.00  0.00     0.032 C 
ATOM     14  C   LIG d   1       7.337   0.885  -4.351  0.00  0.00     0.032 C 
ATOM     15  N   LIG d   1       7.578  -0.220  -5.278  0.00  0.00    -0.284 N 
ATOM     16  C   LIG d   1       8.586  -1.232  -4.955  0.00  0.00     0.018 C 
ATOM     17  C   LIG d   1       6.864  -0.296  -6.418  0.00  0.00     0.305 C 
ATOM     18  O   LIG d   1       6.305   0.700  -6.835  0.00  0.00    -0.252 OA
ATOM     19  H   LIG d   1       9.621  -2.832  -5.959  0.00  0.00     0.030 H 
ATOM     20  H   LIG d   1       9.490  -1.332  -6.906  0.00  0.00     0.030 H 
ATOM     21  H   LIG d   1       7.974  -2.975  -7.866  0.00  0.00     0.046 H 
ATOM     22  H   LIG d   1       7.254  -3.305  -6.272  0.00  0.00     0.046 H 
ATOM     23  H   LIG d   1       5.552  -0.740  -8.668  0.00  0.00     0.048 H 
ATOM     24  H   LIG d   1       5.812  -2.499  -8.652  0.00  0.00     0.048 H 
ATOM     25  H   LIG d   1       3.662  -0.975  -7.455  0.00  0.00     0.048 H 
ATOM     26  H   LIG d   1       3.863  -2.741  -7.537  0.00  0.00     0.048 H 
ATOM     27  H   LIG d   1       3.884  -3.766  -5.453  0.00  0.00     0.046 H 
ATOM     28  H   LIG d   1       5.652  -3.604  -5.329  0.00  0.00     0.046 H 
ATOM     29  H   LIG d   1       3.566  -2.541  -3.376  0.00  0.00     0.030 H 
ATOM     30  H   LIG d   1       4.746  -3.838  -3.081  0.00  0.00     0.030 H 
ATOM     31  H   LIG d   1       5.416  -1.611  -2.100  0.00  0.00     0.046 H 
ATOM     32  H   LIG d   1       6.600  -2.270  -3.254  0.00  0.00     0.046 H 
ATOM     33  H   LIG d   1       5.374   1.413  -3.635  0.00  0.00     0.048 H 
ATOM     34  H   LIG d   1       6.363   0.507  -2.466  0.00  0.00     0.048 H 
ATOM     35  H   LIG d   1       7.191   1.806  -4.916  0.00  0.00     0.048 H 
ATOM     36  H   LIG d   1       8.196   0.997  -3.691  0.00  0.00     0.048 H 
ATOM     37  H   LIG d   1       8.180  -1.926  -4.218  0.00  0.00     0.046 H 
ATOM     38  H   LIG d   1       9.471  -0.745  -4.545  0.00  0.00     0.046 H 
ENDROOT
TORSDOF 0
ENDMDL
MODEL 10
REMARK VINA RESULT:      -4.5      1.831      3.330
REMARK  0 active torsions:
REMARK  status: ('A' for Active; 'I' for Inactive)
ROOT
ATOM      1  C   LIG d   1       4.847  -4.385  -5.838  0.00  0.00    -0.021 C 
ATOM      2  C   LIG d   1       4.613  -3.403  -6.989  0.00  0.00     0.018 C 
ATOM      3  N   LIG d   1       5.642  -2.363  -6.960  0.00  0.00    -0.284 N 
ATOM      4  C   LIG d   1       5.853  -1.515  -8.133  0.00  0.00     0.032 C 
ATOM      5  C   LIG d   1       5.284  -0.117  -7.868  0.00  0.00     0.032 C 
ATOM      6  N   LIG d   1       4.632  -0.088  -6.560  0.00  0.00    -0.284 N 
ATOM      7  C   LIG d   1       3.173  -0.198  -6.475  0.00  0.00     0.018 C 
ATOM      8  C   LIG d   1       2.702   0.290  -5.104  0.00  0.00    -0.021 C 
ATOM      9  C   LIG d   1       3.469  -0.439  -3.999  0.00  0.00     0.018 C 
ATOM     10  N   LIG d   1       4.907  -0.314  -4.238  0.00  0.00    -0.284 N 
ATOM     11  C   LIG d   1       5.382   0.032  -5.449  0.00  0.00     0.305 C 
ATOM     12  O   LIG d   1       6.515   0.464  -5.541  0.00  0.00    -0.252 OA
ATOM     13  C   LIG d   1       5.853  -0.616  -3.163  0.00  0.00     0.032 C 
ATOM     14  C   LIG d   1       6.532  -1.961  -3.437  0.00  0.00     0.032 C 
ATOM     15  N   LIG d   1       5.965  -2.566  -4.641  0.00  0.00    -0.284 N 
ATOM     16  C   LIG d   1       4.956  -3.621  -4.517  0.00  0.00     0.018 C 
ATOM     17  C   LIG d   1       6.373  -2.140  -5.852  0.00  0.00     0.305 C 
ATOM     18  O   LIG d   1       7.427  -1.540  -5.945  0.00  0.00    -0.252 OA
ATOM     19  H   LIG d   1       4.013  -5.083  -5.784  0.00  0.00     0.030 H 
ATOM     20  H   LIG d   1       5.770  -4.936  -6.015  0.00  0.00     0.030 H 
ATOM     21  H   LIG d   1       4.663  -3.937  -7.937  0.00  0.00     0.046 H 
ATOM     22  H   LIG d   1       3.631  -2.944  -6.881  0.00  0.00     0.046 H 
ATOM     23  H   LIG d   1       6.921  -1.439  -8.339  0.00  0.00     0.048 H 
ATOM     24  H   LIG d   1       5.349  -1.954  -8.993  0.00  0.00     0.048 H 
ATOM     25  H   LIG d   1       6.094   0.613  -7.884  0.00  0.00     0.048 H 
ATOM     26  H   LIG d   1       4.558   0.131  -8.642  0.00  0.00     0.048 H 
ATOM     27  H   LIG d   1       2.717   0.412  -7.254  0.00  0.00     0.046 H 
ATOM     28  H   LIG d   1       2.879  -1.239  -6.610  0.00  0.00     0.046 H 
ATOM     29  H   LIG d   1       2.879   1.363  -5.021  0.00  0.00     0.030 H 
ATOM     30  H   LIG d   1       1.635   0.091  -4.995  0.00  0.00     0.030 H 
ATOM     31  H   LIG d   1       3.221   0.003  -3.033  0.00  0.00     0.046 H 
ATOM     32  H   LIG d   1       3.191  -1.493  -3.999  0.00  0.00     0.046 H 
ATOM     33  H   LIG d   1       6.608   0.169  -3.112  0.00  0.00     0.048 H 
ATOM     34  H   LIG d   1       5.318  -0.666  -2.214  0.00  0.00     0.048 H 
ATOM     35  H   LIG d   1       7.602  -1.804  -3.581  0.00  0.00     0.048 H 
ATOM     36  H   LIG d   1       6.376  -2.627  -2.589  0.00  0.00     0.048 H 
ATOM     37  H   LIG d   1       3.992  -3.175  -4.274  0.00  0.00     0.046 H 
ATOM     38  H   LIG d   1       5.247  -4.310  -3.723  0.00  0.00     0.046 H 
ENDROOT
TORSDOF 0
ENDMDL
