MODEL 1
REMARK VINA RESULT:      -5.6      0.000      0.000
REMARK  9 active torsions:
REMARK  status: ('A' for Active; 'I' for Inactive)
REMARK    1  A    between atoms: C_1  and  C_2 
REMARK    2  A    between atoms: C_8  and  C_31 
REMARK    3  A    between atoms: C_12  and  C_14 
REMARK    4  A    between atoms: C_12  and  C_17 
REMARK    5  A    between atoms: C_14  and  C_15 
REMARK    6  A    between atoms: C_15  and  O_16 
REMARK    7  A    between atoms: C_17  and  O_18 
REMARK    8  A    between atoms: C_23  and  C_30 
REMARK    9  A    between atoms: C_26  and  C_29 
ROOT
ATOM      1  C   LIG d   1       6.753  -1.426  -3.466  0.00  0.00    -0.014 C 
ATOM      2  H   LIG d   1       6.399  -1.398  -2.413  0.00  0.00     0.033 H 
ATOM      3  C   LIG d   1       7.696  -2.617  -3.574  0.00  0.00    -0.048 C 
ATOM      4  C   LIG d   1       8.026  -2.933  -5.025  0.00  0.00    -0.049 C 
ATOM      5  C   LIG d   1       6.751  -3.222  -5.833  0.00  0.00    -0.023 C 
ATOM      6  H   LIG d   1       6.240  -4.076  -5.370  0.00  0.00     0.031 H 
ATOM      7  C   LIG d   1       5.837  -2.006  -5.781  0.00  0.00     0.001 C 
ATOM      8  C   LIG d   1       5.526  -1.611  -4.344  0.00  0.00     0.079 C 
ATOM      9  C   LIG d   1       4.646  -2.692  -3.659  0.00  0.00    -0.020 C 
ATOM     10  C   LIG d   1       4.074  -1.858  -2.476  0.00  0.00    -0.019 C 
ATOM     11  C   LIG d   1       3.859  -0.483  -3.144  0.00  0.00     0.095 C 
ATOM     12  O   LIG d   1       4.707  -0.429  -4.303  0.00  0.00    -0.364 OA
ATOM     13  C   LIG d   1       6.454  -0.845  -6.565  0.00  0.00    -0.042 C 
ATOM     14  C   LIG d   1       6.692  -1.269  -8.022  0.00  0.00    -0.025 C 
ATOM     15  C   LIG d   1       7.705  -2.406  -8.023  0.00  0.00     0.069 C 
ATOM     16  H   LIG d   1       8.623  -2.045  -7.536  0.00  0.00     0.060 H 
ATOM     17  C   LIG d   1       7.183  -3.611  -7.239  0.00  0.00     0.021 C 
ATOM     18  C   LIG d   1       8.384  -4.586  -7.171  0.00  0.00     0.059 C 
ATOM     19  O   LIG d   1       8.700  -4.952  -8.516  0.00  0.00    -0.351 OA
ATOM     20  C   LIG d   1       8.983  -3.891  -9.420  0.00  0.00     0.157 C 
ATOM     21  H   LIG d   1       8.956  -4.300 -10.443  0.00  0.00     0.091 H 
ATOM     22  O   LIG d   1       8.027  -2.836  -9.342  0.00  0.00    -0.348 OA
ATOM     23  H   LIG d   1       8.623  -2.393  -3.034  0.00  0.00     0.027 H 
ATOM     24  H   LIG d   1       7.237  -3.492  -3.105  0.00  0.00     0.027 H 
ATOM     25  H   LIG d   1       8.664  -3.824  -5.049  0.00  0.00     0.027 H 
ATOM     26  H   LIG d   1       8.563  -2.105  -5.483  0.00  0.00     0.027 H 
ATOM     27  H   LIG d   1       3.842  -3.075  -4.263  0.00  0.00     0.029 H 
ATOM     28  H   LIG d   1       5.273  -3.501  -3.279  0.00  0.00     0.029 H 
ATOM     29  H   LIG d   1       4.785  -1.796  -1.663  0.00  0.00     0.029 H 
ATOM     30  H   LIG d   1       3.126  -2.276  -2.146  0.00  0.00     0.029 H 
ATOM     31  H   LIG d   1       5.786   0.011  -6.543  0.00  0.00     0.027 H 
ATOM     32  H   LIG d   1       7.423  -0.579  -6.148  0.00  0.00     0.027 H 
ATOM     33  H   LIG d   1       5.775  -1.555  -8.513  0.00  0.00     0.029 H 
ATOM     34  H   LIG d   1       7.122  -0.413  -8.561  0.00  0.00     0.029 H 
ATOM     35  H   LIG d   1       8.092  -5.463  -6.599  0.00  0.00     0.057 H 
ATOM     36  H   LIG d   1       9.228  -4.086  -6.710  0.00  0.00     0.057 H 
ENDROOT
BRANCH   1  37
ATOM     37  C   LIG d   1       7.472  -0.111  -3.720  0.00  0.00    -0.060 C 
ATOM     38  H   LIG d   1       7.024   0.672  -3.109  0.00  0.00     0.023 H 
ATOM     39  H   LIG d   1       8.526  -0.216  -3.459  0.00  0.00     0.023 H 
ATOM     40  H   LIG d   1       7.384   0.154  -4.774  0.00  0.00     0.023 H 
ENDBRANCH   1  37
BRANCH   7  41
ATOM     41  C   LIG d   1       4.477  -2.305  -6.447  0.00  0.00    -0.057 C 
ATOM     42  H   LIG d   1       4.426  -1.799  -7.412  0.00  0.00     0.024 H 
ATOM     43  H   LIG d   1       4.374  -3.380  -6.595  0.00  0.00     0.024 H 
ATOM     44  H   LIG d   1       3.672  -1.947  -5.807  0.00  0.00     0.024 H 
ENDBRANCH   7  41
BRANCH  11  45
ATOM     45  C   LIG d   1       2.394  -0.347  -3.571  0.00  0.00     0.002 C 
ATOM     46  H   LIG d   1       1.920  -1.329  -3.561  0.00  0.00     0.032 H 
ATOM     47  H   LIG d   1       1.873   0.314  -2.878  0.00  0.00     0.032 H 
BRANCH  45  48
ATOM     48  C   LIG d   1       2.326   0.236  -4.983  0.00  0.00     0.047 C 
ATOM     49  H   LIG d   1       3.077  -0.244  -5.611  0.00  0.00     0.056 H 
ATOM     50  H   LIG d   1       1.336   0.061  -5.403  0.00  0.00     0.056 H 
BRANCH  48  51
ATOM     51  O   LIG d   1       2.579   1.642  -4.931  0.00  0.00    -0.395 OA
ATOM     52  H   LIG d   1       3.430   1.874  -4.535  0.00  0.00     0.209 HD
ENDBRANCH  48  51
ENDBRANCH  45  48
ENDBRANCH  11  45
BRANCH  11  53
ATOM     53  C   LIG d   1       4.214   0.636  -2.165  0.00  0.00     0.073 C 
ATOM     54  H   LIG d   1       3.335   0.893  -1.573  0.00  0.00     0.059 H 
ATOM     55  H   LIG d   1       5.013   0.301  -1.503  0.00  0.00     0.059 H 
BRANCH  53  56
ATOM     56  O   LIG d   1       4.650   1.786  -2.893  0.00  0.00    -0.392 OA
ATOM     57  H   LIG d   1       3.929   2.353  -3.201  0.00  0.00     0.209 HD
ENDBRANCH  53  56
ENDBRANCH  11  53
BRANCH  17  58
ATOM     58  C   LIG d   1       6.086  -4.335  -8.015  0.00  0.00    -0.055 C 
ATOM     59  H   LIG d   1       6.306  -5.402  -8.047  0.00  0.00     0.024 H 
ATOM     60  H   LIG d   1       5.127  -4.177  -7.522  0.00  0.00     0.024 H 
ATOM     61  H   LIG d   1       6.041  -3.943  -9.032  0.00  0.00     0.024 H 
ENDBRANCH  17  58
BRANCH  20  62
ATOM     62  C   LIG d   1      10.391  -3.349  -9.172  0.00  0.00    -0.014 C 
ATOM     63  H   LIG d   1      10.899  -3.207 -10.125  0.00  0.00     0.028 H 
ATOM     64  H   LIG d   1      10.327  -2.394  -8.649  0.00  0.00     0.028 H 
ATOM     65  H   LIG d   1      10.952  -4.058  -8.563  0.00  0.00     0.028 H 
ENDBRANCH  20  62
TORSDOF 9
ENDMDL
MODEL 2
REMARK VINA RESULT:      -5.2      2.992      4.269
REMARK  9 active torsions:
REMARK  status: ('A' for Active; 'I' for Inactive)
REMARK    1  A    between atoms: C_1  and  C_2 
REMARK    2  A    between atoms: C_8  and  C_31 
REMARK    3  A    between atoms: C_12  and  C_14 
REMARK    4  A    between atoms: C_12  and  C_17 
REMARK    5  A    between atoms: C_14  and  C_15 
REMARK    6  A    between atoms: C_15  and  O_16 
REMARK    7  A    between atoms: C_17  and  O_18 
REMARK    8  A    between atoms: C_23  and  C_30 
REMARK    9  A    between atoms: C_26  and  C_29 
ROOT
ATOM      1  C   LIG d   1       6.427  -1.967  -6.321  0.00  0.00    -0.014 C 
ATOM      2  H   LIG d   1       6.762  -2.554  -5.439  0.00  0.00     0.033 H 
ATOM      3  C   LIG d   1       6.144  -2.972  -7.429  0.00  0.00    -0.048 C 
ATOM      4  C   LIG d   1       5.411  -2.323  -8.593  0.00  0.00    -0.049 C 
ATOM      5  C   LIG d   1       4.088  -1.691  -8.132  0.00  0.00    -0.023 C 
ATOM      6  H   LIG d   1       3.467  -2.482  -7.693  0.00  0.00     0.031 H 
ATOM      7  C   LIG d   1       4.377  -0.637  -7.072  0.00  0.00     0.001 C 
ATOM      8  C   LIG d   1       5.165  -1.226  -5.910  0.00  0.00     0.079 C 
ATOM      9  C   LIG d   1       4.293  -2.236  -5.116  0.00  0.00    -0.020 C 
ATOM     10  C   LIG d   1       5.090  -2.282  -3.780  0.00  0.00    -0.019 C 
ATOM     11  C   LIG d   1       5.530  -0.809  -3.633  0.00  0.00     0.095 C 
ATOM     12  O   LIG d   1       5.481  -0.212  -4.939  0.00  0.00    -0.364 OA
ATOM     13  C   LIG d   1       5.101   0.559  -7.696  0.00  0.00    -0.042 C 
ATOM     14  C   LIG d   1       4.242   1.157  -8.820  0.00  0.00    -0.025 C 
ATOM     15  C   LIG d   1       4.087   0.103  -9.909  0.00  0.00     0.069 C 
ATOM     16  H   LIG d   1       5.091  -0.180 -10.254  0.00  0.00     0.060 H 
ATOM     17  C   LIG d   1       3.390  -1.147  -9.370  0.00  0.00     0.021 C 
ATOM     18  C   LIG d   1       3.482  -2.176 -10.522  0.00  0.00     0.059 C 
ATOM     19  O   LIG d   1       2.762  -1.629 -11.628  0.00  0.00    -0.351 OA
ATOM     20  C   LIG d   1       3.168  -0.345 -12.087  0.00  0.00     0.157 C 
ATOM     21  H   LIG d   1       2.381   0.043 -12.753  0.00  0.00     0.091 H 
ATOM     22  O   LIG d   1       3.341   0.587 -11.022  0.00  0.00    -0.348 OA
ATOM     23  H   LIG d   1       7.091  -3.390  -7.787  0.00  0.00     0.027 H 
ATOM     24  H   LIG d   1       5.542  -3.795  -7.032  0.00  0.00     0.027 H 
ATOM     25  H   LIG d   1       5.188  -3.096  -9.337  0.00  0.00     0.027 H 
ATOM     26  H   LIG d   1       6.033  -1.559  -9.057  0.00  0.00     0.027 H 
ATOM     27  H   LIG d   1       3.282  -1.919  -4.931  0.00  0.00     0.029 H 
ATOM     28  H   LIG d   1       4.317  -3.215  -5.601  0.00  0.00     0.029 H 
ATOM     29  H   LIG d   1       5.943  -2.944  -3.857  0.00  0.00     0.029 H 
ATOM     30  H   LIG d   1       4.435  -2.569  -2.961  0.00  0.00     0.029 H 
ATOM     31  H   LIG d   1       5.283   1.316  -6.939  0.00  0.00     0.027 H 
ATOM     32  H   LIG d   1       6.038   0.241  -8.147  0.00  0.00     0.027 H 
ATOM     33  H   LIG d   1       3.284   1.497  -8.458  0.00  0.00     0.029 H 
ATOM     34  H   LIG d   1       4.780   2.020  -9.239  0.00  0.00     0.029 H 
ATOM     35  H   LIG d   1       3.027  -3.109 -10.198  0.00  0.00     0.057 H 
ATOM     36  H   LIG d   1       4.522  -2.326 -10.789  0.00  0.00     0.057 H 
ENDROOT
BRANCH   1  37
ATOM     37  C   LIG d   1       7.572  -1.035  -6.683  0.00  0.00    -0.060 C 
ATOM     38  H   LIG d   1       8.168  -0.828  -5.795  0.00  0.00     0.023 H 
ATOM     39  H   LIG d   1       8.199  -1.505  -7.441  0.00  0.00     0.023 H 
ATOM     40  H   LIG d   1       7.169  -0.100  -7.076  0.00  0.00     0.023 H 
ENDBRANCH   1  37
BRANCH   7  41
ATOM     41  C   LIG d   1       3.069  -0.085  -6.467  0.00  0.00    -0.057 C 
ATOM     42  H   LIG d   1       2.981   0.977  -6.700  0.00  0.00     0.024 H 
ATOM     43  H   LIG d   1       2.219  -0.621  -6.890  0.00  0.00     0.024 H 
ATOM     44  H   LIG d   1       3.083  -0.220  -5.386  0.00  0.00     0.024 H 
ENDBRANCH   7  41
BRANCH  11  45
ATOM     45  C   LIG d   1       4.562  -0.079  -2.696  0.00  0.00     0.002 C 
ATOM     46  H   LIG d   1       3.540  -0.223  -3.046  0.00  0.00     0.032 H 
ATOM     47  H   LIG d   1       4.660  -0.480  -1.688  0.00  0.00     0.032 H 
BRANCH  45  48
ATOM     48  C   LIG d   1       4.891   1.415  -2.687  0.00  0.00     0.047 C 
ATOM     49  H   LIG d   1       4.897   1.779  -1.659  0.00  0.00     0.056 H 
ATOM     50  H   LIG d   1       5.871   1.575  -3.135  0.00  0.00     0.056 H 
BRANCH  48  51
ATOM     51  O   LIG d   1       3.903   2.125  -3.437  0.00  0.00    -0.395 OA
ATOM     52  H   LIG d   1       2.993   1.877  -3.224  0.00  0.00     0.209 HD
ENDBRANCH  48  51
ENDBRANCH  45  48
ENDBRANCH  11  45
BRANCH  11  53
ATOM     53  C   LIG d   1       6.946  -0.740  -3.062  0.00  0.00     0.073 C 
ATOM     54  H   LIG d   1       7.554  -0.075  -3.676  0.00  0.00     0.059 H 
ATOM     55  H   LIG d   1       6.909  -0.360  -2.042  0.00  0.00     0.059 H 
BRANCH  53  56
ATOM     56  O   LIG d   1       7.524  -2.047  -3.062  0.00  0.00    -0.392 OA
ATOM     57  H   LIG d   1       8.397  -2.092  -2.650  0.00  0.00     0.209 HD
ENDBRANCH  53  56
ENDBRANCH  11  53
BRANCH  17  58
ATOM     58  C   LIG d   1       1.902  -0.889  -9.143  0.00  0.00    -0.055 C 
ATOM     59  H   LIG d   1       1.655  -1.081  -8.099  0.00  0.00     0.024 H 
ATOM     60  H   LIG d   1       1.672   0.147  -9.387  0.00  0.00     0.024 H 
ATOM     61  H   LIG d   1       1.317  -1.551  -9.782  0.00  0.00     0.024 H 
ENDBRANCH  17  58
BRANCH  20  62
ATOM     62  C   LIG d   1       4.456  -0.460 -12.904  0.00  0.00    -0.014 C 
ATOM     63  H   LIG d   1       4.715  -1.512 -13.027  0.00  0.00     0.028 H 
ATOM     64  H   LIG d   1       4.308  -0.005 -13.884  0.00  0.00     0.028 H 
ATOM     65  H   LIG d   1       5.263   0.054 -12.383  0.00  0.00     0.028 H 
ENDBRANCH  20  62
TORSDOF 9
ENDMDL
MODEL 3
REMARK VINA RESULT:      -5.2      2.438      6.757
REMARK  9 active torsions:
REMARK  status: ('A' for Active; 'I' for Inactive)
REMARK    1  A    between atoms: C_1  and  C_2 
REMARK    2  A    between atoms: C_8  and  C_31 
REMARK    3  A    between atoms: C_12  and  C_14 
REMARK    4  A    between atoms: C_12  and  C_17 
REMARK    5  A    between atoms: C_14  and  C_15 
REMARK    6  A    between atoms: C_15  and  O_16 
REMARK    7  A    between atoms: C_17  and  O_18 
REMARK    8  A    between atoms: C_23  and  C_30 
REMARK    9  A    between atoms: C_26  and  C_29 
ROOT
ATOM      1  C   LIG d   1       3.805   0.199  -8.680  0.00  0.00    -0.014 C 
ATOM      2  H   LIG d   1       3.348   0.093  -9.687  0.00  0.00     0.033 H 
ATOM      3  C   LIG d   1       2.653   0.259  -7.685  0.00  0.00    -0.048 C 
ATOM      4  C   LIG d   1       3.149   0.118  -6.253  0.00  0.00    -0.049 C 
ATOM      5  C   LIG d   1       3.918  -1.199  -6.060  0.00  0.00    -0.023 C 
ATOM      6  H   LIG d   1       3.242  -2.028  -6.305  0.00  0.00     0.031 H 
ATOM      7  C   LIG d   1       5.109  -1.229  -7.008  0.00  0.00     0.001 C 
ATOM      8  C   LIG d   1       4.670  -1.030  -8.452  0.00  0.00     0.079 C 
ATOM      9  C   LIG d   1       3.848  -2.252  -8.945  0.00  0.00    -0.020 C 
ATOM     10  C   LIG d   1       3.970  -2.051 -10.484  0.00  0.00    -0.019 C 
ATOM     11  C   LIG d   1       5.421  -1.538 -10.612  0.00  0.00     0.095 C 
ATOM     12  O   LIG d   1       5.805  -1.005  -9.335  0.00  0.00    -0.364 OA
ATOM     13  C   LIG d   1       6.149  -0.188  -6.586  0.00  0.00    -0.042 C 
ATOM     14  C   LIG d   1       6.608  -0.466  -5.147  0.00  0.00    -0.025 C 
ATOM     15  C   LIG d   1       5.405  -0.302  -4.227  0.00  0.00     0.069 C 
ATOM     16  H   LIG d   1       5.016   0.718  -4.354  0.00  0.00     0.060 H 
ATOM     17  C   LIG d   1       4.296  -1.292  -4.589  0.00  0.00     0.021 C 
ATOM     18  C   LIG d   1       3.094  -0.874  -3.709  0.00  0.00     0.059 C 
ATOM     19  O   LIG d   1       3.498  -1.038  -2.347  0.00  0.00    -0.351 OA
ATOM     20  C   LIG d   1       4.668  -0.342  -1.937  0.00  0.00     0.157 C 
ATOM     21  H   LIG d   1       4.988  -0.757  -0.967  0.00  0.00     0.091 H 
ATOM     22  O   LIG d   1       5.746  -0.494  -2.857  0.00  0.00    -0.348 OA
ATOM     23  H   LIG d   1       2.132   1.216  -7.793  0.00  0.00     0.027 H 
ATOM     24  H   LIG d   1       1.938  -0.540  -7.904  0.00  0.00     0.027 H 
ATOM     25  H   LIG d   1       2.281   0.117  -5.584  0.00  0.00     0.027 H 
ATOM     26  H   LIG d   1       3.794   0.954  -5.989  0.00  0.00     0.027 H 
ATOM     27  H   LIG d   1       4.245  -3.212  -8.666  0.00  0.00     0.029 H 
ATOM     28  H   LIG d   1       2.804  -2.152  -8.636  0.00  0.00     0.029 H 
ATOM     29  H   LIG d   1       3.259  -1.317 -10.839  0.00  0.00     0.029 H 
ATOM     30  H   LIG d   1       3.853  -3.002 -10.997  0.00  0.00     0.029 H 
ATOM     31  H   LIG d   1       7.006  -0.231  -7.253  0.00  0.00     0.027 H 
ATOM     32  H   LIG d   1       5.713   0.808  -6.594  0.00  0.00     0.027 H 
ATOM     33  H   LIG d   1       7.054  -1.444  -5.047  0.00  0.00     0.029 H 
ATOM     34  H   LIG d   1       7.363   0.287  -4.878  0.00  0.00     0.029 H 
ATOM     35  H   LIG d   1       2.251  -1.523  -3.934  0.00  0.00     0.057 H 
ATOM     36  H   LIG d   1       2.847   0.163  -3.904  0.00  0.00     0.057 H 
ENDROOT
BRANCH   1  37
ATOM     37  C   LIG d   1       4.603   1.492  -8.697  0.00  0.00    -0.060 C 
ATOM     38  H   LIG d   1       4.230   2.161  -7.922  0.00  0.00     0.023 H 
ATOM     39  H   LIG d   1       5.656   1.273  -8.512  0.00  0.00     0.023 H 
ATOM     40  H   LIG d   1       4.498   1.971  -9.671  0.00  0.00     0.023 H 
ENDBRANCH   1  37
BRANCH   7  41
ATOM     41  C   LIG d   1       5.821  -2.598  -6.961  0.00  0.00    -0.057 C 
ATOM     42  H   LIG d   1       5.675  -3.050  -5.979  0.00  0.00     0.024 H 
ATOM     43  H   LIG d   1       5.403  -3.251  -7.727  0.00  0.00     0.024 H 
ATOM     44  H   LIG d   1       6.887  -2.460  -7.142  0.00  0.00     0.024 H 
ENDBRANCH   7  41
BRANCH  11  45
ATOM     45  C   LIG d   1       6.343  -2.706 -10.981  0.00  0.00     0.002 C 
ATOM     46  H   LIG d   1       6.175  -3.533 -10.291  0.00  0.00     0.032 H 
ATOM     47  H   LIG d   1       6.126  -3.033 -11.998  0.00  0.00     0.032 H 
BRANCH  45  48
ATOM     48  C   LIG d   1       7.801  -2.253 -10.890  0.00  0.00     0.047 C 
ATOM     49  H   LIG d   1       8.415  -2.869 -11.547  0.00  0.00     0.056 H 
ATOM     50  H   LIG d   1       7.878  -1.210 -11.194  0.00  0.00     0.056 H 
BRANCH  48  51
ATOM     51  O   LIG d   1       8.259  -2.393  -9.543  0.00  0.00    -0.395 OA
ATOM     52  H   LIG d   1       8.189  -1.585  -9.018  0.00  0.00     0.209 HD
ENDBRANCH  48  51
ENDBRANCH  45  48
ENDBRANCH  11  45
BRANCH  11  53
ATOM     53  C   LIG d   1       5.502  -0.460 -11.693  0.00  0.00     0.073 C 
ATOM     54  H   LIG d   1       5.991   0.425 -11.286  0.00  0.00     0.059 H 
ATOM     55  H   LIG d   1       6.074  -0.836 -12.540  0.00  0.00     0.059 H 
BRANCH  53  56
ATOM     56  O   LIG d   1       4.183  -0.118 -12.124  0.00  0.00    -0.392 OA
ATOM     57  H   LIG d   1       4.136   0.701 -12.633  0.00  0.00     0.209 HD
ENDBRANCH  53  56
ENDBRANCH  11  53
BRANCH  17  58
ATOM     58  C   LIG d   1       4.668  -2.710  -4.163  0.00  0.00    -0.055 C 
ATOM     59  H   LIG d   1       3.783  -3.219  -3.782  0.00  0.00     0.024 H 
ATOM     60  H   LIG d   1       5.059  -3.256  -5.021  0.00  0.00     0.024 H 
ATOM     61  H   LIG d   1       5.427  -2.667  -3.382  0.00  0.00     0.024 H 
ENDBRANCH  17  58
BRANCH  20  62
ATOM     62  C   LIG d   1       4.355   1.141  -1.730  0.00  0.00    -0.014 C 
ATOM     63  H   LIG d   1       5.004   1.741  -2.366  0.00  0.00     0.028 H 
ATOM     64  H   LIG d   1       3.313   1.333  -1.990  0.00  0.00     0.028 H 
ATOM     65  H   LIG d   1       4.523   1.405  -0.686  0.00  0.00     0.028 H 
ENDBRANCH  20  62
TORSDOF 9
ENDMDL
MODEL 4
REMARK VINA RESULT:      -5.1      8.822     11.133
REMARK  9 active torsions:
REMARK  status: ('A' for Active; 'I' for Inactive)
REMARK    1  A    between atoms: C_1  and  C_2 
REMARK    2  A    between atoms: C_8  and  C_31 
REMARK    3  A    between atoms: C_12  and  C_14 
REMARK    4  A    between atoms: C_12  and  C_17 
REMARK    5  A    between atoms: C_14  and  C_15 
REMARK    6  A    between atoms: C_15  and  O_16 
REMARK    7  A    between atoms: C_17  and  O_18 
REMARK    8  A    between atoms: C_23  and  C_30 
REMARK    9  A    between atoms: C_26  and  C_29 
ROOT
ATOM      1  C   LIG d   1      10.587   8.686  -5.264  0.00  0.00    -0.014 C 
ATOM      2  H   LIG d   1      10.695   9.746  -5.576  0.00  0.00     0.033 H 
ATOM      3  C   LIG d   1      11.674   7.906  -5.991  0.00  0.00    -0.048 C 
ATOM      4  C   LIG d   1      11.813   6.497  -5.434  0.00  0.00    -0.049 C 
ATOM      5  C   LIG d   1      12.131   6.525  -3.931  0.00  0.00    -0.023 C 
ATOM      6  H   LIG d   1      13.068   7.078  -3.790  0.00  0.00     0.031 H 
ATOM      7  C   LIG d   1      11.010   7.246  -3.194  0.00  0.00     0.001 C 
ATOM      8  C   LIG d   1      10.790   8.643  -3.758  0.00  0.00     0.079 C 
ATOM      9  C   LIG d   1      12.006   9.555  -3.445  0.00  0.00    -0.020 C 
ATOM     10  C   LIG d   1      11.349  10.952  -3.643  0.00  0.00    -0.019 C 
ATOM     11  C   LIG d   1       9.937  10.712  -3.064  0.00  0.00     0.095 C 
ATOM     12  O   LIG d   1       9.694   9.297  -3.093  0.00  0.00    -0.364 OA
ATOM     13  C   LIG d   1       9.727   6.412  -3.233  0.00  0.00    -0.042 C 
ATOM     14  C   LIG d   1       9.981   5.037  -2.599  0.00  0.00    -0.025 C 
ATOM     15  C   LIG d   1      11.019   4.310  -3.444  0.00  0.00     0.069 C 
ATOM     16  H   LIG d   1      10.630   4.234  -4.470  0.00  0.00     0.060 H 
ATOM     17  C   LIG d   1      12.337   5.085  -3.484  0.00  0.00     0.021 C 
ATOM     18  C   LIG d   1      13.205   4.331  -4.521  0.00  0.00     0.059 C 
ATOM     19  O   LIG d   1      13.406   3.010  -4.013  0.00  0.00    -0.351 OA
ATOM     20  C   LIG d   1      12.240   2.254  -3.712  0.00  0.00     0.157 C 
ATOM     21  H   LIG d   1      12.545   1.384  -3.109  0.00  0.00     0.091 H 
ATOM     22  O   LIG d   1      11.286   2.998  -2.958  0.00  0.00    -0.348 OA
ATOM     23  H   LIG d   1      11.425   7.848  -7.057  0.00  0.00     0.027 H 
ATOM     24  H   LIG d   1      12.628   8.432  -5.897  0.00  0.00     0.027 H 
ATOM     25  H   LIG d   1      12.638   5.998  -5.956  0.00  0.00     0.027 H 
ATOM     26  H   LIG d   1      10.899   5.929  -5.599  0.00  0.00     0.027 H 
ATOM     27  H   LIG d   1      12.396   9.470  -2.446  0.00  0.00     0.029 H 
ATOM     28  H   LIG d   1      12.792   9.402  -4.189  0.00  0.00     0.029 H 
ATOM     29  H   LIG d   1      11.306  11.218  -4.691  0.00  0.00     0.029 H 
ATOM     30  H   LIG d   1      11.879  11.703  -3.062  0.00  0.00     0.029 H 
ATOM     31  H   LIG d   1       8.939   6.922  -2.686  0.00  0.00     0.027 H 
ATOM     32  H   LIG d   1       9.421   6.236  -4.262  0.00  0.00     0.027 H 
ATOM     33  H   LIG d   1      10.295   5.119  -1.570  0.00  0.00     0.029 H 
ATOM     34  H   LIG d   1       9.041   4.468  -2.629  0.00  0.00     0.029 H 
ATOM     35  H   LIG d   1      14.158   4.846  -4.623  0.00  0.00     0.057 H 
ATOM     36  H   LIG d   1      12.682   4.293  -5.469  0.00  0.00     0.057 H 
ENDROOT
BRANCH   1  37
ATOM     37  C   LIG d   1       9.195   8.245  -5.688  0.00  0.00    -0.060 C 
ATOM     38  H   LIG d   1       8.462   8.974  -5.343  0.00  0.00     0.023 H 
ATOM     39  H   LIG d   1       9.152   8.173  -6.775  0.00  0.00     0.023 H 
ATOM     40  H   LIG d   1       8.973   7.271  -5.251  0.00  0.00     0.023 H 
ENDBRANCH   1  37
BRANCH   7  41
ATOM     41  C   LIG d   1      11.359   7.435  -1.702  0.00  0.00    -0.057 C 
ATOM     42  H   LIG d   1      10.731   8.220  -1.279  0.00  0.00     0.024 H 
ATOM     43  H   LIG d   1      11.185   6.502  -1.167  0.00  0.00     0.024 H 
ATOM     44  H   LIG d   1      12.407   7.719  -1.608  0.00  0.00     0.024 H 
ENDBRANCH   7  41
BRANCH  11  45
ATOM     45  C   LIG d   1       9.889  11.214  -1.617  0.00  0.00     0.002 C 
ATOM     46  H   LIG d   1      10.882  11.544  -1.313  0.00  0.00     0.032 H 
ATOM     47  H   LIG d   1       9.191  12.049  -1.545  0.00  0.00     0.032 H 
BRANCH  45  48
ATOM     48  C   LIG d   1       9.426  10.080  -0.700  0.00  0.00     0.047 C 
ATOM     49  H   LIG d   1      10.013   9.184  -0.906  0.00  0.00     0.056 H 
ATOM     50  H   LIG d   1       9.565  10.374   0.340  0.00  0.00     0.056 H 
BRANCH  48  51
ATOM     51  O   LIG d   1       8.044   9.808  -0.939  0.00  0.00    -0.395 OA
ATOM     52  H   LIG d   1       7.485  10.597  -0.956  0.00  0.00     0.209 HD
ENDBRANCH  48  51
ENDBRANCH  45  48
ENDBRANCH  11  45
BRANCH  11  53
ATOM     53  C   LIG d   1       8.895  11.455  -3.900  0.00  0.00     0.073 C 
ATOM     54  H   LIG d   1       9.267  12.452  -4.143  0.00  0.00     0.059 H 
ATOM     55  H   LIG d   1       8.707  10.904  -4.820  0.00  0.00     0.059 H 
BRANCH  53  56
ATOM     56  O   LIG d   1       7.681  11.569  -3.156  0.00  0.00    -0.392 OA
ATOM     57  H   LIG d   1       7.512  10.824  -2.563  0.00  0.00     0.209 HD
ENDBRANCH  53  56
ENDBRANCH  11  53
BRANCH  17  58
ATOM     58  C   LIG d   1      13.074   4.980  -2.150  0.00  0.00    -0.055 C 
ATOM     59  H   LIG d   1      13.839   4.208  -2.218  0.00  0.00     0.024 H 
ATOM     60  H   LIG d   1      13.542   5.936  -1.918  0.00  0.00     0.024 H 
ATOM     61  H   LIG d   1      12.365   4.722  -1.364  0.00  0.00     0.024 H 
ENDBRANCH  17  58
BRANCH  20  62
ATOM     62  C   LIG d   1      11.604   1.729  -5.000  0.00  0.00    -0.014 C 
ATOM     63  H   LIG d   1      12.358   1.685  -5.785  0.00  0.00     0.028 H 
ATOM     64  H   LIG d   1      11.200   0.731  -4.827  0.00  0.00     0.028 H 
ATOM     65  H   LIG d   1      10.799   2.398  -5.306  0.00  0.00     0.028 H 
ENDBRANCH  20  62
TORSDOF 9
ENDMDL
MODEL 5
REMARK VINA RESULT:      -5.1      8.001     11.165
REMARK  9 active torsions:
REMARK  status: ('A' for Active; 'I' for Inactive)
REMARK    1  A    between atoms: C_1  and  C_2 
REMARK    2  A    between atoms: C_8  and  C_31 
REMARK    3  A    between atoms: C_12  and  C_14 
REMARK    4  A    between atoms: C_12  and  C_17 
REMARK    5  A    between atoms: C_14  and  C_15 
REMARK    6  A    between atoms: C_15  and  O_16 
REMARK    7  A    between atoms: C_17  and  O_18 
REMARK    8  A    between atoms: C_23  and  C_30 
REMARK    9  A    between atoms: C_26  and  C_29 
ROOT
ATOM      1  C   LIG d   1      10.859   4.214  -5.223  0.00  0.00    -0.014 C 
ATOM      2  H   LIG d   1      11.159   3.794  -6.207  0.00  0.00     0.033 H 
ATOM      3  C   LIG d   1      11.906   3.754  -4.218  0.00  0.00    -0.048 C 
ATOM      4  C   LIG d   1      11.767   4.493  -2.895  0.00  0.00    -0.049 C 
ATOM      5  C   LIG d   1      11.887   6.013  -3.094  0.00  0.00    -0.023 C 
ATOM      6  H   LIG d   1      12.868   6.222  -3.538  0.00  0.00     0.031 H 
ATOM      7  C   LIG d   1      10.797   6.483  -4.047  0.00  0.00     0.001 C 
ATOM      8  C   LIG d   1      10.857   5.727  -5.367  0.00  0.00     0.079 C 
ATOM      9  C   LIG d   1      12.142   6.103  -6.154  0.00  0.00    -0.020 C 
ATOM     10  C   LIG d   1      11.725   5.642  -7.580  0.00  0.00    -0.019 C 
ATOM     11  C   LIG d   1      10.230   6.030  -7.605  0.00  0.00     0.095 C 
ATOM     12  O   LIG d   1       9.790   6.138  -6.242  0.00  0.00    -0.364 OA
ATOM     13  C   LIG d   1       9.423   6.356  -3.385  0.00  0.00    -0.042 C 
ATOM     14  C   LIG d   1       9.391   7.183  -2.091  0.00  0.00    -0.025 C 
ATOM     15  C   LIG d   1      10.413   6.595  -1.128  0.00  0.00     0.069 C 
ATOM     16  H   LIG d   1      10.153   5.540  -0.958  0.00  0.00     0.060 H 
ATOM     17  C   LIG d   1      11.824   6.656  -1.717  0.00  0.00     0.021 C 
ATOM     18  C   LIG d   1      12.700   5.859  -0.721  0.00  0.00     0.059 C 
ATOM     19  O   LIG d   1      12.640   6.547   0.531  0.00  0.00    -0.351 OA
ATOM     20  C   LIG d   1      11.347   6.762   1.083  0.00  0.00     0.157 C 
ATOM     21  H   LIG d   1      11.442   7.505   1.891  0.00  0.00     0.091 H 
ATOM     22  O   LIG d   1      10.421   7.271   0.125  0.00  0.00    -0.348 OA
ATOM     23  H   LIG d   1      11.792   2.679  -4.043  0.00  0.00     0.027 H 
ATOM     24  H   LIG d   1      12.907   3.924  -4.627  0.00  0.00     0.027 H 
ATOM     25  H   LIG d   1      12.571   4.164  -2.228  0.00  0.00     0.027 H 
ATOM     26  H   LIG d   1      10.810   4.265  -2.430  0.00  0.00     0.027 H 
ATOM     27  H   LIG d   1      12.382   7.151  -6.161  0.00  0.00     0.029 H 
ATOM     28  H   LIG d   1      12.987   5.507  -5.799  0.00  0.00     0.029 H 
ATOM     29  H   LIG d   1      11.857   4.574  -7.700  0.00  0.00     0.029 H 
ATOM     30  H   LIG d   1      12.278   6.199  -8.332  0.00  0.00     0.029 H 
ATOM     31  H   LIG d   1       8.653   6.714  -4.062  0.00  0.00     0.027 H 
ATOM     32  H   LIG d   1       9.230   5.322  -3.107  0.00  0.00     0.027 H 
ATOM     33  H   LIG d   1       9.577   8.229  -2.278  0.00  0.00     0.029 H 
ATOM     34  H   LIG d   1       8.390   7.083  -1.648  0.00  0.00     0.029 H 
ATOM     35  H   LIG d   1      13.722   5.837  -1.091  0.00  0.00     0.057 H 
ATOM     36  H   LIG d   1      12.304   4.855  -0.616  0.00  0.00     0.057 H 
ENDROOT
BRANCH   1  37
ATOM     37  C   LIG d   1       9.485   3.645  -4.907  0.00  0.00    -0.060 C 
ATOM     38  H   LIG d   1       8.871   4.416  -4.442  0.00  0.00     0.023 H 
ATOM     39  H   LIG d   1       9.010   3.308  -5.829  0.00  0.00     0.023 H 
ATOM     40  H   LIG d   1       9.590   2.801  -4.223  0.00  0.00     0.023 H 
ENDBRANCH   1  37
BRANCH   7  41
ATOM     41  C   LIG d   1      10.974   7.975  -4.399  0.00  0.00    -0.057 C 
ATOM     42  H   LIG d   1      11.773   8.399  -3.790  0.00  0.00     0.024 H 
ATOM     43  H   LIG d   1      11.231   8.072  -5.454  0.00  0.00     0.024 H 
ATOM     44  H   LIG d   1      10.044   8.508  -4.200  0.00  0.00     0.024 H 
ENDBRANCH   7  41
BRANCH  11  45
ATOM     45  C   LIG d   1      10.068   7.383  -8.307  0.00  0.00     0.002 C 
ATOM     46  H   LIG d   1      11.024   7.905  -8.316  0.00  0.00     0.032 H 
ATOM     47  H   LIG d   1       9.732   7.222  -9.332  0.00  0.00     0.032 H 
BRANCH  45  48
ATOM     48  C   LIG d   1       9.035   8.225  -7.557  0.00  0.00     0.047 C 
ATOM     49  H   LIG d   1       8.330   7.567  -7.048  0.00  0.00     0.056 H 
ATOM     50  H   LIG d   1       9.540   8.853  -6.823  0.00  0.00     0.056 H 
BRANCH  48  51
ATOM     51  O   LIG d   1       8.328   9.051  -8.485  0.00  0.00    -0.395 OA
ATOM     52  H   LIG d   1       7.785   9.734  -8.070  0.00  0.00     0.209 HD
ENDBRANCH  48  51
ENDBRANCH  45  48
ENDBRANCH  11  45
BRANCH  11  53
ATOM     53  C   LIG d   1       9.424   4.966  -8.349  0.00  0.00     0.073 C 
ATOM     54  H   LIG d   1      10.064   4.109  -8.563  0.00  0.00     0.059 H 
ATOM     55  H   LIG d   1       8.585   4.648  -7.732  0.00  0.00     0.059 H 
BRANCH  53  56
ATOM     56  O   LIG d   1       8.934   5.510  -9.575  0.00  0.00    -0.392 OA
ATOM     57  H   LIG d   1       8.418   4.888 -10.104  0.00  0.00     0.209 HD
ENDBRANCH  53  56
ENDBRANCH  11  53
BRANCH  17  58
ATOM     58  C   LIG d   1      12.358   8.087  -1.708  0.00  0.00    -0.055 C 
ATOM     59  H   LIG d   1      13.310   8.122  -2.236  0.00  0.00     0.024 H 
ATOM     60  H   LIG d   1      11.644   8.744  -2.202  0.00  0.00     0.024 H 
ATOM     61  H   LIG d   1      12.501   8.414  -0.678  0.00  0.00     0.024 H 
ENDBRANCH  17  58
BRANCH  20  62
ATOM     62  C   LIG d   1      10.814   5.468   1.699  0.00  0.00    -0.014 C 
ATOM     63  H   LIG d   1      11.414   5.207   2.570  0.00  0.00     0.028 H 
ATOM     64  H   LIG d   1       9.776   5.608   2.002  0.00  0.00     0.028 H 
ATOM     65  H   LIG d   1      10.872   4.665   0.964  0.00  0.00     0.028 H 
ENDBRANCH  20  62
TORSDOF 9
ENDMDL
MODEL 6
REMARK VINA RESULT:      -5.0      8.496     10.552
REMARK  9 active torsions:
REMARK  status: ('A' for Active; 'I' for Inactive)
REMARK    1  A    between atoms: C_1  and  C_2 
REMARK    2  A    between atoms: C_8  and  C_31 
REMARK    3  A    between atoms: C_12  and  C_14 
REMARK    4  A    between atoms: C_12  and  C_17 
REMARK    5  A    between atoms: C_14  and  C_15 
REMARK    6  A    between atoms: C_15  and  O_16 
REMARK    7  A    between atoms: C_17  and  O_18 
REMARK    8  A    between atoms: C_23  and  C_30 
REMARK    9  A    between atoms: C_26  and  C_29 
ROOT
ATOM      1  C   LIG d   1      11.101   7.481  -0.346  0.00  0.00    -0.014 C 
ATOM      2  H   LIG d   1      10.657   8.118   0.448  0.00  0.00     0.033 H 
ATOM      3  C   LIG d   1      10.861   6.036   0.072  0.00  0.00    -0.048 C 
ATOM      4  C   LIG d   1      11.169   5.071  -1.063  0.00  0.00    -0.049 C 
ATOM      5  C   LIG d   1      10.321   5.387  -2.305  0.00  0.00    -0.023 C 
ATOM      6  H   LIG d   1       9.263   5.309  -2.025  0.00  0.00     0.031 H 
ATOM      7  C   LIG d   1      10.612   6.810  -2.764  0.00  0.00     0.001 C 
ATOM      8  C   LIG d   1      10.376   7.810  -1.641  0.00  0.00     0.079 C 
ATOM      9  C   LIG d   1       8.865   7.897  -1.296  0.00  0.00    -0.020 C 
ATOM     10  C   LIG d   1       8.839   9.265  -0.554  0.00  0.00    -0.019 C 
ATOM     11  C   LIG d   1       9.859  10.081  -1.378  0.00  0.00     0.095 C 
ATOM     12  O   LIG d   1      10.706   9.145  -2.065  0.00  0.00    -0.364 OA
ATOM     13  C   LIG d   1      12.036   6.907  -3.317  0.00  0.00    -0.042 C 
ATOM     14  C   LIG d   1      12.207   5.926  -4.487  0.00  0.00    -0.025 C 
ATOM     15  C   LIG d   1      12.027   4.513  -3.948  0.00  0.00     0.069 C 
ATOM     16  H   LIG d   1      12.771   4.354  -3.154  0.00  0.00     0.060 H 
ATOM     17  C   LIG d   1      10.632   4.325  -3.349  0.00  0.00     0.021 C 
ATOM     18  C   LIG d   1      10.675   2.929  -2.684  0.00  0.00     0.059 C 
ATOM     19  O   LIG d   1      10.914   1.979  -3.725  0.00  0.00    -0.351 OA
ATOM     20  C   LIG d   1      12.077   2.176  -4.519  0.00  0.00     0.157 C 
ATOM     21  H   LIG d   1      11.992   1.536  -5.412  0.00  0.00     0.091 H 
ATOM     22  O   LIG d   1      12.217   3.526  -4.957  0.00  0.00    -0.348 OA
ATOM     23  H   LIG d   1      11.498   5.798   0.931  0.00  0.00     0.027 H 
ATOM     24  H   LIG d   1       9.819   5.913   0.383  0.00  0.00     0.027 H 
ATOM     25  H   LIG d   1      10.933   4.055  -0.728  0.00  0.00     0.027 H 
ATOM     26  H   LIG d   1      12.224   5.117  -1.326  0.00  0.00     0.027 H 
ATOM     27  H   LIG d   1       8.204   7.925  -2.144  0.00  0.00     0.029 H 
ATOM     28  H   LIG d   1       8.589   7.093  -0.609  0.00  0.00     0.029 H 
ATOM     29  H   LIG d   1       9.158   9.157   0.474  0.00  0.00     0.029 H 
ATOM     30  H   LIG d   1       7.850   9.710  -0.620  0.00  0.00     0.029 H 
ATOM     31  H   LIG d   1      12.228   7.919  -3.664  0.00  0.00     0.027 H 
ATOM     32  H   LIG d   1      12.759   6.624  -2.556  0.00  0.00     0.027 H 
ATOM     33  H   LIG d   1      11.520   6.135  -5.292  0.00  0.00     0.029 H 
ATOM     34  H   LIG d   1      13.232   6.029  -4.871  0.00  0.00     0.029 H 
ATOM     35  H   LIG d   1       9.716   2.736  -2.209  0.00  0.00     0.057 H 
ATOM     36  H   LIG d   1      11.479   2.900  -1.957  0.00  0.00     0.057 H 
ENDROOT
BRANCH   1  37
ATOM     37  C   LIG d   1      12.584   7.815  -0.394  0.00  0.00    -0.060 C 
ATOM     38  H   LIG d   1      12.714   8.844  -0.727  0.00  0.00     0.023 H 
ATOM     39  H   LIG d   1      13.016   7.697   0.600  0.00  0.00     0.023 H 
ATOM     40  H   LIG d   1      13.086   7.141  -1.090  0.00  0.00     0.023 H 
ENDBRANCH   1  37
BRANCH   7  41
ATOM     41  C   LIG d   1       9.670   7.225  -3.913  0.00  0.00    -0.057 C 
ATOM     42  H   LIG d   1       8.688   6.776  -3.758  0.00  0.00     0.024 H 
ATOM     43  H   LIG d   1       9.573   8.311  -3.930  0.00  0.00     0.024 H 
ATOM     44  H   LIG d   1      10.080   6.882  -4.862  0.00  0.00     0.024 H 
ENDBRANCH   7  41
BRANCH  11  45
ATOM     45  C   LIG d   1       9.113  10.946  -2.399  0.00  0.00     0.002 C 
ATOM     46  H   LIG d   1       8.096  10.573  -2.517  0.00  0.00     0.032 H 
ATOM     47  H   LIG d   1       9.083  11.978  -2.048  0.00  0.00     0.032 H 
BRANCH  45  48
ATOM     48  C   LIG d   1       9.837  10.886  -3.745  0.00  0.00     0.047 C 
ATOM     49  H   LIG d   1      10.242  11.869  -3.985  0.00  0.00     0.056 H 
ATOM     50  H   LIG d   1      10.651  10.163  -3.688  0.00  0.00     0.056 H 
BRANCH  48  51
ATOM     51  O   LIG d   1       8.917  10.489  -4.764  0.00  0.00    -0.395 OA
ATOM     52  H   LIG d   1       8.538  11.226  -5.260  0.00  0.00     0.209 HD
ENDBRANCH  48  51
ENDBRANCH  45  48
ENDBRANCH  11  45
BRANCH  11  53
ATOM     53  C   LIG d   1      10.685  10.974  -0.453  0.00  0.00     0.073 C 
ATOM     54  H   LIG d   1      11.376  10.360   0.125  0.00  0.00     0.059 H 
ATOM     55  H   LIG d   1      11.247  11.693  -1.048  0.00  0.00     0.059 H 
BRANCH  53  56
ATOM     56  O   LIG d   1       9.812  11.673   0.437  0.00  0.00    -0.392 OA
ATOM     57  H   LIG d   1      10.151  12.530   0.728  0.00  0.00     0.209 HD
ENDBRANCH  53  56
ENDBRANCH  11  53
BRANCH  17  58
ATOM     58  C   LIG d   1       9.572   4.246  -4.446  0.00  0.00    -0.055 C 
ATOM     59  H   LIG d   1      10.059   4.132  -5.414  0.00  0.00     0.024 H 
ATOM     60  H   LIG d   1       8.923   3.391  -4.262  0.00  0.00     0.024 H 
ATOM     61  H   LIG d   1       8.979   5.161  -4.443  0.00  0.00     0.024 H 
ENDBRANCH  17  58
BRANCH  20  62
ATOM     62  C   LIG d   1      13.323   1.738  -3.748  0.00  0.00    -0.014 C 
ATOM     63  H   LIG d   1      13.383   2.289  -2.810  0.00  0.00     0.028 H 
ATOM     64  H   LIG d   1      13.265   0.669  -3.538  0.00  0.00     0.028 H 
ATOM     65  H   LIG d   1      14.211   1.941  -4.346  0.00  0.00     0.028 H 
ENDBRANCH  20  62
TORSDOF 9
ENDMDL
MODEL 7
REMARK VINA RESULT:      -4.6      8.766     10.560
REMARK  9 active torsions:
REMARK  status: ('A' for Active; 'I' for Inactive)
REMARK    1  A    between atoms: C_1  and  C_2 
REMARK    2  A    between atoms: C_8  and  C_31 
REMARK    3  A    between atoms: C_12  and  C_14 
REMARK    4  A    between atoms: C_12  and  C_17 
REMARK    5  A    between atoms: C_14  and  C_15 
REMARK    6  A    between atoms: C_15  and  O_16 
REMARK    7  A    between atoms: C_17  and  O_18 
REMARK    8  A    between atoms: C_23  and  C_30 
REMARK    9  A    between atoms: C_26  and  C_29 
ROOT
ATOM      1  C   LIG d   1      11.828   5.165  -5.139  0.00  0.00    -0.014 C 
ATOM      2  H   LIG d   1      11.737   4.350  -4.389  0.00  0.00     0.033 H 
ATOM      3  C   LIG d   1      11.632   4.521  -6.505  0.00  0.00    -0.048 C 
ATOM      4  C   LIG d   1      11.452   5.570  -7.592  0.00  0.00    -0.049 C 
ATOM      5  C   LIG d   1      10.256   6.485  -7.287  0.00  0.00    -0.023 C 
ATOM      6  H   LIG d   1       9.357   5.859  -7.218  0.00  0.00     0.031 H 
ATOM      7  C   LIG d   1      10.484   7.181  -5.953  0.00  0.00     0.001 C 
ATOM      8  C   LIG d   1      10.730   6.172  -4.839  0.00  0.00     0.079 C 
ATOM      9  C   LIG d   1       9.442   5.354  -4.549  0.00  0.00    -0.020 C 
ATOM     10  C   LIG d   1       9.783   4.816  -3.129  0.00  0.00    -0.019 C 
ATOM     11  C   LIG d   1      10.518   6.025  -2.510  0.00  0.00     0.095 C 
ATOM     12  O   LIG d   1      10.998   6.838  -3.593  0.00  0.00    -0.364 OA
ATOM     13  C   LIG d   1      11.632   8.186  -6.068  0.00  0.00    -0.042 C 
ATOM     14  C   LIG d   1      11.311   9.220  -7.158  0.00  0.00    -0.025 C 
ATOM     15  C   LIG d   1      11.216   8.487  -8.489  0.00  0.00     0.069 C 
ATOM     16  H   LIG d   1      12.172   7.974  -8.666  0.00  0.00     0.060 H 
ATOM     17  C   LIG d   1      10.103   7.438  -8.463  0.00  0.00     0.021 C 
ATOM     18  C   LIG d   1      10.261   6.663  -9.794  0.00  0.00     0.059 C 
ATOM     19  O   LIG d   1      10.050   7.603 -10.850  0.00  0.00    -0.351 OA
ATOM     20  C   LIG d   1      10.880   8.758 -10.857  0.00  0.00     0.157 C 
ATOM     21  H   LIG d   1      10.441   9.488 -11.556  0.00  0.00     0.091 H 
ATOM     22  O   LIG d   1      10.967   9.376  -9.575  0.00  0.00    -0.348 OA
ATOM     23  H   LIG d   1      12.506   3.903  -6.742  0.00  0.00     0.027 H 
ATOM     24  H   LIG d   1      10.755   3.867  -6.480  0.00  0.00     0.027 H 
ATOM     25  H   LIG d   1      11.266   5.056  -8.542  0.00  0.00     0.027 H 
ATOM     26  H   LIG d   1      12.352   6.174  -7.691  0.00  0.00     0.027 H 
ATOM     27  H   LIG d   1       8.534   5.930  -4.517  0.00  0.00     0.029 H 
ATOM     28  H   LIG d   1       9.357   4.524  -5.255  0.00  0.00     0.029 H 
ATOM     29  H   LIG d   1      10.427   3.948  -3.186  0.00  0.00     0.029 H 
ATOM     30  H   LIG d   1       8.870   4.600  -2.580  0.00  0.00     0.029 H 
ATOM     31  H   LIG d   1      11.773   8.695  -5.118  0.00  0.00     0.027 H 
ATOM     32  H   LIG d   1      12.548   7.682  -6.366  0.00  0.00     0.027 H 
ATOM     33  H   LIG d   1      10.407   9.767  -6.941  0.00  0.00     0.029 H 
ATOM     34  H   LIG d   1      12.146   9.934  -7.207  0.00  0.00     0.029 H 
ATOM     35  H   LIG d   1       9.512   5.876  -9.833  0.00  0.00     0.057 H 
ATOM     36  H   LIG d   1      11.261   6.250  -9.854  0.00  0.00     0.057 H 
ENDROOT
BRANCH   1  37
ATOM     37  C   LIG d   1      13.225   5.745  -4.984  0.00  0.00    -0.060 C 
ATOM     38  H   LIG d   1      13.184   6.828  -5.103  0.00  0.00     0.023 H 
ATOM     39  H   LIG d   1      13.612   5.502  -3.994  0.00  0.00     0.023 H 
ATOM     40  H   LIG d   1      13.881   5.321  -5.744  0.00  0.00     0.023 H 
ENDBRANCH   1  37
BRANCH   7  41
ATOM     41  C   LIG d   1       9.239   7.990  -5.530  0.00  0.00    -0.057 C 
ATOM     42  H   LIG d   1       9.469   9.056  -5.564  0.00  0.00     0.024 H 
ATOM     43  H   LIG d   1       8.416   7.775  -6.212  0.00  0.00     0.024 H 
ATOM     44  H   LIG d   1       8.953   7.713  -4.516  0.00  0.00     0.024 H 
ENDBRANCH   7  41
BRANCH  11  45
ATOM     45  C   LIG d   1       9.537   6.833  -1.654  0.00  0.00     0.002 C 
ATOM     46  H   LIG d   1       8.579   6.905  -2.169  0.00  0.00     0.032 H 
ATOM     47  H   LIG d   1       9.397   6.335  -0.695  0.00  0.00     0.032 H 
BRANCH  45  48
ATOM     48  C   LIG d   1      10.098   8.237  -1.425  0.00  0.00     0.047 C 
ATOM     49  H   LIG d   1       9.913   8.539  -0.393  0.00  0.00     0.056 H 
ATOM     50  H   LIG d   1      11.171   8.237  -1.616  0.00  0.00     0.056 H 
BRANCH  48  51
ATOM     51  O   LIG d   1       9.457   9.157  -2.311  0.00  0.00    -0.395 OA
ATOM     52  H   LIG d   1       8.526   9.316  -2.107  0.00  0.00     0.209 HD
ENDBRANCH  48  51
ENDBRANCH  45  48
ENDBRANCH  11  45
BRANCH  11  53
ATOM     53  C   LIG d   1      11.680   5.543  -1.642  0.00  0.00     0.073 C 
ATOM     54  H   LIG d   1      12.543   5.333  -2.274  0.00  0.00     0.059 H 
ATOM     55  H   LIG d   1      11.938   6.315  -0.919  0.00  0.00     0.059 H 
BRANCH  53  56
ATOM     56  O   LIG d   1      11.296   4.352  -0.951  0.00  0.00    -0.392 OA
ATOM     57  H   LIG d   1      10.526   3.908  -1.331  0.00  0.00     0.209 HD
ENDBRANCH  53  56
ENDBRANCH  11  53
BRANCH  17  58
ATOM     58  C   LIG d   1       8.727   8.099  -8.512  0.00  0.00    -0.055 C 
ATOM     59  H   LIG d   1       8.009   7.411  -8.959  0.00  0.00     0.024 H 
ATOM     60  H   LIG d   1       8.409   8.350  -7.501  0.00  0.00     0.024 H 
ATOM     61  H   LIG d   1       8.782   9.007  -9.113  0.00  0.00     0.024 H 
ENDBRANCH  17  58
BRANCH  20  62
ATOM     62  C   LIG d   1      12.276   8.402 -11.369  0.00  0.00    -0.014 C 
ATOM     63  H   LIG d   1      12.617   7.486 -10.886  0.00  0.00     0.028 H 
ATOM     64  H   LIG d   1      12.241   8.251 -12.449  0.00  0.00     0.028 H 
ATOM     65  H   LIG d   1      12.966   9.213 -11.138  0.00  0.00     0.028 H 
ENDBRANCH  20  62
TORSDOF 9
ENDMDL
MODEL 8
REMARK VINA RESULT:      -4.6     11.076     13.731
REMARK  9 active torsions:
REMARK  status: ('A' for Active; 'I' for Inactive)
REMARK    1  A    between atoms: C_1  and  C_2 
REMARK    2  A    between atoms: C_8  and  C_31 
REMARK    3  A    between atoms: C_12  and  C_14 
REMARK    4  A    between atoms: C_12  and  C_17 
REMARK    5  A    between atoms: C_14  and  C_15 
REMARK    6  A    between atoms: C_15  and  O_16 
REMARK    7  A    between atoms: C_17  and  O_18 
REMARK    8  A    between atoms: C_23  and  C_30 
REMARK    9  A    between atoms: C_26  and  C_29 
ROOT
ATOM      1  C   LIG d   1      10.504  11.233  -3.786  0.00  0.00    -0.014 C 
ATOM      2  H   LIG d   1      10.794  12.219  -4.208  0.00  0.00     0.033 H 
ATOM      3  C   LIG d   1      11.157  10.176  -4.666  0.00  0.00    -0.048 C 
ATOM      4  C   LIG d   1      11.072   8.796  -4.030  0.00  0.00    -0.049 C 
ATOM      5  C   LIG d   1      11.736   8.782  -2.645  0.00  0.00    -0.023 C 
ATOM      6  H   LIG d   1      12.786   9.074  -2.767  0.00  0.00     0.031 H 
ATOM      7  C   LIG d   1      11.039   9.792  -1.743  0.00  0.00     0.001 C 
ATOM      8  C   LIG d   1      11.044  11.182  -2.366  0.00  0.00     0.079 C 
ATOM      9  C   LIG d   1      12.488  11.752  -2.416  0.00  0.00    -0.020 C 
ATOM     10  C   LIG d   1      12.169  13.266  -2.586  0.00  0.00    -0.019 C 
ATOM     11  C   LIG d   1      10.923  13.421  -1.687  0.00  0.00     0.095 C 
ATOM     12  O   LIG d   1      10.337  12.119  -1.534  0.00  0.00    -0.364 OA
ATOM     13  C   LIG d   1       9.619   9.323  -1.420  0.00  0.00    -0.042 C 
ATOM     14  C   LIG d   1       9.668   7.948  -0.738  0.00  0.00    -0.025 C 
ATOM     15  C   LIG d   1      10.259   6.951  -1.726  0.00  0.00     0.069 C 
ATOM     16  H   LIG d   1       9.630   6.951  -2.628  0.00  0.00     0.060 H 
ATOM     17  C   LIG d   1      11.679   7.352  -2.129  0.00  0.00     0.021 C 
ATOM     18  C   LIG d   1      12.059   6.368  -3.262  0.00  0.00     0.059 C 
ATOM     19  O   LIG d   1      12.041   5.055  -2.697  0.00  0.00    -0.351 OA
ATOM     20  C   LIG d   1      10.831   4.640  -2.076  0.00  0.00     0.157 C 
ATOM     21  H   LIG d   1      11.045   3.738  -1.481  0.00  0.00     0.091 H 
ATOM     22  O   LIG d   1      10.300   5.630  -1.197  0.00  0.00    -0.348 OA
ATOM     23  H   LIG d   1      10.654  10.156  -5.639  0.00  0.00     0.027 H 
ATOM     24  H   LIG d   1      12.206  10.436  -4.835  0.00  0.00     0.027 H 
ATOM     25  H   LIG d   1      11.597   8.084  -4.677  0.00  0.00     0.027 H 
ATOM     26  H   LIG d   1      10.033   8.483  -3.936  0.00  0.00     0.027 H 
ATOM     27  H   LIG d   1      13.071  11.595  -1.526  0.00  0.00     0.029 H 
ATOM     28  H   LIG d   1      13.009  11.377  -3.300  0.00  0.00     0.029 H 
ATOM     29  H   LIG d   1      11.945  13.504  -3.617  0.00  0.00     0.029 H 
ATOM     30  H   LIG d   1      12.992  13.867  -2.207  0.00  0.00     0.029 H 
ATOM     31  H   LIG d   1       9.136  10.037  -0.759  0.00  0.00     0.027 H 
ATOM     32  H   LIG d   1       9.041   9.205  -2.334  0.00  0.00     0.027 H 
ATOM     33  H   LIG d   1      10.229   7.974   0.183  0.00  0.00     0.029 H 
ATOM     34  H   LIG d   1       8.636   7.645  -0.507  0.00  0.00     0.029 H 
ATOM     35  H   LIG d   1      13.056   6.611  -3.620  0.00  0.00     0.057 H 
ATOM     36  H   LIG d   1      11.332   6.441  -4.062  0.00  0.00     0.057 H 
ENDROOT
BRANCH   1  37
ATOM     37  C   LIG d   1       8.987  11.161  -3.848  0.00  0.00    -0.060 C 
ATOM     38  H   LIG d   1       8.582  11.158  -2.836  0.00  0.00     0.023 H 
ATOM     39  H   LIG d   1       8.603  12.026  -4.390  0.00  0.00     0.023 H 
ATOM     40  H   LIG d   1       8.687  10.248  -4.362  0.00  0.00     0.023 H 
ENDBRANCH   1  37
BRANCH   7  41
ATOM     41  C   LIG d   1      11.771   9.926  -0.391  0.00  0.00    -0.057 C 
ATOM     42  H   LIG d   1      11.053  10.195   0.385  0.00  0.00     0.024 H 
ATOM     43  H   LIG d   1      12.241   8.976  -0.136  0.00  0.00     0.024 H 
ATOM     44  H   LIG d   1      12.533  10.701  -0.465  0.00  0.00     0.024 H 
ENDBRANCH   7  41
BRANCH  11  45
ATOM     45  C   LIG d   1      11.348  13.959  -0.316  0.00  0.00     0.002 C 
ATOM     46  H   LIG d   1      12.436  13.985  -0.258  0.00  0.00     0.032 H 
ATOM     47  H   LIG d   1      10.953  14.965  -0.182  0.00  0.00     0.032 H 
BRANCH  45  48
ATOM     48  C   LIG d   1      10.802  13.044   0.782  0.00  0.00     0.047 C 
ATOM     49  H   LIG d   1      10.818  12.011   0.435  0.00  0.00     0.056 H 
ATOM     50  H   LIG d   1      11.419  13.137   1.674  0.00  0.00     0.056 H 
BRANCH  48  51
ATOM     51  O   LIG d   1       9.458  13.421   1.090  0.00  0.00    -0.395 OA
ATOM     52  H   LIG d   1       8.845  12.676   1.154  0.00  0.00     0.209 HD
ENDBRANCH  48  51
ENDBRANCH  45  48
ENDBRANCH  11  45
BRANCH  11  53
ATOM     53  C   LIG d   1       9.930  14.387  -2.332  0.00  0.00     0.073 C 
ATOM     54  H   LIG d   1      10.312  15.406  -2.256  0.00  0.00     0.059 H 
ATOM     55  H   LIG d   1       9.796  14.126  -3.380  0.00  0.00     0.059 H 
BRANCH  53  56
ATOM     56  O   LIG d   1       8.674  14.300  -1.655  0.00  0.00    -0.392 OA
ATOM     57  H   LIG d   1       7.909  14.461  -2.224  0.00  0.00     0.209 HD
ENDBRANCH  53  56
ENDBRANCH  11  53
BRANCH  17  58
ATOM     58  C   LIG d   1      12.664   7.095  -0.990  0.00  0.00    -0.055 C 
ATOM     59  H   LIG d   1      12.113   6.911  -0.068  0.00  0.00     0.024 H 
ATOM     60  H   LIG d   1      13.275   6.226  -1.227  0.00  0.00     0.024 H 
ATOM     61  H   LIG d   1      13.305   7.967  -0.862  0.00  0.00     0.024 H 
ENDBRANCH  17  58
BRANCH  20  62
ATOM     62  C   LIG d   1       9.795   4.264  -3.137  0.00  0.00    -0.014 C 
ATOM     63  H   LIG d   1      10.267   4.261  -4.119  0.00  0.00     0.028 H 
ATOM     64  H   LIG d   1       9.397   3.272  -2.922  0.00  0.00     0.028 H 
ATOM     65  H   LIG d   1       8.983   4.991  -3.126  0.00  0.00     0.028 H 
ENDBRANCH  20  62
TORSDOF 9
ENDMDL
MODEL 9
REMARK VINA RESULT:      -4.5      9.585     11.731
REMARK  9 active torsions:
REMARK  status: ('A' for Active; 'I' for Inactive)
REMARK    1  A    between atoms: C_1  and  C_2 
REMARK    2  A    between atoms: C_8  and  C_31 
REMARK    3  A    between atoms: C_12  and  C_14 
REMARK    4  A    between atoms: C_12  and  C_17 
REMARK    5  A    between atoms: C_14  and  C_15 
REMARK    6  A    between atoms: C_15  and  O_16 
REMARK    7  A    between atoms: C_17  and  O_18 
REMARK    8  A    between atoms: C_23  and  C_30 
REMARK    9  A    between atoms: C_26  and  C_29 
ROOT
ATOM      1  C   LIG d   1      10.151   6.090  -3.023  0.00  0.00    -0.014 C 
ATOM      2  H   LIG d   1       9.711   5.804  -2.044  0.00  0.00     0.033 H 
ATOM      3  C   LIG d   1       8.997   6.154  -4.015  0.00  0.00    -0.048 C 
ATOM      4  C   LIG d   1       9.424   6.809  -5.321  0.00  0.00    -0.049 C 
ATOM      5  C   LIG d   1       9.963   8.228  -5.079  0.00  0.00    -0.023 C 
ATOM      6  H   LIG d   1       9.169   8.819  -4.606  0.00  0.00     0.031 H 
ATOM      7  C   LIG d   1      11.160   8.157  -4.140  0.00  0.00     0.001 C 
ATOM      8  C   LIG d   1      10.798   7.453  -2.839  0.00  0.00     0.079 C 
ATOM      9  C   LIG d   1       9.803   8.312  -2.012  0.00  0.00    -0.020 C 
ATOM     10  C   LIG d   1      10.000   7.669  -0.609  0.00  0.00    -0.019 C 
ATOM     11  C   LIG d   1      11.517   7.384  -0.610  0.00  0.00     0.095 C 
ATOM     12  O   LIG d   1      11.947   7.342  -1.980  0.00  0.00    -0.364 OA
ATOM     13  C   LIG d   1      12.343   7.481  -4.838  0.00  0.00    -0.042 C 
ATOM     14  C   LIG d   1      12.711   8.261  -6.109  0.00  0.00    -0.025 C 
ATOM     15  C   LIG d   1      11.525   8.196  -7.063  0.00  0.00     0.069 C 
ATOM     16  H   LIG d   1      11.310   7.137  -7.267  0.00  0.00     0.060 H 
ATOM     17  C   LIG d   1      10.281   8.830  -6.439  0.00  0.00     0.021 C 
ATOM     18  C   LIG d   1       9.138   8.516  -7.434  0.00  0.00     0.059 C 
ATOM     19  O   LIG d   1       9.472   9.156  -8.668  0.00  0.00    -0.351 OA
ATOM     20  C   LIG d   1      10.728   8.820  -9.246  0.00  0.00     0.157 C 
ATOM     21  H   LIG d   1      10.949   9.560 -10.031  0.00  0.00     0.091 H 
ATOM     22  O   LIG d   1      11.792   8.854  -8.297  0.00  0.00    -0.348 OA
ATOM     23  H   LIG d   1       8.642   5.139  -4.221  0.00  0.00     0.027 H 
ATOM     24  H   LIG d   1       8.169   6.719  -3.578  0.00  0.00     0.027 H 
ATOM     25  H   LIG d   1       8.549   6.876  -5.977  0.00  0.00     0.027 H 
ATOM     26  H   LIG d   1      10.189   6.212  -5.815  0.00  0.00     0.027 H 
ATOM     27  H   LIG d   1      10.032   9.362  -1.971  0.00  0.00     0.029 H 
ATOM     28  H   LIG d   1       8.782   8.144  -2.362  0.00  0.00     0.029 H 
ATOM     29  H   LIG d   1       9.427   6.755  -0.515  0.00  0.00     0.029 H 
ATOM     30  H   LIG d   1       9.744   8.382   0.171  0.00  0.00     0.029 H 
ATOM     31  H   LIG d   1      13.199   7.455  -4.170  0.00  0.00     0.027 H 
ATOM     32  H   LIG d   1      12.074   6.474  -5.148  0.00  0.00     0.027 H 
ATOM     33  H   LIG d   1      12.989   9.280  -5.890  0.00  0.00     0.029 H 
ATOM     34  H   LIG d   1      13.569   7.760  -6.579  0.00  0.00     0.029 H 
ATOM     35  H   LIG d   1       8.208   8.917  -7.040  0.00  0.00     0.057 H 
ATOM     36  H   LIG d   1       9.068   7.443  -7.576  0.00  0.00     0.057 H 
ENDROOT
BRANCH   1  37
ATOM     37  C   LIG d   1      11.149   5.003  -3.388  0.00  0.00    -0.060 C 
ATOM     38  H   LIG d   1      11.304   4.999  -4.466  0.00  0.00     0.023 H 
ATOM     39  H   LIG d   1      12.097   5.195  -2.884  0.00  0.00     0.023 H 
ATOM     40  H   LIG d   1      10.761   4.033  -3.072  0.00  0.00     0.023 H 
ENDBRANCH   1  37
BRANCH   7  41
ATOM     41  C   LIG d   1      11.639   9.570  -3.744  0.00  0.00    -0.057 C 
ATOM     42  H   LIG d   1      11.099  10.314  -4.331  0.00  0.00     0.024 H 
ATOM     43  H   LIG d   1      11.446   9.735  -2.684  0.00  0.00     0.024 H 
ATOM     44  H   LIG d   1      12.707   9.660  -3.939  0.00  0.00     0.024 H 
ENDBRANCH   7  41
BRANCH  11  45
ATOM     45  C   LIG d   1      12.247   8.515   0.124  0.00  0.00     0.002 C 
ATOM     46  H   LIG d   1      13.252   8.186   0.390  0.00  0.00     0.032 H 
ATOM     47  H   LIG d   1      12.311   9.388  -0.525  0.00  0.00     0.032 H 
BRANCH  45  48
ATOM     48  C   LIG d   1      11.478   8.877   1.395  0.00  0.00     0.047 C 
ATOM     49  H   LIG d   1      10.407   8.845   1.193  0.00  0.00     0.056 H 
ATOM     50  H   LIG d   1      11.720   8.165   2.184  0.00  0.00     0.056 H 
BRANCH  48  51
ATOM     51  O   LIG d   1      11.842  10.194   1.814  0.00  0.00    -0.395 OA
ATOM     52  H   LIG d   1      12.704  10.486   1.489  0.00  0.00     0.209 HD
ENDBRANCH  48  51
ENDBRANCH  45  48
ENDBRANCH  11  45
BRANCH  11  53
ATOM     53  C   LIG d   1      11.802   6.053   0.086  0.00  0.00     0.073 C 
ATOM     54  H   LIG d   1      12.251   5.360  -0.626  0.00  0.00     0.059 H 
ATOM     55  H   LIG d   1      12.487   6.216   0.917  0.00  0.00     0.059 H 
BRANCH  53  56
ATOM     56  O   LIG d   1      10.578   5.503   0.578  0.00  0.00    -0.392 OA
ATOM     57  H   LIG d   1      10.579   5.330   1.529  0.00  0.00     0.209 HD
ENDBRANCH  53  56
ENDBRANCH  11  53
BRANCH  17  58
ATOM     58  C   LIG d   1      10.406  10.352  -6.397  0.00  0.00    -0.055 C 
ATOM     59  H   LIG d   1      10.029  10.721  -5.443  0.00  0.00     0.024 H 
ATOM     60  H   LIG d   1      11.452  10.633  -6.507  0.00  0.00     0.024 H 
ATOM     61  H   LIG d   1       9.825  10.787  -7.210  0.00  0.00     0.024 H 
ENDBRANCH  17  58
BRANCH  20  62
ATOM     62  C   LIG d   1      10.653   7.444  -9.908  0.00  0.00    -0.014 C 
ATOM     63  H   LIG d   1      10.942   7.530 -10.956  0.00  0.00     0.028 H 
ATOM     64  H   LIG d   1      11.331   6.757  -9.400  0.00  0.00     0.028 H 
ATOM     65  H   LIG d   1       9.634   7.063  -9.842  0.00  0.00     0.028 H 
ENDBRANCH  20  62
TORSDOF 9
ENDMDL
MODEL 10
REMARK VINA RESULT:      -4.4      2.334      3.869
REMARK  9 active torsions:
REMARK  status: ('A' for Active; 'I' for Inactive)
REMARK    1  A    between atoms: C_1  and  C_2 
REMARK    2  A    between atoms: C_8  and  C_31 
REMARK    3  A    between atoms: C_12  and  C_14 
REMARK    4  A    between atoms: C_12  and  C_17 
REMARK    5  A    between atoms: C_14  and  C_15 
REMARK    6  A    between atoms: C_15  and  O_16 
REMARK    7  A    between atoms: C_17  and  O_18 
REMARK    8  A    between atoms: C_23  and  C_30 
REMARK    9  A    between atoms: C_26  and  C_29 
ROOT
ATOM      1  C   LIG d   1       6.901  -1.318  -6.220  0.00  0.00    -0.014 C 
ATOM      2  H   LIG d   1       6.371  -0.342  -6.265  0.00  0.00     0.033 H 
ATOM      3  C   LIG d   1       8.279  -1.092  -6.827  0.00  0.00    -0.048 C 
ATOM      4  C   LIG d   1       9.200  -2.275  -6.567  0.00  0.00    -0.049 C 
ATOM      5  C   LIG d   1       9.347  -2.542  -5.060  0.00  0.00    -0.023 C 
ATOM      6  H   LIG d   1       9.757  -1.639  -4.592  0.00  0.00     0.031 H 
ATOM      7  C   LIG d   1       7.976  -2.835  -4.466  0.00  0.00     0.001 C 
ATOM      8  C   LIG d   1       6.998  -1.704  -4.753  0.00  0.00     0.079 C 
ATOM      9  C   LIG d   1       7.406  -0.421  -3.980  0.00  0.00    -0.020 C 
ATOM     10  C   LIG d   1       6.057   0.354  -4.020  0.00  0.00    -0.019 C 
ATOM     11  C   LIG d   1       5.038  -0.793  -3.849  0.00  0.00     0.095 C 
ATOM     12  O   LIG d   1       5.692  -2.012  -4.235  0.00  0.00    -0.364 OA
ATOM     13  C   LIG d   1       7.452  -4.179  -4.978  0.00  0.00    -0.042 C 
ATOM     14  C   LIG d   1       8.440  -5.296  -4.611  0.00  0.00    -0.025 C 
ATOM     15  C   LIG d   1       9.754  -5.020  -5.329  0.00  0.00     0.069 C 
ATOM     16  H   LIG d   1       9.550  -4.977  -6.409  0.00  0.00     0.060 H 
ATOM     17  C   LIG d   1      10.347  -3.678  -4.897  0.00  0.00     0.021 C 
ATOM     18  C   LIG d   1      11.553  -3.458  -5.841  0.00  0.00     0.059 C 
ATOM     19  O   LIG d   1      12.473  -4.524  -5.596  0.00  0.00    -0.351 OA
ATOM     20  C   LIG d   1      11.975  -5.848  -5.742  0.00  0.00     0.157 C 
ATOM     21  H   LIG d   1      12.704  -6.537  -5.285  0.00  0.00     0.091 H 
ATOM     22  O   LIG d   1      10.723  -6.036  -5.087  0.00  0.00    -0.348 OA
ATOM     23  H   LIG d   1       8.178  -0.945  -7.908  0.00  0.00     0.027 H 
ATOM     24  H   LIG d   1       8.721  -0.185  -6.404  0.00  0.00     0.027 H 
ATOM     25  H   LIG d   1      10.188  -2.041  -6.978  0.00  0.00     0.027 H 
ATOM     26  H   LIG d   1       8.819  -3.170  -7.056  0.00  0.00     0.027 H 
ATOM     27  H   LIG d   1       7.709  -0.579  -2.960  0.00  0.00     0.029 H 
ATOM     28  H   LIG d   1       8.170   0.127  -4.537  0.00  0.00     0.029 H 
ATOM     29  H   LIG d   1       5.926   0.860  -4.968  0.00  0.00     0.029 H 
ATOM     30  H   LIG d   1       5.997   1.049  -3.186  0.00  0.00     0.029 H 
ATOM     31  H   LIG d   1       6.485  -4.391  -4.532  0.00  0.00     0.027 H 
ATOM     32  H   LIG d   1       7.373  -4.166  -6.063  0.00  0.00     0.027 H 
ATOM     33  H   LIG d   1       8.580  -5.376  -3.544  0.00  0.00     0.029 H 
ATOM     34  H   LIG d   1       8.030  -6.248  -4.979  0.00  0.00     0.029 H 
ATOM     35  H   LIG d   1      12.012  -2.500  -5.608  0.00  0.00     0.057 H 
ATOM     36  H   LIG d   1      11.214  -3.484  -6.871  0.00  0.00     0.057 H 
ENDROOT
BRANCH   1  37
ATOM     37  C   LIG d   1       6.077  -2.299  -7.038  0.00  0.00    -0.060 C 
ATOM     38  H   LIG d   1       6.600  -2.526  -7.968  0.00  0.00     0.023 H 
ATOM     39  H   LIG d   1       5.933  -3.217  -6.469  0.00  0.00     0.023 H 
ATOM     40  H   LIG d   1       5.106  -1.857  -7.266  0.00  0.00     0.023 H 
ENDBRANCH   1  37
BRANCH   7  41
ATOM     41  C   LIG d   1       8.053  -2.956  -2.929  0.00  0.00    -0.057 C 
ATOM     42  H   LIG d   1       8.907  -3.577  -2.656  0.00  0.00     0.024 H 
ATOM     43  H   LIG d   1       8.171  -1.964  -2.492  0.00  0.00     0.024 H 
ATOM     44  H   LIG d   1       7.137  -3.412  -2.554  0.00  0.00     0.024 H 
ENDBRANCH   7  41
BRANCH  11  45
ATOM     45  C   LIG d   1       4.612  -0.880  -2.379  0.00  0.00     0.002 C 
ATOM     46  H   LIG d   1       3.599  -1.277  -2.317  0.00  0.00     0.032 H 
ATOM     47  H   LIG d   1       5.294  -1.540  -1.842  0.00  0.00     0.032 H 
BRANCH  45  48
ATOM     48  C   LIG d   1       4.653   0.515  -1.753  0.00  0.00     0.047 C 
ATOM     49  H   LIG d   1       4.861   0.429  -0.686  0.00  0.00     0.056 H 
ATOM     50  H   LIG d   1       5.435   1.106  -2.229  0.00  0.00     0.056 H 
BRANCH  48  51
ATOM     51  O   LIG d   1       3.390   1.158  -1.940  0.00  0.00    -0.395 OA
ATOM     52  H   LIG d   1       2.668   0.552  -2.154  0.00  0.00     0.209 HD
ENDBRANCH  48  51
ENDBRANCH  45  48
ENDBRANCH  11  45
BRANCH  11  53
ATOM     53  C   LIG d   1       3.811  -0.539  -4.724  0.00  0.00     0.073 C 
ATOM     54  H   LIG d   1       3.724   0.529  -4.928  0.00  0.00     0.059 H 
ATOM     55  H   LIG d   1       3.915  -1.081  -5.663  0.00  0.00     0.059 H 
BRANCH  53  56
ATOM     56  O   LIG d   1       2.638  -0.988  -4.041  0.00  0.00    -0.392 OA
ATOM     57  H   LIG d   1       2.788  -1.745  -3.459  0.00  0.00     0.209 HD
ENDBRANCH  53  56
ENDBRANCH  11  53
BRANCH  17  58
ATOM     58  C   LIG d   1      10.918  -3.762  -3.483  0.00  0.00    -0.055 C 
ATOM     59  H   LIG d   1      10.965  -2.764  -3.050  0.00  0.00     0.024 H 
ATOM     60  H   LIG d   1      10.278  -4.395  -2.870  0.00  0.00     0.024 H 
ATOM     61  H   LIG d   1      11.921  -4.188  -3.522  0.00  0.00     0.024 H 
ENDBRANCH  17  58
BRANCH  20  62
ATOM     62  C   LIG d   1      11.857  -6.208  -7.223  0.00  0.00    -0.014 C 
ATOM     63  H   LIG d   1      10.931  -6.756  -7.391  0.00  0.00     0.028 H 
ATOM     64  H   LIG d   1      11.853  -5.296  -7.821  0.00  0.00     0.028 H 
ATOM     65  H   LIG d   1      12.704  -6.828  -7.515  0.00  0.00     0.028 H 
ENDBRANCH  20  62
TORSDOF 9
ENDMDL
