MODEL 1
REMARK VINA RESULT:      -7.1      0.000      0.000
REMARK  3 active torsions:
REMARK  status: ('A' for Active; 'I' for Inactive)
REMARK    1  A    between atoms: C_1  and  C_2 
REMARK    2  A    between atoms: C_2  and  C_3 
REMARK    3  A    between atoms: C_7  and  C_22 
ROOT
ATOM      1  C   LIG d   1       1.933  -0.939  -9.559  0.00  0.00    -0.001 C 
ATOM      2  H   LIG d   1       1.314  -1.231  -8.712  0.00  0.00     0.035 H 
ATOM      3  C   LIG d   1       2.454   0.487  -9.358  0.00  0.00    -0.040 C 
ATOM      4  C   LIG d   1       3.224   0.563  -8.062  0.00  0.00    -0.001 C 
ATOM      5  C   LIG d   1       4.210  -0.563  -7.799  0.00  0.00     0.028 C 
ATOM      6  C   LIG d   1       4.256  -0.699  -6.279  0.00  0.00     0.072 A 
ATOM      7  C   LIG d   1       4.453  -1.818  -5.570  0.00  0.00    -0.013 A 
ATOM      8  C   LIG d   1       4.420  -1.449  -4.164  0.00  0.00     0.003 A 
ATOM      9  C   LIG d   1       4.587  -2.188  -2.990  0.00  0.00    -0.052 A 
ATOM     10  C   LIG d   1       4.462  -1.504  -1.806  0.00  0.00    -0.061 A 
ATOM     11  C   LIG d   1       4.187  -0.146  -1.766  0.00  0.00    -0.060 A 
ATOM     12  C   LIG d   1       4.033   0.611  -2.915  0.00  0.00    -0.038 A 
ATOM     13  C   LIG d   1       4.158  -0.056  -4.132  0.00  0.00     0.047 A 
ATOM     14  N   LIG d   1       4.085   0.368  -5.425  0.00  0.00    -0.353 N 
ATOM     15  H   LIG d   1       3.931   1.284  -5.702  0.00  0.00     0.166 HD
ATOM     16  C   LIG d   1       4.659  -3.207  -6.122  0.00  0.00    -0.020 C 
ATOM     17  C   LIG d   1       5.706  -3.135  -7.234  0.00  0.00    -0.008 C 
ATOM     18  C   LIG d   1       5.039  -2.765  -8.547  0.00  0.00    -0.031 C 
ATOM     19  C   LIG d   1       3.159  -1.844  -9.650  0.00  0.00    -0.028 C 
ATOM     20  H   LIG d   1       3.108   0.756 -10.187  0.00  0.00     0.027 H 
ATOM     21  H   LIG d   1       1.613   1.180  -9.321  0.00  0.00     0.027 H 
ATOM     22  H   LIG d   1       2.511   0.576  -7.241  0.00  0.00     0.033 H 
ATOM     23  H   LIG d   1       3.783   1.497  -8.049  0.00  0.00     0.033 H 
ATOM     24  H   LIG d   1       4.802  -3.246  -3.012  0.00  0.00     0.062 H 
ATOM     25  H   LIG d   1       4.581  -2.040  -0.876  0.00  0.00     0.062 H 
ATOM     26  H   LIG d   1       4.088   0.338  -0.805  0.00  0.00     0.062 H 
ATOM     27  H   LIG d   1       3.821   1.669  -2.869  0.00  0.00     0.064 H 
ATOM     28  H   LIG d   1       5.012  -3.867  -5.328  0.00  0.00     0.032 H 
ATOM     29  H   LIG d   1       3.719  -3.589  -6.521  0.00  0.00     0.032 H 
ATOM     30  H   LIG d   1       6.184  -4.113  -7.338  0.00  0.00     0.032 H 
ATOM     31  H   LIG d   1       6.465  -2.399  -6.978  0.00  0.00     0.032 H 
ATOM     32  H   LIG d   1       4.649  -3.701  -8.986  0.00  0.00     0.082 H 
ATOM     33  H   LIG d   1       5.781  -2.391  -9.247  0.00  0.00     0.082 H 
ATOM     34  H   LIG d   1       3.798  -1.501 -10.462  0.00  0.00     0.082 H 
ATOM     35  H   LIG d   1       2.831  -2.863  -9.866  0.00  0.00     0.082 H 
ATOM     36  N   LIG d   1       3.865  -1.920  -8.357  0.00  0.00     0.244 N 
ATOM     37  H   LIG d   1       3.244  -2.379  -7.680  0.00  0.00     0.204 HD
ENDROOT
BRANCH   1  38
ATOM     38  C   LIG d   1       1.122  -1.022 -10.854  0.00  0.00    -0.048 C 
ATOM     39  H   LIG d   1       0.452  -1.880 -10.808  0.00  0.00     0.027 H 
ATOM     40  H   LIG d   1       0.539  -0.109 -10.976  0.00  0.00     0.027 H 
BRANCH  38  41
ATOM     41  C   LIG d   1       2.074  -1.182 -12.041  0.00  0.00    -0.065 C 
ATOM     42  H   LIG d   1       1.502  -1.165 -12.969  0.00  0.00     0.023 H 
ATOM     43  H   LIG d   1       2.794  -0.364 -12.042  0.00  0.00     0.023 H 
ATOM     44  H   LIG d   1       2.604  -2.131 -11.958  0.00  0.00     0.023 H 
ENDBRANCH  38  41
ENDBRANCH   1  38
BRANCH   5  45
ATOM     45  C   LIG d   1       5.577  -0.060  -8.262  0.00  0.00    -0.013 C 
ATOM     46  H   LIG d   1       6.254  -0.011  -7.409  0.00  0.00     0.029 H 
ATOM     47  H   LIG d   1       5.982  -0.743  -9.009  0.00  0.00     0.029 H 
ATOM     48  H   LIG d   1       5.470   0.934  -8.698  0.00  0.00     0.029 H 
ENDBRANCH   5  45
TORSDOF 3
ENDMDL
MODEL 2
REMARK VINA RESULT:      -6.7      3.407      5.235
REMARK  3 active torsions:
REMARK  status: ('A' for Active; 'I' for Inactive)
REMARK    1  A    between atoms: C_1  and  C_2 
REMARK    2  A    between atoms: C_2  and  C_3 
REMARK    3  A    between atoms: C_7  and  C_22 
ROOT
ATOM      1  C   LIG d   1       5.652  -6.908  -5.358  0.00  0.00    -0.001 C 
ATOM      2  H   LIG d   1       5.366  -6.727  -4.322  0.00  0.00     0.035 H 
ATOM      3  C   LIG d   1       4.569  -6.375  -6.300  0.00  0.00    -0.040 C 
ATOM      4  C   LIG d   1       4.354  -4.905  -6.038  0.00  0.00    -0.001 C 
ATOM      5  C   LIG d   1       5.608  -4.058  -5.897  0.00  0.00     0.028 C 
ATOM      6  C   LIG d   1       5.214  -2.927  -4.949  0.00  0.00     0.072 A 
ATOM      7  C   LIG d   1       5.999  -2.300  -4.063  0.00  0.00    -0.013 A 
ATOM      8  C   LIG d   1       5.183  -1.297  -3.399  0.00  0.00     0.003 A 
ATOM      9  C   LIG d   1       5.471  -0.346  -2.416  0.00  0.00    -0.052 A 
ATOM     10  C   LIG d   1       4.427   0.439  -1.990  0.00  0.00    -0.061 A 
ATOM     11  C   LIG d   1       3.149   0.306  -2.507  0.00  0.00    -0.060 A 
ATOM     12  C   LIG d   1       2.841  -0.617  -3.492  0.00  0.00    -0.038 A 
ATOM     13  C   LIG d   1       3.882  -1.426  -3.945  0.00  0.00     0.047 A 
ATOM     14  N   LIG d   1       3.940  -2.405  -4.892  0.00  0.00    -0.353 N 
ATOM     15  H   LIG d   1       3.195  -2.693  -5.441  0.00  0.00     0.166 HD
ATOM     16  C   LIG d   1       7.455  -2.585  -3.794  0.00  0.00    -0.020 C 
ATOM     17  C   LIG d   1       8.188  -2.668  -5.133  0.00  0.00    -0.008 C 
ATOM     18  C   LIG d   1       8.069  -4.071  -5.700  0.00  0.00    -0.031 C 
ATOM     19  C   LIG d   1       6.933  -6.148  -5.689  0.00  0.00    -0.028 C 
ATOM     20  H   LIG d   1       4.882  -6.520  -7.334  0.00  0.00     0.027 H 
ATOM     21  H   LIG d   1       3.637  -6.915  -6.125  0.00  0.00     0.027 H 
ATOM     22  H   LIG d   1       3.780  -4.801  -5.120  0.00  0.00     0.033 H 
ATOM     23  H   LIG d   1       3.770  -4.491  -6.859  0.00  0.00     0.033 H 
ATOM     24  H   LIG d   1       6.465  -0.235  -2.009  0.00  0.00     0.062 H 
ATOM     25  H   LIG d   1       4.609   1.184  -1.230  0.00  0.00     0.062 H 
ATOM     26  H   LIG d   1       2.364   0.943  -2.127  0.00  0.00     0.062 H 
ATOM     27  H   LIG d   1       1.840  -0.710  -3.887  0.00  0.00     0.064 H 
ATOM     28  H   LIG d   1       7.880  -1.780  -3.192  0.00  0.00     0.032 H 
ATOM     29  H   LIG d   1       7.554  -3.530  -3.258  0.00  0.00     0.032 H 
ATOM     30  H   LIG d   1       9.245  -2.434  -4.977  0.00  0.00     0.032 H 
ATOM     31  H   LIG d   1       7.768  -1.945  -5.828  0.00  0.00     0.032 H 
ATOM     32  H   LIG d   1       8.867  -4.677  -5.236  0.00  0.00     0.082 H 
ATOM     33  H   LIG d   1       8.282  -4.060  -6.765  0.00  0.00     0.082 H 
ATOM     34  H   LIG d   1       7.172  -6.288  -6.742  0.00  0.00     0.082 H 
ATOM     35  H   LIG d   1       7.750  -6.551  -5.085  0.00  0.00     0.082 H 
ATOM     36  N   LIG d   1       6.825  -4.726  -5.311  0.00  0.00     0.244 N 
ATOM     37  H   LIG d   1       6.739  -4.672  -4.289  0.00  0.00     0.204 HD
ENDROOT
BRANCH   1  38
ATOM     38  C   LIG d   1       5.856  -8.407  -5.591  0.00  0.00    -0.048 C 
ATOM     39  H   LIG d   1       5.833  -8.615  -6.660  0.00  0.00     0.027 H 
ATOM     40  H   LIG d   1       6.820  -8.709  -5.181  0.00  0.00     0.027 H 
BRANCH  38  41
ATOM     41  C   LIG d   1       4.739  -9.188  -4.896  0.00  0.00    -0.065 C 
ATOM     42  H   LIG d   1       5.052 -10.223  -4.757  0.00  0.00     0.023 H 
ATOM     43  H   LIG d   1       4.530  -8.737  -3.926  0.00  0.00     0.023 H 
ATOM     44  H   LIG d   1       3.839  -9.159  -5.510  0.00  0.00     0.023 H 
ENDBRANCH  38  41
ENDBRANCH   1  38
BRANCH   5  45
ATOM     45  C   LIG d   1       5.872  -3.441  -7.271  0.00  0.00    -0.013 C 
ATOM     46  H   LIG d   1       6.008  -2.364  -7.165  0.00  0.00     0.029 H 
ATOM     47  H   LIG d   1       6.773  -3.880  -7.699  0.00  0.00     0.029 H 
ATOM     48  H   LIG d   1       5.024  -3.637  -7.926  0.00  0.00     0.029 H 
ENDBRANCH   5  45
TORSDOF 3
ENDMDL
MODEL 3
REMARK VINA RESULT:      -6.2      4.757      7.173
REMARK  3 active torsions:
REMARK  status: ('A' for Active; 'I' for Inactive)
REMARK    1  A    between atoms: C_1  and  C_2 
REMARK    2  A    between atoms: C_2  and  C_3 
REMARK    3  A    between atoms: C_7  and  C_22 
ROOT
ATOM      1  C   LIG d   1      11.792  -1.383  -4.383  0.00  0.00    -0.001 C 
ATOM      2  H   LIG d   1      11.463  -1.333  -3.346  0.00  0.00     0.035 H 
ATOM      3  C   LIG d   1      11.023  -2.481  -5.123  0.00  0.00    -0.040 C 
ATOM      4  C   LIG d   1       9.542  -2.208  -5.028  0.00  0.00    -0.001 C 
ATOM      5  C   LIG d   1       9.105  -0.776  -5.293  0.00  0.00     0.028 C 
ATOM      6  C   LIG d   1       7.846  -0.587  -4.449  0.00  0.00     0.072 A 
ATOM      7  C   LIG d   1       7.427   0.541  -3.860  0.00  0.00    -0.013 A 
ATOM      8  C   LIG d   1       6.181   0.231  -3.176  0.00  0.00     0.003 A 
ATOM      9  C   LIG d   1       5.297   1.012  -2.427  0.00  0.00    -0.052 A 
ATOM     10  C   LIG d   1       4.206   0.370  -1.892  0.00  0.00    -0.061 A 
ATOM     11  C   LIG d   1       3.983  -0.984  -2.084  0.00  0.00    -0.060 A 
ATOM     12  C   LIG d   1       4.835  -1.775  -2.835  0.00  0.00    -0.038 A 
ATOM     13  C   LIG d   1       5.948  -1.150  -3.393  0.00  0.00     0.047 A 
ATOM     14  N   LIG d   1       6.961  -1.608  -4.181  0.00  0.00    -0.353 N 
ATOM     15  H   LIG d   1       7.048  -2.519  -4.502  0.00  0.00     0.166 HD
ATOM     16  C   LIG d   1       8.119   1.880  -3.887  0.00  0.00    -0.020 C 
ATOM     17  C   LIG d   1       8.509   2.193  -5.332  0.00  0.00    -0.008 C 
ATOM     18  C   LIG d   1       9.847   1.550  -5.655  0.00  0.00    -0.031 C 
ATOM     19  C   LIG d   1      11.478  -0.071  -5.097  0.00  0.00    -0.028 C 
ATOM     20  H   LIG d   1      11.325  -2.496  -6.170  0.00  0.00     0.027 H 
ATOM     21  H   LIG d   1      11.243  -3.448  -4.669  0.00  0.00     0.027 H 
ATOM     22  H   LIG d   1       9.207  -2.476  -4.029  0.00  0.00     0.033 H 
ATOM     23  H   LIG d   1       9.028  -2.845  -5.747  0.00  0.00     0.033 H 
ATOM     24  H   LIG d   1       5.463   2.067  -2.274  0.00  0.00     0.062 H 
ATOM     25  H   LIG d   1       3.501   0.938  -1.304  0.00  0.00     0.062 H 
ATOM     26  H   LIG d   1       3.114  -1.438  -1.631  0.00  0.00     0.062 H 
ATOM     27  H   LIG d   1       4.647  -2.829  -2.978  0.00  0.00     0.064 H 
ATOM     28  H   LIG d   1       7.440   2.650  -3.516  0.00  0.00     0.032 H 
ATOM     29  H   LIG d   1       9.010   1.848  -3.260  0.00  0.00     0.032 H 
ATOM     30  H   LIG d   1       8.595   3.277  -5.452  0.00  0.00     0.032 H 
ATOM     31  H   LIG d   1       7.743   1.825  -6.009  0.00  0.00     0.032 H 
ATOM     32  H   LIG d   1      10.632   2.242  -5.302  0.00  0.00     0.082 H 
ATOM     33  H   LIG d   1       9.973   1.478  -6.732  0.00  0.00     0.082 H 
ATOM     34  H   LIG d   1      11.755  -0.159  -6.147  0.00  0.00     0.082 H 
ATOM     35  H   LIG d   1      12.066   0.729  -4.643  0.00  0.00     0.082 H 
ATOM     36  N   LIG d   1      10.068   0.317  -4.908  0.00  0.00     0.244 N 
ATOM     37  H   LIG d   1       9.921   0.514  -3.911  0.00  0.00     0.204 HD
ENDROOT
BRANCH   1  38
ATOM     38  C   LIG d   1      13.295  -1.666  -4.443  0.00  0.00    -0.048 C 
ATOM     39  H   LIG d   1      13.613  -1.717  -5.484  0.00  0.00     0.027 H 
ATOM     40  H   LIG d   1      13.835  -0.867  -3.935  0.00  0.00     0.027 H 
BRANCH  38  41
ATOM     41  C   LIG d   1      13.590  -3.000  -3.755  0.00  0.00    -0.065 C 
ATOM     42  H   LIG d   1      14.467  -2.892  -3.116  0.00  0.00     0.023 H 
ATOM     43  H   LIG d   1      12.733  -3.294  -3.150  0.00  0.00     0.023 H 
ATOM     44  H   LIG d   1      13.782  -3.764  -4.508  0.00  0.00     0.023 H 
ENDBRANCH  38  41
ENDBRANCH   1  38
BRANCH   5  45
ATOM     45  C   LIG d   1       8.691  -0.714  -6.764  0.00  0.00    -0.013 C 
ATOM     46  H   LIG d   1       8.389   0.304  -7.012  0.00  0.00     0.029 H 
ATOM     47  H   LIG d   1       9.534  -1.005  -7.391  0.00  0.00     0.029 H 
ATOM     48  H   LIG d   1       7.857  -1.393  -6.936  0.00  0.00     0.029 H 
ENDBRANCH   5  45
TORSDOF 3
ENDMDL
MODEL 4
REMARK VINA RESULT:      -6.2      3.865      6.093
REMARK  3 active torsions:
REMARK  status: ('A' for Active; 'I' for Inactive)
REMARK    1  A    between atoms: C_1  and  C_2 
REMARK    2  A    between atoms: C_2  and  C_3 
REMARK    3  A    between atoms: C_7  and  C_22 
ROOT
ATOM      1  C   LIG d   1       4.362  -0.844  -3.077  0.00  0.00    -0.001 C 
ATOM      2  H   LIG d   1       4.442  -1.715  -2.428  0.00  0.00     0.035 H 
ATOM      3  C   LIG d   1       5.624   0.016  -2.956  0.00  0.00    -0.040 C 
ATOM      4  C   LIG d   1       6.834  -0.818  -3.299  0.00  0.00    -0.001 C 
ATOM      5  C   LIG d   1       6.722  -1.687  -4.541  0.00  0.00     0.028 C 
ATOM      6  C   LIG d   1       7.621  -2.889  -4.263  0.00  0.00     0.072 A 
ATOM      7  C   LIG d   1       7.448  -4.147  -4.689  0.00  0.00    -0.013 A 
ATOM      8  C   LIG d   1       8.561  -4.931  -4.177  0.00  0.00     0.003 A 
ATOM      9  C   LIG d   1       8.912  -6.276  -4.319  0.00  0.00    -0.052 A 
ATOM     10  C   LIG d   1      10.042  -6.693  -3.660  0.00  0.00    -0.061 A 
ATOM     11  C   LIG d   1      10.807  -5.830  -2.893  0.00  0.00    -0.060 A 
ATOM     12  C   LIG d   1      10.490  -4.489  -2.750  0.00  0.00    -0.038 A 
ATOM     13  C   LIG d   1       9.350  -4.037  -3.410  0.00  0.00     0.047 A 
ATOM     14  N   LIG d   1       8.765  -2.809  -3.499  0.00  0.00    -0.353 N 
ATOM     15  H   LIG d   1       9.103  -2.001  -3.084  0.00  0.00     0.166 HD
ATOM     16  C   LIG d   1       6.309  -4.662  -5.531  0.00  0.00    -0.020 C 
ATOM     17  C   LIG d   1       6.109  -3.710  -6.710  0.00  0.00    -0.008 C 
ATOM     18  C   LIG d   1       5.216  -2.555  -6.294  0.00  0.00    -0.031 C 
ATOM     19  C   LIG d   1       4.270  -1.284  -4.536  0.00  0.00    -0.028 C 
ATOM     20  H   LIG d   1       5.556   0.861  -3.641  0.00  0.00     0.027 H 
ATOM     21  H   LIG d   1       5.716   0.385  -1.934  0.00  0.00     0.027 H 
ATOM     22  H   LIG d   1       7.050  -1.471  -2.457  0.00  0.00     0.033 H 
ATOM     23  H   LIG d   1       7.682  -0.149  -3.443  0.00  0.00     0.033 H 
ATOM     24  H   LIG d   1       8.321  -6.956  -4.915  0.00  0.00     0.062 H 
ATOM     25  H   LIG d   1      10.345  -7.727  -3.743  0.00  0.00     0.062 H 
ATOM     26  H   LIG d   1      11.681  -6.215  -2.388  0.00  0.00     0.062 H 
ATOM     27  H   LIG d   1      11.097  -3.827  -2.150  0.00  0.00     0.064 H 
ATOM     28  H   LIG d   1       6.550  -5.660  -5.901  0.00  0.00     0.032 H 
ATOM     29  H   LIG d   1       5.398  -4.707  -4.932  0.00  0.00     0.032 H 
ATOM     30  H   LIG d   1       5.633  -4.253  -7.531  0.00  0.00     0.032 H 
ATOM     31  H   LIG d   1       7.073  -3.336  -7.049  0.00  0.00     0.032 H 
ATOM     32  H   LIG d   1       4.171  -2.897  -6.406  0.00  0.00     0.082 H 
ATOM     33  H   LIG d   1       5.336  -1.726  -6.987  0.00  0.00     0.082 H 
ATOM     34  H   LIG d   1       4.255  -0.403  -5.176  0.00  0.00     0.082 H 
ATOM     35  H   LIG d   1       3.342  -1.841  -4.680  0.00  0.00     0.082 H 
ATOM     36  N   LIG d   1       5.355  -2.223  -4.881  0.00  0.00     0.244 N 
ATOM     37  H   LIG d   1       5.220  -3.082  -4.334  0.00  0.00     0.204 HD
ENDROOT
BRANCH   1  38
ATOM     38  C   LIG d   1       3.130  -0.019  -2.700  0.00  0.00    -0.048 C 
ATOM     39  H   LIG d   1       2.422  -0.024  -3.528  0.00  0.00     0.027 H 
ATOM     40  H   LIG d   1       2.660  -0.452  -1.817  0.00  0.00     0.027 H 
BRANCH  38  41
ATOM     41  C   LIG d   1       3.552   1.421  -2.399  0.00  0.00    -0.065 C 
ATOM     42  H   LIG d   1       3.447   2.024  -3.300  0.00  0.00     0.023 H 
ATOM     43  H   LIG d   1       2.919   1.828  -1.611  0.00  0.00     0.023 H 
ATOM     44  H   LIG d   1       4.591   1.434  -2.072  0.00  0.00     0.023 H 
ENDBRANCH  38  41
ENDBRANCH   1  38
BRANCH   5  45
ATOM     45  C   LIG d   1       7.350  -0.891  -5.686  0.00  0.00    -0.013 C 
ATOM     46  H   LIG d   1       7.560  -1.561  -6.520  0.00  0.00     0.029 H 
ATOM     47  H   LIG d   1       6.658  -0.113  -6.010  0.00  0.00     0.029 H 
ATOM     48  H   LIG d   1       8.278  -0.434  -5.344  0.00  0.00     0.029 H 
ENDBRANCH   5  45
TORSDOF 3
ENDMDL
MODEL 5
REMARK VINA RESULT:      -6.0      4.434      6.714
REMARK  3 active torsions:
REMARK  status: ('A' for Active; 'I' for Inactive)
REMARK    1  A    between atoms: C_1  and  C_2 
REMARK    2  A    between atoms: C_2  and  C_3 
REMARK    3  A    between atoms: C_7  and  C_22 
ROOT
ATOM      1  C   LIG d   1      10.368  -3.763  -3.585  0.00  0.00    -0.001 C 
ATOM      2  H   LIG d   1      10.056  -3.373  -2.618  0.00  0.00     0.035 H 
ATOM      3  C   LIG d   1       9.256  -4.631  -4.183  0.00  0.00    -0.040 C 
ATOM      4  C   LIG d   1       7.991  -3.816  -4.300  0.00  0.00    -0.001 C 
ATOM      5  C   LIG d   1       8.144  -2.418  -4.875  0.00  0.00     0.028 C 
ATOM      6  C   LIG d   1       7.032  -1.600  -4.221  0.00  0.00     0.072 A 
ATOM      7  C   LIG d   1       7.062  -0.299  -3.904  0.00  0.00    -0.013 A 
ATOM      8  C   LIG d   1       5.775   0.028  -3.311  0.00  0.00     0.003 A 
ATOM      9  C   LIG d   1       5.238   1.222  -2.822  0.00  0.00    -0.052 A 
ATOM     10  C   LIG d   1       3.971   1.159  -2.295  0.00  0.00    -0.061 A 
ATOM     11  C   LIG d   1       3.250  -0.023  -2.250  0.00  0.00    -0.060 A 
ATOM     12  C   LIG d   1       3.753  -1.215  -2.743  0.00  0.00    -0.038 A 
ATOM     13  C   LIG d   1       5.036  -1.181  -3.286  0.00  0.00     0.047 A 
ATOM     14  N   LIG d   1       5.816  -2.139  -3.861  0.00  0.00    -0.353 N 
ATOM     15  H   LIG d   1       5.556  -3.063  -3.994  0.00  0.00     0.166 HD
ATOM     16  C   LIG d   1       8.215   0.650  -4.110  0.00  0.00    -0.020 C 
ATOM     17  C   LIG d   1       8.734   0.478  -5.537  0.00  0.00    -0.008 C 
ATOM     18  C   LIG d   1       9.731  -0.667  -5.589  0.00  0.00    -0.031 C 
ATOM     19  C   LIG d   1      10.600  -2.615  -4.564  0.00  0.00    -0.028 C 
ATOM     20  H   LIG d   1       9.558  -4.982  -5.169  0.00  0.00     0.027 H 
ATOM     21  H   LIG d   1       9.076  -5.489  -3.533  0.00  0.00     0.027 H 
ATOM     22  H   LIG d   1       7.553  -3.720  -3.309  0.00  0.00     0.033 H 
ATOM     23  H   LIG d   1       7.292  -4.357  -4.935  0.00  0.00     0.033 H 
ATOM     24  H   LIG d   1       5.792   2.148  -2.853  0.00  0.00     0.062 H 
ATOM     25  H   LIG d   1       3.522   2.061  -1.904  0.00  0.00     0.062 H 
ATOM     26  H   LIG d   1       2.262  -0.015  -1.815  0.00  0.00     0.062 H 
ATOM     27  H   LIG d   1       3.180  -2.129  -2.704  0.00  0.00     0.064 H 
ATOM     28  H   LIG d   1       7.874   1.676  -3.965  0.00  0.00     0.032 H 
ATOM     29  H   LIG d   1       9.009   0.427  -3.397  0.00  0.00     0.032 H 
ATOM     30  H   LIG d   1       9.232   1.400  -5.850  0.00  0.00     0.032 H 
ATOM     31  H   LIG d   1       7.903   0.282  -6.211  0.00  0.00     0.032 H 
ATOM     32  H   LIG d   1      10.712  -0.255  -5.291  0.00  0.00     0.082 H 
ATOM     33  H   LIG d   1       9.848  -1.010  -6.613  0.00  0.00     0.082 H 
ATOM     34  H   LIG d   1      10.851  -3.023  -5.542  0.00  0.00     0.082 H 
ATOM     35  H   LIG d   1      11.438  -2.011  -4.208  0.00  0.00     0.082 H 
ATOM     36  N   LIG d   1       9.442  -1.702  -4.603  0.00  0.00     0.244 N 
ATOM     37  H   LIG d   1       9.355  -1.255  -3.682  0.00  0.00     0.204 HD
ENDROOT
BRANCH   1  38
ATOM     38  C   LIG d   1      11.648  -4.587  -3.430  0.00  0.00    -0.048 C 
ATOM     39  H   LIG d   1      12.512  -3.922  -3.445  0.00  0.00     0.027 H 
ATOM     40  H   LIG d   1      11.620  -5.127  -2.483  0.00  0.00     0.027 H 
BRANCH  38  41
ATOM     41  C   LIG d   1      11.754  -5.586  -4.584  0.00  0.00    -0.065 C 
ATOM     42  H   LIG d   1      11.788  -6.599  -4.184  0.00  0.00     0.023 H 
ATOM     43  H   LIG d   1      10.887  -5.481  -5.236  0.00  0.00     0.023 H 
ATOM     44  H   LIG d   1      12.662  -5.389  -5.154  0.00  0.00     0.023 H 
ENDBRANCH  38  41
ENDBRANCH   1  38
BRANCH   5  45
ATOM     45  C   LIG d   1       7.826  -2.525  -6.367  0.00  0.00    -0.013 C 
ATOM     46  H   LIG d   1       8.142  -1.613  -6.872  0.00  0.00     0.029 H 
ATOM     47  H   LIG d   1       8.356  -3.378  -6.791  0.00  0.00     0.029 H 
ATOM     48  H   LIG d   1       6.752  -2.661  -6.501  0.00  0.00     0.029 H 
ENDBRANCH   5  45
TORSDOF 3
ENDMDL
MODEL 6
REMARK VINA RESULT:      -5.8      4.599      5.071
REMARK  3 active torsions:
REMARK  status: ('A' for Active; 'I' for Inactive)
REMARK    1  A    between atoms: C_1  and  C_2 
REMARK    2  A    between atoms: C_2  and  C_3 
REMARK    3  A    between atoms: C_7  and  C_22 
ROOT
ATOM      1  C   LIG d   1       8.671   1.312  -8.454  0.00  0.00    -0.001 C 
ATOM      2  H   LIG d   1       7.618   1.036  -8.454  0.00  0.00     0.035 H 
ATOM      3  C   LIG d   1       8.898   2.510  -7.527  0.00  0.00    -0.040 C 
ATOM      4  C   LIG d   1       8.418   2.169  -6.138  0.00  0.00    -0.001 C 
ATOM      5  C   LIG d   1       8.829   0.808  -5.601  0.00  0.00     0.028 C 
ATOM      6  C   LIG d   1       7.702   0.402  -4.653  0.00  0.00     0.072 A 
ATOM      7  C   LIG d   1       7.262  -0.837  -4.401  0.00  0.00    -0.013 A 
ATOM      8  C   LIG d   1       6.184  -0.722  -3.431  0.00  0.00     0.003 A 
ATOM      9  C   LIG d   1       5.382  -1.673  -2.794  0.00  0.00    -0.052 A 
ATOM     10  C   LIG d   1       4.421  -1.195  -1.937  0.00  0.00    -0.061 A 
ATOM     11  C   LIG d   1       4.250   0.160  -1.704  0.00  0.00    -0.060 A 
ATOM     12  C   LIG d   1       5.042   1.120  -2.310  0.00  0.00    -0.038 A 
ATOM     13  C   LIG d   1       6.028   0.665  -3.183  0.00  0.00     0.047 A 
ATOM     14  N   LIG d   1       6.973   1.313  -3.921  0.00  0.00    -0.353 N 
ATOM     15  H   LIG d   1       7.109   2.273  -3.932  0.00  0.00     0.166 HD
ATOM     16  C   LIG d   1       7.775  -2.116  -5.013  0.00  0.00    -0.020 C 
ATOM     17  C   LIG d   1       9.302  -2.110  -4.938  0.00  0.00    -0.008 C 
ATOM     18  C   LIG d   1       9.874  -1.365  -6.131  0.00  0.00    -0.031 C 
ATOM     19  C   LIG d   1       9.513   0.165  -7.901  0.00  0.00    -0.028 C 
ATOM     20  H   LIG d   1       9.960   2.752  -7.498  0.00  0.00     0.027 H 
ATOM     21  H   LIG d   1       8.342   3.370  -7.902  0.00  0.00     0.027 H 
ATOM     22  H   LIG d   1       7.332   2.212  -6.130  0.00  0.00     0.033 H 
ATOM     23  H   LIG d   1       8.798   2.921  -5.449  0.00  0.00     0.033 H 
ATOM     24  H   LIG d   1       5.509  -2.730  -2.970  0.00  0.00     0.062 H 
ATOM     25  H   LIG d   1       3.779  -1.899  -1.427  0.00  0.00     0.062 H 
ATOM     26  H   LIG d   1       3.471   0.478  -1.027  0.00  0.00     0.062 H 
ATOM     27  H   LIG d   1       4.900   2.173  -2.117  0.00  0.00     0.064 H 
ATOM     28  H   LIG d   1       7.385  -2.970  -4.459  0.00  0.00     0.032 H 
ATOM     29  H   LIG d   1       7.456  -2.181  -6.054  0.00  0.00     0.032 H 
ATOM     30  H   LIG d   1       9.665  -3.141  -4.952  0.00  0.00     0.032 H 
ATOM     31  H   LIG d   1       9.624  -1.637  -4.012  0.00  0.00     0.032 H 
ATOM     32  H   LIG d   1       9.928  -2.086  -6.967  0.00  0.00     0.082 H 
ATOM     33  H   LIG d   1      10.899  -1.068  -5.926  0.00  0.00     0.082 H 
ATOM     34  H   LIG d   1      10.555   0.478  -7.848  0.00  0.00     0.082 H 
ATOM     35  H   LIG d   1       9.434  -0.689  -8.576  0.00  0.00     0.082 H 
ATOM     36  N   LIG d   1       8.990  -0.305  -6.604  0.00  0.00     0.244 N 
ATOM     37  H   LIG d   1       8.059  -0.709  -6.761  0.00  0.00     0.204 HD
ENDROOT
BRANCH   1  38
ATOM     38  C   LIG d   1       9.123   1.657  -9.874  0.00  0.00    -0.048 C 
ATOM     39  H   LIG d   1       9.896   0.956 -10.189  0.00  0.00     0.027 H 
ATOM     40  H   LIG d   1       8.273   1.590 -10.552  0.00  0.00     0.027 H 
BRANCH  38  41
ATOM     41  C   LIG d   1       9.685   3.080  -9.899  0.00  0.00    -0.065 C 
ATOM     42  H   LIG d   1      10.726   3.053 -10.219  0.00  0.00     0.023 H 
ATOM     43  H   LIG d   1       9.106   3.686 -10.595  0.00  0.00     0.023 H 
ATOM     44  H   LIG d   1       9.622   3.513  -8.901  0.00  0.00     0.023 H 
ENDBRANCH  38  41
ENDBRANCH   1  38
BRANCH   5  45
ATOM     45  C   LIG d   1      10.085   1.035  -4.758  0.00  0.00    -0.013 C 
ATOM     46  H   LIG d   1      10.091   2.059  -4.385  0.00  0.00     0.029 H 
ATOM     47  H   LIG d   1      10.089   0.342  -3.917  0.00  0.00     0.029 H 
ATOM     48  H   LIG d   1      10.970   0.867  -5.372  0.00  0.00     0.029 H 
ENDBRANCH   5  45
TORSDOF 3
ENDMDL
MODEL 7
REMARK VINA RESULT:      -5.8      2.030      2.771
REMARK  3 active torsions:
REMARK  status: ('A' for Active; 'I' for Inactive)
REMARK    1  A    between atoms: C_1  and  C_2 
REMARK    2  A    between atoms: C_2  and  C_3 
REMARK    3  A    between atoms: C_7  and  C_22 
ROOT
ATOM      1  C   LIG d   1       3.543  -4.904  -8.463  0.00  0.00    -0.001 C 
ATOM      2  H   LIG d   1       2.960  -4.998  -7.548  0.00  0.00     0.035 H 
ATOM      3  C   LIG d   1       3.295  -3.535  -9.103  0.00  0.00    -0.040 C 
ATOM      4  C   LIG d   1       3.641  -2.448  -8.115  0.00  0.00    -0.001 C 
ATOM      5  C   LIG d   1       4.949  -2.617  -7.361  0.00  0.00     0.028 C 
ATOM      6  C   LIG d   1       4.721  -1.930  -6.017  0.00  0.00     0.072 A 
ATOM      7  C   LIG d   1       5.250  -2.268  -4.833  0.00  0.00    -0.013 A 
ATOM      8  C   LIG d   1       4.745  -1.321  -3.852  0.00  0.00     0.003 A 
ATOM      9  C   LIG d   1       4.973  -1.172  -2.480  0.00  0.00    -0.052 A 
ATOM     10  C   LIG d   1       4.293  -0.161  -1.847  0.00  0.00    -0.061 A 
ATOM     11  C   LIG d   1       3.426   0.680  -2.526  0.00  0.00    -0.060 A 
ATOM     12  C   LIG d   1       3.196   0.563  -3.886  0.00  0.00    -0.038 A 
ATOM     13  C   LIG d   1       3.875  -0.453  -4.556  0.00  0.00     0.047 A 
ATOM     14  N   LIG d   1       3.898  -0.836  -5.864  0.00  0.00    -0.353 N 
ATOM     15  H   LIG d   1       3.406  -0.404  -6.579  0.00  0.00     0.166 HD
ATOM     16  C   LIG d   1       6.184  -3.420  -4.562  0.00  0.00    -0.020 C 
ATOM     17  C   LIG d   1       7.295  -3.399  -5.612  0.00  0.00    -0.008 C 
ATOM     18  C   LIG d   1       6.836  -4.129  -6.862  0.00  0.00    -0.031 C 
ATOM     19  C   LIG d   1       5.034  -4.973  -8.143  0.00  0.00    -0.028 C 
ATOM     20  H   LIG d   1       3.915  -3.431  -9.993  0.00  0.00     0.027 H 
ATOM     21  H   LIG d   1       2.244  -3.450  -9.383  0.00  0.00     0.027 H 
ATOM     22  H   LIG d   1       2.842  -2.386  -7.380  0.00  0.00     0.033 H 
ATOM     23  H   LIG d   1       3.691  -1.501  -8.650  0.00  0.00     0.033 H 
ATOM     24  H   LIG d   1       5.648  -1.823  -1.945  0.00  0.00     0.062 H 
ATOM     25  H   LIG d   1       4.440  -0.015  -0.787  0.00  0.00     0.062 H 
ATOM     26  H   LIG d   1       2.910   1.452  -1.974  0.00  0.00     0.062 H 
ATOM     27  H   LIG d   1       2.518   1.227  -4.403  0.00  0.00     0.064 H 
ATOM     28  H   LIG d   1       6.618  -3.312  -3.567  0.00  0.00     0.032 H 
ATOM     29  H   LIG d   1       5.636  -4.361  -4.620  0.00  0.00     0.032 H 
ATOM     30  H   LIG d   1       8.178  -3.903  -5.208  0.00  0.00     0.032 H 
ATOM     31  H   LIG d   1       7.556  -2.371  -5.852  0.00  0.00     0.032 H 
ATOM     32  H   LIG d   1       7.025  -5.205  -6.697  0.00  0.00     0.082 H 
ATOM     33  H   LIG d   1       7.457  -3.842  -7.707  0.00  0.00     0.082 H 
ATOM     34  H   LIG d   1       5.605  -4.816  -9.057  0.00  0.00     0.082 H 
ATOM     35  H   LIG d   1       5.265  -5.965  -7.749  0.00  0.00     0.082 H 
ATOM     36  N   LIG d   1       5.396  -4.027  -7.071  0.00  0.00     0.244 N 
ATOM     37  H   LIG d   1       4.924  -4.324  -6.209  0.00  0.00     0.204 HD
ENDROOT
BRANCH   1  38
ATOM     38  C   LIG d   1       3.164  -6.016  -9.443  0.00  0.00    -0.048 C 
ATOM     39  H   LIG d   1       4.024  -6.256 -10.069  0.00  0.00     0.027 H 
ATOM     40  H   LIG d   1       2.860  -6.902  -8.886  0.00  0.00     0.027 H 
BRANCH  38  41
ATOM     41  C   LIG d   1       2.007  -5.545 -10.326  0.00  0.00    -0.065 C 
ATOM     42  H   LIG d   1       1.155  -6.212 -10.193  0.00  0.00     0.023 H 
ATOM     43  H   LIG d   1       1.724  -4.531 -10.044  0.00  0.00     0.023 H 
ATOM     44  H   LIG d   1       2.318  -5.557 -11.370  0.00  0.00     0.023 H 
ENDBRANCH  38  41
ENDBRANCH   1  38
BRANCH   5  45
ATOM     45  C   LIG d   1       5.998  -1.807  -8.124  0.00  0.00    -0.013 C 
ATOM     46  H   LIG d   1       5.991  -0.777  -7.767  0.00  0.00     0.029 H 
ATOM     47  H   LIG d   1       6.984  -2.241  -7.960  0.00  0.00     0.029 H 
ATOM     48  H   LIG d   1       5.766  -1.823  -9.189  0.00  0.00     0.029 H 
ENDBRANCH   5  45
TORSDOF 3
ENDMDL
MODEL 8
REMARK VINA RESULT:      -5.8      1.688      6.293
REMARK  3 active torsions:
REMARK  status: ('A' for Active; 'I' for Inactive)
REMARK    1  A    between atoms: C_1  and  C_2 
REMARK    2  A    between atoms: C_2  and  C_3 
REMARK    3  A    between atoms: C_7  and  C_22 
ROOT
ATOM      1  C   LIG d   1       3.122  -0.924  -4.157  0.00  0.00    -0.001 C 
ATOM      2  H   LIG d   1       2.378  -1.674  -4.422  0.00  0.00     0.035 H 
ATOM      3  C   LIG d   1       4.530  -1.511  -4.296  0.00  0.00    -0.040 C 
ATOM      4  C   LIG d   1       4.729  -2.009  -5.707  0.00  0.00    -0.001 C 
ATOM      5  C   LIG d   1       4.268  -1.082  -6.818  0.00  0.00     0.028 C 
ATOM      6  C   LIG d   1       3.865  -2.009  -7.962  0.00  0.00     0.072 A 
ATOM      7  C   LIG d   1       2.900  -1.806  -8.870  0.00  0.00    -0.013 A 
ATOM      8  C   LIG d   1       2.895  -2.958  -9.757  0.00  0.00     0.003 A 
ATOM      9  C   LIG d   1       2.131  -3.278 -10.883  0.00  0.00    -0.052 A 
ATOM     10  C   LIG d   1       2.382  -4.492 -11.475  0.00  0.00    -0.061 A 
ATOM     11  C   LIG d   1       3.347  -5.361 -10.991  0.00  0.00    -0.060 A 
ATOM     12  C   LIG d   1       4.127  -5.060  -9.888  0.00  0.00    -0.038 A 
ATOM     13  C   LIG d   1       3.897  -3.833  -9.268  0.00  0.00     0.047 A 
ATOM     14  N   LIG d   1       4.476  -3.221  -8.197  0.00  0.00    -0.353 N 
ATOM     15  H   LIG d   1       5.207  -3.587  -7.675  0.00  0.00     0.166 HD
ATOM     16  C   LIG d   1       1.981  -0.614  -8.952  0.00  0.00    -0.020 C 
ATOM     17  C   LIG d   1       2.823   0.657  -8.835  0.00  0.00    -0.008 C 
ATOM     18  C   LIG d   1       3.048   0.993  -7.371  0.00  0.00    -0.031 C 
ATOM     19  C   LIG d   1       3.043   0.257  -5.121  0.00  0.00    -0.028 C 
ATOM     20  H   LIG d   1       5.268  -0.742  -4.072  0.00  0.00     0.027 H 
ATOM     21  H   LIG d   1       4.648  -2.341  -3.598  0.00  0.00     0.027 H 
ATOM     22  H   LIG d   1       4.193  -2.949  -5.817  0.00  0.00     0.033 H 
ATOM     23  H   LIG d   1       5.791  -2.198  -5.857  0.00  0.00     0.033 H 
ATOM     24  H   LIG d   1       1.378  -2.606 -11.266  0.00  0.00     0.062 H 
ATOM     25  H   LIG d   1       1.811  -4.778 -12.346  0.00  0.00     0.062 H 
ATOM     26  H   LIG d   1       3.494  -6.307 -11.491  0.00  0.00     0.062 H 
ATOM     27  H   LIG d   1       4.877  -5.746  -9.522  0.00  0.00     0.064 H 
ATOM     28  H   LIG d   1       1.459  -0.620  -9.910  0.00  0.00     0.032 H 
ATOM     29  H   LIG d   1       1.253  -0.652  -8.141  0.00  0.00     0.032 H 
ATOM     30  H   LIG d   1       2.292   1.484  -9.314  0.00  0.00     0.032 H 
ATOM     31  H   LIG d   1       3.777   0.514  -9.338  0.00  0.00     0.032 H 
ATOM     32  H   LIG d   1       2.163   1.559  -7.029  0.00  0.00     0.082 H 
ATOM     33  H   LIG d   1       3.893   1.668  -7.272  0.00  0.00     0.082 H 
ATOM     34  H   LIG d   1       3.832   0.968  -4.883  0.00  0.00     0.082 H 
ATOM     35  H   LIG d   1       2.075   0.748  -5.000  0.00  0.00     0.082 H 
ATOM     36  N   LIG d   1       3.085  -0.196  -6.525  0.00  0.00     0.244 N 
ATOM     37  H   LIG d   1       2.238  -0.747  -6.709  0.00  0.00     0.204 HD
ENDROOT
BRANCH   1  38
ATOM     38  C   LIG d   1       2.894  -0.445  -2.722  0.00  0.00    -0.048 C 
ATOM     39  H   LIG d   1       1.824  -0.376  -2.528  0.00  0.00     0.027 H 
ATOM     40  H   LIG d   1       3.346  -1.153  -2.027  0.00  0.00     0.027 H 
BRANCH  38  41
ATOM     41  C   LIG d   1       3.536   0.932  -2.537  0.00  0.00    -0.065 C 
ATOM     42  H   LIG d   1       3.541   1.460  -3.490  0.00  0.00     0.023 H 
ATOM     43  H   LIG d   1       2.964   1.504  -1.806  0.00  0.00     0.023 H 
ATOM     44  H   LIG d   1       4.559   0.811  -2.182  0.00  0.00     0.023 H 
ENDBRANCH  38  41
ENDBRANCH   1  38
BRANCH   5  45
ATOM     45  C   LIG d   1       5.501  -0.297  -7.268  0.00  0.00    -0.013 C 
ATOM     46  H   LIG d   1       6.397  -0.885  -7.070  0.00  0.00     0.029 H 
ATOM     47  H   LIG d   1       5.431  -0.091  -8.336  0.00  0.00     0.029 H 
ATOM     48  H   LIG d   1       5.554   0.643  -6.719  0.00  0.00     0.029 H 
ENDBRANCH   5  45
TORSDOF 3
ENDMDL
MODEL 9
REMARK VINA RESULT:      -5.7      1.859      3.503
REMARK  3 active torsions:
REMARK  status: ('A' for Active; 'I' for Inactive)
REMARK    1  A    between atoms: C_1  and  C_2 
REMARK    2  A    between atoms: C_2  and  C_3 
REMARK    3  A    between atoms: C_7  and  C_22 
ROOT
ATOM      1  C   LIG d   1       6.904  -1.231  -9.866  0.00  0.00    -0.001 C 
ATOM      2  H   LIG d   1       7.263  -0.583  -9.068  0.00  0.00     0.035 H 
ATOM      3  C   LIG d   1       6.829  -2.679  -9.372  0.00  0.00    -0.040 C 
ATOM      4  C   LIG d   1       5.933  -2.750  -8.159  0.00  0.00    -0.001 C 
ATOM      5  C   LIG d   1       4.617  -1.995  -8.252  0.00  0.00     0.028 C 
ATOM      6  C   LIG d   1       4.299  -1.582  -6.816  0.00  0.00     0.072 A 
ATOM      7  C   LIG d   1       3.657  -0.478  -6.413  0.00  0.00    -0.013 A 
ATOM      8  C   LIG d   1       3.588  -0.526  -4.962  0.00  0.00     0.003 A 
ATOM      9  C   LIG d   1       3.021   0.332  -4.015  0.00  0.00    -0.052 A 
ATOM     10  C   LIG d   1       3.172  -0.018  -2.695  0.00  0.00    -0.061 A 
ATOM     11  C   LIG d   1       3.846  -1.166  -2.311  0.00  0.00    -0.060 A 
ATOM     12  C   LIG d   1       4.402  -2.040  -3.230  0.00  0.00    -0.038 A 
ATOM     13  C   LIG d   1       4.263  -1.711  -4.577  0.00  0.00     0.047 A 
ATOM     14  N   LIG d   1       4.662  -2.335  -5.721  0.00  0.00    -0.353 N 
ATOM     15  H   LIG d   1       5.134  -3.181  -5.758  0.00  0.00     0.166 HD
ATOM     16  C   LIG d   1       3.115   0.619  -7.295  0.00  0.00    -0.020 C 
ATOM     17  C   LIG d   1       2.325  -0.023  -8.436  0.00  0.00    -0.008 C 
ATOM     18  C   LIG d   1       3.267  -0.400  -9.566  0.00  0.00    -0.031 C 
ATOM     19  C   LIG d   1       5.486  -0.831 -10.267  0.00  0.00    -0.028 C 
ATOM     20  H   LIG d   1       6.426  -3.313 -10.161  0.00  0.00     0.027 H 
ATOM     21  H   LIG d   1       7.828  -3.024  -9.105  0.00  0.00     0.027 H 
ATOM     22  H   LIG d   1       6.480  -2.357  -7.306  0.00  0.00     0.033 H 
ATOM     23  H   LIG d   1       5.698  -3.795  -7.967  0.00  0.00     0.033 H 
ATOM     24  H   LIG d   1       2.493   1.227  -4.306  0.00  0.00     0.062 H 
ATOM     25  H   LIG d   1       2.750   0.620  -1.933  0.00  0.00     0.062 H 
ATOM     26  H   LIG d   1       3.943  -1.386  -1.258  0.00  0.00     0.062 H 
ATOM     27  H   LIG d   1       4.924  -2.932  -2.916  0.00  0.00     0.064 H 
ATOM     28  H   LIG d   1       2.457   1.265  -6.712  0.00  0.00     0.032 H 
ATOM     29  H   LIG d   1       3.938   1.208  -7.699  0.00  0.00     0.032 H 
ATOM     30  H   LIG d   1       1.588   0.694  -8.808  0.00  0.00     0.032 H 
ATOM     31  H   LIG d   1       1.804  -0.906  -8.072  0.00  0.00     0.032 H 
ATOM     32  H   LIG d   1       3.408   0.504 -10.185  0.00  0.00     0.082 H 
ATOM     33  H   LIG d   1       2.794  -1.135 -10.212  0.00  0.00     0.082 H 
ATOM     34  H   LIG d   1       5.117  -1.526 -11.021  0.00  0.00     0.082 H 
ATOM     35  H   LIG d   1       5.509   0.173 -10.694  0.00  0.00     0.082 H 
ATOM     36  N   LIG d   1       4.602  -0.742  -9.089  0.00  0.00     0.244 N 
ATOM     37  H   LIG d   1       4.938   0.025  -8.494  0.00  0.00     0.204 HD
ENDROOT
BRANCH   1  38
ATOM     38  C   LIG d   1       7.836  -1.139 -11.076  0.00  0.00    -0.048 C 
ATOM     39  H   LIG d   1       8.381  -0.196 -11.044  0.00  0.00     0.027 H 
ATOM     40  H   LIG d   1       8.542  -1.970 -11.054  0.00  0.00     0.027 H 
BRANCH  38  41
ATOM     41  C   LIG d   1       7.010  -1.206 -12.362  0.00  0.00    -0.065 C 
ATOM     42  H   LIG d   1       6.017  -0.795 -12.177  0.00  0.00     0.023 H 
ATOM     43  H   LIG d   1       7.504  -0.627 -13.142  0.00  0.00     0.023 H 
ATOM     44  H   LIG d   1       6.920  -2.243 -12.684  0.00  0.00     0.023 H 
ENDBRANCH  38  41
ENDBRANCH   1  38
BRANCH   5  45
ATOM     45  C   LIG d   1       3.562  -3.013  -8.686  0.00  0.00    -0.013 C 
ATOM     46  H   LIG d   1       4.029  -3.774  -9.312  0.00  0.00     0.029 H 
ATOM     47  H   LIG d   1       3.127  -3.484  -7.805  0.00  0.00     0.029 H 
ATOM     48  H   LIG d   1       2.780  -2.507  -9.252  0.00  0.00     0.029 H 
ENDBRANCH   5  45
TORSDOF 3
ENDMDL
MODEL 10
REMARK VINA RESULT:      -5.5      8.493     10.775
REMARK  3 active torsions:
REMARK  status: ('A' for Active; 'I' for Inactive)
REMARK    1  A    between atoms: C_1  and  C_2 
REMARK    2  A    between atoms: C_2  and  C_3 
REMARK    3  A    between atoms: C_7  and  C_22 
ROOT
ATOM      1  C   LIG d   1      -3.643  -4.440 -10.324  0.00  0.00    -0.001 C 
ATOM      2  H   LIG d   1      -3.384  -3.527  -9.790  0.00  0.00     0.035 H 
ATOM      3  C   LIG d   1      -5.075  -4.345 -10.861  0.00  0.00    -0.040 C 
ATOM      4  C   LIG d   1      -5.198  -3.133 -11.751  0.00  0.00    -0.001 C 
ATOM      5  C   LIG d   1      -4.080  -2.923 -12.759  0.00  0.00     0.028 C 
ATOM      6  C   LIG d   1      -4.002  -1.411 -12.951  0.00  0.00     0.072 A 
ATOM      7  C   LIG d   1      -2.910  -0.682 -13.217  0.00  0.00    -0.013 A 
ATOM      8  C   LIG d   1      -3.333   0.706 -13.318  0.00  0.00     0.003 A 
ATOM      9  C   LIG d   1      -2.638   1.886 -13.599  0.00  0.00    -0.052 A 
ATOM     10  C   LIG d   1      -3.368   3.050 -13.587  0.00  0.00    -0.061 A 
ATOM     11  C   LIG d   1      -4.726   3.064 -13.315  0.00  0.00    -0.060 A 
ATOM     12  C   LIG d   1      -5.440   1.907 -13.051  0.00  0.00    -0.038 A 
ATOM     13  C   LIG d   1      -4.726   0.710 -13.060  0.00  0.00     0.047 A 
ATOM     14  N   LIG d   1      -5.101  -0.585 -12.862  0.00  0.00    -0.353 N 
ATOM     15  H   LIG d   1      -6.006  -0.881 -12.681  0.00  0.00     0.166 HD
ATOM     16  C   LIG d   1      -1.501  -1.197 -13.371  0.00  0.00    -0.020 C 
ATOM     17  C   LIG d   1      -1.527  -2.406 -14.306  0.00  0.00    -0.008 C 
ATOM     18  C   LIG d   1      -1.849  -3.662 -13.515  0.00  0.00    -0.031 C 
ATOM     19  C   LIG d   1      -2.732  -4.614 -11.536  0.00  0.00    -0.028 C 
ATOM     20  H   LIG d   1      -5.310  -5.243 -11.431  0.00  0.00     0.027 H 
ATOM     21  H   LIG d   1      -5.770  -4.254 -10.025  0.00  0.00     0.027 H 
ATOM     22  H   LIG d   1      -5.244  -2.248 -11.120  0.00  0.00     0.033 H 
ATOM     23  H   LIG d   1      -6.130  -3.209 -12.307  0.00  0.00     0.033 H 
ATOM     24  H   LIG d   1      -1.580   1.883 -13.812  0.00  0.00     0.062 H 
ATOM     25  H   LIG d   1      -2.867   3.983 -13.796  0.00  0.00     0.062 H 
ATOM     26  H   LIG d   1      -5.247   4.010 -13.309  0.00  0.00     0.062 H 
ATOM     27  H   LIG d   1      -6.499   1.932 -12.843  0.00  0.00     0.064 H 
ATOM     28  H   LIG d   1      -0.871  -0.416 -13.799  0.00  0.00     0.032 H 
ATOM     29  H   LIG d   1      -1.106  -1.490 -12.397  0.00  0.00     0.032 H 
ATOM     30  H   LIG d   1      -0.545  -2.519 -14.772  0.00  0.00     0.032 H 
ATOM     31  H   LIG d   1      -2.271  -2.253 -15.085  0.00  0.00     0.032 H 
ATOM     32  H   LIG d   1      -0.898  -4.027 -13.086  0.00  0.00     0.082 H 
ATOM     33  H   LIG d   1      -2.194  -4.444 -14.186  0.00  0.00     0.082 H 
ATOM     34  H   LIG d   1      -3.042  -5.496 -12.095  0.00  0.00     0.082 H 
ATOM     35  H   LIG d   1      -1.706  -4.759 -11.190  0.00  0.00     0.082 H 
ATOM     36  N   LIG d   1      -2.703  -3.393 -12.364  0.00  0.00     0.244 N 
ATOM     37  H   LIG d   1      -2.272  -2.642 -11.812  0.00  0.00     0.204 HD
ENDROOT
BRANCH   1  38
ATOM     38  C   LIG d   1      -3.513  -5.648  -9.393  0.00  0.00    -0.048 C 
ATOM     39  H   LIG d   1      -3.821  -5.365  -8.386  0.00  0.00     0.027 H 
ATOM     40  H   LIG d   1      -4.149  -6.455  -9.755  0.00  0.00     0.027 H 
BRANCH  38  41
ATOM     41  C   LIG d   1      -2.057  -6.117  -9.367  0.00  0.00    -0.065 C 
ATOM     42  H   LIG d   1      -1.707  -6.270 -10.388  0.00  0.00     0.023 H 
ATOM     43  H   LIG d   1      -1.441  -5.361  -8.880  0.00  0.00     0.023 H 
ATOM     44  H   LIG d   1      -1.986  -7.053  -8.814  0.00  0.00     0.023 H 
ENDBRANCH  38  41
ENDBRANCH   1  38
BRANCH   5  45
ATOM     45  C   LIG d   1      -4.562  -3.535 -14.075  0.00  0.00    -0.013 C 
ATOM     46  H   LIG d   1      -4.940  -4.540 -13.891  0.00  0.00     0.029 H 
ATOM     47  H   LIG d   1      -5.358  -2.918 -14.492  0.00  0.00     0.029 H 
ATOM     48  H   LIG d   1      -3.731  -3.582 -14.779  0.00  0.00     0.029 H 
ENDBRANCH   5  45
TORSDOF 3
ENDMDL
