MODEL 1
REMARK VINA RESULT:      -6.2      0.000      0.000
REMARK  5 active torsions:
REMARK  status: ('A' for Active; 'I' for Inactive)
REMARK    1  A    between atoms: C_1  and  C_2 
REMARK    2  A    between atoms: C_2  and  C_19 
REMARK    3  A    between atoms: N_7  and  N_8 
REMARK    4  A    between atoms: N_8  and  C_9 
REMARK    5  A    between atoms: C_12  and  O_15 
ROOT
ATOM      1  C   LIG d   1       4.143  -1.137  -3.057  0.00  0.00     0.255 C 
ATOM      2  O   LIG d   1       5.243  -1.556  -3.913  0.00  0.00    -0.418 OA
ATOM      3  C   LIG d   1       5.627  -0.650  -4.856  0.00  0.00     0.369 C 
ATOM      4  O   LIG d   1       6.793  -0.379  -5.064  0.00  0.00    -0.243 OA
ATOM      5  C   LIG d   1       4.514  -0.019  -5.615  0.00  0.00     0.249 C 
ATOM      6  N   LIG d   1       4.613   0.308  -6.890  0.00  0.00    -0.168 NA
ATOM      7  C   LIG d   1       3.282   0.221  -4.816  0.00  0.00     0.369 C 
ATOM      8  O   LIG d   1       2.571   1.192  -4.991  0.00  0.00    -0.243 OA
ATOM      9  O   LIG d   1       3.010  -0.731  -3.876  0.00  0.00    -0.418 OA
ENDROOT
BRANCH   6  10
ATOM     10  N   LIG d   1       3.614   0.854  -7.496  0.00  0.00    -0.237 N 
ATOM     11  H   LIG d   1       3.101   1.716  -7.044  0.00  0.00     0.174 HD
BRANCH  10  12
ATOM     12  C   LIG d   1       3.183   0.351  -8.724  0.00  0.00     0.049 A 
ATOM     13  C   LIG d   1       3.843   0.712  -9.894  0.00  0.00    -0.036 A 
ATOM     14  C   LIG d   1       3.417   0.214 -11.108  0.00  0.00    -0.018 A 
ATOM     15  H   LIG d   1       4.690   1.381  -9.851  0.00  0.00     0.064 H 
ATOM     16  C   LIG d   1       2.328  -0.645 -11.163  0.00  0.00     0.117 A 
ATOM     17  H   LIG d   1       3.930   0.494 -12.016  0.00  0.00     0.066 H 
ATOM     18  C   LIG d   1       1.668  -1.005  -9.997  0.00  0.00    -0.018 A 
ATOM     19  C   LIG d   1       2.097  -0.514  -8.780  0.00  0.00    -0.036 A 
ATOM     20  H   LIG d   1       0.821  -1.674 -10.040  0.00  0.00     0.066 H 
ATOM     21  H   LIG d   1       1.585  -0.798  -7.872  0.00  0.00     0.064 H 
BRANCH  16  22
ATOM     22  O   LIG d   1       1.909  -1.135 -12.360  0.00  0.00    -0.507 OA
ATOM     23  H   LIG d   1       2.624  -1.247 -13.189  0.00  0.00     0.292 HD
ENDBRANCH  16  22
ENDBRANCH  10  12
ENDBRANCH   6  10
BRANCH   1  24
ATOM     24  C   LIG d   1       3.728  -2.302  -2.155  0.00  0.00     0.013 C 
ATOM     25  H   LIG d   1       3.217  -3.067  -2.757  0.00  0.00     0.030 H 
ATOM     26  H   LIG d   1       3.048  -1.936  -1.373  0.00  0.00     0.030 H 
ATOM     27  H   LIG d   1       4.623  -2.739  -1.688  0.00  0.00     0.030 H 
ENDBRANCH   1  24
BRANCH   1  28
ATOM     28  C   LIG d   1       4.592   0.041  -2.190  0.00  0.00     0.013 C 
ATOM     29  H   LIG d   1       3.877   0.870  -2.299  0.00  0.00     0.030 H 
ATOM     30  H   LIG d   1       5.590   0.373  -2.511  0.00  0.00     0.030 H 
ATOM     31  H   LIG d   1       4.632  -0.272  -1.136  0.00  0.00     0.030 H 
ENDBRANCH   1  28
TORSDOF 5
ENDMDL
MODEL 2
REMARK VINA RESULT:      -5.8      1.655      2.452
REMARK  5 active torsions:
REMARK  status: ('A' for Active; 'I' for Inactive)
REMARK    1  A    between atoms: C_1  and  C_2 
REMARK    2  A    between atoms: C_2  and  C_19 
REMARK    3  A    between atoms: N_7  and  N_8 
REMARK    4  A    between atoms: N_8  and  C_9 
REMARK    5  A    between atoms: C_12  and  O_15 
ROOT
ATOM      1  C   LIG d   1       4.372   0.104  -3.264  0.00  0.00     0.255 C 
ATOM      2  O   LIG d   1       3.703  -1.189  -3.228  0.00  0.00    -0.418 OA
ATOM      3  C   LIG d   1       4.207  -2.131  -4.074  0.00  0.00     0.369 C 
ATOM      4  O   LIG d   1       4.421  -3.274  -3.723  0.00  0.00    -0.243 OA
ATOM      5  C   LIG d   1       4.474  -1.658  -5.459  0.00  0.00     0.249 C 
ATOM      6  N   LIG d   1       4.308  -2.425  -6.520  0.00  0.00    -0.168 NA
ATOM      7  C   LIG d   1       4.952  -0.252  -5.548  0.00  0.00     0.369 C 
ATOM      8  O   LIG d   1       5.764   0.108  -6.378  0.00  0.00    -0.243 OA
ATOM      9  O   LIG d   1       4.407   0.601  -4.632  0.00  0.00    -0.418 OA
ENDROOT
BRANCH   6  10
ATOM     10  N   LIG d   1       4.557  -1.960  -7.697  0.00  0.00    -0.237 N 
ATOM     11  H   LIG d   1       5.595  -1.760  -8.002  0.00  0.00     0.174 HD
BRANCH  10  12
ATOM     12  C   LIG d   1       3.509  -1.711  -8.585  0.00  0.00     0.049 A 
ATOM     13  C   LIG d   1       2.949  -2.756  -9.311  0.00  0.00    -0.036 A 
ATOM     14  C   LIG d   1       1.914  -2.508 -10.189  0.00  0.00    -0.018 A 
ATOM     15  H   LIG d   1       3.325  -3.761  -9.189  0.00  0.00     0.064 H 
ATOM     16  C   LIG d   1       1.431  -1.217 -10.347  0.00  0.00     0.117 A 
ATOM     17  H   LIG d   1       1.479  -3.320 -10.753  0.00  0.00     0.066 H 
ATOM     18  C   LIG d   1       1.989  -0.173  -9.623  0.00  0.00    -0.018 A 
ATOM     19  C   LIG d   1       3.021  -0.419  -8.740  0.00  0.00    -0.036 A 
ATOM     20  H   LIG d   1       1.613   0.832  -9.747  0.00  0.00     0.066 H 
ATOM     21  H   LIG d   1       3.452   0.394  -8.173  0.00  0.00     0.064 H 
BRANCH  16  22
ATOM     22  O   LIG d   1       0.410  -0.974 -11.212  0.00  0.00    -0.507 OA
ATOM     23  H   LIG d   1      -0.548  -0.585 -10.837  0.00  0.00     0.292 HD
ENDBRANCH  16  22
ENDBRANCH  10  12
ENDBRANCH   6  10
BRANCH   1  24
ATOM     24  C   LIG d   1       3.612   1.095  -2.380  0.00  0.00     0.013 C 
ATOM     25  H   LIG d   1       3.430   2.022  -2.942  0.00  0.00     0.030 H 
ATOM     26  H   LIG d   1       4.208   1.320  -1.484  0.00  0.00     0.030 H 
ATOM     27  H   LIG d   1       2.651   0.653  -2.079  0.00  0.00     0.030 H 
ENDBRANCH   1  24
BRANCH   1  28
ATOM     28  C   LIG d   1       5.803  -0.049  -2.741  0.00  0.00     0.013 C 
ATOM     29  H   LIG d   1       6.501  -0.093  -3.591  0.00  0.00     0.030 H 
ATOM     30  H   LIG d   1       5.882  -0.975  -2.153  0.00  0.00     0.030 H 
ATOM     31  H   LIG d   1       6.054   0.812  -2.104  0.00  0.00     0.030 H 
ENDBRANCH   1  28
TORSDOF 5
ENDMDL
MODEL 3
REMARK VINA RESULT:      -5.7      2.295      6.899
REMARK  5 active torsions:
REMARK  status: ('A' for Active; 'I' for Inactive)
REMARK    1  A    between atoms: C_1  and  C_2 
REMARK    2  A    between atoms: C_2  and  C_19 
REMARK    3  A    between atoms: N_7  and  N_8 
REMARK    4  A    between atoms: N_8  and  C_9 
REMARK    5  A    between atoms: C_12  and  O_15 
ROOT
ATOM      1  C   LIG d   1       2.425  -0.756 -10.602  0.00  0.00     0.255 C 
ATOM      2  O   LIG d   1       1.947   0.527 -10.105  0.00  0.00    -0.418 OA
ATOM      3  C   LIG d   1       2.643   1.042  -9.053  0.00  0.00     0.369 C 
ATOM      4  O   LIG d   1       2.992   2.205  -9.008  0.00  0.00    -0.243 OA
ATOM      5  C   LIG d   1       2.945   0.077  -7.961  0.00  0.00     0.249 C 
ATOM      6  N   LIG d   1       2.971   0.423  -6.689  0.00  0.00    -0.168 NA
ATOM      7  C   LIG d   1       3.222  -1.309  -8.425  0.00  0.00     0.369 C 
ATOM      8  O   LIG d   1       4.035  -2.029  -7.877  0.00  0.00    -0.243 OA
ATOM      9  O   LIG d   1       2.493  -1.713  -9.506  0.00  0.00    -0.418 OA
ENDROOT
BRANCH   6  10
ATOM     10  N   LIG d   1       3.240  -0.458  -5.785  0.00  0.00    -0.237 N 
ATOM     11  H   LIG d   1       3.120  -1.528  -6.009  0.00  0.00     0.174 HD
BRANCH  10  12
ATOM     12  C   LIG d   1       3.682  -0.053  -4.525  0.00  0.00     0.049 A 
ATOM     13  C   LIG d   1       4.719  -0.736  -3.900  0.00  0.00    -0.036 A 
ATOM     14  C   LIG d   1       5.156  -0.335  -2.654  0.00  0.00    -0.018 A 
ATOM     15  H   LIG d   1       5.183  -1.579  -4.389  0.00  0.00     0.064 H 
ATOM     16  C   LIG d   1       4.560   0.749  -2.024  0.00  0.00     0.117 A 
ATOM     17  H   LIG d   1       5.962  -0.864  -2.168  0.00  0.00     0.066 H 
ATOM     18  C   LIG d   1       3.524   1.430  -2.647  0.00  0.00    -0.018 A 
ATOM     19  C   LIG d   1       3.089   1.035  -3.897  0.00  0.00    -0.036 A 
ATOM     20  H   LIG d   1       3.060   2.273  -2.157  0.00  0.00     0.066 H 
ATOM     21  H   LIG d   1       2.286   1.569  -4.383  0.00  0.00     0.064 H 
BRANCH  16  22
ATOM     22  O   LIG d   1       4.991   1.143  -0.797  0.00  0.00    -0.507 OA
ATOM     23  H   LIG d   1       5.038   2.214  -0.548  0.00  0.00     0.292 HD
ENDBRANCH  16  22
ENDBRANCH  10  12
ENDBRANCH   6  10
BRANCH   1  24
ATOM     24  C   LIG d   1       1.466  -1.276 -11.674  0.00  0.00     0.013 C 
ATOM     25  H   LIG d   1       1.787  -2.275 -12.000  0.00  0.00     0.030 H 
ATOM     26  H   LIG d   1       1.472  -0.591 -12.535  0.00  0.00     0.030 H 
ATOM     27  H   LIG d   1       0.449  -1.333 -11.259  0.00  0.00     0.030 H 
ENDBRANCH   1  24
BRANCH   1  28
ATOM     28  C   LIG d   1       3.819  -0.579 -11.209  0.00  0.00     0.013 C 
ATOM     29  H   LIG d   1       3.788   0.213 -11.973  0.00  0.00     0.030 H 
ATOM     30  H   LIG d   1       4.140  -1.523 -11.673  0.00  0.00     0.030 H 
ATOM     31  H   LIG d   1       4.530  -0.297 -10.419  0.00  0.00     0.030 H 
ENDBRANCH   1  28
TORSDOF 5
ENDMDL
MODEL 4
REMARK VINA RESULT:      -5.7      1.072      2.506
REMARK  5 active torsions:
REMARK  status: ('A' for Active; 'I' for Inactive)
REMARK    1  A    between atoms: C_1  and  C_2 
REMARK    2  A    between atoms: C_2  and  C_19 
REMARK    3  A    between atoms: N_7  and  N_8 
REMARK    4  A    between atoms: N_8  and  C_9 
REMARK    5  A    between atoms: C_12  and  O_15 
ROOT
ATOM      1  C   LIG d   1       4.191   0.037  -2.879  0.00  0.00     0.255 C 
ATOM      2  O   LIG d   1       2.909   0.620  -3.249  0.00  0.00    -0.418 OA
ATOM      3  C   LIG d   1       2.431   0.252  -4.471  0.00  0.00     0.369 C 
ATOM      4  O   LIG d   1       1.277  -0.085  -4.645  0.00  0.00    -0.243 OA
ATOM      5  C   LIG d   1       3.425   0.294  -5.578  0.00  0.00     0.249 C 
ATOM      6  N   LIG d   1       3.105   0.633  -6.812  0.00  0.00    -0.168 NA
ATOM      7  C   LIG d   1       4.806  -0.086  -5.179  0.00  0.00     0.369 C 
ATOM      8  O   LIG d   1       5.554  -0.694  -5.920  0.00  0.00    -0.243 OA
ATOM      9  O   LIG d   1       5.172   0.304  -3.922  0.00  0.00    -0.418 OA
ENDROOT
BRANCH   6  10
ATOM     10  N   LIG d   1       4.010   0.652  -7.731  0.00  0.00    -0.237 N 
ATOM     11  H   LIG d   1       5.021   1.019  -7.500  0.00  0.00     0.174 HD
BRANCH  10  12
ATOM     12  C   LIG d   1       3.707   0.204  -9.018  0.00  0.00     0.049 A 
ATOM     13  C   LIG d   1       2.896  -0.910  -9.194  0.00  0.00    -0.036 A 
ATOM     14  C   LIG d   1       2.597  -1.352 -10.467  0.00  0.00    -0.018 A 
ATOM     15  H   LIG d   1       2.499  -1.431  -8.335  0.00  0.00     0.064 H 
ATOM     16  C   LIG d   1       3.107  -0.684 -11.571  0.00  0.00     0.117 A 
ATOM     17  H   LIG d   1       1.966  -2.217 -10.604  0.00  0.00     0.066 H 
ATOM     18  C   LIG d   1       3.918   0.428 -11.397  0.00  0.00    -0.018 A 
ATOM     19  C   LIG d   1       4.214   0.876 -10.124  0.00  0.00    -0.036 A 
ATOM     20  H   LIG d   1       4.315   0.947 -12.257  0.00  0.00     0.066 H 
ATOM     21  H   LIG d   1       4.841   1.744  -9.990  0.00  0.00     0.064 H 
BRANCH  16  22
ATOM     22  O   LIG d   1       2.812  -1.120 -12.825  0.00  0.00    -0.507 OA
ATOM     23  H   LIG d   1       2.329  -2.098 -12.968  0.00  0.00     0.292 HD
ENDBRANCH  16  22
ENDBRANCH  10  12
ENDBRANCH   6  10
BRANCH   1  24
ATOM     24  C   LIG d   1       4.668   0.651  -1.562  0.00  0.00     0.013 C 
ATOM     25  H   LIG d   1       5.740   0.446  -1.429  0.00  0.00     0.030 H 
ATOM     26  H   LIG d   1       4.104   0.211  -0.727  0.00  0.00     0.030 H 
ATOM     27  H   LIG d   1       4.502   1.738  -1.584  0.00  0.00     0.030 H 
ENDBRANCH   1  24
BRANCH   1  28
ATOM     28  C   LIG d   1       4.031  -1.475  -2.707  0.00  0.00     0.013 C 
ATOM     29  H   LIG d   1       4.107  -1.967  -3.689  0.00  0.00     0.030 H 
ATOM     30  H   LIG d   1       3.049  -1.692  -2.263  0.00  0.00     0.030 H 
ATOM     31  H   LIG d   1       4.825  -1.855  -2.046  0.00  0.00     0.030 H 
ENDBRANCH   1  28
TORSDOF 5
ENDMDL
MODEL 5
REMARK VINA RESULT:      -5.6      4.243      6.920
REMARK  5 active torsions:
REMARK  status: ('A' for Active; 'I' for Inactive)
REMARK    1  A    between atoms: C_1  and  C_2 
REMARK    2  A    between atoms: C_2  and  C_19 
REMARK    3  A    between atoms: N_7  and  N_8 
REMARK    4  A    between atoms: N_8  and  C_9 
REMARK    5  A    between atoms: C_12  and  O_15 
ROOT
ATOM      1  C   LIG d   1       4.463  -6.124  -8.633  0.00  0.00     0.255 C 
ATOM      2  O   LIG d   1       4.932  -4.808  -9.042  0.00  0.00    -0.418 OA
ATOM      3  C   LIG d   1       5.485  -4.052  -8.052  0.00  0.00     0.369 C 
ATOM      4  O   LIG d   1       6.528  -3.446  -8.199  0.00  0.00    -0.243 OA
ATOM      5  C   LIG d   1       4.719  -4.021  -6.777  0.00  0.00     0.249 C 
ATOM      6  N   LIG d   1       4.656  -2.952  -6.007  0.00  0.00    -0.168 NA
ATOM      7  C   LIG d   1       4.035  -5.298  -6.438  0.00  0.00     0.369 C 
ATOM      8  O   LIG d   1       3.918  -5.691  -5.294  0.00  0.00    -0.243 OA
ATOM      9  O   LIG d   1       3.547  -5.992  -7.508  0.00  0.00    -0.418 OA
ENDROOT
BRANCH   6  10
ATOM     10  N   LIG d   1       3.975  -2.984  -4.911  0.00  0.00    -0.237 N 
ATOM     11  H   LIG d   1       3.409  -3.888  -4.643  0.00  0.00     0.174 HD
BRANCH  10  12
ATOM     12  C   LIG d   1       3.959  -1.873  -4.067  0.00  0.00     0.049 A 
ATOM     13  C   LIG d   1       3.576  -0.631  -4.560  0.00  0.00    -0.036 A 
ATOM     14  C   LIG d   1       3.559   0.467  -3.724  0.00  0.00    -0.018 A 
ATOM     15  H   LIG d   1       3.291  -0.525  -5.596  0.00  0.00     0.064 H 
ATOM     16  C   LIG d   1       3.926   0.332  -2.392  0.00  0.00     0.117 A 
ATOM     17  H   LIG d   1       3.261   1.432  -4.107  0.00  0.00     0.066 H 
ATOM     18  C   LIG d   1       4.309  -0.907  -1.900  0.00  0.00    -0.018 A 
ATOM     19  C   LIG d   1       4.321  -2.008  -2.732  0.00  0.00    -0.036 A 
ATOM     20  H   LIG d   1       4.595  -1.011  -0.863  0.00  0.00     0.066 H 
ATOM     21  H   LIG d   1       4.614  -2.974  -2.347  0.00  0.00     0.064 H 
BRANCH  16  22
ATOM     22  O   LIG d   1       3.910   1.415  -1.570  0.00  0.00    -0.507 OA
ATOM     23  H   LIG d   1       4.855   1.837  -1.197  0.00  0.00     0.292 HD
ENDBRANCH  16  22
ENDBRANCH  10  12
ENDBRANCH   6  10
BRANCH   1  24
ATOM     24  C   LIG d   1       3.739  -6.792  -9.804  0.00  0.00     0.013 C 
ATOM     25  H   LIG d   1       3.143  -6.041 -10.342  0.00  0.00     0.030 H 
ATOM     26  H   LIG d   1       3.075  -7.582  -9.422  0.00  0.00     0.030 H 
ATOM     27  H   LIG d   1       4.478  -7.234 -10.487  0.00  0.00     0.030 H 
ENDBRANCH   1  24
BRANCH   1  28
ATOM     28  C   LIG d   1       5.658  -6.985  -8.218  0.00  0.00     0.013 C 
ATOM     29  H   LIG d   1       6.574  -6.375  -8.239  0.00  0.00     0.030 H 
ATOM     30  H   LIG d   1       5.763  -7.828  -8.915  0.00  0.00     0.030 H 
ATOM     31  H   LIG d   1       5.498  -7.368  -7.199  0.00  0.00     0.030 H 
ENDBRANCH   1  28
TORSDOF 5
ENDMDL
MODEL 6
REMARK VINA RESULT:      -5.6      5.005      7.424
REMARK  5 active torsions:
REMARK  status: ('A' for Active; 'I' for Inactive)
REMARK    1  A    between atoms: C_1  and  C_2 
REMARK    2  A    between atoms: C_2  and  C_19 
REMARK    3  A    between atoms: N_7  and  N_8 
REMARK    4  A    between atoms: N_8  and  C_9 
REMARK    5  A    between atoms: C_12  and  O_15 
ROOT
ATOM      1  C   LIG d   1       5.973  -7.524  -5.874  0.00  0.00     0.255 C 
ATOM      2  O   LIG d   1       4.609  -7.110  -5.576  0.00  0.00    -0.418 OA
ATOM      3  C   LIG d   1       4.324  -5.804  -5.842  0.00  0.00     0.369 C 
ATOM      4  O   LIG d   1       3.313  -5.463  -6.423  0.00  0.00    -0.243 OA
ATOM      5  C   LIG d   1       5.341  -4.826  -5.368  0.00  0.00     0.249 C 
ATOM      6  N   LIG d   1       5.023  -3.628  -4.918  0.00  0.00    -0.168 NA
ATOM      7  C   LIG d   1       6.745  -5.309  -5.452  0.00  0.00     0.369 C 
ATOM      8  O   LIG d   1       7.673  -4.570  -5.721  0.00  0.00    -0.243 OA
ATOM      9  O   LIG d   1       6.913  -6.640  -5.199  0.00  0.00    -0.418 OA
ENDROOT
BRANCH   6  10
ATOM     10  N   LIG d   1       5.948  -2.821  -4.521  0.00  0.00    -0.237 N 
ATOM     11  H   LIG d   1       6.991  -2.987  -4.828  0.00  0.00     0.174 HD
BRANCH  10  12
ATOM     12  C   LIG d   1       5.626  -1.738  -3.701  0.00  0.00     0.049 A 
ATOM     13  C   LIG d   1       4.629  -1.866  -2.740  0.00  0.00    -0.036 A 
ATOM     14  C   LIG d   1       4.311  -0.795  -1.930  0.00  0.00    -0.018 A 
ATOM     15  H   LIG d   1       4.104  -2.803  -2.627  0.00  0.00     0.064 H 
ATOM     16  C   LIG d   1       4.985   0.410  -2.076  0.00  0.00     0.117 A 
ATOM     17  H   LIG d   1       3.538  -0.894  -1.183  0.00  0.00     0.066 H 
ATOM     18  C   LIG d   1       5.978   0.538  -3.035  0.00  0.00    -0.018 A 
ATOM     19  C   LIG d   1       6.303  -0.533  -3.843  0.00  0.00    -0.036 A 
ATOM     20  H   LIG d   1       6.502   1.477  -3.148  0.00  0.00     0.066 H 
ATOM     21  H   LIG d   1       7.080  -0.434  -4.586  0.00  0.00     0.064 H 
BRANCH  16  22
ATOM     22  O   LIG d   1       4.670   1.464  -1.277  0.00  0.00    -0.507 OA
ATOM     23  H   LIG d   1       4.298   2.399  -1.722  0.00  0.00     0.292 HD
ENDBRANCH  16  22
ENDBRANCH  10  12
ENDBRANCH   6  10
BRANCH   1  24
ATOM     24  C   LIG d   1       6.186  -8.959  -5.389  0.00  0.00     0.013 C 
ATOM     25  H   LIG d   1       7.114  -9.015  -4.803  0.00  0.00     0.030 H 
ATOM     26  H   LIG d   1       6.259  -9.632  -6.256  0.00  0.00     0.030 H 
ATOM     27  H   LIG d   1       5.336  -9.263  -4.761  0.00  0.00     0.030 H 
ENDBRANCH   1  24
BRANCH   1  28
ATOM     28  C   LIG d   1       6.207  -7.458  -7.385  0.00  0.00     0.013 C 
ATOM     29  H   LIG d   1       7.283  -7.549  -7.594  0.00  0.00     0.030 H 
ATOM     30  H   LIG d   1       5.839  -6.496  -7.771  0.00  0.00     0.030 H 
ATOM     31  H   LIG d   1       5.667  -8.281  -7.876  0.00  0.00     0.030 H 
ENDBRANCH   1  28
TORSDOF 5
ENDMDL
MODEL 7
REMARK VINA RESULT:      -5.5      2.028      6.591
REMARK  5 active torsions:
REMARK  status: ('A' for Active; 'I' for Inactive)
REMARK    1  A    between atoms: C_1  and  C_2 
REMARK    2  A    between atoms: C_2  and  C_19 
REMARK    3  A    between atoms: N_7  and  N_8 
REMARK    4  A    between atoms: N_8  and  C_9 
REMARK    5  A    between atoms: C_12  and  O_15 
ROOT
ATOM      1  C   LIG d   1       4.538  -0.851 -10.782  0.00  0.00     0.255 C 
ATOM      2  O   LIG d   1       3.342  -1.580 -10.383  0.00  0.00    -0.418 OA
ATOM      3  C   LIG d   1       2.467  -0.885  -9.603  0.00  0.00     0.369 C 
ATOM      4  O   LIG d   1       1.270  -0.882  -9.810  0.00  0.00    -0.243 OA
ATOM      5  C   LIG d   1       3.084  -0.130  -8.479  0.00  0.00     0.249 C 
ATOM      6  N   LIG d   1       2.491   0.022  -7.311  0.00  0.00    -0.168 NA
ATOM      7  C   LIG d   1       4.421   0.445  -8.785  0.00  0.00     0.369 C 
ATOM      8  O   LIG d   1       4.788   1.513  -8.336  0.00  0.00    -0.243 OA
ATOM      9  O   LIG d   1       5.204  -0.319  -9.602  0.00  0.00    -0.418 OA
ENDROOT
BRANCH   6  10
ATOM     10  N   LIG d   1       3.075   0.687  -6.372  0.00  0.00    -0.237 N 
ATOM     11  H   LIG d   1       3.315   1.751  -6.520  0.00  0.00     0.174 HD
BRANCH  10  12
ATOM     12  C   LIG d   1       3.401   0.059  -5.170  0.00  0.00     0.049 A 
ATOM     13  C   LIG d   1       4.677  -0.457  -4.978  0.00  0.00    -0.036 A 
ATOM     14  C   LIG d   1       4.998  -1.078  -3.789  0.00  0.00    -0.018 A 
ATOM     15  H   LIG d   1       5.417  -0.372  -5.760  0.00  0.00     0.064 H 
ATOM     16  C   LIG d   1       4.047  -1.189  -2.784  0.00  0.00     0.117 A 
ATOM     17  H   LIG d   1       5.990  -1.479  -3.640  0.00  0.00     0.066 H 
ATOM     18  C   LIG d   1       2.773  -0.675  -2.974  0.00  0.00    -0.018 A 
ATOM     19  C   LIG d   1       2.451  -0.048  -4.161  0.00  0.00    -0.036 A 
ATOM     20  H   LIG d   1       2.034  -0.761  -2.192  0.00  0.00     0.066 H 
ATOM     21  H   LIG d   1       1.460   0.357  -4.306  0.00  0.00     0.064 H 
BRANCH  16  22
ATOM     22  O   LIG d   1       4.365  -1.801  -1.612  0.00  0.00    -0.507 OA
ATOM     23  H   LIG d   1       4.860  -2.784  -1.622  0.00  0.00     0.292 HD
ENDBRANCH  16  22
ENDBRANCH  10  12
ENDBRANCH   6  10
BRANCH   1  24
ATOM     24  C   LIG d   1       5.487  -1.796 -11.520  0.00  0.00     0.013 C 
ATOM     25  H   LIG d   1       4.957  -2.726 -11.771  0.00  0.00     0.030 H 
ATOM     26  H   LIG d   1       6.348  -2.028 -10.877  0.00  0.00     0.030 H 
ATOM     27  H   LIG d   1       5.839  -1.314 -12.444  0.00  0.00     0.030 H 
ENDBRANCH   1  24
BRANCH   1  28
ATOM     28  C   LIG d   1       4.146   0.302 -11.708  0.00  0.00     0.013 C 
ATOM     29  H   LIG d   1       4.398   1.260 -11.229  0.00  0.00     0.030 H 
ATOM     30  H   LIG d   1       3.064   0.264 -11.904  0.00  0.00     0.030 H 
ATOM     31  H   LIG d   1       4.693   0.212 -12.658  0.00  0.00     0.030 H 
ENDBRANCH   1  28
TORSDOF 5
ENDMDL
MODEL 8
REMARK VINA RESULT:      -5.5      4.037      7.014
REMARK  5 active torsions:
REMARK  status: ('A' for Active; 'I' for Inactive)
REMARK    1  A    between atoms: C_1  and  C_2 
REMARK    2  A    between atoms: C_2  and  C_19 
REMARK    3  A    between atoms: N_7  and  N_8 
REMARK    4  A    between atoms: N_8  and  C_9 
REMARK    5  A    between atoms: C_12  and  O_15 
ROOT
ATOM      1  C   LIG d   1       4.165  -0.000  -3.281  0.00  0.00     0.255 C 
ATOM      2  O   LIG d   1       5.235   0.502  -4.131  0.00  0.00    -0.418 OA
ATOM      3  C   LIG d   1       5.579  -0.304  -5.175  0.00  0.00     0.369 C 
ATOM      4  O   LIG d   1       5.744   0.122  -6.300  0.00  0.00    -0.243 OA
ATOM      5  C   LIG d   1       5.739  -1.744  -4.836  0.00  0.00     0.249 C 
ATOM      6  N   LIG d   1       6.637  -2.518  -5.413  0.00  0.00    -0.168 NA
ATOM      7  C   LIG d   1       4.797  -2.240  -3.797  0.00  0.00     0.369 C 
ATOM      8  O   LIG d   1       4.335  -3.364  -3.819  0.00  0.00    -0.243 OA
ATOM      9  O   LIG d   1       4.494  -1.340  -2.815  0.00  0.00    -0.418 OA
ENDROOT
BRANCH   6  10
ATOM     10  N   LIG d   1       6.729  -3.761  -5.078  0.00  0.00    -0.237 N 
ATOM     11  H   LIG d   1       5.896  -4.449  -5.284  0.00  0.00     0.174 HD
BRANCH  10  12
ATOM     12  C   LIG d   1       7.886  -4.232  -4.456  0.00  0.00     0.049 A 
ATOM     13  C   LIG d   1       8.541  -3.443  -3.517  0.00  0.00    -0.036 A 
ATOM     14  C   LIG d   1       9.685  -3.910  -2.902  0.00  0.00    -0.018 A 
ATOM     15  H   LIG d   1       8.155  -2.466  -3.269  0.00  0.00     0.064 H 
ATOM     16  C   LIG d   1      10.182  -5.166  -3.221  0.00  0.00     0.117 A 
ATOM     17  H   LIG d   1      10.194  -3.298  -2.172  0.00  0.00     0.066 H 
ATOM     18  C   LIG d   1       9.530  -5.953  -4.159  0.00  0.00    -0.018 A 
ATOM     19  C   LIG d   1       8.382  -5.491  -4.771  0.00  0.00    -0.036 A 
ATOM     20  H   LIG d   1       9.917  -6.931  -4.407  0.00  0.00     0.066 H 
ATOM     21  H   LIG d   1       7.872  -6.107  -5.497  0.00  0.00     0.064 H 
BRANCH  16  22
ATOM     22  O   LIG d   1      11.309  -5.625  -2.615  0.00  0.00    -0.507 OA
ATOM     23  H   LIG d   1      12.244  -5.715  -3.187  0.00  0.00     0.292 HD
ENDBRANCH  16  22
ENDBRANCH  10  12
ENDBRANCH   6  10
BRANCH   1  24
ATOM     24  C   LIG d   1       3.992   0.929  -2.078  0.00  0.00     0.013 C 
ATOM     25  H   LIG d   1       2.920   1.081  -1.883  0.00  0.00     0.030 H 
ATOM     26  H   LIG d   1       4.466   1.898  -2.293  0.00  0.00     0.030 H 
ATOM     27  H   LIG d   1       4.466   0.477  -1.195  0.00  0.00     0.030 H 
ENDBRANCH   1  24
BRANCH   1  28
ATOM     28  C   LIG d   1       2.860  -0.046  -4.080  0.00  0.00     0.013 C 
ATOM     29  H   LIG d   1       2.520   0.980  -4.286  0.00  0.00     0.030 H 
ATOM     30  H   LIG d   1       2.092  -0.577  -3.498  0.00  0.00     0.030 H 
ATOM     31  H   LIG d   1       3.030  -0.574  -5.030  0.00  0.00     0.030 H 
ENDBRANCH   1  28
TORSDOF 5
ENDMDL
MODEL 9
REMARK VINA RESULT:      -5.3      5.159      7.462
REMARK  5 active torsions:
REMARK  status: ('A' for Active; 'I' for Inactive)
REMARK    1  A    between atoms: C_1  and  C_2 
REMARK    2  A    between atoms: C_2  and  C_19 
REMARK    3  A    between atoms: N_7  and  N_8 
REMARK    4  A    between atoms: N_8  and  C_9 
REMARK    5  A    between atoms: C_12  and  O_15 
ROOT
ATOM      1  C   LIG d   1      11.378   2.519  -5.599  0.00  0.00     0.255 C 
ATOM      2  O   LIG d   1      10.524   1.876  -6.588  0.00  0.00    -0.418 OA
ATOM      3  C   LIG d   1       9.197   2.172  -6.494  0.00  0.00     0.369 C 
ATOM      4  O   LIG d   1       8.524   2.461  -7.463  0.00  0.00    -0.243 OA
ATOM      5  C   LIG d   1       8.632   2.114  -5.119  0.00  0.00     0.249 C 
ATOM      6  N   LIG d   1       7.402   1.709  -4.869  0.00  0.00    -0.168 NA
ATOM      7  C   LIG d   1       9.567   2.558  -4.050  0.00  0.00     0.369 C 
ATOM      8  O   LIG d   1       9.189   3.158  -3.062  0.00  0.00    -0.243 OA
ATOM      9  O   LIG d   1      10.877   2.238  -4.261  0.00  0.00    -0.418 OA
ENDROOT
BRANCH   6  10
ATOM     10  N   LIG d   1       6.966   1.681  -3.655  0.00  0.00    -0.237 N 
ATOM     11  H   LIG d   1       7.252   2.474  -2.949  0.00  0.00     0.174 HD
BRANCH  10  12
ATOM     12  C   LIG d   1       6.131   0.643  -3.238  0.00  0.00     0.049 A 
ATOM     13  C   LIG d   1       5.061   0.909  -2.390  0.00  0.00    -0.036 A 
ATOM     14  C   LIG d   1       4.236  -0.117  -1.978  0.00  0.00    -0.018 A 
ATOM     15  H   LIG d   1       4.876   1.919  -2.055  0.00  0.00     0.064 H 
ATOM     16  C   LIG d   1       4.474  -1.415  -2.408  0.00  0.00     0.117 A 
ATOM     17  H   LIG d   1       3.405   0.090  -1.320  0.00  0.00     0.066 H 
ATOM     18  C   LIG d   1       5.541  -1.681  -3.253  0.00  0.00    -0.018 A 
ATOM     19  C   LIG d   1       6.365  -0.656  -3.672  0.00  0.00    -0.036 A 
ATOM     20  H   LIG d   1       5.726  -2.692  -3.587  0.00  0.00     0.066 H 
ATOM     21  H   LIG d   1       7.193  -0.864  -4.334  0.00  0.00     0.064 H 
BRANCH  16  22
ATOM     22  O   LIG d   1       3.660  -2.425  -2.001  0.00  0.00    -0.507 OA
ATOM     23  H   LIG d   1       4.080  -3.421  -1.796  0.00  0.00     0.292 HD
ENDBRANCH  16  22
ENDBRANCH  10  12
ENDBRANCH   6  10
BRANCH   1  24
ATOM     24  C   LIG d   1      12.804   1.981  -5.732  0.00  0.00     0.013 C 
ATOM     25  H   LIG d   1      12.893   1.405  -6.664  0.00  0.00     0.030 H 
ATOM     26  H   LIG d   1      13.032   1.330  -4.875  0.00  0.00     0.030 H 
ATOM     27  H   LIG d   1      13.512   2.822  -5.752  0.00  0.00     0.030 H 
ENDBRANCH   1  24
BRANCH   1  28
ATOM     28  C   LIG d   1      11.381   4.031  -5.835  0.00  0.00     0.013 C 
ATOM     29  H   LIG d   1      11.624   4.237  -6.888  0.00  0.00     0.030 H 
ATOM     30  H   LIG d   1      12.133   4.502  -5.185  0.00  0.00     0.030 H 
ATOM     31  H   LIG d   1      10.387   4.440  -5.602  0.00  0.00     0.030 H 
ENDBRANCH   1  28
TORSDOF 5
ENDMDL
MODEL 10
REMARK VINA RESULT:      -5.1      2.749      6.553
REMARK  5 active torsions:
REMARK  status: ('A' for Active; 'I' for Inactive)
REMARK    1  A    between atoms: C_1  and  C_2 
REMARK    2  A    between atoms: C_2  and  C_19 
REMARK    3  A    between atoms: N_7  and  N_8 
REMARK    4  A    between atoms: N_8  and  C_9 
REMARK    5  A    between atoms: C_12  and  O_15 
ROOT
ATOM      1  C   LIG d   1       3.977   1.130  -8.833  0.00  0.00     0.255 C 
ATOM      2  O   LIG d   1       4.519  -0.020  -9.542  0.00  0.00    -0.418 OA
ATOM      3  C   LIG d   1       4.087  -1.235  -9.101  0.00  0.00     0.369 C 
ATOM      4  O   LIG d   1       3.721  -2.112  -9.858  0.00  0.00    -0.243 OA
ATOM      5  C   LIG d   1       4.099  -1.411  -7.623  0.00  0.00     0.249 C 
ATOM      6  N   LIG d   1       4.376  -2.563  -7.043  0.00  0.00    -0.168 NA
ATOM      7  C   LIG d   1       3.763  -0.183  -6.855  0.00  0.00     0.369 C 
ATOM      8  O   LIG d   1       3.137  -0.216  -5.813  0.00  0.00    -0.243 OA
ATOM      9  O   LIG d   1       4.216   0.983  -7.404  0.00  0.00    -0.418 OA
ENDROOT
BRANCH   6  10
ATOM     10  N   LIG d   1       4.371  -2.656  -5.757  0.00  0.00    -0.237 N 
ATOM     11  H   LIG d   1       3.418  -2.624  -5.208  0.00  0.00     0.174 HD
BRANCH  10  12
ATOM     12  C   LIG d   1       5.572  -2.797  -5.061  0.00  0.00     0.049 A 
ATOM     13  C   LIG d   1       6.458  -3.813  -5.402  0.00  0.00    -0.036 A 
ATOM     14  C   LIG d   1       7.645  -3.952  -4.714  0.00  0.00    -0.018 A 
ATOM     15  H   LIG d   1       6.216  -4.494  -6.204  0.00  0.00     0.064 H 
ATOM     16  C   LIG d   1       7.956  -3.078  -3.681  0.00  0.00     0.117 A 
ATOM     17  H   LIG d   1       8.334  -4.741  -4.978  0.00  0.00     0.066 H 
ATOM     18  C   LIG d   1       7.073  -2.064  -3.340  0.00  0.00    -0.018 A 
ATOM     19  C   LIG d   1       5.887  -1.919  -4.031  0.00  0.00    -0.036 A 
ATOM     20  H   LIG d   1       7.316  -1.385  -2.536  0.00  0.00     0.066 H 
ATOM     21  H   LIG d   1       5.202  -1.126  -3.768  0.00  0.00     0.064 H 
BRANCH  16  22
ATOM     22  O   LIG d   1       9.127  -3.216  -3.004  0.00  0.00    -0.507 OA
ATOM     23  H   LIG d   1       9.124  -3.599  -1.973  0.00  0.00     0.292 HD
ENDBRANCH  16  22
ENDBRANCH  10  12
ENDBRANCH   6  10
BRANCH   1  24
ATOM     24  C   LIG d   1       4.658   2.404  -9.335  0.00  0.00     0.013 C 
ATOM     25  H   LIG d   1       4.674   2.403 -10.434  0.00  0.00     0.030 H 
ATOM     26  H   LIG d   1       5.689   2.443  -8.954  0.00  0.00     0.030 H 
ATOM     27  H   LIG d   1       4.102   3.283  -8.976  0.00  0.00     0.030 H 
ENDBRANCH   1  24
BRANCH   1  28
ATOM     28  C   LIG d   1       2.471   1.223  -9.090  0.00  0.00     0.013 C 
ATOM     29  H   LIG d   1       2.203   0.573  -9.936  0.00  0.00     0.030 H 
ATOM     30  H   LIG d   1       2.203   2.263  -9.328  0.00  0.00     0.030 H 
ATOM     31  H   LIG d   1       1.925   0.900  -8.192  0.00  0.00     0.030 H 
ENDBRANCH   1  28
TORSDOF 5
ENDMDL
