MODEL 1
REMARK VINA RESULT:      -7.1      0.000      0.000
REMARK  7 active torsions:
REMARK  status: ('A' for Active; 'I' for Inactive)
REMARK    1  A    between atoms: C_1  and  C_2 
REMARK    2  A    between atoms: C_11  and  C_25 
REMARK    3  A    between atoms: C_17  and  C_22 
REMARK    4  A    between atoms: C_22  and  C_24 
REMARK    5  A    between atoms: C_26  and  C_35 
REMARK    6  A    between atoms: C_27  and  O_34 
REMARK    7  A    between atoms: C_29  and  O_33 
ROOT
ATOM      1  C   LIG d   1       4.197   0.461 -10.017  0.00  0.00    -0.014 C 
ATOM      2  H   LIG d   1       5.103   0.111 -10.510  0.00  0.00     0.033 H 
ATOM      3  C   LIG d   1       4.473   0.659  -8.524  0.00  0.00    -0.044 C 
ATOM      4  C   LIG d   1       4.897  -0.656  -7.904  0.00  0.00    -0.034 C 
ATOM      5  H   LIG d   1       5.790  -0.992  -8.431  0.00  0.00     0.031 H 
ATOM      6  C   LIG d   1       3.805  -1.708  -8.088  0.00  0.00    -0.030 C 
ATOM      7  H   LIG d   1       2.894  -1.383  -7.585  0.00  0.00     0.031 H 
ATOM      8  C   LIG d   1       4.283  -3.032  -7.483  0.00  0.00    -0.049 C 
ATOM      9  C   LIG d   1       4.476  -2.819  -5.973  0.00  0.00    -0.046 C 
ATOM     10  C   LIG d   1       5.545  -1.762  -5.691  0.00  0.00    -0.016 C 
ATOM     11  C   LIG d   1       5.249  -0.460  -6.452  0.00  0.00    -0.031 C 
ATOM     12  H   LIG d   1       6.122   0.188  -6.388  0.00  0.00     0.031 H 
ATOM     13  C   LIG d   1       4.107   0.191  -5.642  0.00  0.00    -0.046 C 
ATOM     14  C   LIG d   1       4.538  -0.097  -4.193  0.00  0.00    -0.028 C 
ATOM     15  H   LIG d   1       5.249   0.700  -3.974  0.00  0.00     0.031 H 
ATOM     16  C   LIG d   1       5.367  -1.359  -4.191  0.00  0.00     0.037 C 
ATOM     17  C   LIG d   1       4.750  -2.548  -3.482  0.00  0.00    -0.040 C 
ATOM     18  C   LIG d   1       3.903  -2.148  -2.282  0.00  0.00    -0.052 C 
ATOM     19  C   LIG d   1       2.793  -1.210  -2.776  0.00  0.00    -0.053 C 
ATOM     20  C   LIG d   1       3.452   0.098  -3.200  0.00  0.00    -0.049 C 
ATOM     21  C   LIG d   1       3.527  -1.905  -9.580  0.00  0.00     0.000 C 
ATOM     22  C   LIG d   1       3.086  -0.576 -10.195  0.00  0.00     0.077 C 
ATOM     23  C   LIG d   1       2.805  -0.771 -11.687  0.00  0.00     0.003 C 
ATOM     24  C   LIG d   1       1.696  -1.809 -11.865  0.00  0.00     0.058 C 
ATOM     25  H   LIG d   1       0.790  -1.462 -11.367  0.00  0.00     0.059 H 
ATOM     26  C   LIG d   1       2.138  -3.139 -11.250  0.00  0.00    -0.026 C 
ATOM     27  C   LIG d   1       2.418  -2.944  -9.759  0.00  0.00    -0.042 C 
ATOM     28  H   LIG d   1       5.265   1.398  -8.397  0.00  0.00     0.027 H 
ATOM     29  H   LIG d   1       3.566   1.010  -8.031  0.00  0.00     0.027 H 
ATOM     30  H   LIG d   1       3.537  -3.807  -7.660  0.00  0.00     0.027 H 
ATOM     31  H   LIG d   1       5.230  -3.321  -7.938  0.00  0.00     0.027 H 
ATOM     32  H   LIG d   1       4.777  -3.762  -5.516  0.00  0.00     0.027 H 
ATOM     33  H   LIG d   1       3.530  -2.496  -5.540  0.00  0.00     0.027 H 
ATOM     34  H   LIG d   1       4.060   1.263  -5.829  0.00  0.00     0.027 H 
ATOM     35  H   LIG d   1       3.152  -0.284  -5.865  0.00  0.00     0.027 H 
ATOM     36  H   LIG d   1       4.123  -3.092  -4.189  0.00  0.00     0.028 H 
ATOM     37  H   LIG d   1       5.549  -3.209  -3.143  0.00  0.00     0.028 H 
ATOM     38  H   LIG d   1       3.462  -3.036  -1.829  0.00  0.00     0.027 H 
ATOM     39  H   LIG d   1       4.524  -1.631  -1.549  0.00  0.00     0.027 H 
ATOM     40  H   LIG d   1       2.281  -1.660  -3.626  0.00  0.00     0.026 H 
ATOM     41  H   LIG d   1       2.082  -1.023  -1.971  0.00  0.00     0.026 H 
ATOM     42  H   LIG d   1       2.693   0.747  -3.635  0.00  0.00     0.027 H 
ATOM     43  H   LIG d   1       3.862   0.586  -2.315  0.00  0.00     0.027 H 
ATOM     44  H   LIG d   1       2.490   0.176 -12.124  0.00  0.00     0.032 H 
ATOM     45  H   LIG d   1       3.711  -1.119 -12.184  0.00  0.00     0.032 H 
ATOM     46  H   LIG d   1       1.348  -3.879 -11.378  0.00  0.00     0.029 H 
ATOM     47  H   LIG d   1       3.044  -3.486 -11.748  0.00  0.00     0.029 H 
ATOM     48  H   LIG d   1       1.512  -2.597  -9.262  0.00  0.00     0.027 H 
ATOM     49  H   LIG d   1       2.733  -3.890  -9.321  0.00  0.00     0.027 H 
ENDROOT
BRANCH  16  50
ATOM     50  C   LIG d   1       6.718  -1.067  -3.591  0.00  0.00     0.137 C 
ATOM     51  O   LIG d   1       7.348  -1.950  -3.062  0.00  0.00    -0.297 OA
BRANCH  50  52
ATOM     52  C   LIG d   1       7.283   0.329  -3.652  0.00  0.00    -0.005 C 
ATOM     53  H   LIG d   1       7.837   0.430  -4.478  0.00  0.00     0.031 H 
ATOM     54  H   LIG d   1       6.466   1.051  -3.673  0.00  0.00     0.031 H 
ATOM     55  H   LIG d   1       7.904   0.509  -2.774  0.00  0.00     0.031 H 
ENDBRANCH  50  52
ENDBRANCH  16  50
BRANCH  10  56
ATOM     56  C   LIG d   1       6.950  -2.285  -5.997  0.00  0.00    -0.058 C 
ATOM     57  H   LIG d   1       7.442  -2.568  -5.067  0.00  0.00     0.024 H 
ATOM     58  H   LIG d   1       6.879  -3.154  -6.650  0.00  0.00     0.024 H 
ATOM     59  H   LIG d   1       7.529  -1.504  -6.491  0.00  0.00     0.024 H 
ENDBRANCH  10  56
BRANCH  21  60
ATOM     60  C   LIG d   1       4.799  -2.393 -10.276  0.00  0.00    -0.057 C 
ATOM     61  H   LIG d   1       4.681  -2.297 -11.356  0.00  0.00     0.024 H 
ATOM     62  H   LIG d   1       5.647  -1.790  -9.949  0.00  0.00     0.024 H 
ATOM     63  H   LIG d   1       4.975  -3.437 -10.021  0.00  0.00     0.024 H 
ENDBRANCH  21  60
BRANCH   1  64
ATOM     64  C   LIG d   1       3.759   1.790 -10.635  0.00  0.00    -0.060 C 
ATOM     65  H   LIG d   1       3.988   2.604  -9.948  0.00  0.00     0.023 H 
ATOM     66  H   LIG d   1       2.686   1.766 -10.826  0.00  0.00     0.023 H 
ATOM     67  H   LIG d   1       4.290   1.947 -11.573  0.00  0.00     0.023 H 
ENDBRANCH   1  64
BRANCH  22  68
ATOM     68  O   LIG d   1       1.898  -0.119  -9.543  0.00  0.00    -0.388 OA
ATOM     69  H   LIG d   1       1.133  -0.045 -10.129  0.00  0.00     0.210 HD
ENDBRANCH  22  68
BRANCH  24  70
ATOM     70  O   LIG d   1       1.433  -1.991 -13.258  0.00  0.00    -0.392 OA
ATOM     71  H   LIG d   1       2.226  -2.140 -13.791  0.00  0.00     0.210 HD
ENDBRANCH  24  70
TORSDOF 7
ENDMDL
MODEL 2
REMARK VINA RESULT:      -6.2      4.135      6.778
REMARK  7 active torsions:
REMARK  status: ('A' for Active; 'I' for Inactive)
REMARK    1  A    between atoms: C_1  and  C_2 
REMARK    2  A    between atoms: C_11  and  C_25 
REMARK    3  A    between atoms: C_17  and  C_22 
REMARK    4  A    between atoms: C_22  and  C_24 
REMARK    5  A    between atoms: C_26  and  C_35 
REMARK    6  A    between atoms: C_27  and  O_34 
REMARK    7  A    between atoms: C_29  and  O_33 
ROOT
ATOM      1  C   LIG d   1      10.238   2.134  -4.108  0.00  0.00    -0.014 C 
ATOM      2  H   LIG d   1      10.857   1.251  -4.266  0.00  0.00     0.033 H 
ATOM      3  C   LIG d   1       8.902   1.716  -3.490  0.00  0.00    -0.044 C 
ATOM      4  C   LIG d   1       8.181   0.767  -4.424  0.00  0.00    -0.034 C 
ATOM      5  H   LIG d   1       8.831  -0.093  -4.581  0.00  0.00     0.031 H 
ATOM      6  C   LIG d   1       7.934   1.435  -5.776  0.00  0.00    -0.030 C 
ATOM      7  H   LIG d   1       7.300   2.312  -5.641  0.00  0.00     0.031 H 
ATOM      8  C   LIG d   1       7.238   0.435  -6.705  0.00  0.00    -0.049 C 
ATOM      9  C   LIG d   1       5.868   0.096  -6.094  0.00  0.00    -0.046 C 
ATOM     10  C   LIG d   1       6.017  -0.564  -4.722  0.00  0.00    -0.016 C 
ATOM     11  C   LIG d   1       6.899   0.285  -3.794  0.00  0.00    -0.031 C 
ATOM     12  H   LIG d   1       7.144  -0.304  -2.911  0.00  0.00     0.031 H 
ATOM     13  C   LIG d   1       5.975   1.441  -3.359  0.00  0.00    -0.046 C 
ATOM     14  C   LIG d   1       4.633   0.717  -3.150  0.00  0.00    -0.028 C 
ATOM     15  H   LIG d   1       4.717   0.306  -2.144  0.00  0.00     0.031 H 
ATOM     16  C   LIG d   1       4.605  -0.491  -4.054  0.00  0.00     0.037 C 
ATOM     17  C   LIG d   1       3.585  -0.449  -5.175  0.00  0.00    -0.040 C 
ATOM     18  C   LIG d   1       2.310   0.286  -4.788  0.00  0.00    -0.052 C 
ATOM     19  C   LIG d   1       2.692   1.718  -4.385  0.00  0.00    -0.053 C 
ATOM     20  C   LIG d   1       3.467   1.634  -3.074  0.00  0.00    -0.049 C 
ATOM     21  C   LIG d   1       9.269   1.855  -6.393  0.00  0.00     0.000 C 
ATOM     22  C   LIG d   1       9.984   2.824  -5.450  0.00  0.00     0.077 C 
ATOM     23  C   LIG d   1      11.319   3.247  -6.067  0.00  0.00     0.003 C 
ATOM     24  C   LIG d   1      11.065   3.935  -7.410  0.00  0.00     0.058 C 
ATOM     25  H   LIG d   1      10.441   4.815  -7.254  0.00  0.00     0.059 H 
ATOM     26  C   LIG d   1      10.351   2.965  -8.353  0.00  0.00    -0.026 C 
ATOM     27  C   LIG d   1       9.016   2.542  -7.737  0.00  0.00    -0.042 C 
ATOM     28  H   LIG d   1       9.082   1.224  -2.534  0.00  0.00     0.027 H 
ATOM     29  H   LIG d   1       8.283   2.600  -3.332  0.00  0.00     0.027 H 
ATOM     30  H   LIG d   1       7.109   0.880  -7.692  0.00  0.00     0.027 H 
ATOM     31  H   LIG d   1       7.840  -0.470  -6.784  0.00  0.00     0.027 H 
ATOM     32  H   LIG d   1       5.339  -0.583  -6.763  0.00  0.00     0.027 H 
ATOM     33  H   LIG d   1       5.294   1.016  -5.989  0.00  0.00     0.027 H 
ATOM     34  H   LIG d   1       6.323   1.890  -2.429  0.00  0.00     0.027 H 
ATOM     35  H   LIG d   1       5.893   2.191  -4.145  0.00  0.00     0.027 H 
ATOM     36  H   LIG d   1       4.031   0.049  -6.037  0.00  0.00     0.028 H 
ATOM     37  H   LIG d   1       3.329  -1.471  -5.457  0.00  0.00     0.028 H 
ATOM     38  H   LIG d   1       1.627   0.312  -5.636  0.00  0.00     0.027 H 
ATOM     39  H   LIG d   1       1.834  -0.219  -3.948  0.00  0.00     0.027 H 
ATOM     40  H   LIG d   1       3.317   2.165  -5.157  0.00  0.00     0.026 H 
ATOM     41  H   LIG d   1       1.790   2.314  -4.244  0.00  0.00     0.026 H 
ATOM     42  H   LIG d   1       3.823   2.630  -2.814  0.00  0.00     0.027 H 
ATOM     43  H   LIG d   1       2.794   1.288  -2.290  0.00  0.00     0.027 H 
ATOM     44  H   LIG d   1      11.827   3.938  -5.395  0.00  0.00     0.032 H 
ATOM     45  H   LIG d   1      11.942   2.366  -6.223  0.00  0.00     0.032 H 
ATOM     46  H   LIG d   1      10.170   3.455  -9.310  0.00  0.00     0.029 H 
ATOM     47  H   LIG d   1      10.974   2.084  -8.508  0.00  0.00     0.029 H 
ATOM     48  H   LIG d   1       8.393   3.423  -7.581  0.00  0.00     0.027 H 
ATOM     49  H   LIG d   1       8.507   1.851  -8.408  0.00  0.00     0.027 H 
ENDROOT
BRANCH  16  50
ATOM     50  C   LIG d   1       4.383  -1.730  -3.226  0.00  0.00     0.137 C 
ATOM     51  O   LIG d   1       4.074  -2.767  -3.760  0.00  0.00    -0.297 OA
BRANCH  50  52
ATOM     52  C   LIG d   1       4.549  -1.674  -1.728  0.00  0.00    -0.005 C 
ATOM     53  H   LIG d   1       4.542  -0.721  -1.427  0.00  0.00     0.031 H 
ATOM     54  H   LIG d   1       3.728  -2.211  -1.252  0.00  0.00     0.031 H 
ATOM     55  H   LIG d   1       5.496  -2.136  -1.450  0.00  0.00     0.031 H 
ENDBRANCH  50  52
ENDBRANCH  16  50
BRANCH  10  56
ATOM     56  C   LIG d   1       6.539  -1.997  -4.840  0.00  0.00    -0.058 C 
ATOM     57  H   LIG d   1       6.173  -2.587  -4.001  0.00  0.00     0.024 H 
ATOM     58  H   LIG d   1       6.188  -2.435  -5.774  0.00  0.00     0.024 H 
ATOM     59  H   LIG d   1       7.630  -1.988  -4.830  0.00  0.00     0.024 H 
ENDBRANCH  10  56
BRANCH  21  60
ATOM     60  C   LIG d   1      10.143   0.617  -6.611  0.00  0.00    -0.057 C 
ATOM     61  H   LIG d   1      10.444   0.565  -7.658  0.00  0.00     0.024 H 
ATOM     62  H   LIG d   1      11.029   0.683  -5.981  0.00  0.00     0.024 H 
ATOM     63  H   LIG d   1       9.577  -0.277  -6.351  0.00  0.00     0.024 H 
ENDBRANCH  21  60
BRANCH   1  64
ATOM     64  C   LIG d   1      10.956   3.100  -3.165  0.00  0.00    -0.060 C 
ATOM     65  H   LIG d   1      11.732   2.567  -2.618  0.00  0.00     0.023 H 
ATOM     66  H   LIG d   1      10.239   3.520  -2.460  0.00  0.00     0.023 H 
ATOM     67  H   LIG d   1      11.408   3.905  -3.744  0.00  0.00     0.023 H 
ENDBRANCH   1  64
BRANCH  22  68
ATOM     68  O   LIG d   1       9.167   3.979  -5.245  0.00  0.00    -0.388 OA
ATOM     69  H   LIG d   1       9.085   4.545  -6.024  0.00  0.00     0.210 HD
ENDBRANCH  22  68
BRANCH  24  70
ATOM     70  O   LIG d   1      12.311   4.330  -7.986  0.00  0.00    -0.392 OA
ATOM     71  H   LIG d   1      12.779   3.615  -8.439  0.00  0.00     0.210 HD
ENDBRANCH  24  70
TORSDOF 7
ENDMDL
MODEL 3
REMARK VINA RESULT:      -6.0      4.011      7.008
REMARK  7 active torsions:
REMARK  status: ('A' for Active; 'I' for Inactive)
REMARK    1  A    between atoms: C_1  and  C_2 
REMARK    2  A    between atoms: C_11  and  C_25 
REMARK    3  A    between atoms: C_17  and  C_22 
REMARK    4  A    between atoms: C_22  and  C_24 
REMARK    5  A    between atoms: C_26  and  C_35 
REMARK    6  A    between atoms: C_27  and  O_34 
REMARK    7  A    between atoms: C_29  and  O_33 
ROOT
ATOM      1  C   LIG d   1       7.010  -0.587  -4.789  0.00  0.00    -0.014 C 
ATOM      2  H   LIG d   1       6.508  -0.210  -5.679  0.00  0.00     0.033 H 
ATOM      3  C   LIG d   1       7.735  -1.892  -5.126  0.00  0.00    -0.044 C 
ATOM      4  C   LIG d   1       6.734  -2.923  -5.603  0.00  0.00    -0.034 C 
ATOM      5  H   LIG d   1       6.233  -2.511  -6.479  0.00  0.00     0.031 H 
ATOM      6  C   LIG d   1       5.682  -3.184  -4.526  0.00  0.00    -0.030 C 
ATOM      7  H   LIG d   1       6.164  -3.579  -3.632  0.00  0.00     0.031 H 
ATOM      8  C   LIG d   1       4.668  -4.202  -5.057  0.00  0.00    -0.049 C 
ATOM      9  C   LIG d   1       5.413  -5.523  -5.312  0.00  0.00    -0.046 C 
ATOM     10  C   LIG d   1       6.504  -5.352  -6.370  0.00  0.00    -0.016 C 
ATOM     11  C   LIG d   1       7.442  -4.189  -6.014  0.00  0.00    -0.031 C 
ATOM     12  H   LIG d   1       8.073  -3.973  -6.876  0.00  0.00     0.031 H 
ATOM     13  C   LIG d   1       8.338  -4.763  -4.896  0.00  0.00    -0.046 C 
ATOM     14  C   LIG d   1       8.594  -6.196  -5.395  0.00  0.00    -0.028 C 
ATOM     15  H   LIG d   1       9.419  -6.078  -6.099  0.00  0.00     0.031 H 
ATOM     16  C   LIG d   1       7.421  -6.613  -6.249  0.00  0.00     0.037 C 
ATOM     17  C   LIG d   1       6.566  -7.733  -5.689  0.00  0.00    -0.040 C 
ATOM     18  C   LIG d   1       7.370  -8.747  -4.887  0.00  0.00    -0.052 C 
ATOM     19  C   LIG d   1       8.062  -8.002  -3.737  0.00  0.00    -0.053 C 
ATOM     20  C   LIG d   1       9.131  -7.103  -4.350  0.00  0.00    -0.049 C 
ATOM     21  C   LIG d   1       4.959  -1.879  -4.187  0.00  0.00     0.000 C 
ATOM     22  C   LIG d   1       5.975  -0.848  -3.692  0.00  0.00     0.077 C 
ATOM     23  C   LIG d   1       5.253   0.458  -3.351  0.00  0.00     0.003 C 
ATOM     24  C   LIG d   1       4.217   0.196  -2.256  0.00  0.00     0.058 C 
ATOM     25  H   LIG d   1       4.717  -0.187  -1.366  0.00  0.00     0.059 H 
ATOM     26  C   LIG d   1       3.201  -0.835  -2.752  0.00  0.00    -0.026 C 
ATOM     27  C   LIG d   1       3.922  -2.140  -3.093  0.00  0.00    -0.042 C 
ATOM     28  H   LIG d   1       8.472  -1.706  -5.907  0.00  0.00     0.027 H 
ATOM     29  H   LIG d   1       8.237  -2.269  -4.234  0.00  0.00     0.027 H 
ATOM     30  H   LIG d   1       3.879  -4.353  -4.320  0.00  0.00     0.027 H 
ATOM     31  H   LIG d   1       4.237  -3.837  -5.989  0.00  0.00     0.027 H 
ATOM     32  H   LIG d   1       4.699  -6.274  -5.651  0.00  0.00     0.027 H 
ATOM     33  H   LIG d   1       5.867  -5.855  -4.379  0.00  0.00     0.027 H 
ATOM     34  H   LIG d   1       9.270  -4.205  -4.818  0.00  0.00     0.027 H 
ATOM     35  H   LIG d   1       7.810  -4.773  -3.942  0.00  0.00     0.027 H 
ATOM     36  H   LIG d   1       5.801  -7.300  -5.043  0.00  0.00     0.028 H 
ATOM     37  H   LIG d   1       6.075  -8.247  -6.515  0.00  0.00     0.028 H 
ATOM     38  H   LIG d   1       6.704  -9.510  -4.485  0.00  0.00     0.027 H 
ATOM     39  H   LIG d   1       8.118  -9.213  -5.528  0.00  0.00     0.027 H 
ATOM     40  H   LIG d   1       7.334  -7.396  -3.198  0.00  0.00     0.026 H 
ATOM     41  H   LIG d   1       8.524  -8.718  -3.059  0.00  0.00     0.026 H 
ATOM     42  H   LIG d   1       9.576  -6.500  -3.559  0.00  0.00     0.027 H 
ATOM     43  H   LIG d   1       9.907  -7.731  -4.789  0.00  0.00     0.027 H 
ATOM     44  H   LIG d   1       5.977   1.191  -2.998  0.00  0.00     0.032 H 
ATOM     45  H   LIG d   1       4.752   0.839  -4.241  0.00  0.00     0.032 H 
ATOM     46  H   LIG d   1       2.462  -1.021  -1.973  0.00  0.00     0.029 H 
ATOM     47  H   LIG d   1       2.700  -0.453  -3.642  0.00  0.00     0.029 H 
ATOM     48  H   LIG d   1       4.422  -2.522  -2.203  0.00  0.00     0.027 H 
ATOM     49  H   LIG d   1       3.198  -2.874  -3.447  0.00  0.00     0.027 H 
ENDROOT
BRANCH  16  50
ATOM     50  C   LIG d   1       7.915  -7.002  -7.619  0.00  0.00     0.137 C 
ATOM     51  O   LIG d   1       7.280  -7.776  -8.292  0.00  0.00    -0.297 OA
BRANCH  50  52
ATOM     52  C   LIG d   1       9.202  -6.422  -8.148  0.00  0.00    -0.005 C 
ATOM     53  H   LIG d   1       9.735  -6.047  -7.391  0.00  0.00     0.031 H 
ATOM     54  H   LIG d   1       9.776  -7.206  -8.644  0.00  0.00     0.031 H 
ATOM     55  H   LIG d   1       8.977  -5.630  -8.862  0.00  0.00     0.031 H 
ENDBRANCH  50  52
ENDBRANCH  16  50
BRANCH  10  56
ATOM     56  C   LIG d   1       5.911  -5.189  -7.771  0.00  0.00    -0.058 C 
ATOM     57  H   LIG d   1       6.542  -5.702  -8.495  0.00  0.00     0.024 H 
ATOM     58  H   LIG d   1       4.909  -5.618  -7.793  0.00  0.00     0.024 H 
ATOM     59  H   LIG d   1       5.858  -4.129  -8.021  0.00  0.00     0.024 H 
ENDBRANCH  10  56
BRANCH  21  60
ATOM     60  C   LIG d   1       4.257  -1.345  -5.438  0.00  0.00    -0.057 C 
ATOM     61  H   LIG d   1       3.601  -2.116  -5.843  0.00  0.00     0.024 H 
ATOM     62  H   LIG d   1       3.667  -0.466  -5.176  0.00  0.00     0.024 H 
ATOM     63  H   LIG d   1       5.002  -1.073  -6.184  0.00  0.00     0.024 H 
ENDBRANCH  21  60
BRANCH   1  64
ATOM     64  C   LIG d   1       8.024   0.447  -4.297  0.00  0.00    -0.060 C 
ATOM     65  H   LIG d   1       7.498   1.297  -3.864  0.00  0.00     0.023 H 
ATOM     66  H   LIG d   1       8.633   0.786  -5.135  0.00  0.00     0.023 H 
ATOM     67  H   LIG d   1       8.667  -0.005  -3.542  0.00  0.00     0.023 H 
ENDBRANCH   1  64
BRANCH  22  68
ATOM     68  O   LIG d   1       6.632  -1.348  -2.525  0.00  0.00    -0.388 OA
ATOM     69  H   LIG d   1       7.572  -1.129  -2.480  0.00  0.00     0.210 HD
ENDBRANCH  22  68
BRANCH  24  70
ATOM     70  O   LIG d   1       3.543   1.415  -1.937  0.00  0.00    -0.392 OA
ATOM     71  H   LIG d   1       3.023   1.779  -2.666  0.00  0.00     0.210 HD
ENDBRANCH  24  70
TORSDOF 7
ENDMDL
MODEL 4
REMARK VINA RESULT:      -5.9      3.050      4.103
REMARK  7 active torsions:
REMARK  status: ('A' for Active; 'I' for Inactive)
REMARK    1  A    between atoms: C_1  and  C_2 
REMARK    2  A    between atoms: C_11  and  C_25 
REMARK    3  A    between atoms: C_17  and  C_22 
REMARK    4  A    between atoms: C_22  and  C_24 
REMARK    5  A    between atoms: C_26  and  C_35 
REMARK    6  A    between atoms: C_27  and  O_34 
REMARK    7  A    between atoms: C_29  and  O_33 
ROOT
ATOM      1  C   LIG d   1       4.650  -4.389  -9.499  0.00  0.00    -0.014 C 
ATOM      2  H   LIG d   1       5.682  -4.563  -9.800  0.00  0.00     0.033 H 
ATOM      3  C   LIG d   1       4.570  -3.104  -8.671  0.00  0.00    -0.044 C 
ATOM      4  C   LIG d   1       5.430  -3.240  -7.432  0.00  0.00    -0.034 C 
ATOM      5  H   LIG d   1       6.449  -3.435  -7.763  0.00  0.00     0.031 H 
ATOM      6  C   LIG d   1       4.964  -4.424  -6.586  0.00  0.00    -0.030 C 
ATOM      7  H   LIG d   1       3.936  -4.259  -6.260  0.00  0.00     0.031 H 
ATOM      8  C   LIG d   1       5.878  -4.552  -5.364  0.00  0.00    -0.049 C 
ATOM      9  C   LIG d   1       5.715  -3.280  -4.516  0.00  0.00    -0.046 C 
ATOM     10  C   LIG d   1       6.143  -2.034  -5.293  0.00  0.00    -0.016 C 
ATOM     11  C   LIG d   1       5.423  -1.953  -6.647  0.00  0.00    -0.031 C 
ATOM     12  H   LIG d   1       5.895  -1.175  -7.247  0.00  0.00     0.031 H 
ATOM     13  C   LIG d   1       3.999  -1.481  -6.284  0.00  0.00    -0.046 C 
ATOM     14  C   LIG d   1       4.278  -0.439  -5.185  0.00  0.00    -0.028 C 
ATOM     15  H   LIG d   1       4.516   0.466  -5.745  0.00  0.00     0.031 H 
ATOM     16  C   LIG d   1       5.570  -0.814  -4.499  0.00  0.00     0.037 C 
ATOM     17  C   LIG d   1       5.442  -1.247  -3.051  0.00  0.00    -0.040 C 
ATOM     18  C   LIG d   1       4.328  -0.519  -2.312  0.00  0.00    -0.052 C 
ATOM     19  C   LIG d   1       3.010  -0.795  -3.050  0.00  0.00    -0.053 C 
ATOM     20  C   LIG d   1       3.077  -0.075  -4.393  0.00  0.00    -0.049 C 
ATOM     21  C   LIG d   1       5.042  -5.708  -7.414  0.00  0.00     0.000 C 
ATOM     22  C   LIG d   1       4.159  -5.568  -8.655  0.00  0.00     0.077 C 
ATOM     23  C   LIG d   1       4.234  -6.853  -9.484  0.00  0.00     0.003 C 
ATOM     24  C   LIG d   1       3.746  -8.033  -8.640  0.00  0.00     0.058 C 
ATOM     25  H   LIG d   1       2.714  -7.857  -8.333  0.00  0.00     0.059 H 
ATOM     26  C   LIG d   1       4.629  -8.172  -7.399  0.00  0.00    -0.026 C 
ATOM     27  C   LIG d   1       4.554  -6.888  -6.571  0.00  0.00    -0.042 C 
ATOM     28  H   LIG d   1       4.920  -2.264  -9.271  0.00  0.00     0.027 H 
ATOM     29  H   LIG d   1       3.536  -2.931  -8.370  0.00  0.00     0.027 H 
ATOM     30  H   LIG d   1       5.592  -5.429  -4.783  0.00  0.00     0.027 H 
ATOM     31  H   LIG d   1       6.914  -4.647  -5.690  0.00  0.00     0.027 H 
ATOM     32  H   LIG d   1       6.327  -3.370  -3.618  0.00  0.00     0.027 H 
ATOM     33  H   LIG d   1       4.668  -3.182  -4.229  0.00  0.00     0.027 H 
ATOM     34  H   LIG d   1       3.510  -1.021  -7.141  0.00  0.00     0.027 H 
ATOM     35  H   LIG d   1       3.404  -2.306  -5.894  0.00  0.00     0.027 H 
ATOM     36  H   LIG d   1       5.243  -2.318  -3.021  0.00  0.00     0.028 H 
ATOM     37  H   LIG d   1       6.387  -1.053  -2.542  0.00  0.00     0.028 H 
ATOM     38  H   LIG d   1       4.262  -0.888  -1.289  0.00  0.00     0.027 H 
ATOM     39  H   LIG d   1       4.530   0.552  -2.305  0.00  0.00     0.027 H 
ATOM     40  H   LIG d   1       2.893  -1.866  -3.209  0.00  0.00     0.026 H 
ATOM     41  H   LIG d   1       2.173  -0.412  -2.466  0.00  0.00     0.026 H 
ATOM     42  H   LIG d   1       2.188  -0.328  -4.970  0.00  0.00     0.027 H 
ATOM     43  H   LIG d   1       3.082   1.001  -4.214  0.00  0.00     0.027 H 
ATOM     44  H   LIG d   1       3.605  -6.753 -10.367  0.00  0.00     0.032 H 
ATOM     45  H   LIG d   1       5.266  -7.029  -9.789  0.00  0.00     0.032 H 
ATOM     46  H   LIG d   1       4.282  -9.013  -6.798  0.00  0.00     0.029 H 
ATOM     47  H   LIG d   1       5.661  -8.347  -7.705  0.00  0.00     0.029 H 
ATOM     48  H   LIG d   1       3.522  -6.713  -6.265  0.00  0.00     0.027 H 
ATOM     49  H   LIG d   1       5.184  -6.987  -5.687  0.00  0.00     0.027 H 
ENDROOT
BRANCH  16  50
ATOM     50  C   LIG d   1       6.536   0.338  -4.591  0.00  0.00     0.137 C 
ATOM     51  O   LIG d   1       6.662   0.939  -5.630  0.00  0.00    -0.297 OA
BRANCH  50  52
ATOM     52  C   LIG d   1       7.346   0.740  -3.385  0.00  0.00    -0.005 C 
ATOM     53  H   LIG d   1       6.948   1.559  -2.974  0.00  0.00     0.031 H 
ATOM     54  H   LIG d   1       7.339  -0.071  -2.656  0.00  0.00     0.031 H 
ATOM     55  H   LIG d   1       8.372   0.947  -3.688  0.00  0.00     0.031 H 
ENDBRANCH  50  52
ENDBRANCH  16  50
BRANCH  10  56
ATOM     56  C   LIG d   1       7.663  -1.966  -5.457  0.00  0.00    -0.058 C 
ATOM     57  H   LIG d   1       8.132  -1.906  -4.476  0.00  0.00     0.024 H 
ATOM     58  H   LIG d   1       8.012  -2.860  -5.973  0.00  0.00     0.024 H 
ATOM     59  H   LIG d   1       7.925  -1.083  -6.041  0.00  0.00     0.024 H 
ENDBRANCH  10  56
BRANCH  21  60
ATOM     60  C   LIG d   1       6.491  -5.952  -7.842  0.00  0.00    -0.057 C 
ATOM     61  H   LIG d   1       6.528  -6.795  -8.533  0.00  0.00     0.024 H 
ATOM     62  H   LIG d   1       6.879  -5.061  -8.335  0.00  0.00     0.024 H 
ATOM     63  H   LIG d   1       7.096  -6.175  -6.965  0.00  0.00     0.024 H 
ENDBRANCH  21  60
BRANCH   1  64
ATOM     64  C   LIG d   1       3.771  -4.250 -10.743  0.00  0.00    -0.060 C 
ATOM     65  H   LIG d   1       2.782  -4.659 -10.537  0.00  0.00     0.023 H 
ATOM     66  H   LIG d   1       4.224  -4.795 -11.571  0.00  0.00     0.023 H 
ATOM     67  H   LIG d   1       3.680  -3.197 -11.008  0.00  0.00     0.023 H 
ENDBRANCH   1  64
BRANCH  22  68
ATOM     68  O   LIG d   1       2.806  -5.339  -8.256  0.00  0.00    -0.388 OA
ATOM     69  H   LIG d   1       2.507  -5.910  -7.536  0.00  0.00     0.210 HD
ENDBRANCH  22  68
BRANCH  24  70
ATOM     70  O   LIG d   1       3.815  -9.232  -9.413  0.00  0.00    -0.392 OA
ATOM     71  H   LIG d   1       3.512 -10.021  -8.943  0.00  0.00     0.210 HD
ENDBRANCH  24  70
TORSDOF 7
ENDMDL
MODEL 5
REMARK VINA RESULT:      -5.9      1.713      7.203
REMARK  7 active torsions:
REMARK  status: ('A' for Active; 'I' for Inactive)
REMARK    1  A    between atoms: C_1  and  C_2 
REMARK    2  A    between atoms: C_11  and  C_25 
REMARK    3  A    between atoms: C_17  and  C_22 
REMARK    4  A    between atoms: C_22  and  C_24 
REMARK    5  A    between atoms: C_26  and  C_35 
REMARK    6  A    between atoms: C_27  and  O_34 
REMARK    7  A    between atoms: C_29  and  O_33 
ROOT
ATOM      1  C   LIG d   1       6.172  -2.747  -5.664  0.00  0.00    -0.014 C 
ATOM      2  H   LIG d   1       6.979  -2.015  -5.646  0.00  0.00     0.033 H 
ATOM      3  C   LIG d   1       5.770  -3.027  -7.115  0.00  0.00    -0.044 C 
ATOM      4  C   LIG d   1       5.293  -1.747  -7.769  0.00  0.00    -0.034 C 
ATOM      5  H   LIG d   1       6.111  -1.029  -7.716  0.00  0.00     0.031 H 
ATOM      6  C   LIG d   1       4.099  -1.173  -7.008  0.00  0.00    -0.030 C 
ATOM      7  H   LIG d   1       3.273  -1.884  -7.031  0.00  0.00     0.031 H 
ATOM      8  C   LIG d   1       3.668   0.138  -7.674  0.00  0.00    -0.049 C 
ATOM      9  C   LIG d   1       3.199  -0.190  -9.102  0.00  0.00    -0.046 C 
ATOM     10  C   LIG d   1       4.331  -0.791  -9.937  0.00  0.00    -0.016 C 
ATOM     11  C   LIG d   1       4.969  -1.991  -9.220  0.00  0.00    -0.031 C 
ATOM     12  H   LIG d   1       5.886  -2.262  -9.743  0.00  0.00     0.031 H 
ATOM     13  C   LIG d   1       3.947  -3.130  -9.422  0.00  0.00    -0.046 C 
ATOM     14  C   LIG d   1       3.495  -2.901 -10.875  0.00  0.00    -0.028 C 
ATOM     15  H   LIG d   1       4.270  -3.390 -11.465  0.00  0.00     0.031 H 
ATOM     16  C   LIG d   1       3.648  -1.432 -11.189  0.00  0.00     0.037 C 
ATOM     17  C   LIG d   1       2.357  -0.673 -11.428  0.00  0.00    -0.040 C 
ATOM     18  C   LIG d   1       1.286  -1.525 -12.095  0.00  0.00    -0.052 C 
ATOM     19  C   LIG d   1       1.012  -2.736 -11.194  0.00  0.00    -0.053 C 
ATOM     20  C   LIG d   1       2.250  -3.626 -11.232  0.00  0.00    -0.049 C 
ATOM     21  C   LIG d   1       4.499  -0.895  -5.558  0.00  0.00     0.000 C 
ATOM     22  C   LIG d   1       4.966  -2.194  -4.901  0.00  0.00     0.077 C 
ATOM     23  C   LIG d   1       5.365  -1.919  -3.449  0.00  0.00     0.003 C 
ATOM     24  C   LIG d   1       4.160  -1.365  -2.686  0.00  0.00     0.058 C 
ATOM     25  H   LIG d   1       3.350  -2.093  -2.708  0.00  0.00     0.059 H 
ATOM     26  C   LIG d   1       3.694  -0.064  -3.343  0.00  0.00    -0.026 C 
ATOM     27  C   LIG d   1       3.295  -0.340  -4.794  0.00  0.00    -0.042 C 
ATOM     28  H   LIG d   1       6.629  -3.420  -7.659  0.00  0.00     0.027 H 
ATOM     29  H   LIG d   1       4.963  -3.759  -7.132  0.00  0.00     0.027 H 
ATOM     30  H   LIG d   1       2.854   0.588  -7.107  0.00  0.00     0.027 H 
ATOM     31  H   LIG d   1       4.514   0.824  -7.714  0.00  0.00     0.027 H 
ATOM     32  H   LIG d   1       2.848   0.725  -9.579  0.00  0.00     0.027 H 
ATOM     33  H   LIG d   1       2.377  -0.904  -9.045  0.00  0.00     0.027 H 
ATOM     34  H   LIG d   1       4.422  -4.104  -9.311  0.00  0.00     0.027 H 
ATOM     35  H   LIG d   1       3.108  -3.026  -8.734  0.00  0.00     0.027 H 
ATOM     36  H   LIG d   1       1.977  -0.317 -10.470  0.00  0.00     0.028 H 
ATOM     37  H   LIG d   1       2.567   0.188 -12.063  0.00  0.00     0.028 H 
ATOM     38  H   LIG d   1       0.373  -0.941 -12.216  0.00  0.00     0.027 H 
ATOM     39  H   LIG d   1       1.638  -1.862 -13.070  0.00  0.00     0.027 H 
ATOM     40  H   LIG d   1       0.827  -2.403 -10.173  0.00  0.00     0.026 H 
ATOM     41  H   LIG d   1       0.148  -3.287 -11.567  0.00  0.00     0.026 H 
ATOM     42  H   LIG d   1       2.111  -4.449 -10.531  0.00  0.00     0.027 H 
ATOM     43  H   LIG d   1       2.354  -4.038 -12.237  0.00  0.00     0.027 H 
ATOM     44  H   LIG d   1       5.697  -2.845  -2.981  0.00  0.00     0.032 H 
ATOM     45  H   LIG d   1       6.175  -1.189  -3.427  0.00  0.00     0.032 H 
ATOM     46  H   LIG d   1       2.836   0.331  -2.799  0.00  0.00     0.029 H 
ATOM     47  H   LIG d   1       4.505   0.665  -3.322  0.00  0.00     0.029 H 
ATOM     48  H   LIG d   1       2.485  -1.068  -4.816  0.00  0.00     0.027 H 
ATOM     49  H   LIG d   1       2.964   0.587  -5.262  0.00  0.00     0.027 H 
ENDROOT
BRANCH  16  50
ATOM     50  C   LIG d   1       4.550  -1.269 -12.385  0.00  0.00     0.137 C 
ATOM     51  O   LIG d   1       4.440  -0.300 -13.097  0.00  0.00    -0.297 OA
BRANCH  50  52
ATOM     52  C   LIG d   1       5.590  -2.316 -12.692  0.00  0.00    -0.005 C 
ATOM     53  H   LIG d   1       5.254  -2.919 -13.414  0.00  0.00     0.031 H 
ATOM     54  H   LIG d   1       6.508  -1.829 -13.025  0.00  0.00     0.031 H 
ATOM     55  H   LIG d   1       5.794  -2.900 -11.795  0.00  0.00     0.031 H 
ENDBRANCH  50  52
ENDBRANCH  16  50
BRANCH  10  56
ATOM     56  C   LIG d   1       5.376   0.262 -10.311  0.00  0.00    -0.058 C 
ATOM     57  H   LIG d   1       4.882   1.217 -10.489  0.00  0.00     0.024 H 
ATOM     58  H   LIG d   1       6.091   0.369  -9.496  0.00  0.00     0.024 H 
ATOM     59  H   LIG d   1       5.898  -0.051 -11.216  0.00  0.00     0.024 H 
ENDBRANCH  10  56
BRANCH  21  60
ATOM     60  C   LIG d   1       5.637   0.129  -5.529  0.00  0.00    -0.057 C 
ATOM     61  H   LIG d   1       6.591  -0.385  -5.644  0.00  0.00     0.024 H 
ATOM     62  H   LIG d   1       5.506   0.840  -6.345  0.00  0.00     0.024 H 
ATOM     63  H   LIG d   1       5.622   0.661  -4.579  0.00  0.00     0.024 H 
ENDBRANCH  21  60
BRANCH   1  64
ATOM     64  C   LIG d   1       6.642  -4.044  -5.006  0.00  0.00    -0.060 C 
ATOM     65  H   LIG d   1       7.123  -3.817  -4.055  0.00  0.00     0.023 H 
ATOM     66  H   LIG d   1       7.354  -4.547  -5.661  0.00  0.00     0.023 H 
ATOM     67  H   LIG d   1       5.786  -4.696  -4.834  0.00  0.00     0.023 H 
ENDBRANCH   1  64
BRANCH  22  68
ATOM     68  O   LIG d   1       3.905  -3.151  -4.928  0.00  0.00    -0.388 OA
ATOM     69  H   LIG d   1       3.406  -3.209  -4.102  0.00  0.00     0.210 HD
ENDBRANCH  22  68
BRANCH  24  70
ATOM     70  O   LIG d   1       4.532  -1.108  -1.330  0.00  0.00    -0.392 OA
ATOM     71  H   LIG d   1       5.120  -1.776  -0.951  0.00  0.00     0.210 HD
ENDBRANCH  24  70
TORSDOF 7
ENDMDL
MODEL 6
REMARK VINA RESULT:      -5.7      7.652     12.177
REMARK  7 active torsions:
REMARK  status: ('A' for Active; 'I' for Inactive)
REMARK    1  A    between atoms: C_1  and  C_2 
REMARK    2  A    between atoms: C_11  and  C_25 
REMARK    3  A    between atoms: C_17  and  C_22 
REMARK    4  A    between atoms: C_22  and  C_24 
REMARK    5  A    between atoms: C_26  and  C_35 
REMARK    6  A    between atoms: C_27  and  O_34 
REMARK    7  A    between atoms: C_29  and  O_33 
ROOT
ATOM      1  C   LIG d   1      11.491   6.810  -0.024  0.00  0.00    -0.014 C 
ATOM      2  H   LIG d   1      12.524   7.147  -0.102  0.00  0.00     0.033 H 
ATOM      3  C   LIG d   1      11.349   5.441  -0.695  0.00  0.00    -0.044 C 
ATOM      4  C   LIG d   1      11.726   5.548  -2.158  0.00  0.00    -0.034 C 
ATOM      5  H   LIG d   1      12.753   5.907  -2.205  0.00  0.00     0.031 H 
ATOM      6  C   LIG d   1      10.829   6.561  -2.867  0.00  0.00    -0.030 C 
ATOM      7  H   LIG d   1       9.791   6.231  -2.815  0.00  0.00     0.031 H 
ATOM      8  C   LIG d   1      11.262   6.670  -4.332  0.00  0.00    -0.049 C 
ATOM      9  C   LIG d   1      11.035   5.301  -4.995  0.00  0.00    -0.046 C 
ATOM     10  C   LIG d   1      11.884   4.214  -4.334  0.00  0.00    -0.016 C 
ATOM     11  C   LIG d   1      11.667   4.192  -2.813  0.00  0.00    -0.031 C 
ATOM     12  H   LIG d   1      12.425   3.552  -2.362  0.00  0.00     0.031 H 
ATOM     13  C   LIG d   1      10.296   3.504  -2.644  0.00  0.00    -0.046 C 
ATOM     14  C   LIG d   1      10.362   2.391  -3.705  0.00  0.00    -0.028 C 
ATOM     15  H   LIG d   1      10.910   1.592  -3.205  0.00  0.00     0.031 H 
ATOM     16  C   LIG d   1      11.283   2.851  -4.810  0.00  0.00     0.037 C 
ATOM     17  C   LIG d   1      10.625   3.100  -6.153  0.00  0.00    -0.040 C 
ATOM     18  C   LIG d   1       9.460   2.158  -6.425  0.00  0.00    -0.052 C 
ATOM     19  C   LIG d   1       8.429   2.342  -5.303  0.00  0.00    -0.053 C 
ATOM     20  C   LIG d   1       9.042   1.790  -4.020  0.00  0.00    -0.049 C 
ATOM     21  C   LIG d   1      10.968   7.929  -2.195  0.00  0.00     0.000 C 
ATOM     22  C   LIG d   1      10.572   7.815  -0.722  0.00  0.00     0.077 C 
ATOM     23  C   LIG d   1      10.709   9.183  -0.049  0.00  0.00     0.003 C 
ATOM     24  C   LIG d   1       9.793  10.189  -0.748  0.00  0.00     0.058 C 
ATOM     25  H   LIG d   1       8.759   9.850  -0.676  0.00  0.00     0.059 H 
ATOM     26  C   LIG d   1      10.190  10.303  -2.221  0.00  0.00    -0.026 C 
ATOM     27  C   LIG d   1      10.053   8.936  -2.894  0.00  0.00    -0.042 C 
ATOM     28  H   LIG d   1      12.004   4.724  -0.198  0.00  0.00     0.027 H 
ATOM     29  H   LIG d   1      10.315   5.104  -0.617  0.00  0.00     0.027 H 
ATOM     30  H   LIG d   1      10.668   7.433  -4.835  0.00  0.00     0.027 H 
ATOM     31  H   LIG d   1      12.319   6.932  -4.382  0.00  0.00     0.027 H 
ATOM     32  H   LIG d   1      11.298   5.369  -6.050  0.00  0.00     0.027 H 
ATOM     33  H   LIG d   1       9.981   5.038  -4.904  0.00  0.00     0.027 H 
ATOM     34  H   LIG d   1      10.192   3.082  -1.644  0.00  0.00     0.027 H 
ATOM     35  H   LIG d   1       9.484   4.198  -2.858  0.00  0.00     0.027 H 
ATOM     36  H   LIG d   1      10.260   4.127  -6.180  0.00  0.00     0.028 H 
ATOM     37  H   LIG d   1      11.370   2.974  -6.939  0.00  0.00     0.028 H 
ATOM     38  H   LIG d   1       9.007   2.400  -7.386  0.00  0.00     0.027 H 
ATOM     39  H   LIG d   1       9.815   1.128  -6.434  0.00  0.00     0.027 H 
ATOM     40  H   LIG d   1       8.202   3.401  -5.179  0.00  0.00     0.026 H 
ATOM     41  H   LIG d   1       7.518   1.794  -5.544  0.00  0.00     0.026 H 
ATOM     42  H   LIG d   1       8.361   1.990  -3.193  0.00  0.00     0.027 H 
ATOM     43  H   LIG d   1       9.158   0.711  -4.124  0.00  0.00     0.027 H 
ATOM     44  H   LIG d   1      10.426   9.102   1.000  0.00  0.00     0.032 H 
ATOM     45  H   LIG d   1      11.743   9.522  -0.122  0.00  0.00     0.032 H 
ATOM     46  H   LIG d   1       9.537  11.020  -2.719  0.00  0.00     0.029 H 
ATOM     47  H   LIG d   1      11.223  10.641  -2.294  0.00  0.00     0.029 H 
ATOM     48  H   LIG d   1       9.019   8.597  -2.821  0.00  0.00     0.027 H 
ATOM     49  H   LIG d   1      10.336   9.017  -3.943  0.00  0.00     0.027 H 
ENDROOT
BRANCH  16  50
ATOM     50  C   LIG d   1      12.396   1.849  -4.980  0.00  0.00     0.137 C 
ATOM     51  O   LIG d   1      12.962   1.749  -6.042  0.00  0.00    -0.297 OA
BRANCH  50  52
ATOM     52  C   LIG d   1      12.804   0.973  -3.823  0.00  0.00    -0.005 C 
ATOM     53  H   LIG d   1      13.652   1.321  -3.423  0.00  0.00     0.031 H 
ATOM     54  H   LIG d   1      12.018   0.980  -3.067  0.00  0.00     0.031 H 
ATOM     55  H   LIG d   1      12.960  -0.046  -4.176  0.00  0.00     0.031 H 
ENDBRANCH  50  52
ENDBRANCH  16  50
BRANCH  10  56
ATOM     56  C   LIG d   1      13.364   4.360  -4.690  0.00  0.00    -0.058 C 
ATOM     57  H   LIG d   1      13.568   5.390  -4.981  0.00  0.00     0.024 H 
ATOM     58  H   LIG d   1      13.973   4.099  -3.825  0.00  0.00     0.024 H 
ATOM     59  H   LIG d   1      13.606   3.694  -5.519  0.00  0.00     0.024 H 
ENDBRANCH  10  56
BRANCH  21  60
ATOM     60  C   LIG d   1      12.420   8.403  -2.299  0.00  0.00    -0.057 C 
ATOM     61  H   LIG d   1      13.088   7.543  -2.236  0.00  0.00     0.024 H 
ATOM     62  H   LIG d   1      12.569   8.911  -3.251  0.00  0.00     0.024 H 
ATOM     63  H   LIG d   1      12.636   9.091  -1.482  0.00  0.00     0.024 H 
ENDBRANCH  21  60
BRANCH   1  64
ATOM     64  C   LIG d   1      11.099   6.698   1.450  0.00  0.00    -0.060 C 
ATOM     65  H   LIG d   1      11.897   7.102   2.071  0.00  0.00     0.023 H 
ATOM     66  H   LIG d   1      10.936   5.651   1.704  0.00  0.00     0.023 H 
ATOM     67  H   LIG d   1      10.182   7.260   1.626  0.00  0.00     0.023 H 
ENDBRANCH   1  64
BRANCH  22  68
ATOM     68  O   LIG d   1       9.217   7.371  -0.625  0.00  0.00    -0.388 OA
ATOM     69  H   LIG d   1       9.097   6.596  -0.061  0.00  0.00     0.210 HD
ENDBRANCH  22  68
BRANCH  24  70
ATOM     70  O   LIG d   1       9.920  11.466  -0.119  0.00  0.00    -0.392 OA
ATOM     71  H   LIG d   1      10.721  11.948  -0.367  0.00  0.00     0.210 HD
ENDBRANCH  24  70
TORSDOF 7
ENDMDL
MODEL 7
REMARK VINA RESULT:      -5.6      3.290      7.205
REMARK  7 active torsions:
REMARK  status: ('A' for Active; 'I' for Inactive)
REMARK    1  A    between atoms: C_1  and  C_2 
REMARK    2  A    between atoms: C_11  and  C_25 
REMARK    3  A    between atoms: C_17  and  C_22 
REMARK    4  A    between atoms: C_22  and  C_24 
REMARK    5  A    between atoms: C_26  and  C_35 
REMARK    6  A    between atoms: C_27  and  O_34 
REMARK    7  A    between atoms: C_29  and  O_33 
ROOT
ATOM      1  C   LIG d   1       8.218  -5.573  -6.136  0.00  0.00    -0.014 C 
ATOM      2  H   LIG d   1       8.548  -5.255  -7.124  0.00  0.00     0.033 H 
ATOM      3  C   LIG d   1       6.927  -4.837  -5.768  0.00  0.00    -0.044 C 
ATOM      4  C   LIG d   1       7.178  -3.343  -5.750  0.00  0.00    -0.034 C 
ATOM      5  H   LIG d   1       7.527  -3.059  -6.742  0.00  0.00     0.031 H 
ATOM      6  C   LIG d   1       8.270  -2.999  -4.739  0.00  0.00    -0.030 C 
ATOM      7  H   LIG d   1       7.951  -3.293  -3.739  0.00  0.00     0.031 H 
ATOM      8  C   LIG d   1       8.523  -1.488  -4.775  0.00  0.00    -0.049 C 
ATOM      9  C   LIG d   1       7.232  -0.783  -4.327  0.00  0.00    -0.046 C 
ATOM     10  C   LIG d   1       6.072  -1.087  -5.276  0.00  0.00    -0.016 C 
ATOM     11  C   LIG d   1       5.897  -2.601  -5.467  0.00  0.00    -0.031 C 
ATOM     12  H   LIG d   1       5.205  -2.771  -6.290  0.00  0.00     0.031 H 
ATOM     13  C   LIG d   1       5.214  -3.063  -4.162  0.00  0.00    -0.046 C 
ATOM     14  C   LIG d   1       4.215  -1.921  -3.902  0.00  0.00    -0.028 C 
ATOM     15  H   LIG d   1       3.362  -2.179  -4.530  0.00  0.00     0.031 H 
ATOM     16  C   LIG d   1       4.773  -0.660  -4.517  0.00  0.00     0.037 C 
ATOM     17  C   LIG d   1       5.167   0.429  -3.539  0.00  0.00    -0.040 C 
ATOM     18  C   LIG d   1       4.273   0.469  -2.307  0.00  0.00    -0.052 C 
ATOM     19  C   LIG d   1       4.355  -0.899  -1.616  0.00  0.00    -0.053 C 
ATOM     20  C   LIG d   1       3.666  -1.913  -2.523  0.00  0.00    -0.049 C 
ATOM     21  C   LIG d   1       9.560  -3.736  -5.105  0.00  0.00     0.000 C 
ATOM     22  C   LIG d   1       9.302  -5.243  -5.107  0.00  0.00     0.077 C 
ATOM     23  C   LIG d   1      10.591  -5.983  -5.470  0.00  0.00     0.003 C 
ATOM     24  C   LIG d   1      11.676  -5.652  -4.443  0.00  0.00     0.058 C 
ATOM     25  H   LIG d   1      11.344  -5.964  -3.452  0.00  0.00     0.059 H 
ATOM     26  C   LIG d   1      11.934  -4.144  -4.442  0.00  0.00    -0.026 C 
ATOM     27  C   LIG d   1      10.645  -3.405  -4.078  0.00  0.00    -0.042 C 
ATOM     28  H   LIG d   1       6.155  -5.071  -6.501  0.00  0.00     0.027 H 
ATOM     29  H   LIG d   1       6.598  -5.155  -4.779  0.00  0.00     0.027 H 
ATOM     30  H   LIG d   1       9.341  -1.236  -4.101  0.00  0.00     0.027 H 
ATOM     31  H   LIG d   1       8.775  -1.184  -5.791  0.00  0.00     0.027 H 
ATOM     32  H   LIG d   1       7.405   0.294  -4.305  0.00  0.00     0.027 H 
ATOM     33  H   LIG d   1       6.975  -1.125  -3.325  0.00  0.00     0.027 H 
ATOM     34  H   LIG d   1       4.693  -4.009  -4.309  0.00  0.00     0.027 H 
ATOM     35  H   LIG d   1       5.937  -3.139  -3.350  0.00  0.00     0.027 H 
ATOM     36  H   LIG d   1       6.196   0.260  -3.221  0.00  0.00     0.028 H 
ATOM     37  H   LIG d   1       5.112   1.393  -4.045  0.00  0.00     0.028 H 
ATOM     38  H   LIG d   1       4.618   1.248  -1.627  0.00  0.00     0.027 H 
ATOM     39  H   LIG d   1       3.244   0.671  -2.605  0.00  0.00     0.027 H 
ATOM     40  H   LIG d   1       5.398  -1.178  -1.472  0.00  0.00     0.026 H 
ATOM     41  H   LIG d   1       3.846  -0.857  -0.653  0.00  0.00     0.026 H 
ATOM     42  H   LIG d   1       3.789  -2.907  -2.092  0.00  0.00     0.027 H 
ATOM     43  H   LIG d   1       2.602  -1.680  -2.565  0.00  0.00     0.027 H 
ATOM     44  H   LIG d   1      10.407  -7.056  -5.471  0.00  0.00     0.032 H 
ATOM     45  H   LIG d   1      10.922  -5.670  -6.461  0.00  0.00     0.032 H 
ATOM     46  H   LIG d   1      12.707  -3.908  -3.710  0.00  0.00     0.029 H 
ATOM     47  H   LIG d   1      12.265  -3.832  -5.433  0.00  0.00     0.029 H 
ATOM     48  H   LIG d   1      10.315  -3.717  -3.087  0.00  0.00     0.027 H 
ATOM     49  H   LIG d   1      10.829  -2.331  -4.078  0.00  0.00     0.027 H 
ENDROOT
BRANCH  16  50
ATOM     50  C   LIG d   1       3.780  -0.106  -5.505  0.00  0.00     0.137 C 
ATOM     51  O   LIG d   1       3.246   0.956  -5.294  0.00  0.00    -0.297 OA
BRANCH  50  52
ATOM     52  C   LIG d   1       3.453  -0.877  -6.759  0.00  0.00    -0.005 C 
ATOM     53  H   LIG d   1       4.235  -0.849  -7.381  0.00  0.00     0.031 H 
ATOM     54  H   LIG d   1       3.234  -1.914  -6.500  0.00  0.00     0.031 H 
ATOM     55  H   LIG d   1       2.585  -0.432  -7.244  0.00  0.00     0.031 H 
ENDBRANCH  50  52
ENDBRANCH  16  50
BRANCH  10  56
ATOM     56  C   LIG d   1       6.235  -0.365  -6.615  0.00  0.00    -0.058 C 
ATOM     57  H   LIG d   1       7.110   0.282  -6.575  0.00  0.00     0.024 H 
ATOM     58  H   LIG d   1       6.362  -1.100  -7.410  0.00  0.00     0.024 H 
ATOM     59  H   LIG d   1       5.347   0.236  -6.814  0.00  0.00     0.024 H 
ENDBRANCH  10  56
BRANCH  21  60
ATOM     60  C   LIG d   1      10.023  -3.296  -6.495  0.00  0.00    -0.057 C 
ATOM     61  H   LIG d   1      10.145  -2.212  -6.511  0.00  0.00     0.024 H 
ATOM     62  H   LIG d   1      10.975  -3.772  -6.729  0.00  0.00     0.024 H 
ATOM     63  H   LIG d   1       9.279  -3.589  -7.235  0.00  0.00     0.024 H 
ENDBRANCH  21  60
BRANCH   1  64
ATOM     64  C   LIG d   1       7.961  -7.080  -6.141  0.00  0.00    -0.060 C 
ATOM     65  H   LIG d   1       8.846  -7.599  -6.507  0.00  0.00     0.023 H 
ATOM     66  H   LIG d   1       7.115  -7.302  -6.792  0.00  0.00     0.023 H 
ATOM     67  H   LIG d   1       7.736  -7.415  -5.129  0.00  0.00     0.023 H 
ENDBRANCH   1  64
BRANCH  22  68
ATOM     68  O   LIG d   1       8.868  -5.655  -3.808  0.00  0.00    -0.388 OA
ATOM     69  H   LIG d   1       8.641  -4.922  -3.219  0.00  0.00     0.210 HD
ENDBRANCH  22  68
BRANCH  24  70
ATOM     70  O   LIG d   1      12.880  -6.343  -4.782  0.00  0.00    -0.392 OA
ATOM     71  H   LIG d   1      13.684  -5.909  -4.466  0.00  0.00     0.210 HD
ENDBRANCH  24  70
TORSDOF 7
ENDMDL
MODEL 8
REMARK VINA RESULT:      -5.4      9.976     12.054
REMARK  7 active torsions:
REMARK  status: ('A' for Active; 'I' for Inactive)
REMARK    1  A    between atoms: C_1  and  C_2 
REMARK    2  A    between atoms: C_11  and  C_25 
REMARK    3  A    between atoms: C_17  and  C_22 
REMARK    4  A    between atoms: C_22  and  C_24 
REMARK    5  A    between atoms: C_26  and  C_35 
REMARK    6  A    between atoms: C_27  and  O_34 
REMARK    7  A    between atoms: C_29  and  O_33 
ROOT
ATOM      1  C   LIG d   1      12.720   6.894  -6.919  0.00  0.00    -0.014 C 
ATOM      2  H   LIG d   1      12.402   5.865  -7.081  0.00  0.00     0.033 H 
ATOM      3  C   LIG d   1      13.092   7.088  -5.448  0.00  0.00    -0.044 C 
ATOM      4  C   LIG d   1      11.889   6.800  -4.574  0.00  0.00    -0.034 C 
ATOM      5  H   LIG d   1      11.580   5.774  -4.773  0.00  0.00     0.031 H 
ATOM      6  C   LIG d   1      10.732   7.729  -4.937  0.00  0.00    -0.030 C 
ATOM      7  H   LIG d   1      11.026   8.765  -4.765  0.00  0.00     0.031 H 
ATOM      8  C   LIG d   1       9.523   7.385  -4.062  0.00  0.00    -0.049 C 
ATOM      9  C   LIG d   1       9.905   7.664  -2.598  0.00  0.00    -0.046 C 
ATOM     10  C   LIG d   1      11.075   6.786  -2.150  0.00  0.00    -0.016 C 
ATOM     11  C   LIG d   1      12.261   6.910  -3.118  0.00  0.00    -0.031 C 
ATOM     12  H   LIG d   1      12.987   6.132  -2.882  0.00  0.00     0.031 H 
ATOM     13  C   LIG d   1      12.889   8.275  -2.763  0.00  0.00    -0.046 C 
ATOM     14  C   LIG d   1      12.789   8.283  -1.227  0.00  0.00    -0.028 C 
ATOM     15  H   LIG d   1      13.663   7.713  -0.909  0.00  0.00     0.031 H 
ATOM     16  C   LIG d   1      11.611   7.426  -0.828  0.00  0.00     0.037 C 
ATOM     17  C   LIG d   1      10.450   8.163  -0.188  0.00  0.00    -0.040 C 
ATOM     18  C   LIG d   1      10.895   9.350   0.654  0.00  0.00    -0.052 C 
ATOM     19  C   LIG d   1      11.677  10.310  -0.253  0.00  0.00    -0.053 C 
ATOM     20  C   LIG d   1      12.988   9.625  -0.624  0.00  0.00    -0.049 C 
ATOM     21  C   LIG d   1      10.361   7.537  -6.409  0.00  0.00     0.000 C 
ATOM     22  C   LIG d   1      11.577   7.844  -7.285  0.00  0.00     0.077 C 
ATOM     23  C   LIG d   1      11.208   7.655  -8.758  0.00  0.00     0.003 C 
ATOM     24  C   LIG d   1      10.064   8.603  -9.122  0.00  0.00     0.058 C 
ATOM     25  H   LIG d   1      10.379   9.633  -8.956  0.00  0.00     0.059 H 
ATOM     26  C   LIG d   1       8.848   8.295  -8.247  0.00  0.00    -0.026 C 
ATOM     27  C   LIG d   1       9.217   8.484  -6.775  0.00  0.00    -0.042 C 
ATOM     28  H   LIG d   1      13.906   6.411  -5.187  0.00  0.00     0.027 H 
ATOM     29  H   LIG d   1      13.411   8.118  -5.287  0.00  0.00     0.027 H 
ATOM     30  H   LIG d   1       8.672   8.001  -4.351  0.00  0.00     0.027 H 
ATOM     31  H   LIG d   1       9.273   6.330  -4.182  0.00  0.00     0.027 H 
ATOM     32  H   LIG d   1       9.043   7.464  -1.962  0.00  0.00     0.027 H 
ATOM     33  H   LIG d   1      10.186   8.712  -2.503  0.00  0.00     0.027 H 
ATOM     34  H   LIG d   1      13.928   8.322  -3.085  0.00  0.00     0.027 H 
ATOM     35  H   LIG d   1      12.312   9.092  -3.194  0.00  0.00     0.027 H 
ATOM     36  H   LIG d   1       9.784   8.520  -0.975  0.00  0.00     0.028 H 
ATOM     37  H   LIG d   1       9.899   7.468   0.446  0.00  0.00     0.028 H 
ATOM     38  H   LIG d   1      10.022   9.858   1.064  0.00  0.00     0.027 H 
ATOM     39  H   LIG d   1      11.535   9.006   1.466  0.00  0.00     0.027 H 
ATOM     40  H   LIG d   1      11.100  10.519  -1.154  0.00  0.00     0.026 H 
ATOM     41  H   LIG d   1      11.881  11.238   0.280  0.00  0.00     0.026 H 
ATOM     42  H   LIG d   1      13.520  10.253  -1.339  0.00  0.00     0.027 H 
ATOM     43  H   LIG d   1      13.597   9.525   0.274  0.00  0.00     0.027 H 
ATOM     44  H   LIG d   1      12.074   7.874  -9.381  0.00  0.00     0.032 H 
ATOM     45  H   LIG d   1      10.892   6.624  -8.923  0.00  0.00     0.032 H 
ATOM     46  H   LIG d   1       8.032   8.970  -8.507  0.00  0.00     0.029 H 
ATOM     47  H   LIG d   1       8.532   7.264  -8.412  0.00  0.00     0.029 H 
ATOM     48  H   LIG d   1       9.532   9.515  -6.609  0.00  0.00     0.027 H 
ATOM     49  H   LIG d   1       8.351   8.265  -6.151  0.00  0.00     0.027 H 
ENDROOT
BRANCH  16  50
ATOM     50  C   LIG d   1      12.079   6.335   0.099  0.00  0.00     0.137 C 
ATOM     51  O   LIG d   1      13.189   5.877  -0.019  0.00  0.00    -0.297 OA
BRANCH  50  52
ATOM     52  C   LIG d   1      11.159   5.814   1.175  0.00  0.00    -0.005 C 
ATOM     53  H   LIG d   1      11.120   4.817   1.126  0.00  0.00     0.031 H 
ATOM     54  H   LIG d   1      11.538   6.115   2.152  0.00  0.00     0.031 H 
ATOM     55  H   LIG d   1      10.161   6.225   1.029  0.00  0.00     0.031 H 
ENDBRANCH  50  52
ENDBRANCH  16  50
BRANCH  10  56
ATOM     56  C   LIG d   1      10.648   5.328  -1.966  0.00  0.00    -0.058 C 
ATOM     57  H   LIG d   1       9.992   5.036  -2.785  0.00  0.00     0.024 H 
ATOM     58  H   LIG d   1      11.531   4.690  -1.961  0.00  0.00     0.024 H 
ATOM     59  H   LIG d   1      10.117   5.222  -1.020  0.00  0.00     0.024 H 
ENDBRANCH  10  56
BRANCH  21  60
ATOM     60  C   LIG d   1       9.918   6.090  -6.640  0.00  0.00    -0.057 C 
ATOM     61  H   LIG d   1       9.432   5.712  -5.740  0.00  0.00     0.024 H 
ATOM     62  H   LIG d   1       9.218   6.053  -7.474  0.00  0.00     0.024 H 
ATOM     63  H   LIG d   1      10.789   5.476  -6.868  0.00  0.00     0.024 H 
ENDBRANCH  21  60
BRANCH   1  64
ATOM     64  C   LIG d   1      13.936   7.197  -7.797  0.00  0.00    -0.060 C 
ATOM     65  H   LIG d   1      13.610   7.680  -8.717  0.00  0.00     0.023 H 
ATOM     66  H   LIG d   1      14.451   6.267  -8.038  0.00  0.00     0.023 H 
ATOM     67  H   LIG d   1      14.615   7.859  -7.260  0.00  0.00     0.023 H 
ENDBRANCH   1  64
BRANCH  22  68
ATOM     68  O   LIG d   1      11.992   9.195  -7.069  0.00  0.00    -0.388 OA
ATOM     69  H   LIG d   1      12.792   9.442  -7.552  0.00  0.00     0.210 HD
ENDBRANCH  22  68
BRANCH  24  70
ATOM     70  O   LIG d   1       9.719   8.426 -10.498  0.00  0.00    -0.392 OA
ATOM     71  H   LIG d   1       8.923   7.895 -10.638  0.00  0.00     0.210 HD
ENDBRANCH  24  70
TORSDOF 7
ENDMDL
MODEL 9
REMARK VINA RESULT:      -5.4      4.087      7.256
REMARK  7 active torsions:
REMARK  status: ('A' for Active; 'I' for Inactive)
REMARK    1  A    between atoms: C_1  and  C_2 
REMARK    2  A    between atoms: C_11  and  C_25 
REMARK    3  A    between atoms: C_17  and  C_22 
REMARK    4  A    between atoms: C_22  and  C_24 
REMARK    5  A    between atoms: C_26  and  C_35 
REMARK    6  A    between atoms: C_27  and  O_34 
REMARK    7  A    between atoms: C_29  and  O_33 
ROOT
ATOM      1  C   LIG d   1       6.109  -1.627  -5.912  0.00  0.00    -0.014 C 
ATOM      2  H   LIG d   1       6.592  -2.370  -5.278  0.00  0.00     0.033 H 
ATOM      3  C   LIG d   1       7.175  -0.856  -6.696  0.00  0.00    -0.044 C 
ATOM      4  C   LIG d   1       8.109  -0.154  -5.733  0.00  0.00    -0.034 C 
ATOM      5  H   LIG d   1       8.558  -0.918  -5.099  0.00  0.00     0.031 H 
ATOM      6  C   LIG d   1       7.329   0.812  -4.843  0.00  0.00    -0.030 C 
ATOM      7  H   LIG d   1       6.853   1.576  -5.458  0.00  0.00     0.031 H 
ATOM      8  C   LIG d   1       8.298   1.475  -3.859  0.00  0.00    -0.049 C 
ATOM      9  C   LIG d   1       9.307   2.302  -4.674  0.00  0.00    -0.046 C 
ATOM     10  C   LIG d   1      10.125   1.415  -5.614  0.00  0.00    -0.016 C 
ATOM     11  C   LIG d   1       9.210   0.545  -6.489  0.00  0.00    -0.031 C 
ATOM     12  H   LIG d   1       9.819  -0.205  -6.992  0.00  0.00     0.031 H 
ATOM     13  C   LIG d   1       8.676   1.524  -7.555  0.00  0.00    -0.046 C 
ATOM     14  C   LIG d   1       9.924   2.370  -7.867  0.00  0.00    -0.028 C 
ATOM     15  H   LIG d   1      10.471   1.763  -8.589  0.00  0.00     0.031 H 
ATOM     16  C   LIG d   1      10.802   2.383  -6.639  0.00  0.00     0.037 C 
ATOM     17  C   LIG d   1      10.949   3.726  -5.951  0.00  0.00    -0.040 C 
ATOM     18  C   LIG d   1      10.922   4.895  -6.925  0.00  0.00    -0.052 C 
ATOM     19  C   LIG d   1       9.590   4.849  -7.686  0.00  0.00    -0.053 C 
ATOM     20  C   LIG d   1       9.624   3.627  -8.597  0.00  0.00    -0.049 C 
ATOM     21  C   LIG d   1       6.263   0.043  -4.061  0.00  0.00     0.000 C 
ATOM     22  C   LIG d   1       5.315  -0.652  -5.040  0.00  0.00     0.077 C 
ATOM     23  C   LIG d   1       4.246  -1.420  -4.260  0.00  0.00     0.003 C 
ATOM     24  C   LIG d   1       3.453  -0.446  -3.386  0.00  0.00     0.058 C 
ATOM     25  H   LIG d   1       2.975   0.302  -4.019  0.00  0.00     0.059 H 
ATOM     26  C   LIG d   1       4.402   0.248  -2.406  0.00  0.00    -0.026 C 
ATOM     27  C   LIG d   1       5.470   1.016  -3.186  0.00  0.00    -0.042 C 
ATOM     28  H   LIG d   1       7.741  -1.551  -7.317  0.00  0.00     0.027 H 
ATOM     29  H   LIG d   1       6.691  -0.112  -7.330  0.00  0.00     0.027 H 
ATOM     30  H   LIG d   1       7.746   2.123  -3.179  0.00  0.00     0.027 H 
ATOM     31  H   LIG d   1       8.825   0.708  -3.292  0.00  0.00     0.027 H 
ATOM     32  H   LIG d   1       9.981   2.816  -3.989  0.00  0.00     0.027 H 
ATOM     33  H   LIG d   1       8.761   3.039  -5.262  0.00  0.00     0.027 H 
ATOM     34  H   LIG d   1       8.337   0.989  -8.442  0.00  0.00     0.027 H 
ATOM     35  H   LIG d   1       7.878   2.145  -7.148  0.00  0.00     0.027 H 
ATOM     36  H   LIG d   1      10.134   3.845  -5.236  0.00  0.00     0.028 H 
ATOM     37  H   LIG d   1      11.894   3.742  -5.409  0.00  0.00     0.028 H 
ATOM     38  H   LIG d   1      11.001   5.834  -6.377  0.00  0.00     0.027 H 
ATOM     39  H   LIG d   1      11.751   4.809  -7.627  0.00  0.00     0.027 H 
ATOM     40  H   LIG d   1       8.764   4.762  -6.981  0.00  0.00     0.026 H 
ATOM     41  H   LIG d   1       9.474   5.754  -8.283  0.00  0.00     0.026 H 
ATOM     42  H   LIG d   1       8.653   3.526  -9.083  0.00  0.00     0.027 H 
ATOM     43  H   LIG d   1      10.383   3.783  -9.364  0.00  0.00     0.027 H 
ATOM     44  H   LIG d   1       3.571  -1.914  -4.958  0.00  0.00     0.032 H 
ATOM     45  H   LIG d   1       4.725  -2.167  -3.627  0.00  0.00     0.032 H 
ATOM     46  H   LIG d   1       3.837   0.942  -1.783  0.00  0.00     0.029 H 
ATOM     47  H   LIG d   1       4.881  -0.500  -1.774  0.00  0.00     0.029 H 
ATOM     48  H   LIG d   1       4.990   1.764  -3.818  0.00  0.00     0.027 H 
ATOM     49  H   LIG d   1       6.146   1.510  -2.488  0.00  0.00     0.027 H 
ENDROOT
BRANCH  16  50
ATOM     50  C   LIG d   1      12.167   1.854  -6.995  0.00  0.00     0.137 C 
ATOM     51  O   LIG d   1      13.132   2.194  -6.356  0.00  0.00    -0.297 OA
BRANCH  50  52
ATOM     52  C   LIG d   1      12.326   0.900  -8.152  0.00  0.00    -0.005 C 
ATOM     53  H   LIG d   1      11.615   0.200  -8.107  0.00  0.00     0.031 H 
ATOM     54  H   LIG d   1      12.237   1.448  -9.090  0.00  0.00     0.031 H 
ATOM     55  H   LIG d   1      13.306   0.427  -8.100  0.00  0.00     0.031 H 
ENDBRANCH  50  52
ENDBRANCH  16  50
BRANCH  10  56
ATOM     56  C   LIG d   1      11.142   0.568  -4.846  0.00  0.00    -0.058 C 
ATOM     57  H   LIG d   1      11.910   0.211  -5.531  0.00  0.00     0.024 H 
ATOM     58  H   LIG d   1      11.604   1.173  -4.066  0.00  0.00     0.024 H 
ATOM     59  H   LIG d   1      10.635  -0.285  -4.393  0.00  0.00     0.024 H 
ENDBRANCH  10  56
BRANCH  21  60
ATOM     60  C   LIG d   1       6.937  -1.006  -3.173  0.00  0.00    -0.057 C 
ATOM     61  H   LIG d   1       7.995  -0.764  -3.065  0.00  0.00     0.024 H 
ATOM     62  H   LIG d   1       6.464  -1.010  -2.191  0.00  0.00     0.024 H 
ATOM     63  H   LIG d   1       6.834  -1.989  -3.630  0.00  0.00     0.024 H 
ENDBRANCH  21  60
BRANCH   1  64
ATOM     64  C   LIG d   1       5.162  -2.325  -6.890  0.00  0.00    -0.060 C 
ATOM     65  H   LIG d   1       4.317  -1.673  -7.106  0.00  0.00     0.023 H 
ATOM     66  H   LIG d   1       4.801  -3.252  -6.446  0.00  0.00     0.023 H 
ATOM     67  H   LIG d   1       5.694  -2.548  -7.814  0.00  0.00     0.023 H 
ENDBRANCH   1  64
BRANCH  22  68
ATOM     68  O   LIG d   1       4.686   0.327  -5.870  0.00  0.00    -0.388 OA
ATOM     69  H   LIG d   1       3.720   0.294  -5.854  0.00  0.00     0.210 HD
ENDBRANCH  22  68
BRANCH  24  70
ATOM     70  O   LIG d   1       2.455  -1.163  -2.658  0.00  0.00    -0.392 OA
ATOM     71  H   LIG d   1       2.812  -1.769  -1.994  0.00  0.00     0.210 HD
ENDBRANCH  24  70
TORSDOF 7
ENDMDL
MODEL 10
REMARK VINA RESULT:      -5.3      1.645      3.449
REMARK  7 active torsions:
REMARK  status: ('A' for Active; 'I' for Inactive)
REMARK    1  A    between atoms: C_1  and  C_2 
REMARK    2  A    between atoms: C_11  and  C_25 
REMARK    3  A    between atoms: C_17  and  C_22 
REMARK    4  A    between atoms: C_22  and  C_24 
REMARK    5  A    between atoms: C_26  and  C_35 
REMARK    6  A    between atoms: C_27  and  O_34 
REMARK    7  A    between atoms: C_29  and  O_33 
ROOT
ATOM      1  C   LIG d   1       2.972  -3.211  -9.838  0.00  0.00    -0.014 C 
ATOM      2  H   LIG d   1       1.974  -2.781  -9.755  0.00  0.00     0.033 H 
ATOM      3  C   LIG d   1       3.543  -3.450  -8.439  0.00  0.00    -0.044 C 
ATOM      4  C   LIG d   1       3.632  -2.135  -7.692  0.00  0.00    -0.034 C 
ATOM      5  H   LIG d   1       2.626  -1.719  -7.643  0.00  0.00     0.031 H 
ATOM      6  C   LIG d   1       4.524  -1.152  -8.448  0.00  0.00    -0.030 C 
ATOM      7  H   LIG d   1       5.533  -1.557  -8.527  0.00  0.00     0.031 H 
ATOM      8  C   LIG d   1       4.560   0.175  -7.685  0.00  0.00    -0.049 C 
ATOM      9  C   LIG d   1       5.209  -0.085  -6.315  0.00  0.00    -0.046 C 
ATOM     10  C   LIG d   1       4.390  -1.079  -5.490  0.00  0.00    -0.016 C 
ATOM     11  C   LIG d   1       4.119  -2.365  -6.284  0.00  0.00    -0.031 C 
ATOM     12  H   LIG d   1       3.376  -2.956  -5.749  0.00  0.00     0.031 H 
ATOM     13  C   LIG d   1       5.463  -3.124  -6.232  0.00  0.00    -0.046 C 
ATOM     14  C   LIG d   1       5.920  -2.866  -4.785  0.00  0.00    -0.028 C 
ATOM     15  H   LIG d   1       5.385  -3.622  -4.209  0.00  0.00     0.031 H 
ATOM     16  C   LIG d   1       5.328  -1.553  -4.332  0.00  0.00     0.037 C 
ATOM     17  C   LIG d   1       6.323  -0.436  -4.082  0.00  0.00    -0.040 C 
ATOM     18  C   LIG d   1       7.655  -0.941  -3.542  0.00  0.00    -0.052 C 
ATOM     19  C   LIG d   1       8.236  -1.930  -4.562  0.00  0.00    -0.053 C 
ATOM     20  C   LIG d   1       7.353  -3.173  -4.550  0.00  0.00    -0.049 C 
ATOM     21  C   LIG d   1       3.954  -0.914  -9.848  0.00  0.00     0.000 C 
ATOM     22  C   LIG d   1       3.881  -2.244 -10.600  0.00  0.00     0.077 C 
ATOM     23  C   LIG d   1       3.313  -2.009 -12.002  0.00  0.00     0.003 C 
ATOM     24  C   LIG d   1       4.221  -1.040 -12.763  0.00  0.00     0.058 C 
ATOM     25  H   LIG d   1       5.221  -1.467 -12.843  0.00  0.00     0.059 H 
ATOM     26  C   LIG d   1       4.293   0.290 -12.011  0.00  0.00    -0.026 C 
ATOM     27  C   LIG d   1       4.861   0.054 -10.610  0.00  0.00    -0.042 C 
ATOM     28  H   LIG d   1       2.895  -4.138  -7.895  0.00  0.00     0.027 H 
ATOM     29  H   LIG d   1       4.541  -3.880  -8.523  0.00  0.00     0.027 H 
ATOM     30  H   LIG d   1       5.145   0.905  -8.244  0.00  0.00     0.027 H 
ATOM     31  H   LIG d   1       3.544   0.545  -7.546  0.00  0.00     0.027 H 
ATOM     32  H   LIG d   1       5.282   0.857  -5.772  0.00  0.00     0.027 H 
ATOM     33  H   LIG d   1       6.209  -0.488  -6.472  0.00  0.00     0.027 H 
ATOM     34  H   LIG d   1       5.317  -4.188  -6.411  0.00  0.00     0.027 H 
ATOM     35  H   LIG d   1       6.173  -2.704  -6.944  0.00  0.00     0.027 H 
ATOM     36  H   LIG d   1       6.501   0.092  -5.019  0.00  0.00     0.028 H 
ATOM     37  H   LIG d   1       5.895   0.262  -3.362  0.00  0.00     0.028 H 
ATOM     38  H   LIG d   1       8.339  -0.103  -3.409  0.00  0.00     0.027 H 
ATOM     39  H   LIG d   1       7.498  -1.444  -2.588  0.00  0.00     0.027 H 
ATOM     40  H   LIG d   1       8.232  -1.482  -5.555  0.00  0.00     0.026 H 
ATOM     41  H   LIG d   1       9.255  -2.196  -4.279  0.00  0.00     0.026 H 
ATOM     42  H   LIG d   1       7.697  -3.853  -5.329  0.00  0.00     0.027 H 
ATOM     43  H   LIG d   1       7.457  -3.668  -3.584  0.00  0.00     0.027 H 
ATOM     44  H   LIG d   1       3.262  -2.956 -12.537  0.00  0.00     0.032 H 
ATOM     45  H   LIG d   1       2.313  -1.581 -11.922  0.00  0.00     0.032 H 
ATOM     46  H   LIG d   1       4.939   0.980 -12.554  0.00  0.00     0.029 H 
ATOM     47  H   LIG d   1       3.293   0.716 -11.931  0.00  0.00     0.029 H 
ATOM     48  H   LIG d   1       5.861  -0.372 -10.691  0.00  0.00     0.027 H 
ATOM     49  H   LIG d   1       4.912   1.001 -10.074  0.00  0.00     0.027 H 
ENDROOT
BRANCH  16  50
ATOM     50  C   LIG d   1       4.509  -1.777  -3.088  0.00  0.00     0.137 C 
ATOM     51  O   LIG d   1       3.918  -2.819  -2.934  0.00  0.00    -0.297 OA
BRANCH  50  52
ATOM     52  C   LIG d   1       4.427  -0.701  -2.035  0.00  0.00    -0.005 C 
ATOM     53  H   LIG d   1       3.747  -0.020  -2.306  0.00  0.00     0.031 H 
ATOM     54  H   LIG d   1       4.135  -1.146  -1.083  0.00  0.00     0.031 H 
ATOM     55  H   LIG d   1       5.400  -0.221  -1.930  0.00  0.00     0.031 H 
ENDBRANCH  50  52
ENDBRANCH  16  50
BRANCH  10  56
ATOM     56  C   LIG d   1       3.093  -0.451  -4.975  0.00  0.00    -0.058 C 
ATOM     57  H   LIG d   1       2.742   0.294  -5.688  0.00  0.00     0.024 H 
ATOM     58  H   LIG d   1       2.336  -1.226  -4.858  0.00  0.00     0.024 H 
ATOM     59  H   LIG d   1       3.278   0.026  -4.012  0.00  0.00     0.024 H 
ENDBRANCH  10  56
BRANCH  21  60
ATOM     60  C   LIG d   1       2.550  -0.315  -9.734  0.00  0.00    -0.057 C 
ATOM     61  H   LIG d   1       2.393   0.049  -8.718  0.00  0.00     0.024 H 
ATOM     62  H   LIG d   1       2.450   0.513 -10.436  0.00  0.00     0.024 H 
ATOM     63  H   LIG d   1       1.809  -1.079  -9.965  0.00  0.00     0.024 H 
ENDBRANCH  21  60
BRANCH   1  64
ATOM     64  C   LIG d   1       2.895  -4.540 -10.591  0.00  0.00    -0.060 C 
ATOM     65  H   LIG d   1       2.475  -5.305  -9.938  0.00  0.00     0.023 H 
ATOM     66  H   LIG d   1       3.895  -4.839 -10.904  0.00  0.00     0.023 H 
ATOM     67  H   LIG d   1       2.260  -4.424 -11.469  0.00  0.00     0.023 H 
ENDBRANCH   1  64
BRANCH  22  68
ATOM     68  O   LIG d   1       5.191  -2.805 -10.706  0.00  0.00    -0.388 OA
ATOM     69  H   LIG d   1       5.495  -2.925 -11.616  0.00  0.00     0.210 HD
ENDBRANCH  22  68
BRANCH  24  70
ATOM     70  O   LIG d   1       3.691  -0.821 -14.072  0.00  0.00    -0.392 OA
ATOM     71  H   LIG d   1       3.304   0.057 -14.197  0.00  0.00     0.210 HD
ENDBRANCH  24  70
TORSDOF 7
ENDMDL
