MODEL 1
REMARK VINA RESULT:      -7.3      0.000      0.000
REMARK  8 active torsions:
REMARK  status: ('A' for Active; 'I' for Inactive)
REMARK    1  A    between atoms: C_1  and  C_2 
REMARK    2  A    between atoms: C_17  and  C_20 
REMARK    3  A    between atoms: C_20  and  C_21 
REMARK    4  A    between atoms: C_21  and  S_22 
REMARK    5  A    between atoms: S_22  and  C_23 
REMARK    6  A    between atoms: N_26  and  C_29 
REMARK    7  A    between atoms: C_29  and  C_30 
REMARK    8  A    between atoms: C_30  and  C_31 
ROOT
ATOM      1  C   LIG d   1       8.352  -4.366  -4.201  0.00  0.00    -0.049 A 
ATOM      2  C   LIG d   1       7.266  -3.575  -4.530  0.00  0.00    -0.048 A 
ATOM      3  C   LIG d   1       6.339  -4.021  -5.445  0.00  0.00     0.036 A 
ATOM      4  C   LIG d   1       6.480  -5.266  -6.049  0.00  0.00     0.061 A 
ATOM      5  C   LIG d   1       7.578  -6.058  -5.713  0.00  0.00     0.063 A 
ATOM      6  C   LIG d   1       8.506  -5.604  -4.799  0.00  0.00    -0.039 A 
ATOM      7 CL   LIG d   1       7.779  -7.616  -6.452  0.00  0.00    -0.082 Cl
ATOM      8  N   LIG d   1       5.425  -5.497  -6.935  0.00  0.00    -0.279 N 
ATOM      9  C   LIG d   1       4.558  -4.465  -6.971  0.00  0.00     0.274 A 
ATOM     10  O   LIG d   1       3.554  -4.387  -7.646  0.00  0.00    -0.269 OA
ATOM     11  C   LIG d   1       5.078  -3.431  -6.012  0.00  0.00     0.106 A 
ATOM     12  C   LIG d   1       5.349  -2.096  -6.715  0.00  0.00     0.111 A 
ATOM     13  H   LIG d   1       6.378  -2.007  -7.066  0.00  0.00     0.047 H 
ATOM     14  C   LIG d   1       4.975  -1.015  -5.663  0.00  0.00     0.096 A 
ATOM     15  H   LIG d   1       5.793  -0.328  -5.453  0.00  0.00     0.046 H 
ATOM     16  C   LIG d   1       4.536  -1.813  -4.416  0.00  0.00    -0.008 C 
ATOM     17  H   LIG d   1       5.371  -1.924  -3.724  0.00  0.00     0.086 H 
ATOM     18  N   LIG d   1       4.097  -3.136  -4.951  0.00  0.00     0.245 N 
ATOM     19  C   LIG d   1       3.779  -0.327  -6.279  0.00  0.00     0.231 A 
ATOM     20  O   LIG d   1       3.161   0.587  -5.776  0.00  0.00    -0.275 OA
ATOM     21  N   LIG d   1       3.508  -0.883  -7.465  0.00  0.00    -0.241 N 
ATOM     22  C   LIG d   1       4.338  -1.891  -7.821  0.00  0.00     0.232 A 
ATOM     23  O   LIG d   1       4.286  -2.529  -8.850  0.00  0.00    -0.275 OA
ATOM     24  H   LIG d   1       7.145  -2.606  -4.068  0.00  0.00     0.063 H 
ATOM     25  H   LIG d   1       9.357  -6.220  -4.545  0.00  0.00     0.064 H 
ATOM     26  H   LIG d   1       5.328  -6.304  -7.463  0.00  0.00     0.155 HD
ATOM     27  H   LIG d   1       3.167  -3.080  -5.337  0.00  0.00     0.203 HD
ATOM     28  H   LIG d   1       4.139  -3.836  -4.226  0.00  0.00     0.203 HD
ENDROOT
BRANCH  16  29
ATOM     29  C   LIG d   1       3.362  -1.117  -3.724  0.00  0.00     0.000 C 
ATOM     30  H   LIG d   1       3.080  -0.230  -4.292  0.00  0.00     0.033 H 
ATOM     31  H   LIG d   1       2.515  -1.799  -3.673  0.00  0.00     0.033 H 
BRANCH  29  32
ATOM     32  C   LIG d   1       3.774  -0.707  -2.309  0.00  0.00    -0.002 C 
ATOM     33  H   LIG d   1       2.980  -0.966  -1.610  0.00  0.00     0.038 H 
ATOM     34  H   LIG d   1       4.688  -1.231  -2.030  0.00  0.00     0.038 H 
BRANCH  32  35
ATOM     35  S   LIG d   1       4.064   1.084  -2.260  0.00  0.00    -0.164 SA
BRANCH  35  36
ATOM     36  C   LIG d   1       5.748   1.273  -2.906  0.00  0.00    -0.018 C 
ATOM     37  H   LIG d   1       5.864   2.268  -3.334  0.00  0.00     0.034 H 
ATOM     38  H   LIG d   1       6.465   1.139  -2.096  0.00  0.00     0.034 H 
ATOM     39  H   LIG d   1       5.927   0.524  -3.677  0.00  0.00     0.034 H 
ENDBRANCH  35  36
ENDBRANCH  32  35
ENDBRANCH  29  32
ENDBRANCH  16  29
BRANCH   1  40
ATOM     40  C   LIG d   1       9.368  -3.878  -3.201  0.00  0.00    -0.040 C 
ATOM     41  H   LIG d   1       8.885  -3.732  -2.235  0.00  0.00     0.028 H 
ATOM     42  H   LIG d   1      10.164  -4.616  -3.102  0.00  0.00     0.028 H 
ATOM     43  H   LIG d   1       9.789  -2.933  -3.543  0.00  0.00     0.028 H 
ENDBRANCH   1  40
BRANCH  21  44
ATOM     44  C   LIG d   1       2.403  -0.434  -8.317  0.00  0.00     0.026 C 
ATOM     45  H   LIG d   1       2.009  -1.283  -8.877  0.00  0.00     0.047 H 
ATOM     46  H   LIG d   1       1.614  -0.011  -7.695  0.00  0.00     0.047 H 
BRANCH  44  47
ATOM     47  C   LIG d   1       2.911   0.629  -9.292  0.00  0.00    -0.011 C 
ATOM     48  H   LIG d   1       2.194   1.448  -9.342  0.00  0.00     0.033 H 
ATOM     49  H   LIG d   1       3.873   1.009  -8.948  0.00  0.00     0.033 H 
BRANCH  47  50
ATOM     50  C   LIG d   1       3.072   0.018 -10.661  0.00  0.00    -0.046 A 
ATOM     51  C   LIG d   1       2.107  -0.839 -11.153  0.00  0.00    -0.059 A 
ATOM     52  C   LIG d   1       2.252  -1.396 -12.410  0.00  0.00    -0.061 A 
ATOM     53  H   LIG d   1       1.237  -1.072 -10.557  0.00  0.00     0.062 H 
ATOM     54  C   LIG d   1       3.368  -1.101 -13.171  0.00  0.00    -0.062 A 
ATOM     55  H   LIG d   1       1.495  -2.063 -12.797  0.00  0.00     0.062 H 
ATOM     56  C   LIG d   1       4.336  -0.247 -12.677  0.00  0.00    -0.061 A 
ATOM     57  H   LIG d   1       3.483  -1.537 -14.152  0.00  0.00     0.062 H 
ATOM     58  C   LIG d   1       4.188   0.312 -11.421  0.00  0.00    -0.059 A 
ATOM     59  H   LIG d   1       5.208  -0.017 -13.271  0.00  0.00     0.062 H 
ATOM     60  H   LIG d   1       4.944   0.980 -11.036  0.00  0.00     0.062 H 
ENDBRANCH  47  50
ENDBRANCH  44  47
ENDBRANCH  21  44
TORSDOF 8
ENDMDL
MODEL 2
REMARK VINA RESULT:      -7.2      3.251      7.020
REMARK  8 active torsions:
REMARK  status: ('A' for Active; 'I' for Inactive)
REMARK    1  A    between atoms: C_1  and  C_2 
REMARK    2  A    between atoms: C_17  and  C_20 
REMARK    3  A    between atoms: C_20  and  C_21 
REMARK    4  A    between atoms: C_21  and  S_22 
REMARK    5  A    between atoms: S_22  and  C_23 
REMARK    6  A    between atoms: N_26  and  C_29 
REMARK    7  A    between atoms: C_29  and  C_30 
REMARK    8  A    between atoms: C_30  and  C_31 
ROOT
ATOM      1  C   LIG d   1       3.194  -3.696 -10.743  0.00  0.00    -0.049 A 
ATOM      2  C   LIG d   1       3.926  -3.575  -9.575  0.00  0.00    -0.048 A 
ATOM      3  C   LIG d   1       3.710  -2.508  -8.733  0.00  0.00     0.036 A 
ATOM      4  C   LIG d   1       2.759  -1.541  -9.042  0.00  0.00     0.061 A 
ATOM      5  C   LIG d   1       2.025  -1.669 -10.221  0.00  0.00     0.063 A 
ATOM      6  C   LIG d   1       2.249  -2.739 -11.063  0.00  0.00    -0.039 A 
ATOM      7 CL   LIG d   1       0.832  -0.478 -10.632  0.00  0.00    -0.082 Cl
ATOM      8  N   LIG d   1       2.721  -0.563  -8.045  0.00  0.00    -0.279 N 
ATOM      9  C   LIG d   1       3.605  -0.810  -7.058  0.00  0.00     0.274 A 
ATOM     10  O   LIG d   1       3.792  -0.135  -6.068  0.00  0.00    -0.269 OA
ATOM     11  C   LIG d   1       4.313  -2.085  -7.423  0.00  0.00     0.106 A 
ATOM     12  C   LIG d   1       5.827  -1.874  -7.543  0.00  0.00     0.111 A 
ATOM     13  H   LIG d   1       6.139  -1.639  -8.561  0.00  0.00     0.047 H 
ATOM     14  C   LIG d   1       6.450  -3.196  -7.012  0.00  0.00     0.096 A 
ATOM     15  H   LIG d   1       7.114  -3.670  -7.734  0.00  0.00     0.046 H 
ATOM     16  C   LIG d   1       5.241  -4.084  -6.646  0.00  0.00    -0.008 C 
ATOM     17  H   LIG d   1       4.999  -4.753  -7.472  0.00  0.00     0.086 H 
ATOM     18  N   LIG d   1       4.131  -3.120  -6.387  0.00  0.00     0.245 N 
ATOM     19  C   LIG d   1       7.168  -2.763  -5.755  0.00  0.00     0.231 A 
ATOM     20  O   LIG d   1       7.791  -3.496  -5.017  0.00  0.00    -0.275 OA
ATOM     21  N   LIG d   1       7.012  -1.446  -5.584  0.00  0.00    -0.241 N 
ATOM     22  C   LIG d   1       6.276  -0.834  -6.541  0.00  0.00     0.232 A 
ATOM     23  O   LIG d   1       6.013   0.348  -6.594  0.00  0.00    -0.275 OA
ATOM     24  H   LIG d   1       4.667  -4.320  -9.324  0.00  0.00     0.063 H 
ATOM     25  H   LIG d   1       1.680  -2.831 -11.977  0.00  0.00     0.064 H 
ATOM     26  H   LIG d   1       2.129   0.204  -8.062  0.00  0.00     0.155 HD
ATOM     27  H   LIG d   1       4.210  -2.715  -5.467  0.00  0.00     0.203 HD
ATOM     28  H   LIG d   1       3.239  -3.577  -6.499  0.00  0.00     0.203 HD
ENDROOT
BRANCH  16  29
ATOM     29  C   LIG d   1       5.537  -4.888  -5.378  0.00  0.00     0.000 C 
ATOM     30  H   LIG d   1       6.608  -5.079  -5.310  0.00  0.00     0.033 H 
ATOM     31  H   LIG d   1       5.212  -4.323  -4.506  0.00  0.00     0.033 H 
BRANCH  29  32
ATOM     32  C   LIG d   1       4.784  -6.219  -5.432  0.00  0.00    -0.002 C 
ATOM     33  H   LIG d   1       5.327  -6.968  -4.856  0.00  0.00     0.038 H 
ATOM     34  H   LIG d   1       3.787  -6.091  -5.011  0.00  0.00     0.038 H 
BRANCH  32  35
ATOM     35  S   LIG d   1       4.647  -6.765  -7.157  0.00  0.00    -0.164 SA
BRANCH  35  36
ATOM     36  C   LIG d   1       4.601  -8.576  -7.041  0.00  0.00    -0.018 C 
ATOM     37  H   LIG d   1       4.390  -8.998  -8.022  0.00  0.00     0.034 H 
ATOM     38  H   LIG d   1       5.566  -8.941  -6.688  0.00  0.00     0.034 H 
ATOM     39  H   LIG d   1       3.822  -8.875  -6.341  0.00  0.00     0.034 H 
ENDBRANCH  35  36
ENDBRANCH  32  35
ENDBRANCH  29  32
ENDBRANCH  16  29
BRANCH   1  40
ATOM     40  C   LIG d   1       3.430  -4.864 -11.666  0.00  0.00    -0.040 C 
ATOM     41  H   LIG d   1       2.473  -5.284 -11.973  0.00  0.00     0.028 H 
ATOM     42  H   LIG d   1       3.979  -4.527 -12.545  0.00  0.00     0.028 H 
ATOM     43  H   LIG d   1       4.011  -5.626 -11.145  0.00  0.00     0.028 H 
ENDBRANCH   1  40
BRANCH  21  44
ATOM     44  C   LIG d   1       7.594  -0.719  -4.453  0.00  0.00     0.026 C 
ATOM     45  H   LIG d   1       8.678  -0.828  -4.471  0.00  0.00     0.047 H 
ATOM     46  H   LIG d   1       7.333   0.337  -4.527  0.00  0.00     0.047 H 
BRANCH  44  47
ATOM     47  C   LIG d   1       7.045  -1.290  -3.144  0.00  0.00    -0.011 C 
ATOM     48  H   LIG d   1       7.073  -2.378  -3.183  0.00  0.00     0.033 H 
ATOM     49  H   LIG d   1       7.654  -0.940  -2.311  0.00  0.00     0.033 H 
BRANCH  47  50
ATOM     50  C   LIG d   1       5.622  -0.830  -2.953  0.00  0.00    -0.046 A 
ATOM     51  C   LIG d   1       4.590  -1.749  -2.977  0.00  0.00    -0.059 A 
ATOM     52  C   LIG d   1       3.286  -1.329  -2.798  0.00  0.00    -0.061 A 
ATOM     53  H   LIG d   1       4.803  -2.797  -3.132  0.00  0.00     0.062 H 
ATOM     54  C   LIG d   1       3.013   0.013  -2.603  0.00  0.00    -0.062 A 
ATOM     55  H   LIG d   1       2.479  -2.048  -2.812  0.00  0.00     0.062 H 
ATOM     56  C   LIG d   1       4.044   0.933  -2.585  0.00  0.00    -0.061 A 
ATOM     57  H   LIG d   1       1.993   0.342  -2.465  0.00  0.00     0.062 H 
ATOM     58  C   LIG d   1       5.349   0.511  -2.760  0.00  0.00    -0.059 A 
ATOM     59  H   LIG d   1       3.831   1.980  -2.434  0.00  0.00     0.062 H 
ATOM     60  H   LIG d   1       6.155   1.229  -2.745  0.00  0.00     0.062 H 
ENDBRANCH  47  50
ENDBRANCH  44  47
ENDBRANCH  21  44
TORSDOF 8
ENDMDL
MODEL 3
REMARK VINA RESULT:      -6.9      4.213      7.248
REMARK  8 active torsions:
REMARK  status: ('A' for Active; 'I' for Inactive)
REMARK    1  A    between atoms: C_1  and  C_2 
REMARK    2  A    between atoms: C_17  and  C_20 
REMARK    3  A    between atoms: C_20  and  C_21 
REMARK    4  A    between atoms: C_21  and  S_22 
REMARK    5  A    between atoms: S_22  and  C_23 
REMARK    6  A    between atoms: N_26  and  C_29 
REMARK    7  A    between atoms: C_29  and  C_30 
REMARK    8  A    between atoms: C_30  and  C_31 
ROOT
ATOM      1  C   LIG d   1       9.359   2.131  -9.333  0.00  0.00    -0.049 A 
ATOM      2  C   LIG d   1       8.472   1.247  -8.745  0.00  0.00    -0.048 A 
ATOM      3  C   LIG d   1       8.148   1.379  -7.413  0.00  0.00     0.036 A 
ATOM      4  C   LIG d   1       8.706   2.396  -6.645  0.00  0.00     0.061 A 
ATOM      5  C   LIG d   1       9.599   3.282  -7.245  0.00  0.00     0.063 A 
ATOM      6  C   LIG d   1       9.923   3.143  -8.579  0.00  0.00    -0.039 A 
ATOM      7 CL   LIG d   1      10.310   4.561  -6.310  0.00  0.00    -0.082 Cl
ATOM      8  N   LIG d   1       8.231   2.327  -5.332  0.00  0.00    -0.279 N 
ATOM      9  C   LIG d   1       7.369   1.306  -5.158  0.00  0.00     0.274 A 
ATOM     10  O   LIG d   1       6.803   1.004  -4.129  0.00  0.00    -0.269 OA
ATOM     11  C   LIG d   1       7.246   0.613  -6.487  0.00  0.00     0.106 A 
ATOM     12  C   LIG d   1       7.657  -0.862  -6.393  0.00  0.00     0.111 A 
ATOM     13  H   LIG d   1       8.710  -1.020  -6.627  0.00  0.00     0.047 H 
ATOM     14  C   LIG d   1       6.703  -1.597  -7.376  0.00  0.00     0.096 A 
ATOM     15  H   LIG d   1       7.237  -2.168  -8.134  0.00  0.00     0.046 H 
ATOM     16  C   LIG d   1       5.825  -0.481  -7.984  0.00  0.00    -0.008 C 
ATOM     17  H   LIG d   1       6.240  -0.148  -8.936  0.00  0.00     0.086 H 
ATOM     18  N   LIG d   1       5.852   0.614  -6.970  0.00  0.00     0.245 N 
ATOM     19  C   LIG d   1       5.869  -2.469  -6.468  0.00  0.00     0.231 A 
ATOM     20  O   LIG d   1       4.983  -3.213  -6.830  0.00  0.00    -0.275 OA
ATOM     21  N   LIG d   1       6.260  -2.293  -5.200  0.00  0.00    -0.241 N 
ATOM     22  C   LIG d   1       7.273  -1.410  -5.037  0.00  0.00     0.232 A 
ATOM     23  O   LIG d   1       7.791  -1.103  -3.985  0.00  0.00    -0.275 OA
ATOM     24  H   LIG d   1       8.032   0.453  -9.331  0.00  0.00     0.063 H 
ATOM     25  H   LIG d   1      10.618   3.831  -9.038  0.00  0.00     0.064 H 
ATOM     26  H   LIG d   1       8.492   2.941  -4.629  0.00  0.00     0.155 HD
ATOM     27  H   LIG d   1       5.216   0.421  -6.211  0.00  0.00     0.203 HD
ATOM     28  H   LIG d   1       5.630   1.497  -7.403  0.00  0.00     0.203 HD
ENDROOT
BRANCH  16  29
ATOM     29  C   LIG d   1       4.390  -0.978  -8.174  0.00  0.00     0.000 C 
ATOM     30  H   LIG d   1       4.240  -1.264  -9.215  0.00  0.00     0.033 H 
ATOM     31  H   LIG d   1       4.217  -1.840  -7.532  0.00  0.00     0.033 H 
BRANCH  29  32
ATOM     32  C   LIG d   1       3.412   0.139  -7.806  0.00  0.00    -0.002 C 
ATOM     33  H   LIG d   1       2.535  -0.291  -7.322  0.00  0.00     0.038 H 
ATOM     34  H   LIG d   1       3.896   0.837  -7.124  0.00  0.00     0.038 H 
BRANCH  32  35
ATOM     35  S   LIG d   1       2.903   1.016  -9.310  0.00  0.00    -0.164 SA
BRANCH  35  36
ATOM     36  C   LIG d   1       3.918   2.520  -9.304  0.00  0.00    -0.018 C 
ATOM     37  H   LIG d   1       3.285   3.385  -9.109  0.00  0.00     0.034 H 
ATOM     38  H   LIG d   1       4.678   2.442  -8.526  0.00  0.00     0.034 H 
ATOM     39  H   LIG d   1       4.401   2.635 -10.274  0.00  0.00     0.034 H 
ENDBRANCH  35  36
ENDBRANCH  32  35
ENDBRANCH  29  32
ENDBRANCH  16  29
BRANCH   1  40
ATOM     40  C   LIG d   1       9.713   1.986 -10.791  0.00  0.00    -0.040 C 
ATOM     41  H   LIG d   1      10.640   1.422 -10.885  0.00  0.00     0.028 H 
ATOM     42  H   LIG d   1       8.912   1.460 -11.310  0.00  0.00     0.028 H 
ATOM     43  H   LIG d   1       9.843   2.975 -11.232  0.00  0.00     0.028 H 
ENDBRANCH   1  40
BRANCH  21  44
ATOM     44  C   LIG d   1       5.645  -3.003  -4.075  0.00  0.00     0.026 C 
ATOM     45  H   LIG d   1       5.738  -4.078  -4.230  0.00  0.00     0.047 H 
ATOM     46  H   LIG d   1       6.150  -2.724  -3.151  0.00  0.00     0.047 H 
BRANCH  44  47
ATOM     47  C   LIG d   1       4.165  -2.626  -3.984  0.00  0.00    -0.011 C 
ATOM     48  H   LIG d   1       3.725  -2.640  -4.980  0.00  0.00     0.033 H 
ATOM     49  H   LIG d   1       3.646  -3.342  -3.347  0.00  0.00     0.033 H 
BRANCH  47  50
ATOM     50  C   LIG d   1       4.035  -1.244  -3.396  0.00  0.00    -0.046 A 
ATOM     51  C   LIG d   1       3.399  -0.246  -4.110  0.00  0.00    -0.059 A 
ATOM     52  C   LIG d   1       3.275   1.020  -3.570  0.00  0.00    -0.061 A 
ATOM     53  H   LIG d   1       2.996  -0.457  -5.090  0.00  0.00     0.062 H 
ATOM     54  C   LIG d   1       3.795   1.290  -2.317  0.00  0.00    -0.062 A 
ATOM     55  H   LIG d   1       2.775   1.799  -4.126  0.00  0.00     0.062 H 
ATOM     56  C   LIG d   1       4.435   0.293  -1.604  0.00  0.00    -0.061 A 
ATOM     57  H   LIG d   1       3.700   2.279  -1.896  0.00  0.00     0.062 H 
ATOM     58  C   LIG d   1       4.555  -0.974  -2.144  0.00  0.00    -0.059 A 
ATOM     59  H   LIG d   1       4.841   0.504  -0.627  0.00  0.00     0.062 H 
ATOM     60  H   LIG d   1       5.054  -1.752  -1.587  0.00  0.00     0.062 H 
ENDBRANCH  47  50
ENDBRANCH  44  47
ENDBRANCH  21  44
TORSDOF 8
ENDMDL
MODEL 4
REMARK VINA RESULT:      -6.6      3.320      7.420
REMARK  8 active torsions:
REMARK  status: ('A' for Active; 'I' for Inactive)
REMARK    1  A    between atoms: C_1  and  C_2 
REMARK    2  A    between atoms: C_17  and  C_20 
REMARK    3  A    between atoms: C_20  and  C_21 
REMARK    4  A    between atoms: C_21  and  S_22 
REMARK    5  A    between atoms: S_22  and  C_23 
REMARK    6  A    between atoms: N_26  and  C_29 
REMARK    7  A    between atoms: C_29  and  C_30 
REMARK    8  A    between atoms: C_30  and  C_31 
ROOT
ATOM      1  C   LIG d   1       4.481  -1.114 -11.495  0.00  0.00    -0.049 A 
ATOM      2  C   LIG d   1       4.743  -1.654 -10.249  0.00  0.00    -0.048 A 
ATOM      3  C   LIG d   1       4.577  -0.889  -9.116  0.00  0.00     0.036 A 
ATOM      4  C   LIG d   1       4.145   0.430  -9.209  0.00  0.00     0.061 A 
ATOM      5  C   LIG d   1       3.884   0.968 -10.468  0.00  0.00     0.063 A 
ATOM      6  C   LIG d   1       4.056   0.198 -11.600  0.00  0.00    -0.039 A 
ATOM      7 CL   LIG d   1       3.344   2.612 -10.612  0.00  0.00    -0.082 Cl
ATOM      8  N   LIG d   1       4.053   0.999  -7.936  0.00  0.00    -0.279 N 
ATOM      9  C   LIG d   1       4.402   0.131  -6.966  0.00  0.00     0.274 A 
ATOM     10  O   LIG d   1       4.418   0.347  -5.772  0.00  0.00    -0.269 OA
ATOM     11  C   LIG d   1       4.766  -1.157  -7.650  0.00  0.00     0.106 A 
ATOM     12  C   LIG d   1       6.209  -1.573  -7.336  0.00  0.00     0.111 A 
ATOM     13  H   LIG d   1       6.922  -1.205  -8.075  0.00  0.00     0.047 H 
ATOM     14  C   LIG d   1       6.162  -3.125  -7.264  0.00  0.00     0.096 A 
ATOM     15  H   LIG d   1       6.861  -3.601  -7.950  0.00  0.00     0.046 H 
ATOM     16  C   LIG d   1       4.693  -3.491  -7.567  0.00  0.00    -0.008 C 
ATOM     17  H   LIG d   1       4.571  -3.726  -8.625  0.00  0.00     0.086 H 
ATOM     18  N   LIG d   1       3.916  -2.272  -7.192  0.00  0.00     0.245 N 
ATOM     19  C   LIG d   1       6.476  -3.417  -5.816  0.00  0.00     0.231 A 
ATOM     20  O   LIG d   1       6.534  -4.522  -5.321  0.00  0.00    -0.275 OA
ATOM     21  N   LIG d   1       6.679  -2.267  -5.164  0.00  0.00    -0.241 N 
ATOM     22  C   LIG d   1       6.562  -1.154  -5.927  0.00  0.00     0.232 A 
ATOM     23  O   LIG d   1       6.712  -0.012  -5.552  0.00  0.00    -0.275 OA
ATOM     24  H   LIG d   1       5.078  -2.678 -10.165  0.00  0.00     0.063 H 
ATOM     25  H   LIG d   1       3.855   0.621 -12.574  0.00  0.00     0.064 H 
ATOM     26  H   LIG d   1       3.772   1.912  -7.770  0.00  0.00     0.155 HD
ATOM     27  H   LIG d   1       3.779  -2.223  -6.194  0.00  0.00     0.203 HD
ATOM     28  H   LIG d   1       3.030  -2.261  -7.673  0.00  0.00     0.203 HD
ENDROOT
BRANCH  16  29
ATOM     29  C   LIG d   1       4.251  -4.675  -6.704  0.00  0.00     0.000 C 
ATOM     30  H   LIG d   1       4.998  -4.860  -5.932  0.00  0.00     0.033 H 
ATOM     31  H   LIG d   1       3.294  -4.446  -6.237  0.00  0.00     0.033 H 
BRANCH  29  32
ATOM     32  C   LIG d   1       4.105  -5.919  -7.582  0.00  0.00    -0.002 C 
ATOM     33  H   LIG d   1       5.082  -6.381  -7.723  0.00  0.00     0.038 H 
ATOM     34  H   LIG d   1       3.434  -6.629  -7.099  0.00  0.00     0.038 H 
BRANCH  32  35
ATOM     35  S   LIG d   1       3.423  -5.443  -9.194  0.00  0.00    -0.164 SA
BRANCH  35  36
ATOM     36  C   LIG d   1       2.673  -6.972  -9.821  0.00  0.00    -0.018 C 
ATOM     37  H   LIG d   1       2.999  -7.814  -9.211  0.00  0.00     0.034 H 
ATOM     38  H   LIG d   1       1.587  -6.889  -9.775  0.00  0.00     0.034 H 
ATOM     39  H   LIG d   1       2.982  -7.131 -10.854  0.00  0.00     0.034 H 
ENDBRANCH  35  36
ENDBRANCH  32  35
ENDBRANCH  29  32
ENDBRANCH  16  29
BRANCH   1  40
ATOM     40  C   LIG d   1       4.663  -1.950 -12.736  0.00  0.00    -0.040 C 
ATOM     41  H   LIG d   1       3.712  -2.403 -13.012  0.00  0.00     0.028 H 
ATOM     42  H   LIG d   1       5.016  -1.319 -13.551  0.00  0.00     0.028 H 
ATOM     43  H   LIG d   1       5.396  -2.734 -12.539  0.00  0.00     0.028 H 
ENDBRANCH   1  40
BRANCH  21  44
ATOM     44  C   LIG d   1       7.008  -2.211  -3.737  0.00  0.00     0.026 C 
ATOM     45  H   LIG d   1       7.788  -2.940  -3.516  0.00  0.00     0.047 H 
ATOM     46  H   LIG d   1       7.362  -1.212  -3.484  0.00  0.00     0.047 H 
BRANCH  44  47
ATOM     47  C   LIG d   1       5.759  -2.534  -2.914  0.00  0.00    -0.011 C 
ATOM     48  H   LIG d   1       5.171  -3.292  -3.430  0.00  0.00     0.033 H 
ATOM     49  H   LIG d   1       6.056  -2.909  -1.934  0.00  0.00     0.033 H 
BRANCH  47  50
ATOM     50  C   LIG d   1       4.933  -1.285  -2.745  0.00  0.00    -0.046 A 
ATOM     51  C   LIG d   1       3.562  -1.336  -2.910  0.00  0.00    -0.059 A 
ATOM     52  C   LIG d   1       2.804  -0.191  -2.751  0.00  0.00    -0.061 A 
ATOM     53  H   LIG d   1       3.082  -2.270  -3.161  0.00  0.00     0.062 H 
ATOM     54  C   LIG d   1       3.418   1.006  -2.434  0.00  0.00    -0.062 A 
ATOM     55  H   LIG d   1       1.731  -0.231  -2.876  0.00  0.00     0.062 H 
ATOM     56  C   LIG d   1       4.790   1.058  -2.273  0.00  0.00    -0.061 A 
ATOM     57  H   LIG d   1       2.826   1.901  -2.312  0.00  0.00     0.062 H 
ATOM     58  C   LIG d   1       5.547  -0.088  -2.429  0.00  0.00    -0.059 A 
ATOM     59  H   LIG d   1       5.270   1.993  -2.027  0.00  0.00     0.062 H 
ATOM     60  H   LIG d   1       6.619  -0.047  -2.303  0.00  0.00     0.062 H 
ENDBRANCH  47  50
ENDBRANCH  44  47
ENDBRANCH  21  44
TORSDOF 8
ENDMDL
MODEL 5
REMARK VINA RESULT:      -6.5      3.402      6.621
REMARK  8 active torsions:
REMARK  status: ('A' for Active; 'I' for Inactive)
REMARK    1  A    between atoms: C_1  and  C_2 
REMARK    2  A    between atoms: C_17  and  C_20 
REMARK    3  A    between atoms: C_20  and  C_21 
REMARK    4  A    between atoms: C_21  and  S_22 
REMARK    5  A    between atoms: S_22  and  C_23 
REMARK    6  A    between atoms: N_26  and  C_29 
REMARK    7  A    between atoms: C_29  and  C_30 
REMARK    8  A    between atoms: C_30  and  C_31 
ROOT
ATOM      1  C   LIG d   1       3.499  -4.759  -8.832  0.00  0.00    -0.049 A 
ATOM      2  C   LIG d   1       4.054  -4.005  -7.813  0.00  0.00    -0.048 A 
ATOM      3  C   LIG d   1       3.907  -2.636  -7.809  0.00  0.00     0.036 A 
ATOM      4  C   LIG d   1       3.203  -1.995  -8.823  0.00  0.00     0.061 A 
ATOM      5  C   LIG d   1       2.648  -2.761  -9.847  0.00  0.00     0.063 A 
ATOM      6  C   LIG d   1       2.802  -4.132  -9.848  0.00  0.00    -0.039 A 
ATOM      7 CL   LIG d   1       1.764  -1.987 -11.126  0.00  0.00    -0.082 Cl
ATOM      8  N   LIG d   1       3.190  -0.615  -8.605  0.00  0.00    -0.279 N 
ATOM      9  C   LIG d   1       3.853  -0.272  -7.484  0.00  0.00     0.274 A 
ATOM     10  O   LIG d   1       4.006   0.849  -7.047  0.00  0.00    -0.269 OA
ATOM     11  C   LIG d   1       4.368  -1.548  -6.880  0.00  0.00     0.106 A 
ATOM     12  C   LIG d   1       5.896  -1.533  -6.747  0.00  0.00     0.111 A 
ATOM     13  H   LIG d   1       6.397  -1.968  -7.613  0.00  0.00     0.047 H 
ATOM     14  C   LIG d   1       6.183  -2.308  -5.431  0.00  0.00     0.096 A 
ATOM     15  H   LIG d   1       6.854  -3.154  -5.577  0.00  0.00     0.046 H 
ATOM     16  C   LIG d   1       4.793  -2.736  -4.912  0.00  0.00    -0.008 C 
ATOM     17  H   LIG d   1       4.564  -3.751  -5.236  0.00  0.00     0.086 H 
ATOM     18  N   LIG d   1       3.848  -1.749  -5.514  0.00  0.00     0.245 N 
ATOM     19  C   LIG d   1       6.767  -1.251  -4.523  0.00  0.00     0.231 A 
ATOM     20  O   LIG d   1       7.128  -1.431  -3.380  0.00  0.00    -0.275 OA
ATOM     21  N   LIG d   1       6.825  -0.085  -5.177  0.00  0.00    -0.241 N 
ATOM     22  C   LIG d   1       6.366  -0.127  -6.450  0.00  0.00     0.232 A 
ATOM     23  O   LIG d   1       6.331   0.803  -7.227  0.00  0.00    -0.275 OA
ATOM     24  H   LIG d   1       4.603  -4.491  -7.019  0.00  0.00     0.063 H 
ATOM     25  H   LIG d   1       2.372  -4.721 -10.646  0.00  0.00     0.064 H 
ATOM     26  H   LIG d   1       2.754   0.022  -9.193  0.00  0.00     0.155 HD
ATOM     27  H   LIG d   1       3.856  -0.880  -5.003  0.00  0.00     0.203 HD
ATOM     28  H   LIG d   1       2.916  -2.134  -5.545  0.00  0.00     0.203 HD
ENDROOT
BRANCH  16  29
ATOM     29  C   LIG d   1       4.742  -2.640  -3.386  0.00  0.00     0.000 C 
ATOM     30  H   LIG d   1       4.616  -3.636  -2.964  0.00  0.00     0.033 H 
ATOM     31  H   LIG d   1       5.670  -2.204  -3.019  0.00  0.00     0.033 H 
BRANCH  29  32
ATOM     32  C   LIG d   1       3.564  -1.756  -2.970  0.00  0.00    -0.002 C 
ATOM     33  H   LIG d   1       3.042  -1.405  -3.860  0.00  0.00     0.038 H 
ATOM     34  H   LIG d   1       2.878  -2.332  -2.351  0.00  0.00     0.038 H 
BRANCH  32  35
ATOM     35  S   LIG d   1       4.180  -0.332  -2.030  0.00  0.00    -0.164 SA
BRANCH  35  36
ATOM     36  C   LIG d   1       3.778   1.093  -3.079  0.00  0.00    -0.018 C 
ATOM     37  H   LIG d   1       3.304   1.866  -2.476  0.00  0.00     0.034 H 
ATOM     38  H   LIG d   1       4.693   1.487  -3.522  0.00  0.00     0.034 H 
ATOM     39  H   LIG d   1       3.097   0.780  -3.870  0.00  0.00     0.034 H 
ENDBRANCH  35  36
ENDBRANCH  32  35
ENDBRANCH  29  32
ENDBRANCH  16  29
BRANCH   1  40
ATOM     40  C   LIG d   1       3.661  -6.257  -8.837  0.00  0.00    -0.040 C 
ATOM     41  H   LIG d   1       2.904  -6.702  -9.483  0.00  0.00     0.028 H 
ATOM     42  H   LIG d   1       4.653  -6.514  -9.208  0.00  0.00     0.028 H 
ATOM     43  H   LIG d   1       3.542  -6.638  -7.822  0.00  0.00     0.028 H 
ENDBRANCH   1  40
BRANCH  21  44
ATOM     44  C   LIG d   1       7.348   1.140  -4.568  0.00  0.00     0.026 C 
ATOM     45  H   LIG d   1       6.835   2.004  -4.992  0.00  0.00     0.047 H 
ATOM     46  H   LIG d   1       7.181   1.111  -3.492  0.00  0.00     0.047 H 
BRANCH  44  47
ATOM     47  C   LIG d   1       8.848   1.249  -4.850  0.00  0.00    -0.011 C 
ATOM     48  H   LIG d   1       9.375   0.457  -4.318  0.00  0.00     0.033 H 
ATOM     49  H   LIG d   1       9.025   1.148  -5.920  0.00  0.00     0.033 H 
BRANCH  47  50
ATOM     50  C   LIG d   1       9.350   2.590  -4.381  0.00  0.00    -0.046 A 
ATOM     51  C   LIG d   1       9.950   2.710  -3.142  0.00  0.00    -0.059 A 
ATOM     52  C   LIG d   1      10.415   3.939  -2.714  0.00  0.00    -0.061 A 
ATOM     53  H   LIG d   1      10.058   1.842  -2.509  0.00  0.00     0.062 H 
ATOM     54  C   LIG d   1      10.272   5.051  -3.523  0.00  0.00    -0.062 A 
ATOM     55  H   LIG d   1      10.888   4.032  -1.747  0.00  0.00     0.062 H 
ATOM     56  C   LIG d   1       9.669   4.933  -4.761  0.00  0.00    -0.061 A 
ATOM     57  H   LIG d   1      10.634   6.012  -3.188  0.00  0.00     0.062 H 
ATOM     58  C   LIG d   1       9.207   3.702  -5.190  0.00  0.00    -0.059 A 
ATOM     59  H   LIG d   1       9.556   5.802  -5.393  0.00  0.00     0.062 H 
ATOM     60  H   LIG d   1       8.736   3.610  -6.157  0.00  0.00     0.062 H 
ENDBRANCH  47  50
ENDBRANCH  44  47
ENDBRANCH  21  44
TORSDOF 8
ENDMDL
MODEL 6
REMARK VINA RESULT:      -6.3      4.100      6.993
REMARK  8 active torsions:
REMARK  status: ('A' for Active; 'I' for Inactive)
REMARK    1  A    between atoms: C_1  and  C_2 
REMARK    2  A    between atoms: C_17  and  C_20 
REMARK    3  A    between atoms: C_20  and  C_21 
REMARK    4  A    between atoms: C_21  and  S_22 
REMARK    5  A    between atoms: S_22  and  C_23 
REMARK    6  A    between atoms: N_26  and  C_29 
REMARK    7  A    between atoms: C_29  and  C_30 
REMARK    8  A    between atoms: C_30  and  C_31 
ROOT
ATOM      1  C   LIG d   1      13.170  -4.134  -3.782  0.00  0.00    -0.049 A 
ATOM      2  C   LIG d   1      11.855  -4.211  -4.205  0.00  0.00    -0.048 A 
ATOM      3  C   LIG d   1      11.168  -3.064  -4.534  0.00  0.00     0.036 A 
ATOM      4  C   LIG d   1      11.782  -1.819  -4.445  0.00  0.00     0.061 A 
ATOM      5  C   LIG d   1      13.107  -1.750  -4.017  0.00  0.00     0.063 A 
ATOM      6  C   LIG d   1      13.790  -2.902  -3.685  0.00  0.00    -0.039 A 
ATOM      7 CL   LIG d   1      13.899  -0.209  -3.896  0.00  0.00    -0.082 Cl
ATOM      8  N   LIG d   1      10.892  -0.812  -4.826  0.00  0.00    -0.279 N 
ATOM      9  C   LIG d   1       9.688  -1.305  -5.176  0.00  0.00     0.274 A 
ATOM     10  O   LIG d   1       8.725  -0.668  -5.547  0.00  0.00    -0.269 OA
ATOM     11  C   LIG d   1       9.770  -2.797  -5.016  0.00  0.00     0.106 A 
ATOM     12  C   LIG d   1       8.724  -3.316  -4.022  0.00  0.00     0.111 A 
ATOM     13  H   LIG d   1       9.109  -3.381  -3.003  0.00  0.00     0.047 H 
ATOM     14  C   LIG d   1       8.291  -4.695  -4.592  0.00  0.00     0.096 A 
ATOM     15  H   LIG d   1       8.424  -5.508  -3.879  0.00  0.00     0.046 H 
ATOM     16  C   LIG d   1       9.142  -4.881  -5.867  0.00  0.00    -0.008 C 
ATOM     17  H   LIG d   1      10.035  -5.466  -5.645  0.00  0.00     0.086 H 
ATOM     18  N   LIG d   1       9.496  -3.493  -6.288  0.00  0.00     0.245 N 
ATOM     19  C   LIG d   1       6.844  -4.480  -4.968  0.00  0.00     0.231 A 
ATOM     20  O   LIG d   1       6.117  -5.313  -5.464  0.00  0.00    -0.275 OA
ATOM     21  N   LIG d   1       6.488  -3.226  -4.668  0.00  0.00    -0.241 N 
ATOM     22  C   LIG d   1       7.471  -2.474  -4.118  0.00  0.00     0.232 A 
ATOM     23  O   LIG d   1       7.373  -1.320  -3.761  0.00  0.00    -0.275 OA
ATOM     24  H   LIG d   1      11.367  -5.172  -4.279  0.00  0.00     0.063 H 
ATOM     25  H   LIG d   1      14.816  -2.842  -3.351  0.00  0.00     0.064 H 
ATOM     26  H   LIG d   1      11.115   0.132  -4.837  0.00  0.00     0.155 HD
ATOM     27  H   LIG d   1       8.728  -3.053  -6.772  0.00  0.00     0.203 HD
ATOM     28  H   LIG d   1      10.322  -3.504  -6.868  0.00  0.00     0.203 HD
ENDROOT
BRANCH  16  29
ATOM     29  C   LIG d   1       8.318  -5.561  -6.963  0.00  0.00     0.000 C 
ATOM     30  H   LIG d   1       8.654  -6.591  -7.083  0.00  0.00     0.033 H 
ATOM     31  H   LIG d   1       7.265  -5.552  -6.683  0.00  0.00     0.033 H 
BRANCH  29  32
ATOM     32  C   LIG d   1       8.503  -4.807  -8.281  0.00  0.00    -0.002 C 
ATOM     33  H   LIG d   1       9.110  -3.919  -8.109  0.00  0.00     0.038 H 
ATOM     34  H   LIG d   1       9.002  -5.453  -9.003  0.00  0.00     0.038 H 
BRANCH  32  35
ATOM     35  S   LIG d   1       6.880  -4.316  -8.928  0.00  0.00    -0.164 SA
BRANCH  35  36
ATOM     36  C   LIG d   1       6.662  -2.621  -8.321  0.00  0.00    -0.018 C 
ATOM     37  H   LIG d   1       7.550  -2.034  -8.552  0.00  0.00     0.034 H 
ATOM     38  H   LIG d   1       5.794  -2.171  -8.803  0.00  0.00     0.034 H 
ATOM     39  H   LIG d   1       6.510  -2.638  -7.242  0.00  0.00     0.034 H 
ENDBRANCH  35  36
ENDBRANCH  32  35
ENDBRANCH  29  32
ENDBRANCH  16  29
BRANCH   1  40
ATOM     40  C   LIG d   1      13.922  -5.390  -3.422  0.00  0.00    -0.040 C 
ATOM     41  H   LIG d   1      13.799  -5.595  -2.359  0.00  0.00     0.028 H 
ATOM     42  H   LIG d   1      13.531  -6.226  -4.001  0.00  0.00     0.028 H 
ATOM     43  H   LIG d   1      14.981  -5.255  -3.647  0.00  0.00     0.028 H 
ENDBRANCH   1  40
BRANCH  21  44
ATOM     44  C   LIG d   1       5.141  -2.704  -4.909  0.00  0.00     0.026 C 
ATOM     45  H   LIG d   1       5.209  -1.693  -5.310  0.00  0.00     0.047 H 
ATOM     46  H   LIG d   1       4.626  -3.345  -5.626  0.00  0.00     0.047 H 
BRANCH  44  47
ATOM     47  C   LIG d   1       4.360  -2.679  -3.594  0.00  0.00    -0.011 C 
ATOM     48  H   LIG d   1       3.408  -3.192  -3.726  0.00  0.00     0.033 H 
ATOM     49  H   LIG d   1       4.938  -3.182  -2.818  0.00  0.00     0.033 H 
BRANCH  47  50
ATOM     50  C   LIG d   1       4.109  -1.250  -3.186  0.00  0.00    -0.046 A 
ATOM     51  C   LIG d   1       4.622  -0.771  -1.995  0.00  0.00    -0.059 A 
ATOM     52  C   LIG d   1       4.395   0.541  -1.624  0.00  0.00    -0.061 A 
ATOM     53  H   LIG d   1       5.201  -1.420  -1.356  0.00  0.00     0.062 H 
ATOM     54  C   LIG d   1       3.649   1.372  -2.439  0.00  0.00    -0.062 A 
ATOM     55  H   LIG d   1       4.799   0.918  -0.695  0.00  0.00     0.062 H 
ATOM     56  C   LIG d   1       3.133   0.891  -3.628  0.00  0.00    -0.061 A 
ATOM     57  H   LIG d   1       3.470   2.396  -2.148  0.00  0.00     0.062 H 
ATOM     58  C   LIG d   1       3.363  -0.420  -4.001  0.00  0.00    -0.059 A 
ATOM     59  H   LIG d   1       2.549   1.539  -4.265  0.00  0.00     0.062 H 
ATOM     60  H   LIG d   1       2.960  -0.795  -4.930  0.00  0.00     0.062 H 
ENDBRANCH  47  50
ENDBRANCH  44  47
ENDBRANCH  21  44
TORSDOF 8
ENDMDL
MODEL 7
REMARK VINA RESULT:      -6.3      3.949      6.125
REMARK  8 active torsions:
REMARK  status: ('A' for Active; 'I' for Inactive)
REMARK    1  A    between atoms: C_1  and  C_2 
REMARK    2  A    between atoms: C_17  and  C_20 
REMARK    3  A    between atoms: C_20  and  C_21 
REMARK    4  A    between atoms: C_21  and  S_22 
REMARK    5  A    between atoms: S_22  and  C_23 
REMARK    6  A    between atoms: N_26  and  C_29 
REMARK    7  A    between atoms: C_29  and  C_30 
REMARK    8  A    between atoms: C_30  and  C_31 
ROOT
ATOM      1  C   LIG d   1      12.842  -1.268  -6.214  0.00  0.00    -0.049 A 
ATOM      2  C   LIG d   1      11.476  -1.076  -6.104  0.00  0.00    -0.048 A 
ATOM      3  C   LIG d   1      10.736  -1.861  -5.248  0.00  0.00     0.036 A 
ATOM      4  C   LIG d   1      11.347  -2.852  -4.488  0.00  0.00     0.061 A 
ATOM      5  C   LIG d   1      12.723  -3.041  -4.606  0.00  0.00     0.063 A 
ATOM      6  C   LIG d   1      13.459  -2.254  -5.468  0.00  0.00    -0.039 A 
ATOM      7 CL   LIG d   1      13.512  -4.272  -3.669  0.00  0.00    -0.082 Cl
ATOM      8  N   LIG d   1      10.399  -3.513  -3.703  0.00  0.00    -0.279 N 
ATOM      9  C   LIG d   1       9.157  -3.021  -3.885  0.00  0.00     0.274 A 
ATOM     10  O   LIG d   1       8.142  -3.398  -3.339  0.00  0.00    -0.269 OA
ATOM     11  C   LIG d   1       9.276  -1.915  -4.896  0.00  0.00     0.106 A 
ATOM     12  C   LIG d   1       8.409  -2.186  -6.132  0.00  0.00     0.111 A 
ATOM     13  H   LIG d   1       8.955  -2.704  -6.922  0.00  0.00     0.047 H 
ATOM     14  C   LIG d   1       7.901  -0.785  -6.569  0.00  0.00     0.096 A 
ATOM     15  H   LIG d   1       8.154  -0.546  -7.602  0.00  0.00     0.046 H 
ATOM     16  C   LIG d   1       8.535   0.199  -5.562  0.00  0.00    -0.008 C 
ATOM     17  H   LIG d   1       9.456   0.616  -5.968  0.00  0.00     0.086 H 
ATOM     18  N   LIG d   1       8.805  -0.629  -4.348  0.00  0.00     0.245 N 
ATOM     19  C   LIG d   1       6.410  -0.866  -6.338  0.00  0.00     0.231 A 
ATOM     20  O   LIG d   1       5.619   0.028  -6.546  0.00  0.00    -0.275 OA
ATOM     21  N   LIG d   1       6.098  -2.080  -5.869  0.00  0.00    -0.241 N 
ATOM     22  C   LIG d   1       7.152  -2.917  -5.720  0.00  0.00     0.232 A 
ATOM     23  O   LIG d   1       7.104  -4.060  -5.320  0.00  0.00    -0.275 OA
ATOM     24  H   LIG d   1      10.990  -0.308  -6.688  0.00  0.00     0.063 H 
ATOM     25  H   LIG d   1      14.526  -2.407  -5.557  0.00  0.00     0.064 H 
ATOM     26  H   LIG d   1      10.609  -4.241  -3.097  0.00  0.00     0.155 HD
ATOM     27  H   LIG d   1       7.965  -0.763  -3.806  0.00  0.00     0.203 HD
ATOM     28  H   LIG d   1       9.525  -0.200  -3.787  0.00  0.00     0.203 HD
ENDROOT
BRANCH  16  29
ATOM     29  C   LIG d   1       7.549   1.318  -5.217  0.00  0.00     0.000 C 
ATOM     30  H   LIG d   1       7.573   2.075  -6.000  0.00  0.00     0.033 H 
ATOM     31  H   LIG d   1       6.544   0.905  -5.141  0.00  0.00     0.033 H 
BRANCH  29  32
ATOM     32  C   LIG d   1       7.944   1.951  -3.882  0.00  0.00    -0.002 C 
ATOM     33  H   LIG d   1       7.084   2.471  -3.459  0.00  0.00     0.038 H 
ATOM     34  H   LIG d   1       8.272   1.173  -3.193  0.00  0.00     0.038 H 
BRANCH  32  35
ATOM     35  S   LIG d   1       9.293   3.133  -4.150  0.00  0.00    -0.164 SA
BRANCH  35  36
ATOM     36  C   LIG d   1      10.595   2.575  -3.015  0.00  0.00    -0.018 C 
ATOM     37  H   LIG d   1      11.570   2.838  -3.424  0.00  0.00     0.034 H 
ATOM     38  H   LIG d   1      10.464   3.059  -2.047  0.00  0.00     0.034 H 
ATOM     39  H   LIG d   1      10.531   1.495  -2.893  0.00  0.00     0.034 H 
ENDBRANCH  35  36
ENDBRANCH  32  35
ENDBRANCH  29  32
ENDBRANCH  16  29
BRANCH   1  40
ATOM     40  C   LIG d   1      13.652  -0.410  -7.151  0.00  0.00    -0.040 C 
ATOM     41  H   LIG d   1      14.256  -1.046  -7.797  0.00  0.00     0.028 H 
ATOM     42  H   LIG d   1      12.982   0.196  -7.761  0.00  0.00     0.028 H 
ATOM     43  H   LIG d   1      14.305   0.243  -6.571  0.00  0.00     0.028 H 
ENDBRANCH   1  40
BRANCH  21  44
ATOM     44  C   LIG d   1       4.725  -2.476  -5.547  0.00  0.00     0.026 C 
ATOM     45  H   LIG d   1       4.031  -1.729  -5.932  0.00  0.00     0.047 H 
ATOM     46  H   LIG d   1       4.509  -3.442  -6.003  0.00  0.00     0.047 H 
BRANCH  44  47
ATOM     47  C   LIG d   1       4.569  -2.582  -4.029  0.00  0.00    -0.011 C 
ATOM     48  H   LIG d   1       3.751  -3.263  -3.794  0.00  0.00     0.033 H 
ATOM     49  H   LIG d   1       5.493  -2.960  -3.593  0.00  0.00     0.033 H 
BRANCH  47  50
ATOM     50  C   LIG d   1       4.267  -1.219  -3.460  0.00  0.00    -0.046 A 
ATOM     51  C   LIG d   1       3.385  -0.378  -4.111  0.00  0.00    -0.059 A 
ATOM     52  C   LIG d   1       3.105   0.870  -3.587  0.00  0.00    -0.061 A 
ATOM     53  H   LIG d   1       2.913  -0.696  -5.029  0.00  0.00     0.062 H 
ATOM     54  C   LIG d   1       3.712   1.280  -2.415  0.00  0.00    -0.062 A 
ATOM     55  H   LIG d   1       2.412   1.527  -4.095  0.00  0.00     0.062 H 
ATOM     56  C   LIG d   1       4.597   0.440  -1.765  0.00  0.00    -0.061 A 
ATOM     57  H   LIG d   1       3.494   2.255  -2.006  0.00  0.00     0.062 H 
ATOM     58  C   LIG d   1       4.875  -0.809  -2.288  0.00  0.00    -0.059 A 
ATOM     59  H   LIG d   1       5.073   0.760  -0.850  0.00  0.00     0.062 H 
ATOM     60  H   LIG d   1       5.566  -1.465  -1.780  0.00  0.00     0.062 H 
ENDBRANCH  47  50
ENDBRANCH  44  47
ENDBRANCH  21  44
TORSDOF 8
ENDMDL
MODEL 8
REMARK VINA RESULT:      -6.2      3.677      7.679
REMARK  8 active torsions:
REMARK  status: ('A' for Active; 'I' for Inactive)
REMARK    1  A    between atoms: C_1  and  C_2 
REMARK    2  A    between atoms: C_17  and  C_20 
REMARK    3  A    between atoms: C_20  and  C_21 
REMARK    4  A    between atoms: C_21  and  S_22 
REMARK    5  A    between atoms: S_22  and  C_23 
REMARK    6  A    between atoms: N_26  and  C_29 
REMARK    7  A    between atoms: C_29  and  C_30 
REMARK    8  A    between atoms: C_30  and  C_31 
ROOT
ATOM      1  C   LIG d   1       3.975  -0.668 -14.952  0.00  0.00    -0.049 A 
ATOM      2  C   LIG d   1       4.245  -0.434 -13.615  0.00  0.00    -0.048 A 
ATOM      3  C   LIG d   1       3.668  -1.225 -12.646  0.00  0.00     0.036 A 
ATOM      4  C   LIG d   1       2.812  -2.263 -12.996  0.00  0.00     0.061 A 
ATOM      5  C   LIG d   1       2.544  -2.493 -14.344  0.00  0.00     0.063 A 
ATOM      6  C   LIG d   1       3.121  -1.695 -15.311  0.00  0.00    -0.039 A 
ATOM      7 CL   LIG d   1       1.479  -3.782 -14.809  0.00  0.00    -0.082 Cl
ATOM      8  N   LIG d   1       2.353  -2.919 -11.850  0.00  0.00    -0.279 N 
ATOM      9  C   LIG d   1       2.856  -2.379 -10.722  0.00  0.00     0.274 A 
ATOM     10  O   LIG d   1       2.634  -2.740  -9.585  0.00  0.00    -0.269 OA
ATOM     11  C   LIG d   1       3.746  -1.244 -11.146  0.00  0.00     0.106 A 
ATOM     12  C   LIG d   1       3.284   0.089 -10.542  0.00  0.00     0.111 A 
ATOM     13  H   LIG d   1       2.604   0.633 -11.198  0.00  0.00     0.047 H 
ATOM     14  C   LIG d   1       4.599   0.866 -10.258  0.00  0.00     0.096 A 
ATOM     15  H   LIG d   1       4.628   1.841 -10.745  0.00  0.00     0.046 H 
ATOM     16  C   LIG d   1       5.726  -0.071 -10.744  0.00  0.00    -0.008 C 
ATOM     17  H   LIG d   1       6.019   0.184 -11.763  0.00  0.00     0.086 H 
ATOM     18  N   LIG d   1       5.131  -1.439 -10.679  0.00  0.00     0.245 N 
ATOM     19  C   LIG d   1       4.629   0.966  -8.751  0.00  0.00     0.231 A 
ATOM     20  O   LIG d   1       5.501   1.499  -8.101  0.00  0.00    -0.275 OA
ATOM     21  N   LIG d   1       3.540   0.375  -8.246  0.00  0.00    -0.241 N 
ATOM     22  C   LIG d   1       2.701  -0.151  -9.168  0.00  0.00     0.232 A 
ATOM     23  O   LIG d   1       1.657  -0.722  -8.940  0.00  0.00    -0.275 OA
ATOM     24  H   LIG d   1       4.909   0.369 -13.331  0.00  0.00     0.063 H 
ATOM     25  H   LIG d   1       2.908  -1.875 -16.355  0.00  0.00     0.064 H 
ATOM     26  H   LIG d   1       1.744  -3.673 -11.864  0.00  0.00     0.155 HD
ATOM     27  H   LIG d   1       5.138  -1.793  -9.735  0.00  0.00     0.203 HD
ATOM     28  H   LIG d   1       5.626  -2.064 -11.297  0.00  0.00     0.203 HD
ENDROOT
BRANCH  16  29
ATOM     29  C   LIG d   1       6.932   0.016  -9.806  0.00  0.00     0.000 C 
ATOM     30  H   LIG d   1       7.743   0.546 -10.305  0.00  0.00     0.033 H 
ATOM     31  H   LIG d   1       6.650   0.552  -8.901  0.00  0.00     0.033 H 
BRANCH  29  32
ATOM     32  C   LIG d   1       7.395  -1.396  -9.439  0.00  0.00    -0.002 C 
ATOM     33  H   LIG d   1       6.672  -2.123  -9.810  0.00  0.00     0.038 H 
ATOM     34  H   LIG d   1       8.367  -1.589  -9.891  0.00  0.00     0.038 H 
BRANCH  32  35
ATOM     35  S   LIG d   1       7.525  -1.539  -7.635  0.00  0.00    -0.164 SA
BRANCH  35  36
ATOM     36  C   LIG d   1       9.102  -0.729  -7.245  0.00  0.00    -0.018 C 
ATOM     37  H   LIG d   1       9.036  -0.257  -6.266  0.00  0.00     0.034 H 
ATOM     38  H   LIG d   1       9.899  -1.473  -7.237  0.00  0.00     0.034 H 
ATOM     39  H   LIG d   1       9.318   0.026  -8.000  0.00  0.00     0.034 H 
ENDBRANCH  35  36
ENDBRANCH  32  35
ENDBRANCH  29  32
ENDBRANCH  16  29
BRANCH   1  40
ATOM     40  C   LIG d   1       4.605   0.197 -16.013  0.00  0.00    -0.040 C 
ATOM     41  H   LIG d   1       5.506  -0.287 -16.389  0.00  0.00     0.028 H 
ATOM     42  H   LIG d   1       3.900   0.341 -16.831  0.00  0.00     0.028 H 
ATOM     43  H   LIG d   1       4.866   1.165 -15.583  0.00  0.00     0.028 H 
ENDBRANCH   1  40
BRANCH  21  44
ATOM     44  C   LIG d   1       3.272   0.305  -6.807  0.00  0.00     0.026 C 
ATOM     45  H   LIG d   1       3.647   1.208  -6.323  0.00  0.00     0.047 H 
ATOM     46  H   LIG d   1       2.198   0.224  -6.641  0.00  0.00     0.047 H 
BRANCH  44  47
ATOM     47  C   LIG d   1       3.975  -0.919  -6.217  0.00  0.00    -0.011 C 
ATOM     48  H   LIG d   1       3.439  -1.821  -6.510  0.00  0.00     0.033 H 
ATOM     49  H   LIG d   1       4.998  -0.967  -6.590  0.00  0.00     0.033 H 
BRANCH  47  50
ATOM     50  C   LIG d   1       3.993  -0.811  -4.713  0.00  0.00    -0.046 A 
ATOM     51  C   LIG d   1       4.445  -1.871  -3.950  0.00  0.00    -0.059 A 
ATOM     52  C   LIG d   1       4.465  -1.770  -2.571  0.00  0.00    -0.061 A 
ATOM     53  H   LIG d   1       4.785  -2.776  -4.430  0.00  0.00     0.062 H 
ATOM     54  C   LIG d   1       4.026  -0.612  -1.956  0.00  0.00    -0.062 A 
ATOM     55  H   LIG d   1       4.823  -2.597  -1.974  0.00  0.00     0.062 H 
ATOM     56  C   LIG d   1       3.569   0.446  -2.719  0.00  0.00    -0.061 A 
ATOM     57  H   LIG d   1       4.040  -0.534  -0.879  0.00  0.00     0.062 H 
ATOM     58  C   LIG d   1       3.553   0.346  -4.099  0.00  0.00    -0.059 A 
ATOM     59  H   LIG d   1       3.226   1.350  -2.240  0.00  0.00     0.062 H 
ATOM     60  H   LIG d   1       3.196   1.173  -4.695  0.00  0.00     0.062 H 
ENDBRANCH  47  50
ENDBRANCH  44  47
ENDBRANCH  21  44
TORSDOF 8
ENDMDL
MODEL 9
REMARK VINA RESULT:      -6.1     10.441     13.129
REMARK  8 active torsions:
REMARK  status: ('A' for Active; 'I' for Inactive)
REMARK    1  A    between atoms: C_1  and  C_2 
REMARK    2  A    between atoms: C_17  and  C_20 
REMARK    3  A    between atoms: C_20  and  C_21 
REMARK    4  A    between atoms: C_21  and  S_22 
REMARK    5  A    between atoms: S_22  and  C_23 
REMARK    6  A    between atoms: N_26  and  C_29 
REMARK    7  A    between atoms: C_29  and  C_30 
REMARK    8  A    between atoms: C_30  and  C_31 
ROOT
ATOM      1  C   LIG d   1      11.562   9.540   1.210  0.00  0.00    -0.049 A 
ATOM      2  C   LIG d   1      11.267   9.703  -0.131  0.00  0.00    -0.048 A 
ATOM      3  C   LIG d   1      10.879   8.620  -0.889  0.00  0.00     0.036 A 
ATOM      4  C   LIG d   1      10.780   7.355  -0.319  0.00  0.00     0.061 A 
ATOM      5  C   LIG d   1      11.080   7.198   1.033  0.00  0.00     0.063 A 
ATOM      6  C   LIG d   1      11.472   8.286   1.786  0.00  0.00    -0.039 A 
ATOM      7 CL   LIG d   1      10.966   5.631   1.770  0.00  0.00    -0.082 Cl
ATOM      8  N   LIG d   1      10.374   6.423  -1.278  0.00  0.00    -0.279 N 
ATOM      9  C   LIG d   1      10.186   6.988  -2.487  0.00  0.00     0.274 A 
ATOM     10  O   LIG d   1       9.835   6.426  -3.502  0.00  0.00    -0.269 OA
ATOM     11  C   LIG d   1      10.496   8.451  -2.332  0.00  0.00     0.106 A 
ATOM     12  C   LIG d   1      11.629   8.889  -3.269  0.00  0.00     0.111 A 
ATOM     13  H   LIG d   1      12.610   8.830  -2.798  0.00  0.00     0.047 H 
ATOM     14  C   LIG d   1      11.249  10.335  -3.693  0.00  0.00     0.096 A 
ATOM     15  H   LIG d   1      12.030  11.060  -3.468  0.00  0.00     0.046 H 
ATOM     16  C   LIG d   1       9.931  10.634  -2.946  0.00  0.00    -0.008 C 
ATOM     17  H   LIG d   1      10.135  11.164  -2.015  0.00  0.00     0.086 H 
ATOM     18  N   LIG d   1       9.335   9.290  -2.684  0.00  0.00     0.245 N 
ATOM     19  C   LIG d   1      10.981  10.207  -5.174  0.00  0.00     0.231 A 
ATOM     20  O   LIG d   1      10.643  11.111  -5.906  0.00  0.00    -0.275 OA
ATOM     21  N   LIG d   1      11.176   8.938  -5.553  0.00  0.00    -0.241 N 
ATOM     22  C   LIG d   1      11.554   8.102  -4.558  0.00  0.00     0.232 A 
ATOM     23  O   LIG d   1      11.792   6.919  -4.672  0.00  0.00    -0.275 OA
ATOM     24  H   LIG d   1      11.339  10.680  -0.585  0.00  0.00     0.063 H 
ATOM     25  H   LIG d   1      11.706   8.159   2.834  0.00  0.00     0.064 H 
ATOM     26  H   LIG d   1      10.243   5.480  -1.095  0.00  0.00     0.155 HD
ATOM     27  H   LIG d   1       8.877   8.930  -3.507  0.00  0.00     0.203 HD
ATOM     28  H   LIG d   1       8.689   9.340  -1.910  0.00  0.00     0.203 HD
ENDROOT
BRANCH  16  29
ATOM     29  C   LIG d   1       8.991  11.455  -3.831  0.00  0.00     0.000 C 
ATOM     30  H   LIG d   1       9.477  11.658  -4.786  0.00  0.00     0.033 H 
ATOM     31  H   LIG d   1       8.073  10.895  -4.003  0.00  0.00     0.033 H 
BRANCH  29  32
ATOM     32  C   LIG d   1       8.661  12.777  -3.135  0.00  0.00    -0.002 C 
ATOM     33  H   LIG d   1       7.792  13.230  -3.611  0.00  0.00     0.038 H 
ATOM     34  H   LIG d   1       8.442  12.589  -2.084  0.00  0.00     0.038 H 
BRANCH  32  35
ATOM     35  S   LIG d   1      10.079  13.900  -3.267  0.00  0.00    -0.164 SA
BRANCH  35  36
ATOM     36  C   LIG d   1      10.664  14.070  -1.558  0.00  0.00    -0.018 C 
ATOM     37  H   LIG d   1      11.267  13.202  -1.292  0.00  0.00     0.034 H 
ATOM     38  H   LIG d   1      11.267  14.973  -1.469  0.00  0.00     0.034 H 
ATOM     39  H   LIG d   1       9.808  14.137  -0.887  0.00  0.00     0.034 H 
ENDBRANCH  35  36
ENDBRANCH  32  35
ENDBRANCH  29  32
ENDBRANCH  16  29
BRANCH   1  40
ATOM     40  C   LIG d   1      11.986  10.725   2.040  0.00  0.00    -0.040 C 
ATOM     41  H   LIG d   1      11.766  10.532   3.089  0.00  0.00     0.028 H 
ATOM     42  H   LIG d   1      13.057  10.889   1.917  0.00  0.00     0.028 H 
ATOM     43  H   LIG d   1      11.443  11.611   1.711  0.00  0.00     0.028 H 
ENDBRANCH   1  40
BRANCH  21  44
ATOM     44  C   LIG d   1      10.999   8.488  -6.936  0.00  0.00     0.026 C 
ATOM     45  H   LIG d   1      11.313   9.278  -7.618  0.00  0.00     0.047 H 
ATOM     46  H   LIG d   1      11.604   7.598  -7.108  0.00  0.00     0.047 H 
BRANCH  44  47
ATOM     47  C   LIG d   1       9.525   8.160  -7.180  0.00  0.00    -0.011 C 
ATOM     48  H   LIG d   1       9.009   8.078  -6.224  0.00  0.00     0.033 H 
ATOM     49  H   LIG d   1       9.069   8.952  -7.773  0.00  0.00     0.033 H 
BRANCH  47  50
ATOM     50  C   LIG d   1       9.419   6.852  -7.922  0.00  0.00    -0.046 A 
ATOM     51  C   LIG d   1       8.921   6.827  -9.211  0.00  0.00    -0.059 A 
ATOM     52  C   LIG d   1       8.827   5.629  -9.893  0.00  0.00    -0.061 A 
ATOM     53  H   LIG d   1       8.607   7.745  -9.687  0.00  0.00     0.062 H 
ATOM     54  C   LIG d   1       9.225   4.453  -9.283  0.00  0.00    -0.062 A 
ATOM     55  H   LIG d   1       8.442   5.610 -10.903  0.00  0.00     0.062 H 
ATOM     56  C   LIG d   1       9.719   4.477  -7.993  0.00  0.00    -0.061 A 
ATOM     57  H   LIG d   1       9.150   3.517  -9.816  0.00  0.00     0.062 H 
ATOM     58  C   LIG d   1       9.816   5.677  -7.312  0.00  0.00    -0.059 A 
ATOM     59  H   LIG d   1      10.029   3.560  -7.516  0.00  0.00     0.062 H 
ATOM     60  H   LIG d   1      10.202   5.696  -6.304  0.00  0.00     0.062 H 
ENDBRANCH  47  50
ENDBRANCH  44  47
ENDBRANCH  21  44
TORSDOF 8
ENDMDL
