MODEL 1
REMARK VINA RESULT:      -8.0      0.000      0.000
REMARK  3 active torsions:
REMARK  status: ('A' for Active; 'I' for Inactive)
REMARK    1  A    between atoms: C_6  and  C_11 
REMARK    2  A    between atoms: N_25  and  C_27 
REMARK    3  A    between atoms: C_27  and  C_28 
ROOT
ATOM      1  C   LIG d   1       4.715  -2.365  -5.992  0.00  0.00     0.002 A 
ATOM      2  C   LIG d   1       4.404  -1.920  -7.292  0.00  0.00    -0.047 A 
ATOM      3  C   LIG d   1       3.733  -0.745  -7.439  0.00  0.00     0.004 A 
ATOM      4  C   LIG d   1       3.342  -0.025  -6.295  0.00  0.00     0.252 A 
ATOM      5  O   LIG d   1       2.786   1.053  -6.421  0.00  0.00    -0.268 OA
ATOM      6  N   LIG d   1       3.575  -0.516  -5.052  0.00  0.00    -0.311 N 
ATOM      7  C   LIG d   1       4.314  -1.640  -4.899  0.00  0.00     0.034 A 
ATOM      8  C   LIG d   1       4.734  -2.145  -3.537  0.00  0.00     0.013 C 
ATOM      9  H   LIG d   1       4.787  -3.243  -3.548  0.00  0.00     0.038 H 
ATOM     10  C   LIG d   1       3.718  -1.674  -2.490  0.00  0.00    -0.038 C 
ATOM     11  C   LIG d   1       3.615  -0.150  -2.600  0.00  0.00    -0.009 C 
ATOM     12  H   LIG d   1       2.970   0.241  -1.798  0.00  0.00     0.033 H 
ATOM     13  C   LIG d   1       2.984   0.217  -3.933  0.00  0.00     0.030 C 
ATOM     14  C   LIG d   1       4.977   0.501  -2.420  0.00  0.00     0.004 C 
ATOM     15  N   LIG d   1       5.956  -0.047  -3.365  0.00  0.00    -0.297 N 
ATOM     16  C   LIG d   1       6.091  -1.503  -3.205  0.00  0.00     0.007 C 
ATOM     17  H   LIG d   1       4.693  -2.502  -8.155  0.00  0.00     0.063 H 
ATOM     18  H   LIG d   1       3.501  -0.368  -8.424  0.00  0.00     0.067 H 
ATOM     19  H   LIG d   1       2.742  -2.140  -2.688  0.00  0.00     0.028 H 
ATOM     20  H   LIG d   1       4.065  -1.963  -1.486  0.00  0.00     0.028 H 
ATOM     21  H   LIG d   1       3.122   1.298  -4.086  0.00  0.00     0.050 H 
ATOM     22  H   LIG d   1       1.909  -0.009  -3.873  0.00  0.00     0.050 H 
ATOM     23  H   LIG d   1       4.893   1.584  -2.591  0.00  0.00     0.043 H 
ATOM     24  H   LIG d   1       5.339   0.318  -1.396  0.00  0.00     0.043 H 
ATOM     25  H   LIG d   1       6.369  -1.748  -2.169  0.00  0.00     0.043 H 
ATOM     26  H   LIG d   1       6.858  -1.891  -3.892  0.00  0.00     0.043 H 
ENDROOT
BRANCH   1  27
ATOM     27  C   LIG d   1       5.479  -3.622  -5.803  0.00  0.00    -0.016 A 
ATOM     28  C   LIG d   1       4.805  -4.824  -5.692  0.00  0.00    -0.046 A 
ATOM     29  C   LIG d   1       5.533  -6.010  -5.514  0.00  0.00    -0.017 A 
ATOM     30  H   LIG d   1       3.726  -4.849  -5.741  0.00  0.00     0.063 H 
ATOM     31  C   LIG d   1       4.884  -7.252  -5.397  0.00  0.00    -0.054 A 
ATOM     32  C   LIG d   1       6.949  -5.957  -5.451  0.00  0.00    -0.018 A 
ATOM     33  C   LIG d   1       5.620  -8.383  -5.225  0.00  0.00    -0.061 A 
ATOM     34  H   LIG d   1       3.806  -7.307  -5.442  0.00  0.00     0.062 H 
ATOM     35  C   LIG d   1       7.011  -8.331  -5.164  0.00  0.00    -0.061 A 
ATOM     36  H   LIG d   1       5.118  -9.336  -5.135  0.00  0.00     0.062 H 
ATOM     37  C   LIG d   1       7.675  -7.148  -5.274  0.00  0.00    -0.054 A 
ATOM     38  H   LIG d   1       7.572  -9.245  -5.028  0.00  0.00     0.062 H 
ATOM     39  H   LIG d   1       8.753  -7.124  -5.225  0.00  0.00     0.062 H 
ATOM     40  C   LIG d   1       7.605  -4.718  -5.568  0.00  0.00    -0.053 A 
ATOM     41  C   LIG d   1       6.882  -3.582  -5.746  0.00  0.00    -0.053 A 
ATOM     42  H   LIG d   1       8.683  -4.671  -5.522  0.00  0.00     0.062 H 
ATOM     43  H   LIG d   1       7.393  -2.635  -5.839  0.00  0.00     0.062 H 
ENDBRANCH   1  27
BRANCH  15  44
ATOM     44  C   LIG d   1       7.256   0.621  -3.224  0.00  0.00     0.030 C 
ATOM     45  H   LIG d   1       7.155   1.479  -2.543  0.00  0.00     0.048 H 
ATOM     46  H   LIG d   1       7.991  -0.088  -2.814  0.00  0.00     0.048 H 
BRANCH  44  47
ATOM     47  C   LIG d   1       7.722   1.104  -4.573  0.00  0.00     0.004 A 
ATOM     48  S   LIG d   1       8.828   2.448  -4.966  0.00  0.00    -0.100 SA
ATOM     49  C   LIG d   1       8.798   2.288  -6.745  0.00  0.00    -0.024 A 
ATOM     50  C   LIG d   1       7.959   1.237  -6.916  0.00  0.00    -0.054 A 
ATOM     51  H   LIG d   1       9.314   2.875  -7.490  0.00  0.00     0.069 H 
ATOM     52  C   LIG d   1       7.412   0.627  -5.804  0.00  0.00    -0.050 A 
ATOM     53  H   LIG d   1       7.726   0.879  -7.909  0.00  0.00     0.062 H 
ATOM     54  H   LIG d   1       6.745  -0.215  -5.913  0.00  0.00     0.063 H 
ENDBRANCH  44  47
ENDBRANCH  15  44
TORSDOF 3
ENDMDL
MODEL 2
REMARK VINA RESULT:      -7.5      2.699      6.350
REMARK  3 active torsions:
REMARK  status: ('A' for Active; 'I' for Inactive)
REMARK    1  A    between atoms: C_6  and  C_11 
REMARK    2  A    between atoms: N_25  and  C_27 
REMARK    3  A    between atoms: C_27  and  C_28 
ROOT
ATOM      1  C   LIG d   1       6.787  -0.980  -4.806  0.00  0.00     0.002 A 
ATOM      2  C   LIG d   1       7.220  -2.086  -5.564  0.00  0.00    -0.047 A 
ATOM      3  C   LIG d   1       6.516  -3.248  -5.490  0.00  0.00     0.004 A 
ATOM      4  C   LIG d   1       5.398  -3.323  -4.639  0.00  0.00     0.252 A 
ATOM      5  O   LIG d   1       4.732  -4.345  -4.605  0.00  0.00    -0.268 OA
ATOM      6  N   LIG d   1       5.050  -2.274  -3.852  0.00  0.00    -0.311 N 
ATOM      7  C   LIG d   1       5.696  -1.091  -3.983  0.00  0.00     0.034 A 
ATOM      8  C   LIG d   1       5.251   0.152  -3.245  0.00  0.00     0.013 C 
ATOM      9  H   LIG d   1       6.125   0.777  -3.010  0.00  0.00     0.038 H 
ATOM     10  C   LIG d   1       4.531  -0.259  -1.956  0.00  0.00    -0.038 C 
ATOM     11  C   LIG d   1       3.395  -1.209  -2.344  0.00  0.00    -0.009 C 
ATOM     12  H   LIG d   1       2.788  -1.450  -1.458  0.00  0.00     0.033 H 
ATOM     13  C   LIG d   1       3.982  -2.504  -2.879  0.00  0.00     0.030 C 
ATOM     14  C   LIG d   1       2.459  -0.554  -3.348  0.00  0.00     0.004 C 
ATOM     15  N   LIG d   1       3.194  -0.076  -4.524  0.00  0.00    -0.297 N 
ATOM     16  C   LIG d   1       4.240   0.884  -4.142  0.00  0.00     0.007 C 
ATOM     17  H   LIG d   1       8.096  -2.012  -6.193  0.00  0.00     0.063 H 
ATOM     18  H   LIG d   1       6.810  -4.105  -6.077  0.00  0.00     0.067 H 
ATOM     19  H   LIG d   1       5.240  -0.762  -1.283  0.00  0.00     0.028 H 
ATOM     20  H   LIG d   1       4.129   0.638  -1.459  0.00  0.00     0.028 H 
ATOM     21  H   LIG d   1       3.169  -3.074  -3.353  0.00  0.00     0.050 H 
ATOM     22  H   LIG d   1       4.379  -3.074  -2.026  0.00  0.00     0.050 H 
ATOM     23  H   LIG d   1       1.706  -1.284  -3.678  0.00  0.00     0.043 H 
ATOM     24  H   LIG d   1       1.957   0.304  -2.876  0.00  0.00     0.043 H 
ATOM     25  H   LIG d   1       3.800   1.726  -3.587  0.00  0.00     0.043 H 
ATOM     26  H   LIG d   1       4.753   1.264  -5.039  0.00  0.00     0.043 H 
ENDROOT
BRANCH   1  27
ATOM     27  C   LIG d   1       7.513   0.310  -4.898  0.00  0.00    -0.016 A 
ATOM     28  C   LIG d   1       7.828   0.833  -6.139  0.00  0.00    -0.046 A 
ATOM     29  C   LIG d   1       8.515   2.054  -6.220  0.00  0.00    -0.017 A 
ATOM     30  H   LIG d   1       7.547   0.305  -7.038  0.00  0.00     0.063 H 
ATOM     31  C   LIG d   1       8.853   2.617  -7.463  0.00  0.00    -0.054 A 
ATOM     32  C   LIG d   1       8.876   2.732  -5.028  0.00  0.00    -0.018 A 
ATOM     33  C   LIG d   1       9.520   3.803  -7.506  0.00  0.00    -0.061 A 
ATOM     34  H   LIG d   1       8.585   2.111  -8.379  0.00  0.00     0.062 H 
ATOM     35  C   LIG d   1       9.873   4.469  -6.334  0.00  0.00    -0.061 A 
ATOM     36  H   LIG d   1       9.778   4.233  -8.463  0.00  0.00     0.062 H 
ATOM     37  C   LIG d   1       9.563   3.955  -5.113  0.00  0.00    -0.054 A 
ATOM     38  H   LIG d   1      10.402   5.410  -6.397  0.00  0.00     0.062 H 
ATOM     39  H   LIG d   1       9.844   4.483  -4.215  0.00  0.00     0.062 H 
ATOM     40  C   LIG d   1       8.541   2.174  -3.781  0.00  0.00    -0.053 A 
ATOM     41  C   LIG d   1       7.870   0.994  -3.724  0.00  0.00    -0.053 A 
ATOM     42  H   LIG d   1       8.812   2.685  -2.869  0.00  0.00     0.062 H 
ATOM     43  H   LIG d   1       7.613   0.573  -2.763  0.00  0.00     0.062 H 
ENDBRANCH   1  27
BRANCH  15  44
ATOM     44  C   LIG d   1       2.279   0.508  -5.515  0.00  0.00     0.030 C 
ATOM     45  H   LIG d   1       1.335  -0.056  -5.519  0.00  0.00     0.048 H 
ATOM     46  H   LIG d   1       2.078   1.558  -5.254  0.00  0.00     0.048 H 
BRANCH  44  47
ATOM     47  C   LIG d   1       2.911   0.442  -6.881  0.00  0.00     0.004 A 
ATOM     48  S   LIG d   1       3.961  -0.824  -7.574  0.00  0.00    -0.100 SA
ATOM     49  C   LIG d   1       4.221  -0.086  -9.179  0.00  0.00    -0.024 A 
ATOM     50  C   LIG d   1       3.501   1.059  -9.080  0.00  0.00    -0.054 A 
ATOM     51  H   LIG d   1       4.801  -0.455 -10.012  0.00  0.00     0.069 H 
ATOM     52  C   LIG d   1       2.826   1.327  -7.905  0.00  0.00    -0.050 A 
ATOM     53  H   LIG d   1       3.453   1.749  -9.910  0.00  0.00     0.062 H 
ATOM     54  H   LIG d   1       2.241   2.229  -7.802  0.00  0.00     0.063 H 
ENDBRANCH  44  47
ENDBRANCH  15  44
TORSDOF 3
ENDMDL
MODEL 3
REMARK VINA RESULT:      -7.2      2.715      6.334
REMARK  3 active torsions:
REMARK  status: ('A' for Active; 'I' for Inactive)
REMARK    1  A    between atoms: C_6  and  C_11 
REMARK    2  A    between atoms: N_25  and  C_27 
REMARK    3  A    between atoms: C_27  and  C_28 
ROOT
ATOM      1  C   LIG d   1       4.973  -3.473  -7.318  0.00  0.00     0.002 A 
ATOM      2  C   LIG d   1       3.888  -4.364  -7.198  0.00  0.00    -0.047 A 
ATOM      3  C   LIG d   1       4.054  -5.506  -6.477  0.00  0.00     0.004 A 
ATOM      4  C   LIG d   1       5.307  -5.780  -5.899  0.00  0.00     0.252 A 
ATOM      5  O   LIG d   1       5.449  -6.777  -5.209  0.00  0.00    -0.268 OA
ATOM      6  N   LIG d   1       6.362  -4.952  -6.100  0.00  0.00    -0.311 N 
ATOM      7  C   LIG d   1       6.182  -3.775  -6.746  0.00  0.00     0.034 A 
ATOM      8  C   LIG d   1       7.284  -2.747  -6.863  0.00  0.00     0.013 C 
ATOM      9  H   LIG d   1       7.184  -2.202  -7.813  0.00  0.00     0.038 H 
ATOM     10  C   LIG d   1       8.642  -3.455  -6.798  0.00  0.00    -0.038 C 
ATOM     11  C   LIG d   1       8.673  -4.277  -5.507  0.00  0.00    -0.009 C 
ATOM     12  H   LIG d   1       9.670  -4.723  -5.371  0.00  0.00     0.033 H 
ATOM     13  C   LIG d   1       7.661  -5.406  -5.604  0.00  0.00     0.030 C 
ATOM     14  C   LIG d   1       8.422  -3.394  -4.295  0.00  0.00     0.004 C 
ATOM     15  N   LIG d   1       7.166  -2.648  -4.434  0.00  0.00    -0.297 N 
ATOM     16  C   LIG d   1       7.176  -1.814  -5.645  0.00  0.00     0.007 C 
ATOM     17  H   LIG d   1       2.941  -4.143  -7.671  0.00  0.00     0.063 H 
ATOM     18  H   LIG d   1       3.234  -6.196  -6.349  0.00  0.00     0.067 H 
ATOM     19  H   LIG d   1       8.757  -4.110  -7.674  0.00  0.00     0.028 H 
ATOM     20  H   LIG d   1       9.447  -2.704  -6.795  0.00  0.00     0.028 H 
ATOM     21  H   LIG d   1       7.541  -5.840  -4.601  0.00  0.00     0.050 H 
ATOM     22  H   LIG d   1       8.068  -6.168  -6.286  0.00  0.00     0.050 H 
ATOM     23  H   LIG d   1       8.361  -4.018  -3.392  0.00  0.00     0.043 H 
ATOM     24  H   LIG d   1       9.247  -2.673  -4.188  0.00  0.00     0.043 H 
ATOM     25  H   LIG d   1       8.037  -1.130  -5.630  0.00  0.00     0.043 H 
ATOM     26  H   LIG d   1       6.245  -1.230  -5.712  0.00  0.00     0.043 H 
ENDROOT
BRANCH   1  27
ATOM     27  C   LIG d   1       4.808  -2.202  -8.065  0.00  0.00    -0.016 A 
ATOM     28  C   LIG d   1       4.006  -1.202  -7.549  0.00  0.00    -0.046 A 
ATOM     29  C   LIG d   1       3.854  -0.002  -8.260  0.00  0.00    -0.017 A 
ATOM     30  H   LIG d   1       3.500  -1.343  -6.605  0.00  0.00     0.063 H 
ATOM     31  C   LIG d   1       3.047   1.039  -7.768  0.00  0.00    -0.054 A 
ATOM     32  C   LIG d   1       4.525   0.165  -9.498  0.00  0.00    -0.018 A 
ATOM     33  C   LIG d   1       2.921   2.190  -8.483  0.00  0.00    -0.061 A 
ATOM     34  H   LIG d   1       2.529   0.925  -6.826  0.00  0.00     0.062 H 
ATOM     35  C   LIG d   1       3.581   2.354  -9.699  0.00  0.00    -0.061 A 
ATOM     36  H   LIG d   1       2.299   2.987  -8.102  0.00  0.00     0.062 H 
ATOM     37  C   LIG d   1       4.370   1.369 -10.208  0.00  0.00    -0.054 A 
ATOM     38  H   LIG d   1       3.464   3.278 -10.246  0.00  0.00     0.062 H 
ATOM     39  H   LIG d   1       4.876   1.511 -11.151  0.00  0.00     0.062 H 
ATOM     40  C   LIG d   1       5.334  -0.872  -9.997  0.00  0.00    -0.053 A 
ATOM     41  C   LIG d   1       5.473  -2.023  -9.290  0.00  0.00    -0.053 A 
ATOM     42  H   LIG d   1       5.849  -0.751 -10.938  0.00  0.00     0.062 H 
ATOM     43  H   LIG d   1       6.099  -2.814  -9.677  0.00  0.00     0.062 H 
ENDBRANCH   1  27
BRANCH  15  44
ATOM     44  C   LIG d   1       6.901  -1.837  -3.238  0.00  0.00     0.030 C 
ATOM     45  H   LIG d   1       7.046  -2.452  -2.338  0.00  0.00     0.048 H 
ATOM     46  H   LIG d   1       7.593  -0.982  -3.213  0.00  0.00     0.048 H 
BRANCH  44  47
ATOM     47  C   LIG d   1       5.481  -1.333  -3.279  0.00  0.00     0.004 A 
ATOM     48  S   LIG d   1       4.884   0.349  -3.274  0.00  0.00    -0.100 SA
ATOM     49  C   LIG d   1       3.135  -0.004  -3.338  0.00  0.00    -0.024 A 
ATOM     50  C   LIG d   1       3.124  -1.359  -3.357  0.00  0.00    -0.054 A 
ATOM     51  H   LIG d   1       2.302   0.684  -3.356  0.00  0.00     0.069 H 
ATOM     52  C   LIG d   1       4.326  -2.040  -3.332  0.00  0.00    -0.050 A 
ATOM     53  H   LIG d   1       2.188  -1.899  -3.396  0.00  0.00     0.062 H 
ATOM     54  H   LIG d   1       4.344  -3.120  -3.353  0.00  0.00     0.063 H 
ENDBRANCH  44  47
ENDBRANCH  15  44
TORSDOF 3
ENDMDL
MODEL 4
REMARK VINA RESULT:      -7.0      4.480      7.012
REMARK  3 active torsions:
REMARK  status: ('A' for Active; 'I' for Inactive)
REMARK    1  A    between atoms: C_6  and  C_11 
REMARK    2  A    between atoms: N_25  and  C_27 
REMARK    3  A    between atoms: C_27  and  C_28 
ROOT
ATOM      1  C   LIG d   1       8.686   2.335  -5.623  0.00  0.00     0.002 A 
ATOM      2  C   LIG d   1       8.602   2.368  -7.029  0.00  0.00    -0.047 A 
ATOM      3  C   LIG d   1       9.355   3.275  -7.709  0.00  0.00     0.004 A 
ATOM      4  C   LIG d   1      10.169   4.171  -6.993  0.00  0.00     0.252 A 
ATOM      5  O   LIG d   1      10.885   4.952  -7.598  0.00  0.00    -0.268 OA
ATOM      6  N   LIG d   1      10.168   4.180  -5.637  0.00  0.00    -0.311 N 
ATOM      7  C   LIG d   1       9.486   3.228  -4.957  0.00  0.00     0.034 A 
ATOM      8  C   LIG d   1       9.574   3.097  -3.453  0.00  0.00     0.013 C 
ATOM      9  H   LIG d   1       8.616   2.730  -3.056  0.00  0.00     0.038 H 
ATOM     10  C   LIG d   1       9.910   4.465  -2.847  0.00  0.00    -0.038 C 
ATOM     11  C   LIG d   1      11.192   4.965  -3.519  0.00  0.00    -0.009 C 
ATOM     12  H   LIG d   1      11.525   5.899  -3.042  0.00  0.00     0.033 H 
ATOM     13  C   LIG d   1      10.912   5.257  -4.984  0.00  0.00     0.030 C 
ATOM     14  C   LIG d   1      12.321   3.962  -3.347  0.00  0.00     0.004 C 
ATOM     15  N   LIG d   1      11.932   2.636  -3.839  0.00  0.00    -0.297 N 
ATOM     16  C   LIG d   1      10.736   2.140  -3.141  0.00  0.00     0.007 C 
ATOM     17  H   LIG d   1       7.952   1.685  -7.556  0.00  0.00     0.063 H 
ATOM     18  H   LIG d   1       9.329   3.307  -8.788  0.00  0.00     0.067 H 
ATOM     19  H   LIG d   1       9.081   5.163  -3.034  0.00  0.00     0.028 H 
ATOM     20  H   LIG d   1      10.061   4.358  -1.763  0.00  0.00     0.028 H 
ATOM     21  H   LIG d   1      11.878   5.397  -5.491  0.00  0.00     0.050 H 
ATOM     22  H   LIG d   1      10.332   6.190  -5.038  0.00  0.00     0.050 H 
ATOM     23  H   LIG d   1      13.202   4.300  -3.911  0.00  0.00     0.043 H 
ATOM     24  H   LIG d   1      12.578   3.878  -2.280  0.00  0.00     0.043 H 
ATOM     25  H   LIG d   1      10.911   2.119  -2.054  0.00  0.00     0.043 H 
ATOM     26  H   LIG d   1      10.482   1.129  -3.491  0.00  0.00     0.043 H 
ENDROOT
BRANCH   1  27
ATOM     27  C   LIG d   1       7.906   1.332  -4.858  0.00  0.00    -0.016 A 
ATOM     28  C   LIG d   1       6.879   1.747  -4.031  0.00  0.00    -0.046 A 
ATOM     29  C   LIG d   1       6.143   0.793  -3.311  0.00  0.00    -0.017 A 
ATOM     30  H   LIG d   1       6.644   2.797  -3.940  0.00  0.00     0.063 H 
ATOM     31  C   LIG d   1       5.092   1.176  -2.459  0.00  0.00    -0.054 A 
ATOM     32  C   LIG d   1       6.466  -0.581  -3.442  0.00  0.00    -0.018 A 
ATOM     33  C   LIG d   1       4.399   0.225  -1.775  0.00  0.00    -0.061 A 
ATOM     34  H   LIG d   1       4.836   2.220  -2.349  0.00  0.00     0.062 H 
ATOM     35  C   LIG d   1       4.716  -1.125  -1.906  0.00  0.00    -0.061 A 
ATOM     36  H   LIG d   1       3.592   0.523  -1.121  0.00  0.00     0.062 H 
ATOM     37  C   LIG d   1       5.727  -1.534  -2.719  0.00  0.00    -0.054 A 
ATOM     38  H   LIG d   1       4.149  -1.860  -1.351  0.00  0.00     0.062 H 
ATOM     39  H   LIG d   1       5.960  -2.584  -2.810  0.00  0.00     0.062 H 
ATOM     40  C   LIG d   1       7.517  -0.971  -4.292  0.00  0.00    -0.053 A 
ATOM     41  C   LIG d   1       8.212  -0.033  -4.986  0.00  0.00    -0.053 A 
ATOM     42  H   LIG d   1       7.767  -2.017  -4.398  0.00  0.00     0.062 H 
ATOM     43  H   LIG d   1       9.015  -0.340  -5.640  0.00  0.00     0.062 H 
ENDBRANCH   1  27
BRANCH  15  44
ATOM     44  C   LIG d   1      13.044   1.682  -3.720  0.00  0.00     0.030 C 
ATOM     45  H   LIG d   1      13.945   2.111  -4.182  0.00  0.00     0.048 H 
ATOM     46  H   LIG d   1      13.239   1.477  -2.657  0.00  0.00     0.048 H 
BRANCH  44  47
ATOM     47  C   LIG d   1      12.681   0.399  -4.421  0.00  0.00     0.004 A 
ATOM     48  S   LIG d   1      11.943   0.166  -6.029  0.00  0.00    -0.100 SA
ATOM     49  C   LIG d   1      11.883  -1.619  -6.023  0.00  0.00    -0.024 A 
ATOM     50  C   LIG d   1      12.420  -1.913  -4.814  0.00  0.00    -0.054 A 
ATOM     51  H   LIG d   1      11.514  -2.290  -6.785  0.00  0.00     0.069 H 
ATOM     52  C   LIG d   1      12.834  -0.879  -3.995  0.00  0.00    -0.050 A 
ATOM     53  H   LIG d   1      12.528  -2.940  -4.497  0.00  0.00     0.062 H 
ATOM     54  H   LIG d   1      13.271  -1.087  -3.029  0.00  0.00     0.063 H 
ENDBRANCH  44  47
ENDBRANCH  15  44
TORSDOF 3
ENDMDL
MODEL 5
REMARK VINA RESULT:      -7.0      2.412      4.534
REMARK  3 active torsions:
REMARK  status: ('A' for Active; 'I' for Inactive)
REMARK    1  A    between atoms: C_6  and  C_11 
REMARK    2  A    between atoms: N_25  and  C_27 
REMARK    3  A    between atoms: C_27  and  C_28 
ROOT
ATOM      1  C   LIG d   1       6.884  -1.718  -3.687  0.00  0.00     0.002 A 
ATOM      2  C   LIG d   1       5.704  -1.647  -2.921  0.00  0.00    -0.047 A 
ATOM      3  C   LIG d   1       5.139  -0.429  -2.699  0.00  0.00     0.004 A 
ATOM      4  C   LIG d   1       5.761   0.723  -3.212  0.00  0.00     0.252 A 
ATOM      5  O   LIG d   1       5.233   1.813  -3.060  0.00  0.00    -0.268 OA
ATOM      6  N   LIG d   1       6.943   0.640  -3.872  0.00  0.00    -0.311 N 
ATOM      7  C   LIG d   1       7.466  -0.573  -4.167  0.00  0.00     0.034 A 
ATOM      8  C   LIG d   1       8.697  -0.728  -5.032  0.00  0.00     0.013 C 
ATOM      9  H   LIG d   1       9.271  -1.608  -4.707  0.00  0.00     0.038 H 
ATOM     10  C   LIG d   1       9.556   0.537  -4.917  0.00  0.00    -0.038 C 
ATOM     11  C   LIG d   1       8.669   1.731  -5.279  0.00  0.00    -0.009 C 
ATOM     12  H   LIG d   1       9.273   2.651  -5.306  0.00  0.00     0.033 H 
ATOM     13  C   LIG d   1       7.596   1.903  -4.217  0.00  0.00     0.030 C 
ATOM     14  C   LIG d   1       8.071   1.561  -6.667  0.00  0.00     0.004 C 
ATOM     15  N   LIG d   1       7.344   0.291  -6.778  0.00  0.00    -0.297 N 
ATOM     16  C   LIG d   1       8.224  -0.851  -6.489  0.00  0.00     0.007 C 
ATOM     17  H   LIG d   1       5.256  -2.544  -2.517  0.00  0.00     0.063 H 
ATOM     18  H   LIG d   1       4.222  -0.346  -2.135  0.00  0.00     0.067 H 
ATOM     19  H   LIG d   1       9.930   0.634  -3.887  0.00  0.00     0.028 H 
ATOM     20  H   LIG d   1      10.407   0.466  -5.611  0.00  0.00     0.028 H 
ATOM     21  H   LIG d   1       6.848   2.611  -4.603  0.00  0.00     0.050 H 
ATOM     22  H   LIG d   1       8.072   2.327  -3.320  0.00  0.00     0.050 H 
ATOM     23  H   LIG d   1       7.370   2.384  -6.868  0.00  0.00     0.043 H 
ATOM     24  H   LIG d   1       8.875   1.572  -7.418  0.00  0.00     0.043 H 
ATOM     25  H   LIG d   1       9.097  -0.839  -7.160  0.00  0.00     0.043 H 
ATOM     26  H   LIG d   1       7.676  -1.796  -6.619  0.00  0.00     0.043 H 
ENDROOT
BRANCH   1  27
ATOM     27  C   LIG d   1       7.500  -3.036  -3.977  0.00  0.00    -0.016 A 
ATOM     28  C   LIG d   1       8.598  -3.454  -3.249  0.00  0.00    -0.046 A 
ATOM     29  C   LIG d   1       9.177  -4.703  -3.527  0.00  0.00    -0.017 A 
ATOM     30  H   LIG d   1       9.008  -2.825  -2.473  0.00  0.00     0.063 H 
ATOM     31  C   LIG d   1      10.295  -5.163  -2.809  0.00  0.00    -0.054 A 
ATOM     32  C   LIG d   1       8.625  -5.514  -4.550  0.00  0.00    -0.018 A 
ATOM     33  C   LIG d   1      10.831  -6.378  -3.104  0.00  0.00    -0.061 A 
ATOM     34  H   LIG d   1      10.725  -4.554  -2.027  0.00  0.00     0.062 H 
ATOM     35  C   LIG d   1      10.288  -7.176  -4.108  0.00  0.00    -0.061 A 
ATOM     36  H   LIG d   1      11.690  -6.728  -2.550  0.00  0.00     0.062 H 
ATOM     37  C   LIG d   1       9.207  -6.764  -4.825  0.00  0.00    -0.054 A 
ATOM     38  H   LIG d   1      10.733  -8.137  -4.322  0.00  0.00     0.062 H 
ATOM     39  H   LIG d   1       8.798  -7.394  -5.600  0.00  0.00     0.062 H 
ATOM     40  C   LIG d   1       7.507  -5.060  -5.272  0.00  0.00    -0.053 A 
ATOM     41  C   LIG d   1       6.958  -3.852  -4.984  0.00  0.00    -0.053 A 
ATOM     42  H   LIG d   1       7.081  -5.674  -6.052  0.00  0.00     0.062 H 
ATOM     43  H   LIG d   1       6.097  -3.511  -5.540  0.00  0.00     0.062 H 
ENDBRANCH   1  27
BRANCH  15  44
ATOM     44  C   LIG d   1       6.723   0.156  -8.103  0.00  0.00     0.030 C 
ATOM     45  H   LIG d   1       6.961   1.040  -8.712  0.00  0.00     0.048 H 
ATOM     46  H   LIG d   1       7.111  -0.746  -8.599  0.00  0.00     0.048 H 
BRANCH  44  47
ATOM     47  C   LIG d   1       5.229   0.040  -7.947  0.00  0.00     0.004 A 
ATOM     48  S   LIG d   1       3.957   0.128  -9.196  0.00  0.00    -0.100 SA
ATOM     49  C   LIG d   1       2.541  -0.104  -8.133  0.00  0.00    -0.024 A 
ATOM     50  C   LIG d   1       3.125  -0.230  -6.915  0.00  0.00    -0.054 A 
ATOM     51  H   LIG d   1       1.494  -0.135  -8.392  0.00  0.00     0.069 H 
ATOM     52  C   LIG d   1       4.501  -0.162  -6.821  0.00  0.00    -0.050 A 
ATOM     53  H   LIG d   1       2.521  -0.387  -6.033  0.00  0.00     0.062 H 
ATOM     54  H   LIG d   1       4.991  -0.265  -5.864  0.00  0.00     0.063 H 
ENDBRANCH  44  47
ENDBRANCH  15  44
TORSDOF 3
ENDMDL
MODEL 6
REMARK VINA RESULT:      -6.9      3.483      6.332
REMARK  3 active torsions:
REMARK  status: ('A' for Active; 'I' for Inactive)
REMARK    1  A    between atoms: C_6  and  C_11 
REMARK    2  A    between atoms: N_25  and  C_27 
REMARK    3  A    between atoms: C_27  and  C_28 
ROOT
ATOM      1  C   LIG d   1       8.006  -2.992  -4.467  0.00  0.00     0.002 A 
ATOM      2  C   LIG d   1       8.935  -3.460  -3.515  0.00  0.00    -0.047 A 
ATOM      3  C   LIG d   1      10.102  -4.006  -3.952  0.00  0.00     0.004 A 
ATOM      4  C   LIG d   1      10.336  -4.117  -5.335  0.00  0.00     0.252 A 
ATOM      5  O   LIG d   1      11.402  -4.559  -5.733  0.00  0.00    -0.268 OA
ATOM      6  N   LIG d   1       9.392  -3.742  -6.233  0.00  0.00    -0.311 N 
ATOM      7  C   LIG d   1       8.265  -3.122  -5.807  0.00  0.00     0.034 A 
ATOM      8  C   LIG d   1       7.253  -2.545  -6.771  0.00  0.00     0.013 C 
ATOM      9  H   LIG d   1       6.244  -2.622  -6.340  0.00  0.00     0.038 H 
ATOM     10  C   LIG d   1       7.323  -3.314  -8.095  0.00  0.00    -0.038 C 
ATOM     11  C   LIG d   1       8.773  -3.258  -8.585  0.00  0.00    -0.009 C 
ATOM     12  H   LIG d   1       8.849  -3.713  -9.585  0.00  0.00     0.033 H 
ATOM     13  C   LIG d   1       9.656  -4.053  -7.638  0.00  0.00     0.030 C 
ATOM     14  C   LIG d   1       9.243  -1.819  -8.725  0.00  0.00     0.004 C 
ATOM     15  N   LIG d   1       9.064  -1.079  -7.471  0.00  0.00    -0.297 N 
ATOM     16  C   LIG d   1       7.657  -1.087  -7.045  0.00  0.00     0.007 C 
ATOM     17  H   LIG d   1       8.723  -3.385  -2.459  0.00  0.00     0.063 H 
ATOM     18  H   LIG d   1      10.842  -4.351  -3.246  0.00  0.00     0.067 H 
ATOM     19  H   LIG d   1       7.013  -4.356  -7.932  0.00  0.00     0.028 H 
ATOM     20  H   LIG d   1       6.652  -2.843  -8.829  0.00  0.00     0.028 H 
ATOM     21  H   LIG d   1      10.704  -3.818  -7.876  0.00  0.00     0.050 H 
ATOM     22  H   LIG d   1       9.470  -5.122  -7.818  0.00  0.00     0.050 H 
ATOM     23  H   LIG d   1      10.310  -1.805  -8.991  0.00  0.00     0.043 H 
ATOM     24  H   LIG d   1       8.661  -1.317  -9.514  0.00  0.00     0.043 H 
ATOM     25  H   LIG d   1       7.017  -0.673  -7.839  0.00  0.00     0.043 H 
ATOM     26  H   LIG d   1       7.534  -0.494  -6.128  0.00  0.00     0.043 H 
ENDROOT
BRANCH   1  27
ATOM     27  C   LIG d   1       6.743  -2.358  -4.018  0.00  0.00    -0.016 A 
ATOM     28  C   LIG d   1       6.756  -1.053  -3.561  0.00  0.00    -0.046 A 
ATOM     29  C   LIG d   1       5.558  -0.457  -3.138  0.00  0.00    -0.017 A 
ATOM     30  H   LIG d   1       7.681  -0.497  -3.530  0.00  0.00     0.063 H 
ATOM     31  C   LIG d   1       5.531   0.867  -2.667  0.00  0.00    -0.054 A 
ATOM     32  C   LIG d   1       4.353  -1.203  -3.186  0.00  0.00    -0.018 A 
ATOM     33  C   LIG d   1       4.352   1.415  -2.264  0.00  0.00    -0.061 A 
ATOM     34  H   LIG d   1       6.441   1.447  -2.624  0.00  0.00     0.062 H 
ATOM     35  C   LIG d   1       3.168   0.682  -2.312  0.00  0.00    -0.061 A 
ATOM     36  H   LIG d   1       4.334   2.433  -1.902  0.00  0.00     0.062 H 
ATOM     37  C   LIG d   1       3.155  -0.603  -2.761  0.00  0.00    -0.054 A 
ATOM     38  H   LIG d   1       2.245   1.141  -1.986  0.00  0.00     0.062 H 
ATOM     39  H   LIG d   1       2.230  -1.157  -2.793  0.00  0.00     0.062 H 
ATOM     40  C   LIG d   1       4.373  -2.528  -3.656  0.00  0.00    -0.053 A 
ATOM     41  C   LIG d   1       5.542  -3.085  -4.067  0.00  0.00    -0.053 A 
ATOM     42  H   LIG d   1       3.459  -3.102  -3.696  0.00  0.00     0.062 H 
ATOM     43  H   LIG d   1       5.549  -4.102  -4.431  0.00  0.00     0.062 H 
ENDBRANCH   1  27
BRANCH  15  44
ATOM     44  C   LIG d   1       9.569   0.296  -7.595  0.00  0.00     0.030 C 
ATOM     45  H   LIG d   1      10.643   0.272  -7.832  0.00  0.00     0.048 H 
ATOM     46  H   LIG d   1       9.027   0.815  -8.399  0.00  0.00     0.048 H 
BRANCH  44  47
ATOM     47  C   LIG d   1       9.357   1.027  -6.294  0.00  0.00     0.004 A 
ATOM     48  S   LIG d   1      10.269   0.889  -4.766  0.00  0.00    -0.100 SA
ATOM     49  C   LIG d   1       9.346   2.083  -3.812  0.00  0.00    -0.024 A 
ATOM     50  C   LIG d   1       8.418   2.499  -4.709  0.00  0.00    -0.054 A 
ATOM     51  H   LIG d   1       9.489   2.393  -2.787  0.00  0.00     0.069 H 
ATOM     52  C   LIG d   1       8.427   1.962  -5.982  0.00  0.00    -0.050 A 
ATOM     53  H   LIG d   1       7.685   3.244  -4.433  0.00  0.00     0.062 H 
ATOM     54  H   LIG d   1       7.702   2.281  -6.716  0.00  0.00     0.063 H 
ENDBRANCH  44  47
ENDBRANCH  15  44
TORSDOF 3
ENDMDL
MODEL 7
REMARK VINA RESULT:      -6.8      2.937      6.139
REMARK  3 active torsions:
REMARK  status: ('A' for Active; 'I' for Inactive)
REMARK    1  A    between atoms: C_6  and  C_11 
REMARK    2  A    between atoms: N_25  and  C_27 
REMARK    3  A    between atoms: C_27  and  C_28 
ROOT
ATOM      1  C   LIG d   1       6.475  -3.889  -5.433  0.00  0.00     0.002 A 
ATOM      2  C   LIG d   1       7.712  -4.455  -5.065  0.00  0.00    -0.047 A 
ATOM      3  C   LIG d   1       8.316  -5.322  -5.922  0.00  0.00     0.004 A 
ATOM      4  C   LIG d   1       7.678  -5.653  -7.132  0.00  0.00     0.252 A 
ATOM      5  O   LIG d   1       8.238  -6.390  -7.928  0.00  0.00    -0.268 OA
ATOM      6  N   LIG d   1       6.447  -5.164  -7.426  0.00  0.00    -0.311 N 
ATOM      7  C   LIG d   1       5.879  -4.239  -6.617  0.00  0.00     0.034 A 
ATOM      8  C   LIG d   1       4.583  -3.548  -6.975  0.00  0.00     0.013 C 
ATOM      9  H   LIG d   1       4.019  -3.320  -6.059  0.00  0.00     0.038 H 
ATOM     10  C   LIG d   1       3.760  -4.463  -7.890  0.00  0.00    -0.038 C 
ATOM     11  C   LIG d   1       4.640  -4.828  -9.089  0.00  0.00    -0.009 C 
ATOM     12  H   LIG d   1       4.054  -5.404  -9.821  0.00  0.00     0.033 H 
ATOM     13  C   LIG d   1       5.795  -5.697  -8.621  0.00  0.00     0.030 C 
ATOM     14  C   LIG d   1       5.125  -3.578  -9.805  0.00  0.00     0.004 C 
ATOM     15  N   LIG d   1       5.816  -2.672  -8.881  0.00  0.00    -0.297 N 
ATOM     16  C   LIG d   1       4.939  -2.280  -7.767  0.00  0.00     0.007 C 
ATOM     17  H   LIG d   1       8.172  -4.204  -4.120  0.00  0.00     0.063 H 
ATOM     18  H   LIG d   1       9.275  -5.753  -5.678  0.00  0.00     0.067 H 
ATOM     19  H   LIG d   1       3.469  -5.368  -7.338  0.00  0.00     0.028 H 
ATOM     20  H   LIG d   1       2.857  -3.931  -8.224  0.00  0.00     0.028 H 
ATOM     21  H   LIG d   1       6.524  -5.761  -9.442  0.00  0.00     0.050 H 
ATOM     22  H   LIG d   1       5.398  -6.701  -8.406  0.00  0.00     0.050 H 
ATOM     23  H   LIG d   1       5.824  -3.861 -10.606  0.00  0.00     0.043 H 
ATOM     24  H   LIG d   1       4.265  -3.046 -10.240  0.00  0.00     0.043 H 
ATOM     25  H   LIG d   1       4.018  -1.817  -8.153  0.00  0.00     0.043 H 
ATOM     26  H   LIG d   1       5.457  -1.568  -7.107  0.00  0.00     0.043 H 
ENDROOT
BRANCH   1  27
ATOM     27  C   LIG d   1       5.813  -2.911  -4.535  0.00  0.00    -0.016 A 
ATOM     28  C   LIG d   1       6.316  -1.629  -4.427  0.00  0.00    -0.046 A 
ATOM     29  C   LIG d   1       5.686  -0.708  -3.576  0.00  0.00    -0.017 A 
ATOM     30  H   LIG d   1       7.189  -1.338  -4.993  0.00  0.00     0.063 H 
ATOM     31  C   LIG d   1       6.169   0.606  -3.440  0.00  0.00    -0.054 A 
ATOM     32  C   LIG d   1       4.542  -1.108  -2.840  0.00  0.00    -0.018 A 
ATOM     33  C   LIG d   1       5.533   1.474  -2.606  0.00  0.00    -0.061 A 
ATOM     34  H   LIG d   1       7.040   0.924  -3.994  0.00  0.00     0.062 H 
ATOM     35  C   LIG d   1       4.409   1.080  -1.884  0.00  0.00    -0.061 A 
ATOM     36  H   LIG d   1       5.907   2.482  -2.503  0.00  0.00     0.062 H 
ATOM     37  C   LIG d   1       3.913  -0.183  -1.990  0.00  0.00    -0.054 A 
ATOM     38  H   LIG d   1       3.923   1.790  -1.229  0.00  0.00     0.062 H 
ATOM     39  H   LIG d   1       3.040  -0.472  -1.424  0.00  0.00     0.062 H 
ATOM     40  C   LIG d   1       4.054  -2.420  -2.972  0.00  0.00    -0.053 A 
ATOM     41  C   LIG d   1       4.675  -3.295  -3.805  0.00  0.00    -0.053 A 
ATOM     42  H   LIG d   1       3.182  -2.732  -2.415  0.00  0.00     0.062 H 
ATOM     43  H   LIG d   1       4.292  -4.300  -3.905  0.00  0.00     0.062 H 
ENDBRANCH   1  27
BRANCH  15  44
ATOM     44  C   LIG d   1       6.330  -1.490  -9.587  0.00  0.00     0.030 C 
ATOM     45  H   LIG d   1       7.060  -1.807 -10.347  0.00  0.00     0.048 H 
ATOM     46  H   LIG d   1       5.497  -0.964 -10.076  0.00  0.00     0.048 H 
BRANCH  44  47
ATOM     47  C   LIG d   1       6.999  -0.568  -8.601  0.00  0.00     0.004 A 
ATOM     48  S   LIG d   1       6.708   1.169  -8.311  0.00  0.00    -0.100 SA
ATOM     49  C   LIG d   1       7.911   1.413  -7.014  0.00  0.00    -0.024 A 
ATOM     50  C   LIG d   1       8.445   0.173  -6.892  0.00  0.00    -0.054 A 
ATOM     51  H   LIG d   1       8.151   2.314  -6.469  0.00  0.00     0.069 H 
ATOM     52  C   LIG d   1       7.975  -0.843  -7.701  0.00  0.00    -0.050 A 
ATOM     53  H   LIG d   1       9.225  -0.018  -6.168  0.00  0.00     0.062 H 
ATOM     54  H   LIG d   1       8.379  -1.841  -7.620  0.00  0.00     0.063 H 
ENDBRANCH  44  47
ENDBRANCH  15  44
TORSDOF 3
ENDMDL
MODEL 8
REMARK VINA RESULT:      -6.7      3.539      6.127
REMARK  3 active torsions:
REMARK  status: ('A' for Active; 'I' for Inactive)
REMARK    1  A    between atoms: C_6  and  C_11 
REMARK    2  A    between atoms: N_25  and  C_27 
REMARK    3  A    between atoms: C_27  and  C_28 
ROOT
ATOM      1  C   LIG d   1       4.117  -2.137  -7.474  0.00  0.00     0.002 A 
ATOM      2  C   LIG d   1       4.090  -3.546  -7.481  0.00  0.00    -0.047 A 
ATOM      3  C   LIG d   1       3.708  -4.188  -8.618  0.00  0.00     0.004 A 
ATOM      4  C   LIG d   1       3.324  -3.433  -9.741  0.00  0.00     0.252 A 
ATOM      5  O   LIG d   1       3.030  -4.002 -10.780  0.00  0.00    -0.268 OA
ATOM      6  N   LIG d   1       3.275  -2.078  -9.685  0.00  0.00    -0.311 N 
ATOM      7  C   LIG d   1       3.731  -1.433  -8.585  0.00  0.00     0.034 A 
ATOM      8  C   LIG d   1       3.843   0.074  -8.528  0.00  0.00     0.013 C 
ATOM      9  H   LIG d   1       3.664   0.420  -7.500  0.00  0.00     0.038 H 
ATOM     10  C   LIG d   1       2.814   0.692  -9.482  0.00  0.00    -0.038 C 
ATOM     11  C   LIG d   1       3.051   0.088 -10.869  0.00  0.00    -0.009 C 
ATOM     12  H   LIG d   1       2.399   0.579 -11.608  0.00  0.00     0.033 H 
ATOM     13  C   LIG d   1       2.702  -1.390 -10.842  0.00  0.00     0.030 C 
ATOM     14  C   LIG d   1       4.482   0.324 -11.327  0.00  0.00     0.004 C 
ATOM     15  N   LIG d   1       5.444  -0.183 -10.342  0.00  0.00    -0.297 N 
ATOM     16  C   LIG d   1       5.246   0.452  -9.030  0.00  0.00     0.007 C 
ATOM     17  H   LIG d   1       4.366  -4.105  -6.598  0.00  0.00     0.063 H 
ATOM     18  H   LIG d   1       3.700  -5.267  -8.661  0.00  0.00     0.067 H 
ATOM     19  H   LIG d   1       1.799   0.459  -9.130  0.00  0.00     0.028 H 
ATOM     20  H   LIG d   1       2.951   1.784  -9.510  0.00  0.00     0.028 H 
ATOM     21  H   LIG d   1       3.085  -1.846 -11.767  0.00  0.00     0.050 H 
ATOM     22  H   LIG d   1       1.606  -1.479 -10.816  0.00  0.00     0.050 H 
ATOM     23  H   LIG d   1       4.652  -0.193 -12.282  0.00  0.00     0.043 H 
ATOM     24  H   LIG d   1       4.652   1.404 -11.459  0.00  0.00     0.043 H 
ATOM     25  H   LIG d   1       5.320   1.546  -9.122  0.00  0.00     0.043 H 
ATOM     26  H   LIG d   1       6.001   0.092  -8.316  0.00  0.00     0.043 H 
ENDROOT
BRANCH   1  27
ATOM     27  C   LIG d   1       4.566  -1.412  -6.260  0.00  0.00    -0.016 A 
ATOM     28  C   LIG d   1       3.630  -0.847  -5.414  0.00  0.00    -0.046 A 
ATOM     29  C   LIG d   1       4.060  -0.162  -4.267  0.00  0.00    -0.017 A 
ATOM     30  H   LIG d   1       2.576  -0.931  -5.635  0.00  0.00     0.063 H 
ATOM     31  C   LIG d   1       3.138   0.426  -3.383  0.00  0.00    -0.054 A 
ATOM     32  C   LIG d   1       5.447  -0.062  -3.994  0.00  0.00    -0.018 A 
ATOM     33  C   LIG d   1       3.589   1.083  -2.279  0.00  0.00    -0.061 A 
ATOM     34  H   LIG d   1       2.078   0.357  -3.579  0.00  0.00     0.062 H 
ATOM     35  C   LIG d   1       4.952   1.180  -2.011  0.00  0.00    -0.061 A 
ATOM     36  H   LIG d   1       2.878   1.534  -1.602  0.00  0.00     0.062 H 
ATOM     37  C   LIG d   1       5.874   0.624  -2.843  0.00  0.00    -0.054 A 
ATOM     38  H   LIG d   1       5.283   1.707  -1.127  0.00  0.00     0.062 H 
ATOM     39  H   LIG d   1       6.927   0.708  -2.621  0.00  0.00     0.062 H 
ATOM     40  C   LIG d   1       6.374  -0.648  -4.874  0.00  0.00    -0.053 A 
ATOM     41  C   LIG d   1       5.938  -1.312  -5.976  0.00  0.00    -0.053 A 
ATOM     42  H   LIG d   1       7.433  -0.576  -4.671  0.00  0.00     0.062 H 
ATOM     43  H   LIG d   1       6.655  -1.763  -6.645  0.00  0.00     0.062 H 
ENDBRANCH   1  27
BRANCH  15  44
ATOM     44  C   LIG d   1       6.824  -0.001 -10.813  0.00  0.00     0.030 C 
ATOM     45  H   LIG d   1       6.939  -0.469 -11.801  0.00  0.00     0.048 H 
ATOM     46  H   LIG d   1       7.047   1.073 -10.887  0.00  0.00     0.048 H 
BRANCH  44  47
ATOM     47  C   LIG d   1       7.775  -0.646  -9.838  0.00  0.00     0.004 A 
ATOM     48  S   LIG d   1       9.161   0.076  -8.975  0.00  0.00    -0.100 SA
ATOM     49  C   LIG d   1       9.681  -1.375  -8.073  0.00  0.00    -0.024 A 
ATOM     50  C   LIG d   1       8.777  -2.298  -8.485  0.00  0.00    -0.054 A 
ATOM     51  H   LIG d   1      10.502  -1.488  -7.381  0.00  0.00     0.069 H 
ATOM     52  C   LIG d   1       7.798  -1.923  -9.385  0.00  0.00    -0.050 A 
ATOM     53  H   LIG d   1       8.820  -3.311  -8.112  0.00  0.00     0.062 H 
ATOM     54  H   LIG d   1       7.063  -2.638  -9.724  0.00  0.00     0.063 H 
ENDBRANCH  44  47
ENDBRANCH  15  44
TORSDOF 3
ENDMDL
MODEL 9
REMARK VINA RESULT:      -6.5      3.296      6.264
REMARK  3 active torsions:
REMARK  status: ('A' for Active; 'I' for Inactive)
REMARK    1  A    between atoms: C_6  and  C_11 
REMARK    2  A    between atoms: N_25  and  C_27 
REMARK    3  A    between atoms: C_27  and  C_28 
ROOT
ATOM      1  C   LIG d   1       4.749  -4.139  -5.752  0.00  0.00     0.002 A 
ATOM      2  C   LIG d   1       4.882  -5.425  -5.189  0.00  0.00    -0.047 A 
ATOM      3  C   LIG d   1       4.673  -6.511  -5.981  0.00  0.00     0.004 A 
ATOM      4  C   LIG d   1       4.301  -6.324  -7.325  0.00  0.00     0.252 A 
ATOM      5  O   LIG d   1       4.162  -7.293  -8.054  0.00  0.00    -0.268 OA
ATOM      6  N   LIG d   1       4.094  -5.079  -7.822  0.00  0.00    -0.311 N 
ATOM      7  C   LIG d   1       4.380  -3.994  -7.064  0.00  0.00     0.034 A 
ATOM      8  C   LIG d   1       4.315  -2.589  -7.617  0.00  0.00     0.013 C 
ATOM      9  H   LIG d   1       4.012  -1.891  -6.823  0.00  0.00     0.038 H 
ATOM     10  C   LIG d   1       3.307  -2.548  -8.772  0.00  0.00    -0.038 C 
ATOM     11  C   LIG d   1       3.726  -3.613  -9.788  0.00  0.00    -0.009 C 
ATOM     12  H   LIG d   1       3.086  -3.551 -10.681  0.00  0.00     0.033 H 
ATOM     13  C   LIG d   1       3.546  -4.992  -9.176  0.00  0.00     0.030 C 
ATOM     14  C   LIG d   1       5.154  -3.384 -10.257  0.00  0.00     0.004 C 
ATOM     15  N   LIG d   1       6.081  -3.321  -9.122  0.00  0.00    -0.297 N 
ATOM     16  C   LIG d   1       5.703  -2.252  -8.186  0.00  0.00     0.007 C 
ATOM     17  H   LIG d   1       5.146  -5.544  -4.148  0.00  0.00     0.063 H 
ATOM     18  H   LIG d   1       4.790  -7.508  -5.584  0.00  0.00     0.067 H 
ATOM     19  H   LIG d   1       2.299  -2.759  -8.386  0.00  0.00     0.028 H 
ATOM     20  H   LIG d   1       3.320  -1.549  -9.234  0.00  0.00     0.028 H 
ATOM     21  H   LIG d   1       4.053  -5.720  -9.826  0.00  0.00     0.050 H 
ATOM     22  H   LIG d   1       2.469  -5.214  -9.150  0.00  0.00     0.050 H 
ATOM     23  H   LIG d   1       5.461  -4.209 -10.916  0.00  0.00     0.043 H 
ATOM     24  H   LIG d   1       5.211  -2.433 -10.809  0.00  0.00     0.043 H 
ATOM     25  H   LIG d   1       5.660  -1.285  -8.710  0.00  0.00     0.043 H 
ATOM     26  H   LIG d   1       6.432  -2.192  -7.364  0.00  0.00     0.043 H 
ENDROOT
BRANCH   1  27
ATOM     27  C   LIG d   1       5.009  -2.938  -4.921  0.00  0.00    -0.016 A 
ATOM     28  C   LIG d   1       3.948  -2.226  -4.395  0.00  0.00    -0.046 A 
ATOM     29  C   LIG d   1       4.200  -1.090  -3.609  0.00  0.00    -0.017 A 
ATOM     30  H   LIG d   1       2.933  -2.540  -4.587  0.00  0.00     0.063 H 
ATOM     31  C   LIG d   1       3.147  -0.340  -3.057  0.00  0.00    -0.054 A 
ATOM     32  C   LIG d   1       5.539  -0.692  -3.369  0.00  0.00    -0.018 A 
ATOM     33  C   LIG d   1       3.426   0.756  -2.300  0.00  0.00    -0.061 A 
ATOM     34  H   LIG d   1       2.122  -0.632  -3.233  0.00  0.00     0.062 H 
ATOM     35  C   LIG d   1       4.742   1.147  -2.063  0.00  0.00    -0.061 A 
ATOM     36  H   LIG d   1       2.615   1.331  -1.877  0.00  0.00     0.062 H 
ATOM     37  C   LIG d   1       5.787   0.446  -2.581  0.00  0.00    -0.054 A 
ATOM     38  H   LIG d   1       4.936   2.021  -1.458  0.00  0.00     0.062 H 
ATOM     39  H   LIG d   1       6.801   0.761  -2.388  0.00  0.00     0.062 H 
ATOM     40  C   LIG d   1       6.597  -1.438  -3.918  0.00  0.00    -0.053 A 
ATOM     41  C   LIG d   1       6.332  -2.538  -4.671  0.00  0.00    -0.053 A 
ATOM     42  H   LIG d   1       7.619  -1.141  -3.738  0.00  0.00     0.062 H 
ATOM     43  H   LIG d   1       7.150  -3.108  -5.086  0.00  0.00     0.062 H 
ENDBRANCH   1  27
BRANCH  15  44
ATOM     44  C   LIG d   1       7.466  -3.153  -9.583  0.00  0.00     0.030 C 
ATOM     45  H   LIG d   1       7.693  -3.910 -10.348  0.00  0.00     0.048 H 
ATOM     46  H   LIG d   1       7.590  -2.148 -10.014  0.00  0.00     0.048 H 
BRANCH  44  47
ATOM     47  C   LIG d   1       8.406  -3.319  -8.417  0.00  0.00     0.004 A 
ATOM     48  S   LIG d   1       8.462  -4.617  -7.194  0.00  0.00    -0.100 SA
ATOM     49  C   LIG d   1       9.844  -4.008  -6.242  0.00  0.00    -0.024 A 
ATOM     50  C   LIG d   1      10.165  -2.873  -6.910  0.00  0.00    -0.054 A 
ATOM     51  H   LIG d   1      10.305  -4.434  -5.362  0.00  0.00     0.069 H 
ATOM     52  C   LIG d   1       9.432  -2.523  -8.027  0.00  0.00    -0.050 A 
ATOM     53  H   LIG d   1      10.986  -2.254  -6.575  0.00  0.00     0.062 H 
ATOM     54  H   LIG d   1       9.671  -1.627  -8.581  0.00  0.00     0.063 H 
ENDBRANCH  44  47
ENDBRANCH  15  44
TORSDOF 3
ENDMDL
