MODEL 1
REMARK VINA RESULT:      -6.1      0.000      0.000
REMARK  1 active torsions:
REMARK  status: ('A' for Active; 'I' for Inactive)
REMARK    1  A    between atoms: C_12  and  O_14 
ROOT
ATOM      1  C   LIG d   1       7.941   0.732  -4.153  0.00  0.00    -0.061 A 
ATOM      2  C   LIG d   1       6.948   1.396  -3.490  0.00  0.00    -0.054 A 
ATOM      3  C   LIG d   1       5.771   0.704  -3.165  0.00  0.00    -0.017 A 
ATOM      4  C   LIG d   1       4.680   1.273  -2.487  0.00  0.00    -0.054 A 
ATOM      5  C   LIG d   1       3.589   0.495  -2.228  0.00  0.00    -0.061 A 
ATOM      6  C   LIG d   1       3.519  -0.846  -2.610  0.00  0.00    -0.056 A 
ATOM      7  C   LIG d   1       4.560  -1.429  -3.268  0.00  0.00    -0.011 A 
ATOM      8  C   LIG d   1       5.678  -0.648  -3.540  0.00  0.00    -0.009 A 
ATOM      9  C   LIG d   1       6.698  -1.313  -4.214  0.00  0.00    -0.037 A 
ATOM     10  C   LIG d   1       7.825  -0.612  -4.516  0.00  0.00    -0.058 A 
ATOM     11  C   LIG d   1       6.238  -2.732  -4.442  0.00  0.00     0.003 A 
ATOM     12  C   LIG d   1       4.825  -2.807  -3.822  0.00  0.00     0.085 A 
ATOM     13  H   LIG d   1       4.808  -3.547  -3.022  0.00  0.00     0.065 H 
ATOM     14  H   LIG d   1       8.846   1.263  -4.405  0.00  0.00     0.062 H 
ATOM     15  H   LIG d   1       7.068   2.435  -3.222  0.00  0.00     0.062 H 
ATOM     16  H   LIG d   1       4.703   2.307  -2.178  0.00  0.00     0.062 H 
ATOM     17  H   LIG d   1       2.749   0.932  -1.708  0.00  0.00     0.062 H 
ATOM     18  H   LIG d   1       2.635  -1.425  -2.384  0.00  0.00     0.062 H 
ATOM     19  H   LIG d   1       8.635  -1.098  -5.040  0.00  0.00     0.062 H 
ATOM     20  H   LIG d   1       6.191  -2.948  -5.510  0.00  0.00     0.034 H 
ATOM     21  H   LIG d   1       6.910  -3.431  -3.946  0.00  0.00     0.034 H 
ENDROOT
BRANCH  12  22
ATOM     22  O   LIG d   1       3.856  -3.135  -4.820  0.00  0.00    -0.387 OA
ATOM     23  H   LIG d   1       3.270  -3.864  -4.575  0.00  0.00     0.210 HD
ENDBRANCH  12  22
TORSDOF 1
ENDMDL
MODEL 2
REMARK VINA RESULT:      -6.0      1.898      3.387
REMARK  1 active torsions:
REMARK  status: ('A' for Active; 'I' for Inactive)
REMARK    1  A    between atoms: C_12  and  O_14 
ROOT
ATOM      1  C   LIG d   1       4.881  -3.236  -4.065  0.00  0.00    -0.061 A 
ATOM      2  C   LIG d   1       4.220  -2.497  -3.126  0.00  0.00    -0.054 A 
ATOM      3  C   LIG d   1       4.634  -1.177  -2.889  0.00  0.00    -0.017 A 
ATOM      4  C   LIG d   1       4.039  -0.316  -1.952  0.00  0.00    -0.054 A 
ATOM      5  C   LIG d   1       4.532   0.948  -1.813  0.00  0.00    -0.061 A 
ATOM      6  C   LIG d   1       5.608   1.418  -2.570  0.00  0.00    -0.056 A 
ATOM      7  C   LIG d   1       6.207   0.610  -3.488  0.00  0.00    -0.011 A 
ATOM      8  C   LIG d   1       5.715  -0.682  -3.640  0.00  0.00    -0.009 A 
ATOM      9  C   LIG d   1       6.379  -1.446  -4.595  0.00  0.00    -0.037 A 
ATOM     10  C   LIG d   1       5.954  -2.723  -4.798  0.00  0.00    -0.058 A 
ATOM     11  C   LIG d   1       7.469  -0.584  -5.184  0.00  0.00     0.003 A 
ATOM     12  C   LIG d   1       7.359   0.771  -4.450  0.00  0.00     0.085 A 
ATOM     13  H   LIG d   1       7.146   1.566  -5.165  0.00  0.00     0.065 H 
ATOM     14  H   LIG d   1       4.565  -4.252  -4.247  0.00  0.00     0.062 H 
ATOM     15  H   LIG d   1       3.394  -2.922  -2.575  0.00  0.00     0.062 H 
ATOM     16  H   LIG d   1       3.206  -0.650  -1.351  0.00  0.00     0.062 H 
ATOM     17  H   LIG d   1       4.075   1.610  -1.092  0.00  0.00     0.062 H 
ATOM     18  H   LIG d   1       5.966   2.427  -2.428  0.00  0.00     0.062 H 
ATOM     19  H   LIG d   1       6.448  -3.343  -5.532  0.00  0.00     0.062 H 
ATOM     20  H   LIG d   1       8.446  -1.032  -5.000  0.00  0.00     0.034 H 
ATOM     21  H   LIG d   1       7.310  -0.453  -6.254  0.00  0.00     0.034 H 
ENDROOT
BRANCH  12  22
ATOM     22  O   LIG d   1       8.564   1.054  -3.737  0.00  0.00    -0.387 OA
ATOM     23  H   LIG d   1       9.327   0.538  -4.033  0.00  0.00     0.210 HD
ENDBRANCH  12  22
TORSDOF 1
ENDMDL
MODEL 3
REMARK VINA RESULT:      -5.9      1.566      3.836
REMARK  1 active torsions:
REMARK  status: ('A' for Active; 'I' for Inactive)
REMARK    1  A    between atoms: C_12  and  O_14 
ROOT
ATOM      1  C   LIG d   1       3.609   0.761  -2.188  0.00  0.00    -0.061 A 
ATOM      2  C   LIG d   1       3.432  -0.552  -2.520  0.00  0.00    -0.054 A 
ATOM      3  C   LIG d   1       4.461  -1.222  -3.201  0.00  0.00    -0.017 A 
ATOM      4  C   LIG d   1       4.402  -2.567  -3.599  0.00  0.00    -0.054 A 
ATOM      5  C   LIG d   1       5.470  -3.106  -4.257  0.00  0.00    -0.061 A 
ATOM      6  C   LIG d   1       6.619  -2.368  -4.548  0.00  0.00    -0.056 A 
ATOM      7  C   LIG d   1       6.709  -1.061  -4.175  0.00  0.00    -0.011 A 
ATOM      8  C   LIG d   1       5.628  -0.498  -3.505  0.00  0.00    -0.009 A 
ATOM      9  C   LIG d   1       5.795   0.840  -3.159  0.00  0.00    -0.037 A 
ATOM     10  C   LIG d   1       4.777   1.460  -2.501  0.00  0.00    -0.058 A 
ATOM     11  C   LIG d   1       7.158   1.266  -3.647  0.00  0.00     0.003 A 
ATOM     12  C   LIG d   1       7.760   0.013  -4.322  0.00  0.00     0.085 A 
ATOM     13  H   LIG d   1       8.676  -0.282  -3.810  0.00  0.00     0.065 H 
ATOM     14  H   LIG d   1       2.817   1.278  -1.665  0.00  0.00     0.062 H 
ATOM     15  H   LIG d   1       2.517  -1.065  -2.264  0.00  0.00     0.062 H 
ATOM     16  H   LIG d   1       3.528  -3.165  -3.389  0.00  0.00     0.062 H 
ATOM     17  H   LIG d   1       5.425  -4.141  -4.564  0.00  0.00     0.062 H 
ATOM     18  H   LIG d   1       7.441  -2.835  -5.070  0.00  0.00     0.062 H 
ATOM     19  H   LIG d   1       4.874   2.497  -2.219  0.00  0.00     0.062 H 
ATOM     20  H   LIG d   1       7.065   2.074  -4.372  0.00  0.00     0.034 H 
ATOM     21  H   LIG d   1       7.777   1.581  -2.807  0.00  0.00     0.034 H 
ENDROOT
BRANCH  12  22
ATOM     22  O   LIG d   1       8.021   0.265  -5.704  0.00  0.00    -0.387 OA
ATOM     23  H   LIG d   1       7.795   1.161  -5.989  0.00  0.00     0.210 HD
ENDBRANCH  12  22
TORSDOF 1
ENDMDL
MODEL 4
REMARK VINA RESULT:      -5.7      1.031      3.151
REMARK  1 active torsions:
REMARK  status: ('A' for Active; 'I' for Inactive)
REMARK    1  A    between atoms: C_12  and  O_14 
ROOT
ATOM      1  C   LIG d   1       4.117   0.267  -1.816  0.00  0.00    -0.061 A 
ATOM      2  C   LIG d   1       5.137   1.073  -2.236  0.00  0.00    -0.054 A 
ATOM      3  C   LIG d   1       6.052   0.572  -3.175  0.00  0.00    -0.017 A 
ATOM      4  C   LIG d   1       7.141   1.297  -3.685  0.00  0.00    -0.054 A 
ATOM      5  C   LIG d   1       7.962   0.699  -4.596  0.00  0.00    -0.061 A 
ATOM      6  C   LIG d   1       7.757  -0.609  -5.041  0.00  0.00    -0.056 A 
ATOM      7  C   LIG d   1       6.710  -1.340  -4.568  0.00  0.00    -0.011 A 
ATOM      8  C   LIG d   1       5.865  -0.744  -3.638  0.00  0.00    -0.009 A 
ATOM      9  C   LIG d   1       4.821  -1.553  -3.202  0.00  0.00    -0.037 A 
ATOM     10  C   LIG d   1       3.953  -1.037  -2.289  0.00  0.00    -0.058 A 
ATOM     11  C   LIG d   1       4.950  -2.878  -3.913  0.00  0.00     0.003 A 
ATOM     12  C   LIG d   1       6.199  -2.740  -4.810  0.00  0.00     0.085 A 
ATOM     13  H   LIG d   1       5.922  -2.865  -5.857  0.00  0.00     0.065 H 
ATOM     14  H   LIG d   1       3.413   0.651  -1.093  0.00  0.00     0.062 H 
ATOM     15  H   LIG d   1       5.237   2.077  -1.852  0.00  0.00     0.062 H 
ATOM     16  H   LIG d   1       7.326   2.311  -3.361  0.00  0.00     0.062 H 
ATOM     17  H   LIG d   1       8.801   1.256  -4.988  0.00  0.00     0.062 H 
ATOM     18  H   LIG d   1       8.433  -1.044  -5.764  0.00  0.00     0.062 H 
ATOM     19  H   LIG d   1       3.132  -1.639  -1.930  0.00  0.00     0.062 H 
ATOM     20  H   LIG d   1       5.094  -3.682  -3.191  0.00  0.00     0.034 H 
ATOM     21  H   LIG d   1       4.064  -3.069  -4.518  0.00  0.00     0.034 H 
ENDROOT
BRANCH  12  22
ATOM     22  O   LIG d   1       7.191  -3.700  -4.441  0.00  0.00    -0.387 OA
ATOM     23  H   LIG d   1       7.488  -4.259  -5.173  0.00  0.00     0.210 HD
ENDBRANCH  12  22
TORSDOF 1
ENDMDL
MODEL 5
REMARK VINA RESULT:      -5.6      2.301      4.135
REMARK  1 active torsions:
REMARK  status: ('A' for Active; 'I' for Inactive)
REMARK    1  A    between atoms: C_12  and  O_14 
ROOT
ATOM      1  C   LIG d   1       4.086  -1.099  -2.021  0.00  0.00    -0.061 A 
ATOM      2  C   LIG d   1       5.148  -1.702  -2.631  0.00  0.00    -0.054 A 
ATOM      3  C   LIG d   1       5.299  -1.563  -4.020  0.00  0.00    -0.017 A 
ATOM      4  C   LIG d   1       6.345  -2.132  -4.764  0.00  0.00    -0.054 A 
ATOM      5  C   LIG d   1       6.383  -1.924  -6.112  0.00  0.00    -0.061 A 
ATOM      6  C   LIG d   1       5.420  -1.163  -6.779  0.00  0.00    -0.056 A 
ATOM      7  C   LIG d   1       4.393  -0.596  -6.087  0.00  0.00    -0.011 A 
ATOM      8  C   LIG d   1       4.341  -0.801  -4.712  0.00  0.00    -0.009 A 
ATOM      9  C   LIG d   1       3.264  -0.191  -4.077  0.00  0.00    -0.037 A 
ATOM     10  C   LIG d   1       3.146  -0.348  -2.730  0.00  0.00    -0.058 A 
ATOM     11  C   LIG d   1       2.463   0.528  -5.135  0.00  0.00     0.003 A 
ATOM     12  C   LIG d   1       3.206   0.257  -6.462  0.00  0.00     0.085 A 
ATOM     13  H   LIG d   1       3.539   1.197  -6.902  0.00  0.00     0.065 H 
ATOM     14  H   LIG d   1       3.968  -1.207  -0.953  0.00  0.00     0.062 H 
ATOM     15  H   LIG d   1       5.859  -2.276  -2.055  0.00  0.00     0.062 H 
ATOM     16  H   LIG d   1       7.106  -2.725  -4.278  0.00  0.00     0.062 H 
ATOM     17  H   LIG d   1       7.187  -2.363  -6.685  0.00  0.00     0.062 H 
ATOM     18  H   LIG d   1       5.489  -1.024  -7.848  0.00  0.00     0.062 H 
ATOM     19  H   LIG d   1       2.321   0.112  -2.206  0.00  0.00     0.062 H 
ATOM     20  H   LIG d   1       1.451   0.126  -5.183  0.00  0.00     0.034 H 
ATOM     21  H   LIG d   1       2.435   1.597  -4.925  0.00  0.00     0.034 H 
ENDROOT
BRANCH  12  22
ATOM     22  O   LIG d   1       2.360  -0.445  -7.375  0.00  0.00    -0.387 OA
ATOM     23  H   LIG d   1       1.483  -0.051  -7.481  0.00  0.00     0.210 HD
ENDBRANCH  12  22
TORSDOF 1
ENDMDL
MODEL 6
REMARK VINA RESULT:      -5.6      2.329      3.298
REMARK  1 active torsions:
REMARK  status: ('A' for Active; 'I' for Inactive)
REMARK    1  A    between atoms: C_12  and  O_14 
ROOT
ATOM      1  C   LIG d   1       3.979  -0.599  -1.945  0.00  0.00    -0.061 A 
ATOM      2  C   LIG d   1       3.208   0.115  -2.818  0.00  0.00    -0.054 A 
ATOM      3  C   LIG d   1       3.359  -0.111  -4.195  0.00  0.00    -0.017 A 
ATOM      4  C   LIG d   1       2.629   0.557  -5.193  0.00  0.00    -0.054 A 
ATOM      5  C   LIG d   1       2.868   0.249  -6.500  0.00  0.00    -0.061 A 
ATOM      6  C   LIG d   1       3.811  -0.708  -6.883  0.00  0.00    -0.056 A 
ATOM      7  C   LIG d   1       4.535  -1.374  -5.942  0.00  0.00    -0.011 A 
ATOM      8  C   LIG d   1       4.303  -1.070  -4.604  0.00  0.00    -0.009 A 
ATOM      9  C   LIG d   1       5.081  -1.791  -3.704  0.00  0.00    -0.037 A 
ATOM     10  C   LIG d   1       4.911  -1.546  -2.376  0.00  0.00    -0.058 A 
ATOM     11  C   LIG d   1       5.966  -2.712  -4.508  0.00  0.00     0.003 A 
ATOM     12  C   LIG d   1       5.609  -2.434  -5.985  0.00  0.00     0.085 A 
ATOM     13  H   LIG d   1       5.227  -3.341  -6.453  0.00  0.00     0.065 H 
ATOM     14  H   LIG d   1       3.864  -0.425  -0.886  0.00  0.00     0.062 H 
ATOM     15  H   LIG d   1       2.495   0.840  -2.454  0.00  0.00     0.062 H 
ATOM     16  H   LIG d   1       1.893   1.301  -4.929  0.00  0.00     0.062 H 
ATOM     17  H   LIG d   1       2.307   0.763  -7.268  0.00  0.00     0.062 H 
ATOM     18  H   LIG d   1       3.967  -0.920  -7.931  0.00  0.00     0.062 H 
ATOM     19  H   LIG d   1       5.499  -2.088  -1.651  0.00  0.00     0.062 H 
ATOM     20  H   LIG d   1       7.016  -2.483  -4.326  0.00  0.00     0.034 H 
ATOM     21  H   LIG d   1       5.757  -3.751  -4.254  0.00  0.00     0.034 H 
ENDROOT
BRANCH  12  22
ATOM     22  O   LIG d   1       6.752  -1.952  -6.695  0.00  0.00    -0.387 OA
ATOM     23  H   LIG d   1       6.728  -1.003  -6.880  0.00  0.00     0.210 HD
ENDBRANCH  12  22
TORSDOF 1
ENDMDL
MODEL 7
REMARK VINA RESULT:      -5.5      2.226      2.726
REMARK  1 active torsions:
REMARK  status: ('A' for Active; 'I' for Inactive)
REMARK    1  A    between atoms: C_12  and  O_14 
ROOT
ATOM      1  C   LIG d   1       6.768  -2.331  -4.089  0.00  0.00    -0.061 A 
ATOM      2  C   LIG d   1       6.374  -1.601  -3.004  0.00  0.00    -0.054 A 
ATOM      3  C   LIG d   1       5.272  -0.740  -3.131  0.00  0.00    -0.017 A 
ATOM      4  C   LIG d   1       4.770   0.062  -2.093  0.00  0.00    -0.054 A 
ATOM      5  C   LIG d   1       3.691   0.859  -2.341  0.00  0.00    -0.061 A 
ATOM      6  C   LIG d   1       3.066   0.905  -3.590  0.00  0.00    -0.056 A 
ATOM      7  C   LIG d   1       3.527   0.139  -4.618  0.00  0.00    -0.011 A 
ATOM      8  C   LIG d   1       4.627  -0.678  -4.380  0.00  0.00    -0.009 A 
ATOM      9  C   LIG d   1       5.039  -1.428  -5.477  0.00  0.00    -0.037 A 
ATOM     10  C   LIG d   1       6.112  -2.251  -5.320  0.00  0.00    -0.058 A 
ATOM     11  C   LIG d   1       4.115  -1.096  -6.623  0.00  0.00     0.003 A 
ATOM     12  C   LIG d   1       3.120  -0.058  -6.057  0.00  0.00     0.085 A 
ATOM     13  H   LIG d   1       2.104  -0.448  -6.113  0.00  0.00     0.065 H 
ATOM     14  H   LIG d   1       7.616  -2.992  -3.993  0.00  0.00     0.062 H 
ATOM     15  H   LIG d   1       6.901  -1.685  -2.065  0.00  0.00     0.062 H 
ATOM     16  H   LIG d   1       5.230   0.049  -1.117  0.00  0.00     0.062 H 
ATOM     17  H   LIG d   1       3.304   1.477  -1.544  0.00  0.00     0.062 H 
ATOM     18  H   LIG d   1       2.214   1.551  -3.742  0.00  0.00     0.062 H 
ATOM     19  H   LIG d   1       6.457  -2.846  -6.152  0.00  0.00     0.062 H 
ATOM     20  H   LIG d   1       4.678  -0.664  -7.450  0.00  0.00     0.034 H 
ATOM     21  H   LIG d   1       3.587  -1.990  -6.953  0.00  0.00     0.034 H 
ENDROOT
BRANCH  12  22
ATOM     22  O   LIG d   1       3.220   1.174  -6.774  0.00  0.00    -0.387 OA
ATOM     23  H   LIG d   1       3.884   1.782  -6.420  0.00  0.00     0.210 HD
ENDBRANCH  12  22
TORSDOF 1
ENDMDL
MODEL 8
REMARK VINA RESULT:      -5.5      2.531      4.147
REMARK  1 active torsions:
REMARK  status: ('A' for Active; 'I' for Inactive)
REMARK    1  A    between atoms: C_12  and  O_14 
ROOT
ATOM      1  C   LIG d   1       2.985   0.017  -6.506  0.00  0.00    -0.061 A 
ATOM      2  C   LIG d   1       4.131  -0.718  -6.615  0.00  0.00    -0.054 A 
ATOM      3  C   LIG d   1       4.879  -0.982  -5.457  0.00  0.00    -0.017 A 
ATOM      4  C   LIG d   1       6.072  -1.722  -5.436  0.00  0.00    -0.054 A 
ATOM      5  C   LIG d   1       6.709  -1.910  -4.244  0.00  0.00    -0.061 A 
ATOM      6  C   LIG d   1       6.216  -1.394  -3.043  0.00  0.00    -0.056 A 
ATOM      7  C   LIG d   1       5.061  -0.672  -3.028  0.00  0.00    -0.011 A 
ATOM      8  C   LIG d   1       4.401  -0.471  -4.236  0.00  0.00    -0.009 A 
ATOM      9  C   LIG d   1       3.231   0.275  -4.140  0.00  0.00    -0.037 A 
ATOM     10  C   LIG d   1       2.531   0.514  -5.282  0.00  0.00    -0.058 A 
ATOM     11  C   LIG d   1       3.049   0.643  -2.687  0.00  0.00     0.003 A 
ATOM     12  C   LIG d   1       4.259   0.022  -1.954  0.00  0.00     0.085 A 
ATOM     13  H   LIG d   1       3.915  -0.700  -1.213  0.00  0.00     0.065 H 
ATOM     14  H   LIG d   1       2.409   0.221  -7.397  0.00  0.00     0.062 H 
ATOM     15  H   LIG d   1       4.455  -1.090  -7.576  0.00  0.00     0.062 H 
ATOM     16  H   LIG d   1       6.479  -2.135  -6.347  0.00  0.00     0.062 H 
ATOM     17  H   LIG d   1       7.627  -2.480  -4.227  0.00  0.00     0.062 H 
ATOM     18  H   LIG d   1       6.753  -1.567  -2.122  0.00  0.00     0.062 H 
ATOM     19  H   LIG d   1       1.619   1.091  -5.242  0.00  0.00     0.062 H 
ATOM     20  H   LIG d   1       3.054   1.726  -2.568  0.00  0.00     0.034 H 
ATOM     21  H   LIG d   1       2.117   0.225  -2.307  0.00  0.00     0.034 H 
ENDROOT
BRANCH  12  22
ATOM     22  O   LIG d   1       5.043   1.040  -1.330  0.00  0.00    -0.387 OA
ATOM     23  H   LIG d   1       4.861   1.932  -1.657  0.00  0.00     0.210 HD
ENDBRANCH  12  22
TORSDOF 1
ENDMDL
MODEL 9
REMARK VINA RESULT:      -5.1      2.352      3.019
REMARK  1 active torsions:
REMARK  status: ('A' for Active; 'I' for Inactive)
REMARK    1  A    between atoms: C_12  and  O_14 
ROOT
ATOM      1  C   LIG d   1       4.089  -0.075  -7.203  0.00  0.00    -0.061 A 
ATOM      2  C   LIG d   1       3.157  -0.073  -6.205  0.00  0.00    -0.054 A 
ATOM      3  C   LIG d   1       3.585  -0.242  -4.879  0.00  0.00    -0.017 A 
ATOM      4  C   LIG d   1       2.728  -0.259  -3.766  0.00  0.00    -0.054 A 
ATOM      5  C   LIG d   1       3.266  -0.431  -2.524  0.00  0.00    -0.061 A 
ATOM      6  C   LIG d   1       4.639  -0.589  -2.319  0.00  0.00    -0.056 A 
ATOM      7  C   LIG d   1       5.498  -0.577  -3.376  0.00  0.00    -0.011 A 
ATOM      8  C   LIG d   1       4.963  -0.403  -4.649  0.00  0.00    -0.009 A 
ATOM      9  C   LIG d   1       5.902  -0.403  -5.675  0.00  0.00    -0.037 A 
ATOM     10  C   LIG d   1       5.453  -0.239  -6.950  0.00  0.00    -0.058 A 
ATOM     11  C   LIG d   1       7.260  -0.600  -5.046  0.00  0.00     0.003 A 
ATOM     12  C   LIG d   1       6.992  -0.720  -3.529  0.00  0.00     0.085 A 
ATOM     13  H   LIG d   1       7.505   0.080  -2.996  0.00  0.00     0.065 H 
ATOM     14  H   LIG d   1       3.761   0.053  -8.224  0.00  0.00     0.062 H 
ATOM     15  H   LIG d   1       2.109   0.056  -6.433  0.00  0.00     0.062 H 
ATOM     16  H   LIG d   1       1.662  -0.139  -3.891  0.00  0.00     0.062 H 
ATOM     17  H   LIG d   1       2.607  -0.445  -1.668  0.00  0.00     0.062 H 
ATOM     18  H   LIG d   1       5.021  -0.723  -1.318  0.00  0.00     0.062 H 
ATOM     19  H   LIG d   1       6.155  -0.234  -7.770  0.00  0.00     0.062 H 
ATOM     20  H   LIG d   1       7.720  -1.515  -5.419  0.00  0.00     0.034 H 
ATOM     21  H   LIG d   1       7.900   0.257  -5.254  0.00  0.00     0.034 H 
ENDROOT
BRANCH  12  22
ATOM     22  O   LIG d   1       7.420  -1.994  -3.044  0.00  0.00    -0.387 OA
ATOM     23  H   LIG d   1       6.943  -2.742  -3.430  0.00  0.00     0.210 HD
ENDBRANCH  12  22
TORSDOF 1
ENDMDL
MODEL 10
REMARK VINA RESULT:      -4.7      8.082      9.503
REMARK  1 active torsions:
REMARK  status: ('A' for Active; 'I' for Inactive)
REMARK    1  A    between atoms: C_12  and  O_14 
ROOT
ATOM      1  C   LIG d   1       7.748  -7.983  -4.381  0.00  0.00    -0.061 A 
ATOM      2  C   LIG d   1       8.210  -8.516  -3.212  0.00  0.00    -0.054 A 
ATOM      3  C   LIG d   1       7.439  -9.491  -2.560  0.00  0.00    -0.017 A 
ATOM      4  C   LIG d   1       7.803 -10.114  -1.355  0.00  0.00    -0.054 A 
ATOM      5  C   LIG d   1       6.966 -11.050  -0.819  0.00  0.00    -0.061 A 
ATOM      6  C   LIG d   1       5.762 -11.412  -1.427  0.00  0.00    -0.056 A 
ATOM      7  C   LIG d   1       5.380 -10.828  -2.597  0.00  0.00    -0.011 A 
ATOM      8  C   LIG d   1       6.222  -9.871  -3.154  0.00  0.00    -0.009 A 
ATOM      9  C   LIG d   1       5.763  -9.321  -4.347  0.00  0.00    -0.037 A 
ATOM     10  C   LIG d   1       6.535  -8.376  -4.951  0.00  0.00    -0.058 A 
ATOM     11  C   LIG d   1       4.438  -9.970  -4.664  0.00  0.00     0.003 A 
ATOM     12  C   LIG d   1       4.183 -10.961  -3.507  0.00  0.00     0.085 A 
ATOM     13  H   LIG d   1       4.114 -11.977  -3.894  0.00  0.00     0.065 H 
ATOM     14  H   LIG d   1       8.340  -7.232  -4.882  0.00  0.00     0.062 H 
ATOM     15  H   LIG d   1       9.153  -8.192  -2.796  0.00  0.00     0.062 H 
ATOM     16  H   LIG d   1       8.727  -9.857  -0.861  0.00  0.00     0.062 H 
ATOM     17  H   LIG d   1       7.245 -11.529   0.108  0.00  0.00     0.062 H 
ATOM     18  H   LIG d   1       5.130 -12.157  -0.968  0.00  0.00     0.062 H 
ATOM     19  H   LIG d   1       6.208  -7.928  -5.878  0.00  0.00     0.062 H 
ATOM     20  H   LIG d   1       3.648  -9.220  -4.697  0.00  0.00     0.034 H 
ATOM     21  H   LIG d   1       4.496 -10.500  -5.614  0.00  0.00     0.034 H 
ENDROOT
BRANCH  12  22
ATOM     22  O   LIG d   1       2.987 -10.615  -2.805  0.00  0.00    -0.387 OA
ATOM     23  H   LIG d   1       3.136 -10.322  -1.895  0.00  0.00     0.210 HD
ENDBRANCH  12  22
TORSDOF 1
ENDMDL
