MODEL 1
REMARK VINA RESULT:      -6.0      0.000      0.000
REMARK  4 active torsions:
REMARK  status: ('A' for Active; 'I' for Inactive)
REMARK    1  A    between atoms: C_5  and  C_10 
REMARK    2  A    between atoms: C_6  and  N_7 
REMARK    3  A    between atoms: C_10  and  C_11 
REMARK    4  A    between atoms: C_11  and  C_12 
ROOT
ATOM      1  C   LIG d   1       4.521  -1.578  -6.272  0.00  0.00     0.021 A 
ATOM      2  C   LIG d   1       4.233  -0.899  -5.105  0.00  0.00    -0.019 A 
ATOM      3  C   LIG d   1       3.362   0.182  -5.128  0.00  0.00     0.037 A 
ATOM      4  C   LIG d   1       2.781   0.576  -6.327  0.00  0.00    -0.031 A 
ATOM      5  C   LIG d   1       3.072  -0.108  -7.491  0.00  0.00     0.032 A 
ATOM      6  C   LIG d   1       3.941  -1.183  -7.464  0.00  0.00     0.277 A 
ATOM      7  N   LIG d   1       3.071   0.870  -3.947  0.00  0.00    -0.285 N 
ATOM      8  C   LIG d   1       3.876   0.755  -2.875  0.00  0.00     0.217 C 
ATOM      9  O   LIG d   1       3.601   1.347  -1.852  0.00  0.00    -0.276 OA
ATOM     10  C   LIG d   1       5.118  -0.092  -2.933  0.00  0.00     0.028 C 
ATOM     11  C   LIG d   1       4.863  -1.326  -3.805  0.00  0.00    -0.018 C 
ATOM     12  H   LIG d   1       5.200  -2.418  -6.254  0.00  0.00     0.069 H 
ATOM     13  H   LIG d   1       2.102   1.416  -6.348  0.00  0.00     0.064 H 
ATOM     14  H   LIG d   1       2.283   1.433  -3.898  0.00  0.00     0.155 HD
ATOM     15  H   LIG d   1       5.936   0.491  -3.355  0.00  0.00     0.036 H 
ATOM     16  H   LIG d   1       5.386  -0.412  -1.925  0.00  0.00     0.036 H 
ATOM     17  H   LIG d   1       4.193  -2.009  -3.284  0.00  0.00     0.032 H 
ATOM     18  H   LIG d   1       5.809  -1.828  -4.007  0.00  0.00     0.032 H 
ENDROOT
BRANCH   5  19
ATOM     19  C   LIG d   1       2.442   0.318  -8.792  0.00  0.00    -0.016 C 
ATOM     20  H   LIG d   1       2.835  -0.295  -9.603  0.00  0.00     0.032 H 
ATOM     21  H   LIG d   1       1.362   0.191  -8.731  0.00  0.00     0.032 H 
BRANCH  19  22
ATOM     22  C   LIG d   1       2.770   1.788  -9.060  0.00  0.00    -0.009 C 
ATOM     23  H   LIG d   1       1.939   2.254  -9.591  0.00  0.00     0.033 H 
ATOM     24  H   LIG d   1       2.930   2.303  -8.112  0.00  0.00     0.033 H 
BRANCH  22  25
ATOM     25  C   LIG d   1       4.017   1.881  -9.900  0.00  0.00     0.042 C 
ATOM     26  O   LIG d   1       4.044   1.373 -10.997  0.00  0.00    -0.550 OA
ATOM     27  O   LIG d   1       5.096   2.525  -9.431  0.00  0.00    -0.550 OA
ENDBRANCH  22  25
ENDBRANCH  19  22
ENDBRANCH   5  19
BRANCH   6  28
ATOM     28  N   LIG d   1       4.252  -1.914  -8.714  0.00  0.00     0.080 N 
ATOM     29  O   LIG d   1       5.158  -1.533  -9.433  0.00  0.00     0.042 OA
ATOM     30  O   LIG d   1       3.601  -2.897  -9.021  0.00  0.00    -0.576 OA
ENDBRANCH   6  28
TORSDOF 4
ENDMDL
MODEL 2
REMARK VINA RESULT:      -5.7      3.258      4.156
REMARK  4 active torsions:
REMARK  status: ('A' for Active; 'I' for Inactive)
REMARK    1  A    between atoms: C_5  and  C_10 
REMARK    2  A    between atoms: C_6  and  N_7 
REMARK    3  A    between atoms: C_10  and  C_11 
REMARK    4  A    between atoms: C_11  and  C_12 
ROOT
ATOM      1  C   LIG d   1       4.504  -3.097  -3.785  0.00  0.00     0.021 A 
ATOM      2  C   LIG d   1       4.233  -1.757  -3.590  0.00  0.00    -0.019 A 
ATOM      3  C   LIG d   1       4.205  -0.889  -4.674  0.00  0.00     0.037 A 
ATOM      4  C   LIG d   1       4.447  -1.373  -5.953  0.00  0.00    -0.031 A 
ATOM      5  C   LIG d   1       4.716  -2.715  -6.143  0.00  0.00     0.032 A 
ATOM      6  C   LIG d   1       4.745  -3.575  -5.061  0.00  0.00     0.277 A 
ATOM      7  N   LIG d   1       3.931   0.467  -4.475  0.00  0.00    -0.285 N 
ATOM      8  C   LIG d   1       4.058   1.016  -3.253  0.00  0.00     0.217 C 
ATOM      9  O   LIG d   1       3.802   2.191  -3.095  0.00  0.00    -0.276 OA
ATOM     10  C   LIG d   1       4.521   0.192  -2.083  0.00  0.00     0.028 C 
ATOM     11  C   LIG d   1       3.969  -1.233  -2.202  0.00  0.00    -0.018 C 
ATOM     12  H   LIG d   1       4.527  -3.771  -2.942  0.00  0.00     0.069 H 
ATOM     13  H   LIG d   1       4.425  -0.701  -6.798  0.00  0.00     0.064 H 
ATOM     14  H   LIG d   1       3.646   1.016  -5.222  0.00  0.00     0.155 HD
ATOM     15  H   LIG d   1       5.610   0.162  -2.069  0.00  0.00     0.036 H 
ATOM     16  H   LIG d   1       4.160   0.642  -1.157  0.00  0.00     0.036 H 
ATOM     17  H   LIG d   1       2.896  -1.226  -2.014  0.00  0.00     0.032 H 
ATOM     18  H   LIG d   1       4.462  -1.874  -1.472  0.00  0.00     0.032 H 
ENDROOT
BRANCH   5  19
ATOM     19  C   LIG d   1       4.980  -3.240  -7.530  0.00  0.00    -0.016 C 
ATOM     20  H   LIG d   1       5.794  -2.674  -7.983  0.00  0.00     0.032 H 
ATOM     21  H   LIG d   1       5.258  -4.292  -7.473  0.00  0.00     0.032 H 
BRANCH  19  22
ATOM     22  C   LIG d   1       3.719  -3.089  -8.382  0.00  0.00    -0.009 C 
ATOM     23  H   LIG d   1       2.889  -2.774  -7.749  0.00  0.00     0.033 H 
ATOM     24  H   LIG d   1       3.890  -2.340  -9.156  0.00  0.00     0.033 H 
BRANCH  22  25
ATOM     25  C   LIG d   1       3.385  -4.410  -9.025  0.00  0.00     0.042 C 
ATOM     26  O   LIG d   1       3.348  -4.502 -10.230  0.00  0.00    -0.550 OA
ATOM     27  O   LIG d   1       3.129  -5.483  -8.262  0.00  0.00    -0.550 OA
ENDBRANCH  22  25
ENDBRANCH  19  22
ENDBRANCH   5  19
BRANCH   6  28
ATOM     28  N   LIG d   1       5.035  -5.012  -5.268  0.00  0.00     0.080 N 
ATOM     29  O   LIG d   1       4.130  -5.827  -5.241  0.00  0.00     0.042 OA
ATOM     30  O   LIG d   1       6.180  -5.379  -5.466  0.00  0.00    -0.576 OA
ENDBRANCH   6  28
TORSDOF 4
ENDMDL
MODEL 3
REMARK VINA RESULT:      -5.6      4.021      5.919
REMARK  4 active torsions:
REMARK  status: ('A' for Active; 'I' for Inactive)
REMARK    1  A    between atoms: C_5  and  C_10 
REMARK    2  A    between atoms: C_6  and  N_7 
REMARK    3  A    between atoms: C_10  and  C_11 
REMARK    4  A    between atoms: C_11  and  C_12 
ROOT
ATOM      1  C   LIG d   1       6.588  -2.113  -5.444  0.00  0.00     0.021 A 
ATOM      2  C   LIG d   1       5.971  -3.339  -5.603  0.00  0.00    -0.019 A 
ATOM      3  C   LIG d   1       4.949  -3.718  -4.743  0.00  0.00     0.037 A 
ATOM      4  C   LIG d   1       4.549  -2.862  -3.726  0.00  0.00    -0.031 A 
ATOM      5  C   LIG d   1       5.168  -1.637  -3.572  0.00  0.00     0.032 A 
ATOM      6  C   LIG d   1       6.186  -1.263  -4.429  0.00  0.00     0.277 A 
ATOM      7  N   LIG d   1       4.325  -4.959  -4.905  0.00  0.00    -0.285 N 
ATOM      8  C   LIG d   1       4.920  -5.933  -5.618  0.00  0.00     0.217 C 
ATOM      9  O   LIG d   1       4.359  -6.998  -5.762  0.00  0.00    -0.276 OA
ATOM     10  C   LIG d   1       6.276  -5.718  -6.234  0.00  0.00     0.028 C 
ATOM     11  C   LIG d   1       6.405  -4.266  -6.708  0.00  0.00    -0.018 C 
ATOM     12  H   LIG d   1       7.383  -1.819  -6.112  0.00  0.00     0.069 H 
ATOM     13  H   LIG d   1       3.753  -3.154  -3.056  0.00  0.00     0.064 H 
ATOM     14  H   LIG d   1       3.458  -5.119  -4.501  0.00  0.00     0.155 HD
ATOM     15  H   LIG d   1       7.047  -5.931  -5.495  0.00  0.00     0.036 H 
ATOM     16  H   LIG d   1       6.397  -6.388  -7.086  0.00  0.00     0.036 H 
ATOM     17  H   LIG d   1       5.775  -4.110  -7.583  0.00  0.00     0.032 H 
ATOM     18  H   LIG d   1       7.444  -4.062  -6.967  0.00  0.00     0.032 H 
ENDROOT
BRANCH   5  19
ATOM     19  C   LIG d   1       4.734  -0.708  -2.467  0.00  0.00    -0.016 C 
ATOM     20  H   LIG d   1       4.855  -1.208  -1.506  0.00  0.00     0.032 H 
ATOM     21  H   LIG d   1       5.348   0.191  -2.488  0.00  0.00     0.032 H 
BRANCH  19  22
ATOM     22  C   LIG d   1       3.266  -0.330  -2.665  0.00  0.00    -0.009 C 
ATOM     23  H   LIG d   1       2.707  -1.206  -2.997  0.00  0.00     0.033 H 
ATOM     24  H   LIG d   1       2.853   0.029  -1.722  0.00  0.00     0.033 H 
BRANCH  22  25
ATOM     25  C   LIG d   1       3.161   0.755  -3.705  0.00  0.00     0.042 C 
ATOM     26  O   LIG d   1       3.612   1.853  -3.479  0.00  0.00    -0.550 OA
ATOM     27  O   LIG d   1       2.567   0.502  -4.881  0.00  0.00    -0.550 OA
ENDBRANCH  22  25
ENDBRANCH  19  22
ENDBRANCH   5  19
BRANCH   6  28
ATOM     28  N   LIG d   1       6.849   0.050  -4.261  0.00  0.00     0.080 N 
ATOM     29  O   LIG d   1       7.723   0.189  -3.424  0.00  0.00     0.042 OA
ATOM     30  O   LIG d   1       6.521   0.991  -4.961  0.00  0.00    -0.576 OA
ENDBRANCH   6  28
TORSDOF 4
ENDMDL
MODEL 4
REMARK VINA RESULT:      -5.6      1.700      2.173
REMARK  4 active torsions:
REMARK  status: ('A' for Active; 'I' for Inactive)
REMARK    1  A    between atoms: C_5  and  C_10 
REMARK    2  A    between atoms: C_6  and  N_7 
REMARK    3  A    between atoms: C_10  and  C_11 
REMARK    4  A    between atoms: C_11  and  C_12 
ROOT
ATOM      1  C   LIG d   1       4.524  -2.841  -4.770  0.00  0.00     0.021 A 
ATOM      2  C   LIG d   1       4.165  -1.745  -4.010  0.00  0.00    -0.019 A 
ATOM      3  C   LIG d   1       3.885  -0.533  -4.628  0.00  0.00     0.037 A 
ATOM      4  C   LIG d   1       3.965  -0.428  -6.011  0.00  0.00    -0.031 A 
ATOM      5  C   LIG d   1       4.323  -1.527  -6.766  0.00  0.00     0.032 A 
ATOM      6  C   LIG d   1       4.603  -2.732  -6.147  0.00  0.00     0.277 A 
ATOM      7  N   LIG d   1       3.522   0.576  -3.859  0.00  0.00    -0.285 N 
ATOM      8  C   LIG d   1       3.789   0.608  -2.540  0.00  0.00     0.217 C 
ATOM      9  O   LIG d   1       3.454   1.571  -1.884  0.00  0.00    -0.276 OA
ATOM     10  C   LIG d   1       4.506  -0.534  -1.872  0.00  0.00     0.028 C 
ATOM     11  C   LIG d   1       4.077  -1.859  -2.511  0.00  0.00    -0.018 C 
ATOM     12  H   LIG d   1       4.743  -3.782  -4.289  0.00  0.00     0.069 H 
ATOM     13  H   LIG d   1       3.747   0.513  -6.494  0.00  0.00     0.064 H 
ATOM     14  H   LIG d   1       3.073   1.327  -4.277  0.00  0.00     0.155 HD
ATOM     15  H   LIG d   1       5.582  -0.404  -1.988  0.00  0.00     0.036 H 
ATOM     16  H   LIG d   1       4.257  -0.547  -0.811  0.00  0.00     0.036 H 
ATOM     17  H   LIG d   1       3.051  -2.088  -2.223  0.00  0.00     0.032 H 
ATOM     18  H   LIG d   1       4.737  -2.657  -2.168  0.00  0.00     0.032 H 
ENDROOT
BRANCH   5  19
ATOM     19  C   LIG d   1       4.412  -1.414  -8.266  0.00  0.00    -0.016 C 
ATOM     20  H   LIG d   1       4.978  -0.520  -8.528  0.00  0.00     0.032 H 
ATOM     21  H   LIG d   1       4.914  -2.293  -8.668  0.00  0.00     0.032 H 
BRANCH  19  22
ATOM     22  C   LIG d   1       3.003  -1.316  -8.854  0.00  0.00    -0.009 C 
ATOM     23  H   LIG d   1       2.847  -2.134  -9.558  0.00  0.00     0.033 H 
ATOM     24  H   LIG d   1       2.269  -1.381  -8.051  0.00  0.00     0.033 H 
BRANCH  22  25
ATOM     25  C   LIG d   1       2.848  -0.000  -9.572  0.00  0.00     0.042 C 
ATOM     26  O   LIG d   1       2.468   0.976  -8.968  0.00  0.00    -0.550 OA
ATOM     27  O   LIG d   1       3.131   0.088 -10.881  0.00  0.00    -0.550 OA
ENDBRANCH  22  25
ENDBRANCH  19  22
ENDBRANCH   5  19
BRANCH   6  28
ATOM     28  N   LIG d   1       4.988  -3.908  -6.959  0.00  0.00     0.080 N 
ATOM     29  O   LIG d   1       6.162  -4.125  -7.199  0.00  0.00     0.042 OA
ATOM     30  O   LIG d   1       4.130  -4.660  -7.386  0.00  0.00    -0.576 OA
ENDBRANCH   6  28
TORSDOF 4
ENDMDL
MODEL 5
REMARK VINA RESULT:      -5.6      2.328      5.572
REMARK  4 active torsions:
REMARK  status: ('A' for Active; 'I' for Inactive)
REMARK    1  A    between atoms: C_5  and  C_10 
REMARK    2  A    between atoms: C_6  and  N_7 
REMARK    3  A    between atoms: C_10  and  C_11 
REMARK    4  A    between atoms: C_11  and  C_12 
ROOT
ATOM      1  C   LIG d   1       4.185  -2.942  -7.326  0.00  0.00     0.021 A 
ATOM      2  C   LIG d   1       3.889  -1.666  -7.765  0.00  0.00    -0.019 A 
ATOM      3  C   LIG d   1       4.025  -0.587  -6.902  0.00  0.00     0.037 A 
ATOM      4  C   LIG d   1       4.461  -0.794  -5.600  0.00  0.00    -0.031 A 
ATOM      5  C   LIG d   1       4.757  -2.071  -5.167  0.00  0.00     0.032 A 
ATOM      6  C   LIG d   1       4.619  -3.144  -6.028  0.00  0.00     0.277 A 
ATOM      7  N   LIG d   1       3.725   0.704  -7.346  0.00  0.00    -0.285 N 
ATOM      8  C   LIG d   1       2.970   0.889  -8.445  0.00  0.00     0.217 C 
ATOM      9  O   LIG d   1       2.731   2.015  -8.826  0.00  0.00    -0.276 OA
ATOM     10  C   LIG d   1       2.412  -0.286  -9.201  0.00  0.00     0.028 C 
ATOM     11  C   LIG d   1       3.417  -1.443  -9.177  0.00  0.00    -0.018 C 
ATOM     12  H   LIG d   1       4.078  -3.782  -7.996  0.00  0.00     0.069 H 
ATOM     13  H   LIG d   1       4.569   0.045  -4.927  0.00  0.00     0.064 H 
ATOM     14  H   LIG d   1       4.064   1.472  -6.861  0.00  0.00     0.155 HD
ATOM     15  H   LIG d   1       1.478  -0.604  -8.739  0.00  0.00     0.036 H 
ATOM     16  H   LIG d   1       2.222   0.006 -10.235  0.00  0.00     0.036 H 
ATOM     17  H   LIG d   1       4.269  -1.199  -9.811  0.00  0.00     0.032 H 
ATOM     18  H   LIG d   1       2.936  -2.348  -9.547  0.00  0.00     0.032 H 
ENDROOT
BRANCH   5  19
ATOM     19  C   LIG d   1       5.229  -2.296  -3.754  0.00  0.00    -0.016 C 
ATOM     20  H   LIG d   1       5.753  -3.250  -3.694  0.00  0.00     0.032 H 
ATOM     21  H   LIG d   1       5.906  -1.492  -3.465  0.00  0.00     0.032 H 
BRANCH  19  22
ATOM     22  C   LIG d   1       4.026  -2.315  -2.810  0.00  0.00    -0.009 C 
ATOM     23  H   LIG d   1       3.149  -2.680  -3.347  0.00  0.00     0.033 H 
ATOM     24  H   LIG d   1       4.236  -2.974  -1.967  0.00  0.00     0.033 H 
BRANCH  22  25
ATOM     25  C   LIG d   1       3.760  -0.921  -2.304  0.00  0.00     0.042 C 
ATOM     26  O   LIG d   1       4.533  -0.401  -1.534  0.00  0.00    -0.550 OA
ATOM     27  O   LIG d   1       2.666  -0.258  -2.707  0.00  0.00    -0.550 OA
ENDBRANCH  22  25
ENDBRANCH  19  22
ENDBRANCH   5  19
BRANCH   6  28
ATOM     28  N   LIG d   1       4.936  -4.512  -5.560  0.00  0.00     0.080 N 
ATOM     29  O   LIG d   1       6.081  -4.924  -5.610  0.00  0.00     0.042 OA
ATOM     30  O   LIG d   1       4.050  -5.226  -5.124  0.00  0.00    -0.576 OA
ENDBRANCH   6  28
TORSDOF 4
ENDMDL
MODEL 6
REMARK VINA RESULT:      -5.5      1.807      5.842
REMARK  4 active torsions:
REMARK  status: ('A' for Active; 'I' for Inactive)
REMARK    1  A    between atoms: C_5  and  C_10 
REMARK    2  A    between atoms: C_6  and  N_7 
REMARK    3  A    between atoms: C_10  and  C_11 
REMARK    4  A    between atoms: C_11  and  C_12 
ROOT
ATOM      1  C   LIG d   1       2.828   0.352  -6.000  0.00  0.00     0.021 A 
ATOM      2  C   LIG d   1       3.363   0.296  -7.272  0.00  0.00    -0.019 A 
ATOM      3  C   LIG d   1       4.640  -0.215  -7.467  0.00  0.00     0.037 A 
ATOM      4  C   LIG d   1       5.375  -0.669  -6.380  0.00  0.00    -0.031 A 
ATOM      5  C   LIG d   1       4.835  -0.611  -5.110  0.00  0.00     0.032 A 
ATOM      6  C   LIG d   1       3.564  -0.101  -4.920  0.00  0.00     0.277 A 
ATOM      7  N   LIG d   1       5.180  -0.271  -8.755  0.00  0.00    -0.285 N 
ATOM      8  C   LIG d   1       4.662   0.479  -9.745  0.00  0.00     0.217 C 
ATOM      9  O   LIG d   1       5.133   0.407 -10.860  0.00  0.00    -0.276 OA
ATOM     10  C   LIG d   1       3.510   1.411  -9.483  0.00  0.00     0.028 C 
ATOM     11  C   LIG d   1       2.564   0.788  -8.451  0.00  0.00    -0.018 C 
ATOM     12  H   LIG d   1       1.836   0.750  -5.849  0.00  0.00     0.069 H 
ATOM     13  H   LIG d   1       6.369  -1.067  -6.528  0.00  0.00     0.064 H 
ATOM     14  H   LIG d   1       5.933  -0.855  -8.937  0.00  0.00     0.155 HD
ATOM     15  H   LIG d   1       3.890   2.359  -9.104  0.00  0.00     0.036 H 
ATOM     16  H   LIG d   1       2.967   1.585 -10.412  0.00  0.00     0.036 H 
ATOM     17  H   LIG d   1       2.030  -0.048  -8.903  0.00  0.00     0.032 H 
ATOM     18  H   LIG d   1       1.848   1.538  -8.117  0.00  0.00     0.032 H 
ENDROOT
BRANCH   5  19
ATOM     19  C   LIG d   1       5.633  -1.103  -3.930  0.00  0.00    -0.016 C 
ATOM     20  H   LIG d   1       5.092  -0.884  -3.010  0.00  0.00     0.032 H 
ATOM     21  H   LIG d   1       5.782  -2.179  -4.016  0.00  0.00     0.032 H 
BRANCH  19  22
ATOM     22  C   LIG d   1       6.991  -0.400  -3.903  0.00  0.00    -0.009 C 
ATOM     23  H   LIG d   1       7.614  -0.842  -3.124  0.00  0.00     0.033 H 
ATOM     24  H   LIG d   1       7.481  -0.518  -4.870  0.00  0.00     0.033 H 
BRANCH  22  25
ATOM     25  C   LIG d   1       6.793   1.066  -3.614  0.00  0.00     0.042 C 
ATOM     26  O   LIG d   1       6.166   1.409  -2.640  0.00  0.00    -0.550 OA
ATOM     27  O   LIG d   1       7.312   1.989  -4.439  0.00  0.00    -0.550 OA
ENDBRANCH  22  25
ENDBRANCH  19  22
ENDBRANCH   5  19
BRANCH   6  28
ATOM     28  N   LIG d   1       2.989  -0.040  -3.557  0.00  0.00     0.080 N 
ATOM     29  O   LIG d   1       3.116   0.969  -2.887  0.00  0.00     0.042 OA
ATOM     30  O   LIG d   1       2.387  -0.999  -3.108  0.00  0.00    -0.576 OA
ENDBRANCH   6  28
TORSDOF 4
ENDMDL
MODEL 7
REMARK VINA RESULT:      -5.4      2.043      6.190
REMARK  4 active torsions:
REMARK  status: ('A' for Active; 'I' for Inactive)
REMARK    1  A    between atoms: C_5  and  C_10 
REMARK    2  A    between atoms: C_6  and  N_7 
REMARK    3  A    between atoms: C_10  and  C_11 
REMARK    4  A    between atoms: C_11  and  C_12 
ROOT
ATOM      1  C   LIG d   1       2.817   0.366  -6.831  0.00  0.00     0.021 A 
ATOM      2  C   LIG d   1       3.329   0.102  -8.086  0.00  0.00    -0.019 A 
ATOM      3  C   LIG d   1       4.580  -0.487  -8.215  0.00  0.00     0.037 A 
ATOM      4  C   LIG d   1       5.313  -0.809  -7.080  0.00  0.00    -0.031 A 
ATOM      5  C   LIG d   1       4.796  -0.543  -5.827  0.00  0.00     0.032 A 
ATOM      6  C   LIG d   1       3.550   0.045  -5.702  0.00  0.00     0.277 A 
ATOM      7  N   LIG d   1       5.098  -0.755  -9.486  0.00  0.00    -0.285 N 
ATOM      8  C   LIG d   1       4.596  -0.136 -10.571  0.00  0.00     0.217 C 
ATOM      9  O   LIG d   1       5.046  -0.391 -11.667  0.00  0.00    -0.276 OA
ATOM     10  C   LIG d   1       3.488   0.874 -10.437  0.00  0.00     0.028 C 
ATOM     11  C   LIG d   1       2.533   0.450  -9.316  0.00  0.00    -0.018 C 
ATOM     12  H   LIG d   1       1.845   0.825  -6.730  0.00  0.00     0.069 H 
ATOM     13  H   LIG d   1       6.286  -1.268  -7.178  0.00  0.00     0.064 H 
ATOM     14  H   LIG d   1       5.822  -1.391  -9.587  0.00  0.00     0.155 HD
ATOM     15  H   LIG d   1       3.914   1.850 -10.206  0.00  0.00     0.036 H 
ATOM     16  H   LIG d   1       2.938   0.934 -11.377  0.00  0.00     0.036 H 
ATOM     17  H   LIG d   1       1.958  -0.419  -9.636  0.00  0.00     0.032 H 
ATOM     18  H   LIG d   1       1.854   1.272  -9.089  0.00  0.00     0.032 H 
ENDROOT
BRANCH   5  19
ATOM     19  C   LIG d   1       5.591  -0.891  -4.596  0.00  0.00    -0.016 C 
ATOM     20  H   LIG d   1       6.495  -0.282  -4.564  0.00  0.00     0.032 H 
ATOM     21  H   LIG d   1       4.991  -0.694  -3.708  0.00  0.00     0.032 H 
BRANCH  19  22
ATOM     22  C   LIG d   1       5.974  -2.371  -4.636  0.00  0.00    -0.009 C 
ATOM     23  H   LIG d   1       6.345  -2.623  -5.631  0.00  0.00     0.033 H 
ATOM     24  H   LIG d   1       6.752  -2.565  -3.898  0.00  0.00     0.033 H 
BRANCH  22  25
ATOM     25  C   LIG d   1       4.763  -3.213  -4.325  0.00  0.00     0.042 C 
ATOM     26  O   LIG d   1       4.385  -4.041  -5.119  0.00  0.00    -0.550 OA
ATOM     27  O   LIG d   1       4.106  -3.041  -3.168  0.00  0.00    -0.550 OA
ENDBRANCH  22  25
ENDBRANCH  19  22
ENDBRANCH   5  19
BRANCH   6  28
ATOM     28  N   LIG d   1       3.000   0.330  -4.358  0.00  0.00     0.080 N 
ATOM     29  O   LIG d   1       2.269  -0.479  -3.815  0.00  0.00     0.042 OA
ATOM     30  O   LIG d   1       3.279   1.374  -3.796  0.00  0.00    -0.576 OA
ENDBRANCH   6  28
TORSDOF 4
ENDMDL
MODEL 8
REMARK VINA RESULT:      -5.3      8.750     11.872
REMARK  4 active torsions:
REMARK  status: ('A' for Active; 'I' for Inactive)
REMARK    1  A    between atoms: C_5  and  C_10 
REMARK    2  A    between atoms: C_6  and  N_7 
REMARK    3  A    between atoms: C_10  and  C_11 
REMARK    4  A    between atoms: C_11  and  C_12 
ROOT
ATOM      1  C   LIG d   1       9.481   6.098  -2.903  0.00  0.00     0.021 A 
ATOM      2  C   LIG d   1       9.924   4.816  -3.165  0.00  0.00    -0.019 A 
ATOM      3  C   LIG d   1      10.794   4.189  -2.283  0.00  0.00     0.037 A 
ATOM      4  C   LIG d   1      11.215   4.852  -1.139  0.00  0.00    -0.031 A 
ATOM      5  C   LIG d   1      10.768   6.133  -0.880  0.00  0.00     0.032 A 
ATOM      6  C   LIG d   1       9.903   6.756  -1.761  0.00  0.00     0.277 A 
ATOM      7  N   LIG d   1      11.243   2.892  -2.550  0.00  0.00    -0.285 N 
ATOM      8  C   LIG d   1      11.155   2.382  -3.792  0.00  0.00     0.217 C 
ATOM      9  O   LIG d   1      11.535   1.250  -4.004  0.00  0.00    -0.276 OA
ATOM     10  C   LIG d   1      10.598   3.203  -4.924  0.00  0.00     0.028 C 
ATOM     11  C   LIG d   1       9.466   4.097  -4.407  0.00  0.00    -0.018 C 
ATOM     12  H   LIG d   1       8.805   6.586  -3.589  0.00  0.00     0.069 H 
ATOM     13  H   LIG d   1      11.892   4.366  -0.450  0.00  0.00     0.064 H 
ATOM     14  H   LIG d   1      11.619   2.355  -1.835  0.00  0.00     0.155 HD
ATOM     15  H   LIG d   1      11.389   3.821  -5.346  0.00  0.00     0.036 H 
ATOM     16  H   LIG d   1      10.209   2.538  -5.696  0.00  0.00     0.036 H 
ATOM     17  H   LIG d   1       8.596   3.485  -4.173  0.00  0.00     0.032 H 
ATOM     18  H   LIG d   1       9.203   4.826  -5.173  0.00  0.00     0.032 H 
ENDROOT
BRANCH   5  19
ATOM     19  C   LIG d   1      11.225   6.854   0.361  0.00  0.00    -0.016 C 
ATOM     20  H   LIG d   1      12.291   7.069   0.283  0.00  0.00     0.032 H 
ATOM     21  H   LIG d   1      10.673   7.787   0.464  0.00  0.00     0.032 H 
BRANCH  19  22
ATOM     22  C   LIG d   1      10.972   5.973   1.586  0.00  0.00    -0.009 C 
ATOM     23  H   LIG d   1       9.944   5.609   1.564  0.00  0.00     0.033 H 
ATOM     24  H   LIG d   1      11.658   5.126   1.572  0.00  0.00     0.033 H 
BRANCH  22  25
ATOM     25  C   LIG d   1      11.192   6.779   2.840  0.00  0.00     0.042 C 
ATOM     26  O   LIG d   1      11.039   6.263   3.922  0.00  0.00    -0.550 OA
ATOM     27  O   LIG d   1      11.557   8.067   2.755  0.00  0.00    -0.550 OA
ENDBRANCH  22  25
ENDBRANCH  19  22
ENDBRANCH   5  19
BRANCH   6  28
ATOM     28  N   LIG d   1       9.426   8.129  -1.482  0.00  0.00     0.080 N 
ATOM     29  O   LIG d   1       8.466   8.305  -0.753  0.00  0.00     0.042 OA
ATOM     30  O   LIG d   1       9.996   9.083  -1.981  0.00  0.00    -0.576 OA
ENDBRANCH   6  28
TORSDOF 4
ENDMDL
MODEL 9
REMARK VINA RESULT:      -5.3      3.951      6.046
REMARK  4 active torsions:
REMARK  status: ('A' for Active; 'I' for Inactive)
REMARK    1  A    between atoms: C_5  and  C_10 
REMARK    2  A    between atoms: C_6  and  N_7 
REMARK    3  A    between atoms: C_10  and  C_11 
REMARK    4  A    between atoms: C_11  and  C_12 
ROOT
ATOM      1  C   LIG d   1       6.906  -1.779  -5.895  0.00  0.00     0.021 A 
ATOM      2  C   LIG d   1       7.929  -2.404  -5.209  0.00  0.00    -0.019 A 
ATOM      3  C   LIG d   1       7.768  -2.729  -3.868  0.00  0.00     0.037 A 
ATOM      4  C   LIG d   1       6.577  -2.424  -3.221  0.00  0.00    -0.031 A 
ATOM      5  C   LIG d   1       5.557  -1.800  -3.913  0.00  0.00     0.032 A 
ATOM      6  C   LIG d   1       5.721  -1.477  -5.247  0.00  0.00     0.277 A 
ATOM      7  N   LIG d   1       8.803  -3.362  -3.174  0.00  0.00    -0.285 N 
ATOM      8  C   LIG d   1      10.061  -3.334  -3.651  0.00  0.00     0.217 C 
ATOM      9  O   LIG d   1      10.945  -3.900  -3.045  0.00  0.00    -0.276 OA
ATOM     10  C   LIG d   1      10.385  -2.600  -4.925  0.00  0.00     0.028 C 
ATOM     11  C   LIG d   1       9.220  -2.735  -5.911  0.00  0.00    -0.018 C 
ATOM     12  H   LIG d   1       7.032  -1.525  -6.937  0.00  0.00     0.069 H 
ATOM     13  H   LIG d   1       6.449  -2.677  -2.178  0.00  0.00     0.064 H 
ATOM     14  H   LIG d   1       8.614  -3.826  -2.344  0.00  0.00     0.155 HD
ATOM     15  H   LIG d   1      10.556  -1.547  -4.703  0.00  0.00     0.036 H 
ATOM     16  H   LIG d   1      11.285  -3.026  -5.369  0.00  0.00     0.036 H 
ATOM     17  H   LIG d   1       9.177  -3.756  -6.288  0.00  0.00     0.032 H 
ATOM     18  H   LIG d   1       9.368  -2.046  -6.742  0.00  0.00     0.032 H 
ENDROOT
BRANCH   5  19
ATOM     19  C   LIG d   1       4.266  -1.468  -3.211  0.00  0.00    -0.016 C 
ATOM     20  H   LIG d   1       3.665  -0.818  -3.847  0.00  0.00     0.032 H 
ATOM     21  H   LIG d   1       3.716  -2.387  -3.010  0.00  0.00     0.032 H 
BRANCH  19  22
ATOM     22  C   LIG d   1       4.569  -0.754  -1.893  0.00  0.00    -0.009 C 
ATOM     23  H   LIG d   1       3.834  -1.049  -1.143  0.00  0.00     0.033 H 
ATOM     24  H   LIG d   1       5.567  -1.030  -1.551  0.00  0.00     0.033 H 
BRANCH  22  25
ATOM     25  C   LIG d   1       4.502   0.736  -2.101  0.00  0.00     0.042 C 
ATOM     26  O   LIG d   1       3.449   1.316  -1.975  0.00  0.00    -0.550 OA
ATOM     27  O   LIG d   1       5.610   1.419  -2.427  0.00  0.00    -0.550 OA
ENDBRANCH  22  25
ENDBRANCH  19  22
ENDBRANCH   5  19
BRANCH   6  28
ATOM     28  N   LIG d   1       4.627  -0.806  -5.985  0.00  0.00     0.080 N 
ATOM     29  O   LIG d   1       4.377   0.367  -5.771  0.00  0.00     0.042 OA
ATOM     30  O   LIG d   1       3.978  -1.428  -6.807  0.00  0.00    -0.576 OA
ENDBRANCH   6  28
TORSDOF 4
ENDMDL
MODEL 10
REMARK VINA RESULT:      -5.3      2.973      6.529
REMARK  4 active torsions:
REMARK  status: ('A' for Active; 'I' for Inactive)
REMARK    1  A    between atoms: C_5  and  C_10 
REMARK    2  A    between atoms: C_6  and  N_7 
REMARK    3  A    between atoms: C_10  and  C_11 
REMARK    4  A    between atoms: C_11  and  C_12 
ROOT
ATOM      1  C   LIG d   1       4.145   0.238 -10.990  0.00  0.00     0.021 A 
ATOM      2  C   LIG d   1       3.077  -0.479 -11.494  0.00  0.00    -0.019 A 
ATOM      3  C   LIG d   1       1.938  -0.661 -10.721  0.00  0.00     0.037 A 
ATOM      4  C   LIG d   1       1.875  -0.121  -9.444  0.00  0.00    -0.031 A 
ATOM      5  C   LIG d   1       2.945   0.595  -8.945  0.00  0.00     0.032 A 
ATOM      6  C   LIG d   1       4.079   0.774  -9.716  0.00  0.00     0.277 A 
ATOM      7  N   LIG d   1       0.857  -1.387 -11.232  0.00  0.00    -0.285 N 
ATOM      8  C   LIG d   1       1.025  -2.212 -12.282  0.00  0.00     0.217 C 
ATOM      9  O   LIG d   1       0.074  -2.822 -12.722  0.00  0.00    -0.276 OA
ATOM     10  C   LIG d   1       2.380  -2.391 -12.911  0.00  0.00     0.028 C 
ATOM     11  C   LIG d   1       3.145  -1.064 -12.880  0.00  0.00    -0.018 C 
ATOM     12  H   LIG d   1       5.031   0.379 -11.590  0.00  0.00     0.069 H 
ATOM     13  H   LIG d   1       0.989  -0.261  -8.841  0.00  0.00     0.064 H 
ATOM     14  H   LIG d   1      -0.020  -1.295 -10.828  0.00  0.00     0.155 HD
ATOM     15  H   LIG d   1       2.938  -3.148 -12.360  0.00  0.00     0.036 H 
ATOM     16  H   LIG d   1       2.259  -2.714 -13.946  0.00  0.00     0.036 H 
ATOM     17  H   LIG d   1       2.699  -0.369 -13.591  0.00  0.00     0.032 H 
ATOM     18  H   LIG d   1       4.187  -1.240 -13.149  0.00  0.00     0.032 H 
ENDROOT
BRANCH   5  19
ATOM     19  C   LIG d   1       2.878   1.181  -7.558  0.00  0.00    -0.016 C 
ATOM     20  H   LIG d   1       3.697   1.888  -7.424  0.00  0.00     0.032 H 
ATOM     21  H   LIG d   1       1.928   1.697  -7.428  0.00  0.00     0.032 H 
BRANCH  19  22
ATOM     22  C   LIG d   1       2.997   0.060  -6.524  0.00  0.00    -0.009 C 
ATOM     23  H   LIG d   1       2.319  -0.752  -6.790  0.00  0.00     0.033 H 
ATOM     24  H   LIG d   1       4.021  -0.313  -6.508  0.00  0.00     0.033 H 
BRANCH  22  25
ATOM     25  C   LIG d   1       2.633   0.592  -5.162  0.00  0.00     0.042 C 
ATOM     26  O   LIG d   1       2.441  -0.174  -4.247  0.00  0.00    -0.550 OA
ATOM     27  O   LIG d   1       2.523   1.914  -4.965  0.00  0.00    -0.550 OA
ENDBRANCH  22  25
ENDBRANCH  19  22
ENDBRANCH   5  19
BRANCH   6  28
ATOM     28  N   LIG d   1       5.225   1.541  -9.179  0.00  0.00     0.080 N 
ATOM     29  O   LIG d   1       6.133   0.962  -8.610  0.00  0.00     0.042 OA
ATOM     30  O   LIG d   1       5.260   2.752  -9.307  0.00  0.00    -0.576 OA
ENDBRANCH   6  28
TORSDOF 4
ENDMDL
