MODEL 1
REMARK VINA RESULT:      -5.1      0.000      0.000
REMARK  1 active torsions:
REMARK  status: ('A' for Active; 'I' for Inactive)
REMARK    1  A    between atoms: C_4  and  C_8 
ROOT
ATOM      1  C   LIG d   1       3.775   0.870  -2.259  0.00  0.00    -0.059 A 
ATOM      2  C   LIG d   1       4.987   1.440  -2.610  0.00  0.00    -0.043 A 
ATOM      3  C   LIG d   1       5.982   0.663  -3.168  0.00  0.00     0.052 A 
ATOM      4  C   LIG d   1       5.765  -0.701  -3.378  0.00  0.00     0.040 A 
ATOM      5  C   LIG d   1       4.536  -1.268  -3.025  0.00  0.00     0.052 A 
ATOM      6  C   LIG d   1       3.552  -0.479  -2.464  0.00  0.00    -0.043 A 
ATOM      7 CL   LIG d   1       4.251  -2.960  -3.287  0.00  0.00    -0.083 Cl
ATOM      8 CL   LIG d   1       7.500   1.380  -3.609  0.00  0.00    -0.083 Cl
ATOM      9  H   LIG d   1       3.000   1.483  -1.823  0.00  0.00     0.062 H 
ATOM     10  H   LIG d   1       5.153   2.494  -2.447  0.00  0.00     0.063 H 
ATOM     11  H   LIG d   1       2.604  -0.917  -2.187  0.00  0.00     0.063 H 
ENDROOT
BRANCH   4  12
ATOM     12  C   LIG d   1       6.823  -1.538  -3.974  0.00  0.00     0.080 C 
ATOM     13  S   LIG d   1       6.903  -1.735  -5.673  0.00  0.00    -0.035 SA
ATOM     14  N   LIG d   1       7.728  -2.146  -3.181  0.00  0.00    -0.352 N 
ATOM     15  H   LIG d   1       7.729  -1.976  -2.227  0.00  0.00     0.143 HD
ATOM     16  H   LIG d   1       8.375  -2.759  -3.565  0.00  0.00     0.143 HD
ENDBRANCH   4  12
TORSDOF 1
ENDMDL
MODEL 2
REMARK VINA RESULT:      -5.0      2.382      2.798
REMARK  1 active torsions:
REMARK  status: ('A' for Active; 'I' for Inactive)
REMARK    1  A    between atoms: C_4  and  C_8 
ROOT
ATOM      1  C   LIG d   1       4.188   1.179  -1.986  0.00  0.00    -0.059 A 
ATOM      2  C   LIG d   1       3.268   1.220  -3.019  0.00  0.00    -0.043 A 
ATOM      3  C   LIG d   1       3.380   0.349  -4.084  0.00  0.00     0.052 A 
ATOM      4  C   LIG d   1       4.426  -0.577  -4.117  0.00  0.00     0.040 A 
ATOM      5  C   LIG d   1       5.349  -0.617  -3.067  0.00  0.00     0.052 A 
ATOM      6  C   LIG d   1       5.226   0.264  -2.011  0.00  0.00    -0.043 A 
ATOM      7 CL   LIG d   1       6.648  -1.767  -3.093  0.00  0.00    -0.083 Cl
ATOM      8 CL   LIG d   1       2.224   0.403  -5.377  0.00  0.00    -0.083 Cl
ATOM      9  H   LIG d   1       4.095   1.863  -1.155  0.00  0.00     0.062 H 
ATOM     10  H   LIG d   1       2.460   1.937  -2.992  0.00  0.00     0.063 H 
ATOM     11  H   LIG d   1       5.940   0.238  -1.201  0.00  0.00     0.063 H 
ENDROOT
BRANCH   4  12
ATOM     12  C   LIG d   1       4.553  -1.512  -5.251  0.00  0.00     0.080 C 
ATOM     13  S   LIG d   1       5.429  -1.050  -6.647  0.00  0.00    -0.035 SA
ATOM     14  N   LIG d   1       3.979  -2.730  -5.187  0.00  0.00    -0.352 N 
ATOM     15  H   LIG d   1       3.546  -3.021  -4.369  0.00  0.00     0.143 HD
ATOM     16  H   LIG d   1       3.994  -3.315  -5.961  0.00  0.00     0.143 HD
ENDBRANCH   4  12
TORSDOF 1
ENDMDL
MODEL 3
REMARK VINA RESULT:      -5.0      2.387      2.596
REMARK  1 active torsions:
REMARK  status: ('A' for Active; 'I' for Inactive)
REMARK    1  A    between atoms: C_4  and  C_8 
ROOT
ATOM      1  C   LIG d   1       4.188   1.191  -1.989  0.00  0.00    -0.059 A 
ATOM      2  C   LIG d   1       5.226   0.275  -2.008  0.00  0.00    -0.043 A 
ATOM      3  C   LIG d   1       5.359  -0.600  -3.067  0.00  0.00     0.052 A 
ATOM      4  C   LIG d   1       4.444  -0.560  -4.122  0.00  0.00     0.040 A 
ATOM      5  C   LIG d   1       3.401   0.372  -4.099  0.00  0.00     0.052 A 
ATOM      6  C   LIG d   1       3.278   1.238  -3.030  0.00  0.00    -0.043 A 
ATOM      7 CL   LIG d   1       2.262   0.437  -5.407  0.00  0.00    -0.083 Cl
ATOM      8 CL   LIG d   1       6.662  -1.746  -3.089  0.00  0.00    -0.083 Cl
ATOM      9  H   LIG d   1       4.088   1.874  -1.158  0.00  0.00     0.062 H 
ATOM     10  H   LIG d   1       5.932   0.246  -1.191  0.00  0.00     0.063 H 
ATOM     11  H   LIG d   1       2.471   1.955  -3.008  0.00  0.00     0.063 H 
ENDROOT
BRANCH   4  12
ATOM     12  C   LIG d   1       4.580  -1.491  -5.258  0.00  0.00     0.080 C 
ATOM     13  S   LIG d   1       5.481  -1.030  -6.639  0.00  0.00    -0.035 SA
ATOM     14  N   LIG d   1       3.996  -2.705  -5.208  0.00  0.00    -0.352 N 
ATOM     15  H   LIG d   1       3.549  -2.995  -4.398  0.00  0.00     0.143 HD
ATOM     16  H   LIG d   1       4.018  -3.286  -5.984  0.00  0.00     0.143 HD
ENDBRANCH   4  12
TORSDOF 1
ENDMDL
MODEL 4
REMARK VINA RESULT:      -4.8      3.024      3.545
REMARK  1 active torsions:
REMARK  status: ('A' for Active; 'I' for Inactive)
REMARK    1  A    between atoms: C_4  and  C_8 
ROOT
ATOM      1  C   LIG d   1       3.497  -1.877  -2.479  0.00  0.00    -0.059 A 
ATOM      2  C   LIG d   1       4.489  -2.545  -3.175  0.00  0.00    -0.043 A 
ATOM      3  C   LIG d   1       4.858  -2.122  -4.436  0.00  0.00     0.052 A 
ATOM      4  C   LIG d   1       4.226  -1.015  -5.010  0.00  0.00     0.040 A 
ATOM      5  C   LIG d   1       3.228  -0.342  -4.299  0.00  0.00     0.052 A 
ATOM      6  C   LIG d   1       2.867  -0.781  -3.040  0.00  0.00    -0.043 A 
ATOM      7 CL   LIG d   1       2.441   1.038  -4.998  0.00  0.00    -0.083 Cl
ATOM      8 CL   LIG d   1       6.104  -2.961  -5.306  0.00  0.00    -0.083 Cl
ATOM      9  H   LIG d   1       3.212  -2.213  -1.493  0.00  0.00     0.062 H 
ATOM     10  H   LIG d   1       4.976  -3.401  -2.730  0.00  0.00     0.063 H 
ATOM     11  H   LIG d   1       2.093  -0.265  -2.492  0.00  0.00     0.063 H 
ENDROOT
BRANCH   4  12
ATOM     12  C   LIG d   1       4.615  -0.556  -6.357  0.00  0.00     0.080 C 
ATOM     13  S   LIG d   1       3.789  -1.147  -7.734  0.00  0.00    -0.035 SA
ATOM     14  N   LIG d   1       5.621   0.331  -6.502  0.00  0.00    -0.352 N 
ATOM     15  H   LIG d   1       6.039   0.722  -5.720  0.00  0.00     0.143 HD
ATOM     16  H   LIG d   1       5.929   0.573  -7.389  0.00  0.00     0.143 HD
ENDBRANCH   4  12
TORSDOF 1
ENDMDL
MODEL 5
REMARK VINA RESULT:      -4.8      3.015      3.335
REMARK  1 active torsions:
REMARK  status: ('A' for Active; 'I' for Inactive)
REMARK    1  A    between atoms: C_4  and  C_8 
ROOT
ATOM      1  C   LIG d   1       3.505  -1.854  -2.477  0.00  0.00    -0.059 A 
ATOM      2  C   LIG d   1       2.882  -0.757  -3.046  0.00  0.00    -0.043 A 
ATOM      3  C   LIG d   1       3.244  -0.329  -4.307  0.00  0.00     0.052 A 
ATOM      4  C   LIG d   1       4.243  -1.007  -5.011  0.00  0.00     0.040 A 
ATOM      5  C   LIG d   1       4.865  -2.119  -4.432  0.00  0.00     0.052 A 
ATOM      6  C   LIG d   1       4.494  -2.531  -3.168  0.00  0.00    -0.043 A 
ATOM      7 CL   LIG d   1       6.102  -2.974  -5.299  0.00  0.00    -0.083 Cl
ATOM      8 CL   LIG d   1       2.460   1.046  -5.018  0.00  0.00    -0.083 Cl
ATOM      9  H   LIG d   1       3.218  -2.184  -1.490  0.00  0.00     0.062 H 
ATOM     10  H   LIG d   1       2.110  -0.234  -2.500  0.00  0.00     0.063 H 
ATOM     11  H   LIG d   1       4.976  -3.386  -2.718  0.00  0.00     0.063 H 
ENDROOT
BRANCH   4  12
ATOM     12  C   LIG d   1       4.636  -0.557  -6.360  0.00  0.00     0.080 C 
ATOM     13  S   LIG d   1       3.818  -1.163  -7.736  0.00  0.00    -0.035 SA
ATOM     14  N   LIG d   1       5.639   0.331  -6.508  0.00  0.00    -0.352 N 
ATOM     15  H   LIG d   1       6.053   0.731  -5.727  0.00  0.00     0.143 HD
ATOM     16  H   LIG d   1       5.950   0.567  -7.396  0.00  0.00     0.143 HD
ENDBRANCH   4  12
TORSDOF 1
ENDMDL
MODEL 6
REMARK VINA RESULT:      -4.6      1.503      2.964
REMARK  1 active torsions:
REMARK  status: ('A' for Active; 'I' for Inactive)
REMARK    1  A    between atoms: C_4  and  C_8 
ROOT
ATOM      1  C   LIG d   1       3.671  -1.825  -2.297  0.00  0.00    -0.059 A 
ATOM      2  C   LIG d   1       4.251  -2.765  -3.132  0.00  0.00    -0.043 A 
ATOM      3  C   LIG d   1       5.339  -2.424  -3.910  0.00  0.00     0.052 A 
ATOM      4  C   LIG d   1       5.855  -1.127  -3.855  0.00  0.00     0.040 A 
ATOM      5  C   LIG d   1       5.267  -0.184  -3.006  0.00  0.00     0.052 A 
ATOM      6  C   LIG d   1       4.177  -0.539  -2.237  0.00  0.00    -0.043 A 
ATOM      7 CL   LIG d   1       5.903   1.429  -2.923  0.00  0.00    -0.083 Cl
ATOM      8 CL   LIG d   1       6.065  -3.606  -4.955  0.00  0.00    -0.083 Cl
ATOM      9  H   LIG d   1       2.821  -2.097  -1.690  0.00  0.00     0.062 H 
ATOM     10  H   LIG d   1       3.851  -3.767  -3.173  0.00  0.00     0.063 H 
ATOM     11  H   LIG d   1       3.719   0.189  -1.584  0.00  0.00     0.063 H 
ENDROOT
BRANCH   4  12
ATOM     12  C   LIG d   1       7.018  -0.755  -4.684  0.00  0.00     0.080 C 
ATOM     13  S   LIG d   1       6.781  -0.133  -6.260  0.00  0.00    -0.035 SA
ATOM     14  N   LIG d   1       8.266  -0.905  -4.198  0.00  0.00    -0.352 N 
ATOM     15  H   LIG d   1       8.399  -1.187  -3.280  0.00  0.00     0.143 HD
ATOM     16  H   LIG d   1       9.032  -0.736  -4.769  0.00  0.00     0.143 HD
ENDBRANCH   4  12
TORSDOF 1
ENDMDL
MODEL 7
REMARK VINA RESULT:      -4.5      2.608      3.295
REMARK  1 active torsions:
REMARK  status: ('A' for Active; 'I' for Inactive)
REMARK    1  A    between atoms: C_4  and  C_8 
ROOT
ATOM      1  C   LIG d   1       2.338   0.390  -4.774  0.00  0.00    -0.059 A 
ATOM      2  C   LIG d   1       2.550  -0.370  -3.637  0.00  0.00    -0.043 A 
ATOM      3  C   LIG d   1       3.548  -1.322  -3.615  0.00  0.00     0.052 A 
ATOM      4  C   LIG d   1       4.347  -1.519  -4.745  0.00  0.00     0.040 A 
ATOM      5  C   LIG d   1       4.130  -0.744  -5.889  0.00  0.00     0.052 A 
ATOM      6  C   LIG d   1       3.124   0.202  -5.896  0.00  0.00    -0.043 A 
ATOM      7 CL   LIG d   1       5.119  -0.973  -7.296  0.00  0.00    -0.083 Cl
ATOM      8 CL   LIG d   1       3.813  -2.273  -2.187  0.00  0.00    -0.083 Cl
ATOM      9  H   LIG d   1       1.555   1.135  -4.785  0.00  0.00     0.062 H 
ATOM     10  H   LIG d   1       1.932  -0.216  -2.764  0.00  0.00     0.063 H 
ATOM     11  H   LIG d   1       2.953   0.799  -6.780  0.00  0.00     0.063 H 
ENDROOT
BRANCH   4  12
ATOM     12  C   LIG d   1       5.416  -2.535  -4.730  0.00  0.00     0.080 C 
ATOM     13  S   LIG d   1       5.092  -4.127  -5.267  0.00  0.00    -0.035 SA
ATOM     14  N   LIG d   1       6.649  -2.208  -4.294  0.00  0.00    -0.352 N 
ATOM     15  H   LIG d   1       6.854  -1.290  -4.060  0.00  0.00     0.143 HD
ATOM     16  H   LIG d   1       7.331  -2.893  -4.209  0.00  0.00     0.143 HD
ENDBRANCH   4  12
TORSDOF 1
ENDMDL
MODEL 8
REMARK VINA RESULT:      -4.5      2.545      2.852
REMARK  1 active torsions:
REMARK  status: ('A' for Active; 'I' for Inactive)
REMARK    1  A    between atoms: C_4  and  C_8 
ROOT
ATOM      1  C   LIG d   1       2.691   0.195  -5.009  0.00  0.00    -0.059 A 
ATOM      2  C   LIG d   1       3.680  -0.247  -5.870  0.00  0.00    -0.043 A 
ATOM      3  C   LIG d   1       4.990  -0.323  -5.442  0.00  0.00     0.052 A 
ATOM      4  C   LIG d   1       5.317   0.047  -4.135  0.00  0.00     0.040 A 
ATOM      5  C   LIG d   1       4.311   0.488  -3.269  0.00  0.00     0.052 A 
ATOM      6  C   LIG d   1       3.006   0.562  -3.713  0.00  0.00    -0.043 A 
ATOM      7 CL   LIG d   1       4.704   0.943  -1.640  0.00  0.00    -0.083 Cl
ATOM      8 CL   LIG d   1       6.228  -0.879  -6.525  0.00  0.00    -0.083 Cl
ATOM      9  H   LIG d   1       1.668   0.252  -5.349  0.00  0.00     0.062 H 
ATOM     10  H   LIG d   1       3.426  -0.532  -6.881  0.00  0.00     0.063 H 
ATOM     11  H   LIG d   1       2.229   0.906  -3.047  0.00  0.00     0.063 H 
ENDROOT
BRANCH   4  12
ATOM     12  C   LIG d   1       6.715  -0.032  -3.669  0.00  0.00     0.080 C 
ATOM     13  S   LIG d   1       7.748   1.323  -3.831  0.00  0.00    -0.035 SA
ATOM     14  N   LIG d   1       7.177  -1.171  -3.116  0.00  0.00    -0.352 N 
ATOM     15  H   LIG d   1       6.573  -1.913  -2.956  0.00  0.00     0.143 HD
ATOM     16  H   LIG d   1       8.115  -1.251  -2.882  0.00  0.00     0.143 HD
ENDBRANCH   4  12
TORSDOF 1
ENDMDL
MODEL 9
REMARK VINA RESULT:      -4.2      2.887      3.778
REMARK  1 active torsions:
REMARK  status: ('A' for Active; 'I' for Inactive)
REMARK    1  A    between atoms: C_4  and  C_8 
ROOT
ATOM      1  C   LIG d   1       7.687   0.783  -4.475  0.00  0.00    -0.059 A 
ATOM      2  C   LIG d   1       7.148   0.085  -5.542  0.00  0.00    -0.043 A 
ATOM      3  C   LIG d   1       5.851  -0.383  -5.482  0.00  0.00     0.052 A 
ATOM      4  C   LIG d   1       5.080  -0.150  -4.340  0.00  0.00     0.040 A 
ATOM      5  C   LIG d   1       5.630   0.561  -3.268  0.00  0.00     0.052 A 
ATOM      6  C   LIG d   1       6.930   1.019  -3.342  0.00  0.00    -0.043 A 
ATOM      7 CL   LIG d   1       4.680   0.864  -1.847  0.00  0.00    -0.083 Cl
ATOM      8 CL   LIG d   1       5.178  -1.257  -6.822  0.00  0.00    -0.083 Cl
ATOM      9  H   LIG d   1       8.702   1.146  -4.529  0.00  0.00     0.062 H 
ATOM     10  H   LIG d   1       7.746  -0.095  -6.424  0.00  0.00     0.063 H 
ATOM     11  H   LIG d   1       7.357   1.564  -2.513  0.00  0.00     0.063 H 
ENDROOT
BRANCH   4  12
ATOM     12  C   LIG d   1       3.693  -0.645  -4.267  0.00  0.00     0.080 C 
ATOM     13  S   LIG d   1       2.401   0.350  -4.788  0.00  0.00    -0.035 SA
ATOM     14  N   LIG d   1       3.443  -1.882  -3.791  0.00  0.00    -0.352 N 
ATOM     15  H   LIG d   1       4.178  -2.473  -3.566  0.00  0.00     0.143 HD
ATOM     16  H   LIG d   1       2.528  -2.178  -3.669  0.00  0.00     0.143 HD
ENDBRANCH   4  12
TORSDOF 1
ENDMDL
MODEL 10
REMARK VINA RESULT:      -4.0      9.737     11.173
REMARK  1 active torsions:
REMARK  status: ('A' for Active; 'I' for Inactive)
REMARK    1  A    between atoms: C_4  and  C_8 
ROOT
ATOM      1  C   LIG d   1      11.279   6.567   0.979  0.00  0.00    -0.059 A 
ATOM      2  C   LIG d   1      10.621   6.213  -0.186  0.00  0.00    -0.043 A 
ATOM      3  C   LIG d   1      10.085   7.187  -1.004  0.00  0.00     0.052 A 
ATOM      4  C   LIG d   1      10.210   8.535  -0.653  0.00  0.00     0.040 A 
ATOM      5  C   LIG d   1      10.881   8.885   0.523  0.00  0.00     0.052 A 
ATOM      6  C   LIG d   1      11.407   7.898   1.333  0.00  0.00    -0.043 A 
ATOM      7 CL   LIG d   1      11.048  10.555   0.965  0.00  0.00    -0.083 Cl
ATOM      8 CL   LIG d   1       9.262   6.741  -2.465  0.00  0.00    -0.083 Cl
ATOM      9  H   LIG d   1      11.696   5.800   1.615  0.00  0.00     0.062 H 
ATOM     10  H   LIG d   1      10.525   5.171  -0.455  0.00  0.00     0.063 H 
ATOM     11  H   LIG d   1      11.921   8.166   2.243  0.00  0.00     0.063 H 
ENDROOT
BRANCH   4  12
ATOM     12  C   LIG d   1       9.641   9.583  -1.522  0.00  0.00     0.080 C 
ATOM     13  S   LIG d   1      10.571  10.226  -2.808  0.00  0.00    -0.035 SA
ATOM     14  N   LIG d   1       8.389  10.033  -1.304  0.00  0.00    -0.352 N 
ATOM     15  H   LIG d   1       7.836   9.618  -0.625  0.00  0.00     0.143 HD
ATOM     16  H   LIG d   1       8.044  10.776  -1.823  0.00  0.00     0.143 HD
ENDBRANCH   4  12
TORSDOF 1
ENDMDL
