MODEL 1
REMARK VINA RESULT:      -6.2      0.000      0.000
REMARK  7 active torsions:
REMARK  status: ('A' for Active; 'I' for Inactive)
REMARK    1  A    between atoms: C_4  and  C_7 
REMARK    2  A    between atoms: C_9  and  C_14 
REMARK    3  A    between atoms: C_14  and  C_15 
REMARK    4  A    between atoms: C_15  and  O_17 
REMARK    5  A    between atoms: O_17  and  C_18 
REMARK    6  A    between atoms: C_18  and  C_19 
REMARK    7  A    between atoms: C_19  and  C_21 
ROOT
ATOM      1  C   LIG d   1       2.801  -0.835  -8.504  0.00  0.00     0.074 C 
ATOM      2  H   LIG d   1       2.311  -1.217  -7.608  0.00  0.00     0.040 H 
ATOM      3  H   LIG d   1       2.179  -1.042  -9.375  0.00  0.00     0.040 H 
ENDROOT
BRANCH   1   4
ATOM      4  C   LIG d   1       4.159  -1.518  -8.674  0.00  0.00     0.102 C 
ATOM      5  C   LIG d   1       4.334  -2.652  -7.639  0.00  0.00     0.113 C 
ATOM      6  H   LIG d   1       3.362  -2.980  -7.269  0.00  0.00     0.067 H 
ATOM      7  O   LIG d   1       4.981  -3.718  -8.357  0.00  0.00    -0.344 OA
ATOM      8  C   LIG d   1       5.213  -3.246  -9.695  0.00  0.00     0.149 C 
ATOM      9  O   LIG d   1       4.225  -2.222  -9.938  0.00  0.00    -0.347 OA
ATOM     10  H   LIG d   1       5.089  -4.062 -10.407  0.00  0.00     0.087 H 
ATOM     11  H   LIG d   1       6.216  -2.827  -9.777  0.00  0.00     0.087 H 
ATOM     12  H   LIG d   1       4.968  -0.792  -8.594  0.00  0.00     0.063 H 
BRANCH   5  13
ATOM     13  C   LIG d   1       5.200  -2.189  -6.497  0.00  0.00    -0.016 A 
ATOM     14  C   LIG d   1       5.681  -0.892  -6.475  0.00  0.00    -0.056 A 
ATOM     15  C   LIG d   1       6.476  -0.467  -5.427  0.00  0.00    -0.061 A 
ATOM     16  H   LIG d   1       5.435  -0.212  -7.277  0.00  0.00     0.062 H 
ATOM     17  C   LIG d   1       6.790  -1.339  -4.400  0.00  0.00    -0.062 A 
ATOM     18  H   LIG d   1       6.851   0.545  -5.410  0.00  0.00     0.062 H 
ATOM     19  C   LIG d   1       6.310  -2.635  -4.422  0.00  0.00    -0.061 A 
ATOM     20  H   LIG d   1       7.411  -1.007  -3.581  0.00  0.00     0.062 H 
ATOM     21  C   LIG d   1       5.511  -3.058  -5.468  0.00  0.00    -0.056 A 
ATOM     22  H   LIG d   1       6.555  -3.315  -3.620  0.00  0.00     0.062 H 
ATOM     23  H   LIG d   1       5.132  -4.069  -5.483  0.00  0.00     0.062 H 
ENDBRANCH   5  13
ENDBRANCH   1   4
BRANCH   1  24
ATOM     24  C   LIG d   1       3.001   0.653  -8.372  0.00  0.00     0.310 C 
ATOM     25  O   LIG d   1       3.294   1.312  -9.341  0.00  0.00    -0.251 OA
BRANCH  24  26
ATOM     26  O   LIG d   1       2.853   1.246  -7.177  0.00  0.00    -0.457 OA
BRANCH  26  27
ATOM     27  C   LIG d   1       2.398   0.411  -6.079  0.00  0.00     0.155 C 
ATOM     28  H   LIG d   1       2.875  -0.467  -6.109  0.00  0.00     0.078 H 
ATOM     29  H   LIG d   1       1.325   0.245  -6.169  0.00  0.00     0.078 H 
BRANCH  27  30
ATOM     30  C   LIG d   1       2.693   1.098  -4.770  0.00  0.00     0.200 C 
ATOM     31  O   LIG d   1       2.435   2.275  -4.632  0.00  0.00    -0.288 OA
BRANCH  30  32
ATOM     32  C   LIG d   1       3.293   0.340  -3.660  0.00  0.00     0.021 A 
ATOM     33  C   LIG d   1       3.014  -1.021  -3.508  0.00  0.00    -0.051 A 
ATOM     34  C   LIG d   1       3.580  -1.725  -2.466  0.00  0.00    -0.061 A 
ATOM     35  H   LIG d   1       2.357  -1.521  -4.205  0.00  0.00     0.062 H 
ATOM     36  C   LIG d   1       4.423  -1.087  -1.573  0.00  0.00    -0.062 A 
ATOM     37  H   LIG d   1       3.366  -2.777  -2.347  0.00  0.00     0.062 H 
ATOM     38  C   LIG d   1       4.704   0.260  -1.717  0.00  0.00    -0.061 A 
ATOM     39  H   LIG d   1       4.865  -1.644  -0.759  0.00  0.00     0.062 H 
ATOM     40  C   LIG d   1       4.150   0.976  -2.757  0.00  0.00    -0.051 A 
ATOM     41  H   LIG d   1       5.363   0.752  -1.016  0.00  0.00     0.062 H 
ATOM     42  H   LIG d   1       4.374   2.027  -2.872  0.00  0.00     0.062 H 
ENDBRANCH  30  32
ENDBRANCH  27  30
ENDBRANCH  26  27
ENDBRANCH  24  26
ENDBRANCH   1  24
TORSDOF 7
ENDMDL
MODEL 2
REMARK VINA RESULT:      -5.9      2.189      3.477
REMARK  7 active torsions:
REMARK  status: ('A' for Active; 'I' for Inactive)
REMARK    1  A    between atoms: C_4  and  C_7 
REMARK    2  A    between atoms: C_9  and  C_14 
REMARK    3  A    between atoms: C_14  and  C_15 
REMARK    4  A    between atoms: C_15  and  O_17 
REMARK    5  A    between atoms: O_17  and  C_18 
REMARK    6  A    between atoms: C_18  and  C_19 
REMARK    7  A    between atoms: C_19  and  C_21 
ROOT
ATOM      1  C   LIG d   1       6.121  -1.161  -6.852  0.00  0.00     0.074 C 
ATOM      2  H   LIG d   1       6.570  -1.852  -7.566  0.00  0.00     0.040 H 
ATOM      3  H   LIG d   1       6.667  -0.218  -6.867  0.00  0.00     0.040 H 
ENDROOT
BRANCH   1   4
ATOM      4  C   LIG d   1       6.185  -1.765  -5.448  0.00  0.00     0.102 C 
ATOM      5  C   LIG d   1       7.198  -2.930  -5.399  0.00  0.00     0.113 C 
ATOM      6  H   LIG d   1       7.911  -2.846  -6.220  0.00  0.00     0.067 H 
ATOM      7  O   LIG d   1       7.873  -2.786  -4.136  0.00  0.00    -0.344 OA
ATOM      8  C   LIG d   1       7.283  -1.657  -3.468  0.00  0.00     0.149 C 
ATOM      9  O   LIG d   1       6.738  -0.815  -4.505  0.00  0.00    -0.347 OA
ATOM     10  H   LIG d   1       8.044  -1.116  -2.906  0.00  0.00     0.087 H 
ATOM     11  H   LIG d   1       6.489  -1.990  -2.799  0.00  0.00     0.087 H 
ATOM     12  H   LIG d   1       5.197  -2.097  -5.127  0.00  0.00     0.063 H 
BRANCH   5  13
ATOM     13  C   LIG d   1       6.480  -4.252  -5.460  0.00  0.00    -0.016 A 
ATOM     14  C   LIG d   1       7.196  -5.420  -5.647  0.00  0.00    -0.056 A 
ATOM     15  C   LIG d   1       6.536  -6.634  -5.704  0.00  0.00    -0.061 A 
ATOM     16  H   LIG d   1       8.270  -5.384  -5.750  0.00  0.00     0.062 H 
ATOM     17  C   LIG d   1       5.160  -6.680  -5.572  0.00  0.00    -0.062 A 
ATOM     18  H   LIG d   1       7.095  -7.546  -5.850  0.00  0.00     0.062 H 
ATOM     19  C   LIG d   1       4.445  -5.511  -5.384  0.00  0.00    -0.061 A 
ATOM     20  H   LIG d   1       4.645  -7.628  -5.615  0.00  0.00     0.062 H 
ATOM     21  C   LIG d   1       5.105  -4.299  -5.323  0.00  0.00    -0.056 A 
ATOM     22  H   LIG d   1       3.370  -5.547  -5.281  0.00  0.00     0.062 H 
ATOM     23  H   LIG d   1       4.547  -3.387  -5.173  0.00  0.00     0.062 H 
ENDBRANCH   5  13
ENDBRANCH   1   4
BRANCH   1  24
ATOM     24  C   LIG d   1       4.682  -0.914  -7.227  0.00  0.00     0.310 C 
ATOM     25  O   LIG d   1       4.048  -1.774  -7.789  0.00  0.00    -0.251 OA
BRANCH  24  26
ATOM     26  O   LIG d   1       4.106   0.264  -6.938  0.00  0.00    -0.457 OA
BRANCH  26  27
ATOM     27  C   LIG d   1       2.776   0.221  -6.357  0.00  0.00     0.155 C 
ATOM     28  H   LIG d   1       2.494  -0.731  -6.238  0.00  0.00     0.078 H 
ATOM     29  H   LIG d   1       2.073   0.727  -7.020  0.00  0.00     0.078 H 
BRANCH  27  30
ATOM     30  C   LIG d   1       2.790   0.913  -5.018  0.00  0.00     0.200 C 
ATOM     31  O   LIG d   1       2.352   2.039  -4.913  0.00  0.00    -0.288 OA
BRANCH  30  32
ATOM     32  C   LIG d   1       3.336   0.222  -3.839  0.00  0.00     0.021 A 
ATOM     33  C   LIG d   1       3.149  -1.155  -3.683  0.00  0.00    -0.051 A 
ATOM     34  C   LIG d   1       3.663  -1.797  -2.576  0.00  0.00    -0.061 A 
ATOM     35  H   LIG d   1       2.603  -1.716  -4.428  0.00  0.00     0.062 H 
ATOM     36  C   LIG d   1       4.363  -1.081  -1.621  0.00  0.00    -0.062 A 
ATOM     37  H   LIG d   1       3.520  -2.860  -2.455  0.00  0.00     0.062 H 
ATOM     38  C   LIG d   1       4.552   0.282  -1.768  0.00  0.00    -0.061 A 
ATOM     39  H   LIG d   1       4.765  -1.588  -0.756  0.00  0.00     0.062 H 
ATOM     40  C   LIG d   1       4.049   0.937  -2.872  0.00  0.00    -0.051 A 
ATOM     41  H   LIG d   1       5.100   0.835  -1.018  0.00  0.00     0.062 H 
ATOM     42  H   LIG d   1       4.202   2.000  -2.988  0.00  0.00     0.062 H 
ENDBRANCH  30  32
ENDBRANCH  27  30
ENDBRANCH  26  27
ENDBRANCH  24  26
ENDBRANCH   1  24
TORSDOF 7
ENDMDL
MODEL 3
REMARK VINA RESULT:      -5.9      2.160      4.201
REMARK  7 active torsions:
REMARK  status: ('A' for Active; 'I' for Inactive)
REMARK    1  A    between atoms: C_4  and  C_7 
REMARK    2  A    between atoms: C_9  and  C_14 
REMARK    3  A    between atoms: C_14  and  C_15 
REMARK    4  A    between atoms: C_15  and  O_17 
REMARK    5  A    between atoms: O_17  and  C_18 
REMARK    6  A    between atoms: C_18  and  C_19 
REMARK    7  A    between atoms: C_19  and  C_21 
ROOT
ATOM      1  C   LIG d   1       4.455  -3.162  -9.090  0.00  0.00     0.074 C 
ATOM      2  H   LIG d   1       5.081  -2.957  -9.959  0.00  0.00     0.040 H 
ATOM      3  H   LIG d   1       4.347  -4.239  -8.966  0.00  0.00     0.040 H 
ENDROOT
BRANCH   1   4
ATOM      4  C   LIG d   1       3.077  -2.532  -9.294  0.00  0.00     0.102 C 
ATOM      5  C   LIG d   1       3.113  -1.491 -10.435  0.00  0.00     0.113 C 
ATOM      6  H   LIG d   1       3.964  -1.679 -11.091  0.00  0.00     0.067 H 
ATOM      7  O   LIG d   1       1.880  -1.679 -11.153  0.00  0.00    -0.344 OA
ATOM      8  C   LIG d   1       1.148  -2.712 -10.472  0.00  0.00     0.149 C 
ATOM      9  O   LIG d   1       2.130  -3.514  -9.782  0.00  0.00    -0.347 OA
ATOM     10  H   LIG d   1       0.605  -3.324 -11.193  0.00  0.00     0.087 H 
ATOM     11  H   LIG d   1       0.453  -2.272  -9.756  0.00  0.00     0.087 H 
ATOM     12  H   LIG d   1       2.720  -2.079  -8.368  0.00  0.00     0.063 H 
BRANCH   5  13
ATOM     13  C   LIG d   1       3.184  -0.097  -9.871  0.00  0.00    -0.016 A 
ATOM     14  C   LIG d   1       3.684   0.937 -10.641  0.00  0.00    -0.056 A 
ATOM     15  C   LIG d   1       3.748   2.217 -10.123  0.00  0.00    -0.061 A 
ATOM     16  H   LIG d   1       4.025   0.744 -11.648  0.00  0.00     0.062 H 
ATOM     17  C   LIG d   1       3.312   2.464  -8.834  0.00  0.00    -0.062 A 
ATOM     18  H   LIG d   1       4.139   3.024 -10.725  0.00  0.00     0.062 H 
ATOM     19  C   LIG d   1       2.811   1.430  -8.064  0.00  0.00    -0.061 A 
ATOM     20  H   LIG d   1       3.362   3.464  -8.430  0.00  0.00     0.062 H 
ATOM     21  C   LIG d   1       2.743   0.151  -8.584  0.00  0.00    -0.056 A 
ATOM     22  H   LIG d   1       2.470   1.623  -7.058  0.00  0.00     0.062 H 
ATOM     23  H   LIG d   1       2.348  -0.655  -7.985  0.00  0.00     0.062 H 
ENDBRANCH   5  13
ENDBRANCH   1   4
BRANCH   1  24
ATOM     24  C   LIG d   1       5.098  -2.576  -7.858  0.00  0.00     0.310 C 
ATOM     25  O   LIG d   1       5.829  -1.621  -7.955  0.00  0.00    -0.251 OA
BRANCH  24  26
ATOM     26  O   LIG d   1       4.857  -3.119  -6.654  0.00  0.00    -0.457 OA
BRANCH  26  27
ATOM     27  C   LIG d   1       5.556  -2.541  -5.520  0.00  0.00     0.155 C 
ATOM     28  H   LIG d   1       5.819  -1.601  -5.734  0.00  0.00     0.078 H 
ATOM     29  H   LIG d   1       6.449  -3.129  -5.306  0.00  0.00     0.078 H 
BRANCH  27  30
ATOM     30  C   LIG d   1       4.650  -2.548  -4.316  0.00  0.00     0.200 C 
ATOM     31  O   LIG d   1       4.207  -3.596  -3.896  0.00  0.00    -0.288 OA
BRANCH  30  32
ATOM     32  C   LIG d   1       4.303  -1.282  -3.649  0.00  0.00     0.021 A 
ATOM     33  C   LIG d   1       4.746  -1.029  -2.347  0.00  0.00    -0.051 A 
ATOM     34  C   LIG d   1       4.418   0.159  -1.730  0.00  0.00    -0.061 A 
ATOM     35  H   LIG d   1       5.345  -1.763  -1.827  0.00  0.00     0.062 H 
ATOM     36  C   LIG d   1       3.651   1.100  -2.395  0.00  0.00    -0.062 A 
ATOM     37  H   LIG d   1       4.759   0.355  -0.724  0.00  0.00     0.062 H 
ATOM     38  C   LIG d   1       3.209   0.857  -3.684  0.00  0.00    -0.061 A 
ATOM     39  H   LIG d   1       3.398   2.029  -1.907  0.00  0.00     0.062 H 
ATOM     40  C   LIG d   1       3.534  -0.324  -4.317  0.00  0.00    -0.051 A 
ATOM     41  H   LIG d   1       2.611   1.596  -4.197  0.00  0.00     0.062 H 
ATOM     42  H   LIG d   1       3.193  -0.510  -5.325  0.00  0.00     0.062 H 
ENDBRANCH  30  32
ENDBRANCH  27  30
ENDBRANCH  26  27
ENDBRANCH  24  26
ENDBRANCH   1  24
TORSDOF 7
ENDMDL
MODEL 4
REMARK VINA RESULT:      -5.9      2.166      5.460
REMARK  7 active torsions:
REMARK  status: ('A' for Active; 'I' for Inactive)
REMARK    1  A    between atoms: C_4  and  C_7 
REMARK    2  A    between atoms: C_9  and  C_14 
REMARK    3  A    between atoms: C_14  and  C_15 
REMARK    4  A    between atoms: C_15  and  O_17 
REMARK    5  A    between atoms: O_17  and  C_18 
REMARK    6  A    between atoms: C_18  and  C_19 
REMARK    7  A    between atoms: C_19  and  C_21 
ROOT
ATOM      1  C   LIG d   1       4.913  -1.201  -7.161  0.00  0.00     0.074 C 
ATOM      2  H   LIG d   1       3.880  -0.866  -7.065  0.00  0.00     0.040 H 
ATOM      3  H   LIG d   1       4.984  -1.932  -7.967  0.00  0.00     0.040 H 
ENDROOT
BRANCH   1   4
ATOM      4  C   LIG d   1       5.365  -1.844  -5.849  0.00  0.00     0.102 C 
ATOM      5  C   LIG d   1       4.162  -2.071  -4.907  0.00  0.00     0.113 C 
ATOM      6  H   LIG d   1       3.234  -2.089  -5.479  0.00  0.00     0.067 H 
ATOM      7  O   LIG d   1       4.399  -3.354  -4.300  0.00  0.00    -0.344 OA
ATOM      8  C   LIG d   1       5.660  -3.832  -4.802  0.00  0.00     0.149 C 
ATOM      9  O   LIG d   1       5.856  -3.187  -6.078  0.00  0.00    -0.347 OA
ATOM     10  H   LIG d   1       5.625  -4.914  -4.931  0.00  0.00     0.087 H 
ATOM     11  H   LIG d   1       6.464  -3.563  -4.117  0.00  0.00     0.087 H 
ATOM     12  H   LIG d   1       6.127  -1.232  -5.364  0.00  0.00     0.063 H 
BRANCH   5  13
ATOM     13  C   LIG d   1       4.110  -0.995  -3.855  0.00  0.00    -0.016 A 
ATOM     14  C   LIG d   1       4.651  -1.226  -2.603  0.00  0.00    -0.056 A 
ATOM     15  C   LIG d   1       4.603  -0.238  -1.637  0.00  0.00    -0.061 A 
ATOM     16  H   LIG d   1       5.109  -2.178  -2.380  0.00  0.00     0.062 H 
ATOM     17  C   LIG d   1       4.016   0.981  -1.923  0.00  0.00    -0.062 A 
ATOM     18  H   LIG d   1       5.025  -0.419  -0.659  0.00  0.00     0.062 H 
ATOM     19  C   LIG d   1       3.476   1.211  -3.175  0.00  0.00    -0.061 A 
ATOM     20  H   LIG d   1       3.979   1.752  -1.168  0.00  0.00     0.062 H 
ATOM     21  C   LIG d   1       3.528   0.225  -4.142  0.00  0.00    -0.056 A 
ATOM     22  H   LIG d   1       3.018   2.164  -3.398  0.00  0.00     0.062 H 
ATOM     23  H   LIG d   1       3.110   0.406  -5.121  0.00  0.00     0.062 H 
ENDBRANCH   5  13
ENDBRANCH   1   4
BRANCH   1  24
ATOM     24  C   LIG d   1       5.797  -0.021  -7.474  0.00  0.00     0.310 C 
ATOM     25  O   LIG d   1       6.266   0.637  -6.577  0.00  0.00    -0.251 OA
BRANCH  24  26
ATOM     26  O   LIG d   1       6.063   0.298  -8.751  0.00  0.00    -0.457 OA
BRANCH  26  27
ATOM     27  C   LIG d   1       5.950   1.699  -9.116  0.00  0.00     0.155 C 
ATOM     28  H   LIG d   1       6.509   1.879  -9.925  0.00  0.00     0.078 H 
ATOM     29  H   LIG d   1       6.297   2.319  -8.290  0.00  0.00     0.078 H 
BRANCH  27  30
ATOM     30  C   LIG d   1       4.510   2.025  -9.418  0.00  0.00     0.200 C 
ATOM     31  O   LIG d   1       4.070   3.125  -9.162  0.00  0.00    -0.288 OA
BRANCH  30  32
ATOM     32  C   LIG d   1       3.637   1.006 -10.024  0.00  0.00     0.021 A 
ATOM     33  C   LIG d   1       2.511   0.546  -9.335  0.00  0.00    -0.051 A 
ATOM     34  C   LIG d   1       1.697  -0.408  -9.909  0.00  0.00    -0.061 A 
ATOM     35  H   LIG d   1       2.277   0.939  -8.357  0.00  0.00     0.062 H 
ATOM     36  C   LIG d   1       1.995  -0.911 -11.164  0.00  0.00    -0.062 A 
ATOM     37  H   LIG d   1       0.827  -0.764  -9.379  0.00  0.00     0.062 H 
ATOM     38  C   LIG d   1       3.108  -0.461 -11.852  0.00  0.00    -0.061 A 
ATOM     39  H   LIG d   1       1.354  -1.657 -11.609  0.00  0.00     0.062 H 
ATOM     40  C   LIG d   1       3.928   0.497 -11.294  0.00  0.00    -0.051 A 
ATOM     41  H   LIG d   1       3.334  -0.859 -12.831  0.00  0.00     0.062 H 
ATOM     42  H   LIG d   1       4.793   0.851 -11.834  0.00  0.00     0.062 H 
ENDBRANCH  30  32
ENDBRANCH  27  30
ENDBRANCH  26  27
ENDBRANCH  24  26
ENDBRANCH   1  24
TORSDOF 7
ENDMDL
MODEL 5
REMARK VINA RESULT:      -5.8      2.174      3.449
REMARK  7 active torsions:
REMARK  status: ('A' for Active; 'I' for Inactive)
REMARK    1  A    between atoms: C_4  and  C_7 
REMARK    2  A    between atoms: C_9  and  C_14 
REMARK    3  A    between atoms: C_14  and  C_15 
REMARK    4  A    between atoms: C_15  and  O_17 
REMARK    5  A    between atoms: O_17  and  C_18 
REMARK    6  A    between atoms: C_18  and  C_19 
REMARK    7  A    between atoms: C_19  and  C_21 
ROOT
ATOM      1  C   LIG d   1       6.092  -1.116  -7.701  0.00  0.00     0.074 C 
ATOM      2  H   LIG d   1       6.148  -1.932  -8.422  0.00  0.00     0.040 H 
ATOM      3  H   LIG d   1       6.355  -0.179  -8.192  0.00  0.00     0.040 H 
ENDROOT
BRANCH   1   4
ATOM      4  C   LIG d   1       7.066  -1.381  -6.552  0.00  0.00     0.102 C 
ATOM      5  C   LIG d   1       6.637  -0.612  -5.283  0.00  0.00     0.113 C 
ATOM      6  H   LIG d   1       5.578  -0.358  -5.334  0.00  0.00     0.067 H 
ATOM      7  O   LIG d   1       6.881  -1.521  -4.194  0.00  0.00    -0.344 OA
ATOM      8  C   LIG d   1       7.448  -2.716  -4.760  0.00  0.00     0.149 C 
ATOM      9  O   LIG d   1       6.998  -2.765  -6.131  0.00  0.00    -0.347 OA
ATOM     10  H   LIG d   1       7.093  -3.592  -4.217  0.00  0.00     0.087 H 
ATOM     11  H   LIG d   1       8.536  -2.668  -4.724  0.00  0.00     0.087 H 
ATOM     12  H   LIG d   1       8.083  -1.115  -6.842  0.00  0.00     0.063 H 
BRANCH   5  13
ATOM     13  C   LIG d   1       7.468   0.633  -5.120  0.00  0.00    -0.016 A 
ATOM     14  C   LIG d   1       8.006   1.256  -6.231  0.00  0.00    -0.056 A 
ATOM     15  C   LIG d   1       8.769   2.400  -6.082  0.00  0.00    -0.061 A 
ATOM     16  H   LIG d   1       7.832   0.848  -7.216  0.00  0.00     0.062 H 
ATOM     17  C   LIG d   1       8.993   2.921  -4.821  0.00  0.00    -0.062 A 
ATOM     18  H   LIG d   1       9.190   2.885  -6.950  0.00  0.00     0.062 H 
ATOM     19  C   LIG d   1       8.454   2.299  -3.710  0.00  0.00    -0.061 A 
ATOM     20  H   LIG d   1       9.588   3.815  -4.704  0.00  0.00     0.062 H 
ATOM     21  C   LIG d   1       7.687   1.159  -3.860  0.00  0.00    -0.056 A 
ATOM     22  H   LIG d   1       8.628   2.707  -2.725  0.00  0.00     0.062 H 
ATOM     23  H   LIG d   1       7.263   0.675  -2.993  0.00  0.00     0.062 H 
ENDBRANCH   5  13
ENDBRANCH   1   4
BRANCH   1  24
ATOM     24  C   LIG d   1       4.688  -1.021  -7.158  0.00  0.00     0.310 C 
ATOM     25  O   LIG d   1       4.053  -2.026  -6.948  0.00  0.00    -0.251 OA
BRANCH  24  26
ATOM     26  O   LIG d   1       4.146   0.182  -6.909  0.00  0.00    -0.457 OA
BRANCH  26  27
ATOM     27  C   LIG d   1       2.802   0.196  -6.358  0.00  0.00     0.155 C 
ATOM     28  H   LIG d   1       2.493  -0.743  -6.208  0.00  0.00     0.078 H 
ATOM     29  H   LIG d   1       2.128   0.693  -7.055  0.00  0.00     0.078 H 
BRANCH  27  30
ATOM     30  C   LIG d   1       2.806   0.939  -5.047  0.00  0.00     0.200 C 
ATOM     31  O   LIG d   1       2.334   2.054  -4.980  0.00  0.00    -0.288 OA
BRANCH  30  32
ATOM     32  C   LIG d   1       3.385   0.312  -3.848  0.00  0.00     0.021 A 
ATOM     33  C   LIG d   1       4.071   1.089  -2.910  0.00  0.00    -0.051 A 
ATOM     34  C   LIG d   1       4.610   0.495  -1.788  0.00  0.00    -0.061 A 
ATOM     35  H   LIG d   1       4.178   2.153  -3.063  0.00  0.00     0.062 H 
ATOM     36  C   LIG d   1       4.473  -0.868  -1.590  0.00  0.00    -0.062 A 
ATOM     37  H   LIG d   1       5.141   1.094  -1.063  0.00  0.00     0.062 H 
ATOM     38  C   LIG d   1       3.795  -1.644  -2.514  0.00  0.00    -0.061 A 
ATOM     39  H   LIG d   1       4.896  -1.328  -0.710  0.00  0.00     0.062 H 
ATOM     40  C   LIG d   1       3.246  -1.063  -3.637  0.00  0.00    -0.051 A 
ATOM     41  H   LIG d   1       3.692  -2.708  -2.352  0.00  0.00     0.062 H 
ATOM     42  H   LIG d   1       2.712  -1.670  -4.355  0.00  0.00     0.062 H 
ENDBRANCH  30  32
ENDBRANCH  27  30
ENDBRANCH  26  27
ENDBRANCH  24  26
ENDBRANCH   1  24
TORSDOF 7
ENDMDL
MODEL 6
REMARK VINA RESULT:      -5.8      2.195      5.523
REMARK  7 active torsions:
REMARK  status: ('A' for Active; 'I' for Inactive)
REMARK    1  A    between atoms: C_4  and  C_7 
REMARK    2  A    between atoms: C_9  and  C_14 
REMARK    3  A    between atoms: C_14  and  C_15 
REMARK    4  A    between atoms: C_15  and  O_17 
REMARK    5  A    between atoms: O_17  and  C_18 
REMARK    6  A    between atoms: C_18  and  C_19 
REMARK    7  A    between atoms: C_19  and  C_21 
ROOT
ATOM      1  C   LIG d   1       5.218  -2.991  -6.169  0.00  0.00     0.074 C 
ATOM      2  H   LIG d   1       4.537  -3.489  -5.479  0.00  0.00     0.040 H 
ATOM      3  H   LIG d   1       5.792  -3.739  -6.716  0.00  0.00     0.040 H 
ENDROOT
BRANCH   1   4
ATOM      4  C   LIG d   1       6.173  -2.092  -5.381  0.00  0.00     0.102 C 
ATOM      5  C   LIG d   1       5.960  -2.266  -3.861  0.00  0.00     0.113 C 
ATOM      6  H   LIG d   1       5.476  -3.221  -3.654  0.00  0.00     0.067 H 
ATOM      7  O   LIG d   1       7.282  -2.244  -3.293  0.00  0.00    -0.344 OA
ATOM      8  C   LIG d   1       8.204  -2.030  -4.377  0.00  0.00     0.149 C 
ATOM      9  O   LIG d   1       7.546  -2.513  -5.567  0.00  0.00    -0.347 OA
ATOM     10  H   LIG d   1       9.123  -2.590  -4.203  0.00  0.00     0.087 H 
ATOM     11  H   LIG d   1       8.426  -0.967  -4.476  0.00  0.00     0.087 H 
ATOM     12  H   LIG d   1       6.047  -1.049  -5.673  0.00  0.00     0.063 H 
BRANCH   5  13
ATOM     13  C   LIG d   1       5.137  -1.131  -3.314  0.00  0.00    -0.016 A 
ATOM     14  C   LIG d   1       3.759  -1.237  -3.265  0.00  0.00    -0.056 A 
ATOM     15  C   LIG d   1       3.002  -0.194  -2.762  0.00  0.00    -0.061 A 
ATOM     16  H   LIG d   1       3.273  -2.134  -3.620  0.00  0.00     0.062 H 
ATOM     17  C   LIG d   1       3.624   0.955  -2.308  0.00  0.00    -0.062 A 
ATOM     18  H   LIG d   1       1.926  -0.277  -2.724  0.00  0.00     0.062 H 
ATOM     19  C   LIG d   1       5.002   1.060  -2.356  0.00  0.00    -0.061 A 
ATOM     20  H   LIG d   1       3.034   1.769  -1.915  0.00  0.00     0.062 H 
ATOM     21  C   LIG d   1       5.758   0.016  -2.854  0.00  0.00    -0.056 A 
ATOM     22  H   LIG d   1       5.487   1.957  -2.001  0.00  0.00     0.062 H 
ATOM     23  H   LIG d   1       6.834   0.096  -2.889  0.00  0.00     0.062 H 
ENDBRANCH   5  13
ENDBRANCH   1   4
BRANCH   1  24
ATOM     24  C   LIG d   1       4.428  -2.155  -7.142  0.00  0.00     0.310 C 
ATOM     25  O   LIG d   1       3.728  -2.689  -7.969  0.00  0.00    -0.251 OA
BRANCH  24  26
ATOM     26  O   LIG d   1       4.502  -0.815  -7.089  0.00  0.00    -0.457 OA
BRANCH  26  27
ATOM     27  C   LIG d   1       3.257  -0.094  -6.890  0.00  0.00     0.155 C 
ATOM     28  H   LIG d   1       3.320   0.456  -6.057  0.00  0.00     0.078 H 
ATOM     29  H   LIG d   1       2.437  -0.805  -6.793  0.00  0.00     0.078 H 
BRANCH  27  30
ATOM     30  C   LIG d   1       3.004   0.807  -8.071  0.00  0.00     0.200 C 
ATOM     31  O   LIG d   1       2.993   2.011  -7.924  0.00  0.00    -0.288 OA
BRANCH  30  32
ATOM     32  C   LIG d   1       2.771   0.226  -9.403  0.00  0.00     0.021 A 
ATOM     33  C   LIG d   1       1.593  -0.481  -9.664  0.00  0.00    -0.051 A 
ATOM     34  C   LIG d   1       1.381  -1.022 -10.914  0.00  0.00    -0.061 A 
ATOM     35  H   LIG d   1       0.851  -0.602  -8.889  0.00  0.00     0.062 H 
ATOM     36  C   LIG d   1       2.330  -0.868 -11.909  0.00  0.00    -0.062 A 
ATOM     37  H   LIG d   1       0.471  -1.569 -11.117  0.00  0.00     0.062 H 
ATOM     38  C   LIG d   1       3.499  -0.170 -11.658  0.00  0.00    -0.061 A 
ATOM     39  H   LIG d   1       2.158  -1.293 -12.887  0.00  0.00     0.062 H 
ATOM     40  C   LIG d   1       3.723   0.382 -10.415  0.00  0.00    -0.051 A 
ATOM     41  H   LIG d   1       4.235  -0.053 -12.440  0.00  0.00     0.062 H 
ATOM     42  H   LIG d   1       4.633   0.931 -10.222  0.00  0.00     0.062 H 
ENDBRANCH  30  32
ENDBRANCH  27  30
ENDBRANCH  26  27
ENDBRANCH  24  26
ENDBRANCH   1  24
TORSDOF 7
ENDMDL
MODEL 7
REMARK VINA RESULT:      -5.7      2.439      5.644
REMARK  7 active torsions:
REMARK  status: ('A' for Active; 'I' for Inactive)
REMARK    1  A    between atoms: C_4  and  C_7 
REMARK    2  A    between atoms: C_9  and  C_14 
REMARK    3  A    between atoms: C_14  and  C_15 
REMARK    4  A    between atoms: C_15  and  O_17 
REMARK    5  A    between atoms: O_17  and  C_18 
REMARK    6  A    between atoms: C_18  and  C_19 
REMARK    7  A    between atoms: C_19  and  C_21 
ROOT
ATOM      1  C   LIG d   1       7.897  -1.291  -5.529  0.00  0.00     0.074 C 
ATOM      2  H   LIG d   1       7.847  -1.928  -4.646  0.00  0.00     0.040 H 
ATOM      3  H   LIG d   1       8.930  -1.228  -5.873  0.00  0.00     0.040 H 
ENDROOT
BRANCH   1   4
ATOM      4  C   LIG d   1       7.392   0.109  -5.177  0.00  0.00     0.102 C 
ATOM      5  C   LIG d   1       7.391   0.322  -3.647  0.00  0.00     0.113 C 
ATOM      6  H   LIG d   1       8.075  -0.379  -3.167  0.00  0.00     0.067 H 
ATOM      7  O   LIG d   1       7.847   1.673  -3.457  0.00  0.00    -0.344 OA
ATOM      8  C   LIG d   1       8.059   2.235  -4.763  0.00  0.00     0.149 C 
ATOM      9  O   LIG d   1       8.316   1.121  -5.644  0.00  0.00    -0.347 OA
ATOM     10  H   LIG d   1       8.918   2.906  -4.747  0.00  0.00     0.087 H 
ATOM     11  H   LIG d   1       7.170   2.774  -5.090  0.00  0.00     0.087 H 
ATOM     12  H   LIG d   1       6.397   0.274  -5.592  0.00  0.00     0.063 H 
BRANCH   5  13
ATOM     13  C   LIG d   1       5.999   0.157  -3.096  0.00  0.00    -0.016 A 
ATOM     14  C   LIG d   1       5.517  -1.106  -2.802  0.00  0.00    -0.056 A 
ATOM     15  C   LIG d   1       4.239  -1.258  -2.297  0.00  0.00    -0.061 A 
ATOM     16  H   LIG d   1       6.139  -1.973  -2.969  0.00  0.00     0.062 H 
ATOM     17  C   LIG d   1       3.444  -0.147  -2.083  0.00  0.00    -0.062 A 
ATOM     18  H   LIG d   1       3.863  -2.244  -2.068  0.00  0.00     0.062 H 
ATOM     19  C   LIG d   1       3.926   1.115  -2.376  0.00  0.00    -0.061 A 
ATOM     20  H   LIG d   1       2.446  -0.265  -1.687  0.00  0.00     0.062 H 
ATOM     21  C   LIG d   1       5.206   1.267  -2.877  0.00  0.00    -0.056 A 
ATOM     22  H   LIG d   1       3.305   1.983  -2.209  0.00  0.00     0.062 H 
ATOM     23  H   LIG d   1       5.584   2.253  -3.102  0.00  0.00     0.062 H 
ENDBRANCH   5  13
ENDBRANCH   1   4
BRANCH   1  24
ATOM     24  C   LIG d   1       7.038  -1.875  -6.621  0.00  0.00     0.310 C 
ATOM     25  O   LIG d   1       7.443  -1.902  -7.759  0.00  0.00    -0.251 OA
BRANCH  24  26
ATOM     26  O   LIG d   1       5.823  -2.366  -6.329  0.00  0.00    -0.457 OA
BRANCH  26  27
ATOM     27  C   LIG d   1       4.737  -2.012  -7.226  0.00  0.00     0.155 C 
ATOM     28  H   LIG d   1       4.038  -2.726  -7.201  0.00  0.00     0.078 H 
ATOM     29  H   LIG d   1       5.121  -1.917  -8.242  0.00  0.00     0.078 H 
BRANCH  27  30
ATOM     30  C   LIG d   1       4.134  -0.701  -6.792  0.00  0.00     0.200 C 
ATOM     31  O   LIG d   1       3.683  -0.582  -5.673  0.00  0.00    -0.288 OA
BRANCH  30  32
ATOM     32  C   LIG d   1       4.094   0.435  -7.727  0.00  0.00     0.021 A 
ATOM     33  C   LIG d   1       5.265   0.870  -8.355  0.00  0.00    -0.051 A 
ATOM     34  C   LIG d   1       5.220   1.935  -9.230  0.00  0.00    -0.061 A 
ATOM     35  H   LIG d   1       6.203   0.373  -8.156  0.00  0.00     0.062 H 
ATOM     36  C   LIG d   1       4.019   2.573  -9.487  0.00  0.00    -0.062 A 
ATOM     37  H   LIG d   1       6.123   2.272  -9.716  0.00  0.00     0.062 H 
ATOM     38  C   LIG d   1       2.855   2.148  -8.870  0.00  0.00    -0.061 A 
ATOM     39  H   LIG d   1       3.989   3.405 -10.174  0.00  0.00     0.062 H 
ATOM     40  C   LIG d   1       2.883   1.081  -7.996  0.00  0.00    -0.051 A 
ATOM     41  H   LIG d   1       1.921   2.651  -9.075  0.00  0.00     0.062 H 
ATOM     42  H   LIG d   1       1.974   0.747  -7.519  0.00  0.00     0.062 H 
ENDBRANCH  30  32
ENDBRANCH  27  30
ENDBRANCH  26  27
ENDBRANCH  24  26
ENDBRANCH   1  24
TORSDOF 7
ENDMDL
MODEL 8
REMARK VINA RESULT:      -5.6      2.722      6.044
REMARK  7 active torsions:
REMARK  status: ('A' for Active; 'I' for Inactive)
REMARK    1  A    between atoms: C_4  and  C_7 
REMARK    2  A    between atoms: C_9  and  C_14 
REMARK    3  A    between atoms: C_14  and  C_15 
REMARK    4  A    between atoms: C_15  and  O_17 
REMARK    5  A    between atoms: O_17  and  C_18 
REMARK    6  A    between atoms: C_18  and  C_19 
REMARK    7  A    between atoms: C_19  and  C_21 
ROOT
ATOM      1  C   LIG d   1       7.519  -0.303  -6.517  0.00  0.00     0.074 C 
ATOM      2  H   LIG d   1       7.173  -1.234  -6.069  0.00  0.00     0.040 H 
ATOM      3  H   LIG d   1       8.579  -0.387  -6.756  0.00  0.00     0.040 H 
ENDROOT
BRANCH   1   4
ATOM      4  C   LIG d   1       7.308   0.847  -5.532  0.00  0.00     0.102 C 
ATOM      5  C   LIG d   1       7.669   0.410  -4.095  0.00  0.00     0.113 C 
ATOM      6  H   LIG d   1       8.333  -0.454  -4.119  0.00  0.00     0.067 H 
ATOM      7  O   LIG d   1       8.344   1.542  -3.517  0.00  0.00    -0.344 OA
ATOM      8  C   LIG d   1       8.346   2.584  -4.509  0.00  0.00     0.149 C 
ATOM      9  O   LIG d   1       8.244   1.922  -5.788  0.00  0.00    -0.347 OA
ATOM     10  H   LIG d   1       9.275   3.151  -4.454  0.00  0.00     0.087 H 
ATOM     11  H   LIG d   1       7.494   3.246  -4.361  0.00  0.00     0.087 H 
ATOM     12  H   LIG d   1       6.281   1.211  -5.579  0.00  0.00     0.063 H 
BRANCH   5  13
ATOM     13  C   LIG d   1       6.421   0.091  -3.315  0.00  0.00    -0.016 A 
ATOM     14  C   LIG d   1       5.685   1.112  -2.741  0.00  0.00    -0.056 A 
ATOM     15  C   LIG d   1       4.539   0.819  -2.024  0.00  0.00    -0.061 A 
ATOM     16  H   LIG d   1       6.006   2.137  -2.851  0.00  0.00     0.062 H 
ATOM     17  C   LIG d   1       4.128  -0.494  -1.884  0.00  0.00    -0.062 A 
ATOM     18  H   LIG d   1       3.965   1.616  -1.576  0.00  0.00     0.062 H 
ATOM     19  C   LIG d   1       4.864  -1.513  -2.459  0.00  0.00    -0.061 A 
ATOM     20  H   LIG d   1       3.233  -0.722  -1.325  0.00  0.00     0.062 H 
ATOM     21  C   LIG d   1       6.007  -1.220  -3.178  0.00  0.00    -0.056 A 
ATOM     22  H   LIG d   1       4.542  -2.539  -2.349  0.00  0.00     0.062 H 
ATOM     23  H   LIG d   1       6.579  -2.016  -3.630  0.00  0.00     0.062 H 
ENDBRANCH   5  13
ENDBRANCH   1   4
BRANCH   1  24
ATOM     24  C   LIG d   1       6.741  -0.032  -7.780  0.00  0.00     0.310 C 
ATOM     25  O   LIG d   1       6.884  -0.746  -8.743  0.00  0.00    -0.251 OA
BRANCH  24  26
ATOM     26  O   LIG d   1       5.888   1.004  -7.832  0.00  0.00    -0.457 OA
BRANCH  26  27
ATOM     27  C   LIG d   1       5.850   1.762  -9.070  0.00  0.00     0.155 C 
ATOM     28  H   LIG d   1       6.275   1.229  -9.801  0.00  0.00     0.078 H 
ATOM     29  H   LIG d   1       6.392   2.698  -8.940  0.00  0.00     0.078 H 
BRANCH  27  30
ATOM     30  C   LIG d   1       4.417   2.058  -9.433  0.00  0.00     0.200 C 
ATOM     31  O   LIG d   1       3.961   3.166  -9.247  0.00  0.00    -0.288 OA
BRANCH  30  32
ATOM     32  C   LIG d   1       3.571   1.002 -10.011  0.00  0.00     0.021 A 
ATOM     33  C   LIG d   1       3.881   0.461 -11.263  0.00  0.00    -0.051 A 
ATOM     34  C   LIG d   1       3.085  -0.529 -11.799  0.00  0.00    -0.061 A 
ATOM     35  H   LIG d   1       4.742   0.817 -11.809  0.00  0.00     0.062 H 
ATOM     36  C   LIG d   1       1.981  -0.987 -11.101  0.00  0.00    -0.062 A 
ATOM     37  H   LIG d   1       3.323  -0.948 -12.766  0.00  0.00     0.062 H 
ATOM     38  C   LIG d   1       1.668  -0.457  -9.861  0.00  0.00    -0.061 A 
ATOM     39  H   LIG d   1       1.361  -1.764 -11.525  0.00  0.00     0.062 H 
ATOM     40  C   LIG d   1       2.458   0.529  -9.310  0.00  0.00    -0.051 A 
ATOM     41  H   LIG d   1       0.805  -0.820  -9.322  0.00  0.00     0.062 H 
ATOM     42  H   LIG d   1       2.215   0.938  -8.340  0.00  0.00     0.062 H 
ENDBRANCH  30  32
ENDBRANCH  27  30
ENDBRANCH  26  27
ENDBRANCH  24  26
ENDBRANCH   1  24
TORSDOF 7
ENDMDL
MODEL 9
REMARK VINA RESULT:      -5.5      2.120      5.318
REMARK  7 active torsions:
REMARK  status: ('A' for Active; 'I' for Inactive)
REMARK    1  A    between atoms: C_4  and  C_7 
REMARK    2  A    between atoms: C_9  and  C_14 
REMARK    3  A    between atoms: C_14  and  C_15 
REMARK    4  A    between atoms: C_15  and  O_17 
REMARK    5  A    between atoms: O_17  and  C_18 
REMARK    6  A    between atoms: C_18  and  C_19 
REMARK    7  A    between atoms: C_19  and  C_21 
ROOT
ATOM      1  C   LIG d   1       5.610  -3.162  -7.342  0.00  0.00     0.074 C 
ATOM      2  H   LIG d   1       6.299  -3.660  -6.660  0.00  0.00     0.040 H 
ATOM      3  H   LIG d   1       5.982  -3.251  -8.363  0.00  0.00     0.040 H 
ENDROOT
BRANCH   1   4
ATOM      4  C   LIG d   1       5.500  -1.684  -6.967  0.00  0.00     0.102 C 
ATOM      5  C   LIG d   1       6.048  -1.438  -5.543  0.00  0.00     0.113 C 
ATOM      6  H   LIG d   1       6.722  -2.244  -5.254  0.00  0.00     0.067 H 
ATOM      7  O   LIG d   1       6.766  -0.194  -5.628  0.00  0.00    -0.344 OA
ATOM      8  C   LIG d   1       6.621   0.286  -6.976  0.00  0.00     0.149 C 
ATOM      9  O   LIG d   1       6.373  -0.877  -7.793  0.00  0.00    -0.347 OA
ATOM     10  H   LIG d   1       7.538   0.781  -7.297  0.00  0.00     0.087 H 
ATOM     11  H   LIG d   1       5.780   0.977  -7.041  0.00  0.00     0.087 H 
ATOM     12  H   LIG d   1       4.467  -1.342  -7.049  0.00  0.00     0.063 H 
BRANCH   5  13
ATOM     13  C   LIG d   1       4.915  -1.322  -4.558  0.00  0.00    -0.016 A 
ATOM     14  C   LIG d   1       4.910  -2.099  -3.414  0.00  0.00    -0.056 A 
ATOM     15  C   LIG d   1       3.870  -1.992  -2.510  0.00  0.00    -0.061 A 
ATOM     16  H   LIG d   1       5.720  -2.789  -3.228  0.00  0.00     0.062 H 
ATOM     17  C   LIG d   1       2.834  -1.108  -2.749  0.00  0.00    -0.062 A 
ATOM     18  H   LIG d   1       3.867  -2.599  -1.617  0.00  0.00     0.062 H 
ATOM     19  C   LIG d   1       2.839  -0.331  -3.893  0.00  0.00    -0.061 A 
ATOM     20  H   LIG d   1       2.021  -1.024  -2.043  0.00  0.00     0.062 H 
ATOM     21  C   LIG d   1       3.881  -0.434  -4.794  0.00  0.00    -0.056 A 
ATOM     22  H   LIG d   1       2.029   0.360  -4.079  0.00  0.00     0.062 H 
ATOM     23  H   LIG d   1       3.887   0.175  -5.686  0.00  0.00     0.062 H 
ENDBRANCH   5  13
ENDBRANCH   1   4
BRANCH   1  24
ATOM     24  C   LIG d   1       4.251  -3.808  -7.245  0.00  0.00     0.310 C 
ATOM     25  O   LIG d   1       3.887  -4.295  -6.202  0.00  0.00    -0.251 OA
BRANCH  24  26
ATOM     26  O   LIG d   1       3.446  -3.840  -8.319  0.00  0.00    -0.457 OA
BRANCH  26  27
ATOM     27  C   LIG d   1       3.780  -2.953  -9.419  0.00  0.00     0.155 C 
ATOM     28  H   LIG d   1       3.890  -3.487 -10.257  0.00  0.00     0.078 H 
ATOM     29  H   LIG d   1       4.710  -2.431  -9.196  0.00  0.00     0.078 H 
BRANCH  27  30
ATOM     30  C   LIG d   1       2.672  -1.947  -9.606  0.00  0.00     0.200 C 
ATOM     31  O   LIG d   1       1.541  -2.325  -9.826  0.00  0.00    -0.288 OA
BRANCH  30  32
ATOM     32  C   LIG d   1       2.964  -0.507  -9.521  0.00  0.00     0.021 A 
ATOM     33  C   LIG d   1       3.520   0.162 -10.616  0.00  0.00    -0.051 A 
ATOM     34  C   LIG d   1       3.791   1.511 -10.530  0.00  0.00    -0.061 A 
ATOM     35  H   LIG d   1       3.736  -0.376 -11.527  0.00  0.00     0.062 H 
ATOM     36  C   LIG d   1       3.514   2.203  -9.363  0.00  0.00    -0.062 A 
ATOM     37  H   LIG d   1       4.220   2.030 -11.374  0.00  0.00     0.062 H 
ATOM     38  C   LIG d   1       2.964   1.547  -8.275  0.00  0.00    -0.061 A 
ATOM     39  H   LIG d   1       3.727   3.260  -9.301  0.00  0.00     0.062 H 
ATOM     40  C   LIG d   1       2.683   0.199  -8.348  0.00  0.00    -0.051 A 
ATOM     41  H   LIG d   1       2.751   2.093  -7.368  0.00  0.00     0.062 H 
ATOM     42  H   LIG d   1       2.249  -0.310  -7.500  0.00  0.00     0.062 H 
ENDBRANCH  30  32
ENDBRANCH  27  30
ENDBRANCH  26  27
ENDBRANCH  24  26
ENDBRANCH   1  24
TORSDOF 7
ENDMDL
