MODEL 1
REMARK VINA RESULT:      -7.9      0.000      0.000
REMARK  8 active torsions:
REMARK  status: ('A' for Active; 'I' for Inactive)
REMARK    1  A    between atoms: C_1  and  C_2 
REMARK    2  A    between atoms: C_2  and  C_3 
REMARK    3  A    between atoms: C_2  and  C_4 
REMARK    4  A    between atoms: C_7  and  N_10 
REMARK       I    between atoms: N_10  and  C_11 
REMARK    5  A    between atoms: C_11  and  C_13 
REMARK    6  A    between atoms: C_13  and  C_15 
REMARK    7  A    between atoms: C_13  and  N_22 
REMARK    8  A    between atoms: C_15  and  C_16 
REMARK       I    between atoms: N_22  and  C_23 
REMARK       I    between atoms: C_23  and  N_25 
ROOT
ATOM      1  C   LIG d   1       8.037   1.904  -4.671  0.00  0.00     0.105 C 
ATOM      2  H   LIG d   1       7.412   2.790  -4.551  0.00  0.00     0.060 H 
ENDROOT
BRANCH   1   3
ATOM      3  C   LIG d   1       8.175   1.581  -6.136  0.00  0.00     0.238 C 
ATOM      4  N   LIG d   1       9.399   1.496  -6.694  0.00  0.00    -0.284 N 
ATOM      5  H   LIG d   1      10.191   1.562  -6.138  0.00  0.00     0.155 HD
ATOM      6  O   LIG d   1       7.186   1.398  -6.813  0.00  0.00    -0.273 OA
BRANCH   4   7
ATOM      7  C   LIG d   1       9.527   1.311  -8.076  0.00  0.00     0.034 A 
ATOM      8  C   LIG d   1       9.462   2.403  -8.932  0.00  0.00    -0.040 A 
ATOM      9  C   LIG d   1       9.589   2.217 -10.295  0.00  0.00    -0.057 A 
ATOM     10  H   LIG d   1       9.313   3.395  -8.533  0.00  0.00     0.064 H 
ATOM     11  C   LIG d   1       9.780   0.946 -10.806  0.00  0.00    -0.045 A 
ATOM     12  H   LIG d   1       9.539   3.064 -10.961  0.00  0.00     0.062 H 
ATOM     13  C   LIG d   1       9.845  -0.142  -9.955  0.00  0.00    -0.057 A 
ATOM     14  C   LIG d   1       9.725   0.037  -8.591  0.00  0.00    -0.040 A 
ATOM     15  H   LIG d   1       9.995  -1.134 -10.358  0.00  0.00     0.062 H 
ATOM     16  H   LIG d   1       9.780  -0.812  -7.928  0.00  0.00     0.064 H 
BRANCH  11  17
ATOM     17  C   LIG d   1       9.918   0.747 -12.293  0.00  0.00    -0.021 C 
ATOM     18  H   LIG d   1       8.928   0.652 -12.741  0.00  0.00     0.034 H 
BRANCH  17  19
ATOM     19  C   LIG d   1      10.641   1.948 -12.905  0.00  0.00    -0.059 C 
ATOM     20  H   LIG d   1      10.897   1.729 -13.942  0.00  0.00     0.024 H 
ATOM     21  H   LIG d   1       9.989   2.821 -12.869  0.00  0.00     0.024 H 
ATOM     22  H   LIG d   1      11.551   2.151 -12.341  0.00  0.00     0.024 H 
ENDBRANCH  17  19
BRANCH  17  23
ATOM     23  C   LIG d   1      10.722  -0.526 -12.565  0.00  0.00    -0.059 C 
ATOM     24  H   LIG d   1      11.490  -0.641 -11.801  0.00  0.00     0.024 H 
ATOM     25  H   LIG d   1      10.057  -1.388 -12.546  0.00  0.00     0.024 H 
ATOM     26  H   LIG d   1      11.195  -0.454 -13.545  0.00  0.00     0.024 H 
ENDBRANCH  17  23
ENDBRANCH  11  17
ENDBRANCH   4   7
ENDBRANCH   1   3
BRANCH   1  27
ATOM     27  C   LIG d   1       9.419   2.171  -4.074  0.00  0.00    -0.001 C 
ATOM     28  H   LIG d   1       9.528   1.610  -3.145  0.00  0.00     0.034 H 
ATOM     29  H   LIG d   1      10.188   1.856  -4.780  0.00  0.00     0.034 H 
BRANCH  27  30
ATOM     30  C   LIG d   1       9.569   3.643  -3.791  0.00  0.00    -0.045 A 
ATOM     31  C   LIG d   1       9.175   4.573  -4.734  0.00  0.00    -0.059 A 
ATOM     32  C   LIG d   1       9.313   5.924  -4.474  0.00  0.00    -0.061 A 
ATOM     33  H   LIG d   1       8.760   4.244  -5.675  0.00  0.00     0.062 H 
ATOM     34  C   LIG d   1       9.846   6.344  -3.269  0.00  0.00    -0.062 A 
ATOM     35  H   LIG d   1       9.006   6.650  -5.211  0.00  0.00     0.062 H 
ATOM     36  C   LIG d   1      10.239   5.414  -2.325  0.00  0.00    -0.061 A 
ATOM     37  H   LIG d   1       9.954   7.400  -3.065  0.00  0.00     0.062 H 
ATOM     38  C   LIG d   1      10.097   4.064  -2.583  0.00  0.00    -0.059 A 
ATOM     39  H   LIG d   1      10.654   5.742  -1.384  0.00  0.00     0.062 H 
ATOM     40  H   LIG d   1      10.400   3.338  -1.844  0.00  0.00     0.062 H 
ENDBRANCH  27  30
ENDBRANCH   1  27
BRANCH   1  41
ATOM     41  N   LIG d   1       7.414   0.773  -3.978  0.00  0.00    -0.288 N 
ATOM     42  C   LIG d   1       6.274   0.953  -3.282  0.00  0.00     0.303 C 
ATOM     43  O   LIG d   1       5.813   2.070  -3.148  0.00  0.00    -0.253 OA
ATOM     44  N   LIG d   1       5.649  -0.104  -2.728  0.00  0.00    -0.285 N 
ATOM     45  C   LIG d   1       4.351   0.059  -2.053  0.00  0.00     0.024 C 
ATOM     46  C   LIG d   1       6.243  -1.445  -2.791  0.00  0.00     0.021 C 
ATOM     47  C   LIG d   1       3.365  -0.923  -2.710  0.00  0.00     0.016 C 
ATOM     48  H   LIG d   1       4.453  -0.173  -0.993  0.00  0.00     0.047 H 
ATOM     49  H   LIG d   1       3.996   1.082  -2.176  0.00  0.00     0.047 H 
ATOM     50  C   LIG d   1       3.910  -2.342  -2.534  0.00  0.00    -0.037 C 
ATOM     51  H   LIG d   1       2.381  -0.827  -2.253  0.00  0.00     0.038 H 
ATOM     52  C   LIG d   1       3.290  -0.584  -4.180  0.00  0.00     0.027 C 
ATOM     53  C   LIG d   1       5.228  -2.452  -3.301  0.00  0.00    -0.006 C 
ATOM     54  H   LIG d   1       4.083  -2.541  -1.477  0.00  0.00     0.028 H 
ATOM     55  H   LIG d   1       3.193  -3.061  -2.931  0.00  0.00     0.028 H 
ATOM     56  H   LIG d   1       5.637  -3.448  -3.131  0.00  0.00     0.033 H 
ATOM     57  C   LIG d   1       4.975  -2.294  -4.789  0.00  0.00     0.031 C 
ATOM     58  N   LIG d   1       4.113  -1.152  -5.092  0.00  0.00    -0.312 N 
ATOM     59  H   LIG d   1       4.503  -3.202  -5.165  0.00  0.00     0.050 H 
ATOM     60  H   LIG d   1       5.930  -2.160  -5.297  0.00  0.00     0.050 H 
ATOM     61  C   LIG d   1       4.120  -0.699  -6.370  0.00  0.00     0.252 C 
ATOM     62  C   LIG d   1       3.165   0.232  -6.803  0.00  0.00     0.003 C 
ATOM     63  O   LIG d   1       4.965  -1.106  -7.151  0.00  0.00    -0.268 OA
ATOM     64  C   LIG d   1       2.273   0.735  -5.902  0.00  0.00    -0.055 C 
ATOM     65  H   LIG d   1       3.136   0.546  -7.836  0.00  0.00     0.067 H 
ATOM     66  C   LIG d   1       2.355   0.324  -4.567  0.00  0.00    -0.042 C 
ATOM     67  H   LIG d   1       1.516   1.439  -6.215  0.00  0.00     0.062 H 
ATOM     68  H   LIG d   1       1.669   0.730  -3.839  0.00  0.00     0.064 H 
ATOM     69  H   LIG d   1       7.102  -1.428  -3.462  0.00  0.00     0.047 H 
ATOM     70  H   LIG d   1       6.571  -1.741  -1.794  0.00  0.00     0.047 H 
ATOM     71  H   LIG d   1       7.822  -0.106  -4.021  0.00  0.00     0.151 HD
ENDBRANCH   1  41
TORSDOF 8
ENDMDL
MODEL 2
REMARK VINA RESULT:      -7.8      4.206      8.031
REMARK  8 active torsions:
REMARK  status: ('A' for Active; 'I' for Inactive)
REMARK    1  A    between atoms: C_1  and  C_2 
REMARK    2  A    between atoms: C_2  and  C_3 
REMARK    3  A    between atoms: C_2  and  C_4 
REMARK    4  A    between atoms: C_7  and  N_10 
REMARK       I    between atoms: N_10  and  C_11 
REMARK    5  A    between atoms: C_11  and  C_13 
REMARK    6  A    between atoms: C_13  and  C_15 
REMARK    7  A    between atoms: C_13  and  N_22 
REMARK    8  A    between atoms: C_15  and  C_16 
REMARK       I    between atoms: N_22  and  C_23 
REMARK       I    between atoms: C_23  and  N_25 
ROOT
ATOM      1  C   LIG d   1       5.092  -2.463  -5.357  0.00  0.00     0.105 C 
ATOM      2  H   LIG d   1       6.073  -1.991  -5.292  0.00  0.00     0.060 H 
ENDROOT
BRANCH   1   3
ATOM      3  C   LIG d   1       5.238  -3.849  -5.927  0.00  0.00     0.238 C 
ATOM      4  N   LIG d   1       4.216  -4.724  -5.842  0.00  0.00    -0.284 N 
ATOM      5  H   LIG d   1       3.360  -4.436  -5.488  0.00  0.00     0.155 HD
ATOM      6  O   LIG d   1       6.275  -4.180  -6.462  0.00  0.00    -0.273 OA
BRANCH   4   7
ATOM      7  C   LIG d   1       4.390  -6.047  -6.266  0.00  0.00     0.034 A 
ATOM      8  C   LIG d   1       4.864  -7.004  -5.380  0.00  0.00    -0.040 A 
ATOM      9  C   LIG d   1       5.034  -8.309  -5.801  0.00  0.00    -0.057 A 
ATOM     10  H   LIG d   1       5.101  -6.730  -4.363  0.00  0.00     0.064 H 
ATOM     11  C   LIG d   1       4.732  -8.661  -7.104  0.00  0.00    -0.045 A 
ATOM     12  H   LIG d   1       5.403  -9.054  -5.113  0.00  0.00     0.062 H 
ATOM     13  C   LIG d   1       4.259  -7.709  -7.989  0.00  0.00    -0.057 A 
ATOM     14  C   LIG d   1       4.082  -6.404  -7.573  0.00  0.00    -0.040 A 
ATOM     15  H   LIG d   1       4.024  -7.987  -9.007  0.00  0.00     0.062 H 
ATOM     16  H   LIG d   1       3.709  -5.663  -8.263  0.00  0.00     0.064 H 
BRANCH  11  17
ATOM     17  C   LIG d   1       4.919 -10.084  -7.561  0.00  0.00    -0.021 C 
ATOM     18  H   LIG d   1       5.983 -10.291  -7.683  0.00  0.00     0.034 H 
BRANCH  17  19
ATOM     19  C   LIG d   1       4.331 -11.037  -6.518  0.00  0.00    -0.059 C 
ATOM     20  H   LIG d   1       3.781 -11.832  -7.022  0.00  0.00     0.024 H 
ATOM     21  H   LIG d   1       5.138 -11.471  -5.928  0.00  0.00     0.024 H 
ATOM     22  H   LIG d   1       3.656 -10.487  -5.863  0.00  0.00     0.024 H 
ENDBRANCH  17  19
BRANCH  17  23
ATOM     23  C   LIG d   1       4.205 -10.289  -8.899  0.00  0.00    -0.059 C 
ATOM     24  H   LIG d   1       4.648 -11.136  -9.422  0.00  0.00     0.024 H 
ATOM     25  H   LIG d   1       3.148 -10.484  -8.721  0.00  0.00     0.024 H 
ATOM     26  H   LIG d   1       4.311  -9.391  -9.508  0.00  0.00     0.024 H 
ENDBRANCH  17  23
ENDBRANCH  11  17
ENDBRANCH   4   7
ENDBRANCH   1   3
BRANCH   1  27
ATOM     27  C   LIG d   1       4.473  -2.547  -3.961  0.00  0.00    -0.001 C 
ATOM     28  H   LIG d   1       3.448  -2.909  -4.040  0.00  0.00     0.034 H 
ATOM     29  H   LIG d   1       5.054  -3.235  -3.346  0.00  0.00     0.034 H 
BRANCH  27  30
ATOM     30  C   LIG d   1       4.474  -1.180  -3.327  0.00  0.00    -0.045 A 
ATOM     31  C   LIG d   1       3.288  -0.615  -2.899  0.00  0.00    -0.059 A 
ATOM     32  C   LIG d   1       3.290   0.639  -2.316  0.00  0.00    -0.061 A 
ATOM     33  H   LIG d   1       2.359  -1.153  -3.019  0.00  0.00     0.062 H 
ATOM     34  C   LIG d   1       4.479   1.327  -2.163  0.00  0.00    -0.062 A 
ATOM     35  H   LIG d   1       2.363   1.080  -1.983  0.00  0.00     0.062 H 
ATOM     36  C   LIG d   1       5.666   0.761  -2.590  0.00  0.00    -0.061 A 
ATOM     37  H   LIG d   1       4.481   2.307  -1.708  0.00  0.00     0.062 H 
ATOM     38  C   LIG d   1       5.665  -0.494  -3.168  0.00  0.00    -0.059 A 
ATOM     39  H   LIG d   1       6.594   1.299  -2.469  0.00  0.00     0.062 H 
ATOM     40  H   LIG d   1       6.591  -0.938  -3.497  0.00  0.00     0.062 H 
ENDBRANCH  27  30
ENDBRANCH   1  27
BRANCH   1  41
ATOM     41  N   LIG d   1       4.226  -1.665  -6.230  0.00  0.00    -0.288 N 
ATOM     42  C   LIG d   1       4.737  -0.628  -6.922  0.00  0.00     0.303 C 
ATOM     43  O   LIG d   1       5.894  -0.294  -6.751  0.00  0.00    -0.253 OA
ATOM     44  N   LIG d   1       3.964   0.044  -7.798  0.00  0.00    -0.285 N 
ATOM     45  C   LIG d   1       4.532   1.111  -8.637  0.00  0.00     0.024 C 
ATOM     46  C   LIG d   1       2.539  -0.279  -7.942  0.00  0.00     0.021 C 
ATOM     47  C   LIG d   1       4.219   0.760 -10.102  0.00  0.00     0.016 C 
ATOM     48  H   LIG d   1       4.076   2.067  -8.380  0.00  0.00     0.047 H 
ATOM     49  H   LIG d   1       5.611   1.164  -8.490  0.00  0.00     0.047 H 
ATOM     50  C   LIG d   1       2.699   0.675 -10.262  0.00  0.00    -0.037 C 
ATOM     51  H   LIG d   1       4.636   1.516 -10.766  0.00  0.00     0.038 H 
ATOM     52  C   LIG d   1       4.838  -0.586 -10.394  0.00  0.00     0.027 C 
ATOM     53  C   LIG d   1       2.187  -0.483  -9.405  0.00  0.00    -0.006 C 
ATOM     54  H   LIG d   1       2.242   1.607  -9.930  0.00  0.00     0.028 H 
ATOM     55  H   LIG d   1       2.450   0.496 -11.308  0.00  0.00     0.028 H 
ATOM     56  H   LIG d   1       1.100  -0.507  -9.482  0.00  0.00     0.033 H 
ATOM     57  C   LIG d   1       2.727  -1.798  -9.938  0.00  0.00     0.031 C 
ATOM     58  N   LIG d   1       4.163  -1.745 -10.208  0.00  0.00    -0.312 N 
ATOM     59  H   LIG d   1       2.202  -2.047 -10.860  0.00  0.00     0.050 H 
ATOM     60  H   LIG d   1       2.535  -2.581  -9.204  0.00  0.00     0.050 H 
ATOM     61  C   LIG d   1       4.811  -2.930 -10.328  0.00  0.00     0.252 C 
ATOM     62  C   LIG d   1       6.125  -2.981 -10.810  0.00  0.00     0.003 C 
ATOM     63  O   LIG d   1       4.242  -3.963 -10.013  0.00  0.00    -0.268 OA
ATOM     64  C   LIG d   1       6.775  -1.814 -11.089  0.00  0.00    -0.055 C 
ATOM     65  H   LIG d   1       6.617  -3.930 -10.961  0.00  0.00     0.067 H 
ATOM     66  C   LIG d   1       6.115  -0.601 -10.860  0.00  0.00    -0.042 C 
ATOM     67  H   LIG d   1       7.782  -1.826 -11.479  0.00  0.00     0.062 H 
ATOM     68  H   LIG d   1       6.625   0.331 -11.055  0.00  0.00     0.064 H 
ATOM     69  H   LIG d   1       2.317  -1.190  -7.387  0.00  0.00     0.047 H 
ATOM     70  H   LIG d   1       1.942   0.540  -7.542  0.00  0.00     0.047 H 
ATOM     71  H   LIG d   1       3.284  -1.883  -6.308  0.00  0.00     0.151 HD
ENDBRANCH   1  41
TORSDOF 8
ENDMDL
MODEL 3
REMARK VINA RESULT:      -7.7      1.379      1.937
REMARK  8 active torsions:
REMARK  status: ('A' for Active; 'I' for Inactive)
REMARK    1  A    between atoms: C_1  and  C_2 
REMARK    2  A    between atoms: C_2  and  C_3 
REMARK    3  A    between atoms: C_2  and  C_4 
REMARK    4  A    between atoms: C_7  and  N_10 
REMARK       I    between atoms: N_10  and  C_11 
REMARK    5  A    between atoms: C_11  and  C_13 
REMARK    6  A    between atoms: C_13  and  C_15 
REMARK    7  A    between atoms: C_13  and  N_22 
REMARK    8  A    between atoms: C_15  and  C_16 
REMARK       I    between atoms: N_22  and  C_23 
REMARK       I    between atoms: C_23  and  N_25 
ROOT
ATOM      1  C   LIG d   1       8.262   1.609  -4.953  0.00  0.00     0.105 C 
ATOM      2  H   LIG d   1       7.632   2.499  -4.973  0.00  0.00     0.060 H 
ENDROOT
BRANCH   1   3
ATOM      3  C   LIG d   1       8.505   1.134  -6.362  0.00  0.00     0.238 C 
ATOM      4  N   LIG d   1       7.593   0.355  -6.977  0.00  0.00    -0.284 N 
ATOM      5  H   LIG d   1       6.745   0.167  -6.545  0.00  0.00     0.155 HD
ATOM      6  O   LIG d   1       9.521   1.452  -6.943  0.00  0.00    -0.273 OA
BRANCH   4   7
ATOM      7  C   LIG d   1       7.869  -0.182  -8.240  0.00  0.00     0.034 A 
ATOM      8  C   LIG d   1       8.585  -1.367  -8.350  0.00  0.00    -0.040 A 
ATOM      9  C   LIG d   1       8.856  -1.894  -9.598  0.00  0.00    -0.057 A 
ATOM     10  H   LIG d   1       8.931  -1.874  -7.463  0.00  0.00     0.064 H 
ATOM     11  C   LIG d   1       8.414  -1.243 -10.736  0.00  0.00    -0.045 A 
ATOM     12  H   LIG d   1       9.413  -2.814  -9.685  0.00  0.00     0.062 H 
ATOM     13  C   LIG d   1       7.701  -0.064 -10.628  0.00  0.00    -0.057 A 
ATOM     14  C   LIG d   1       7.422   0.466  -9.384  0.00  0.00    -0.040 A 
ATOM     15  H   LIG d   1       7.357   0.442 -11.520  0.00  0.00     0.062 H 
ATOM     16  H   LIG d   1       6.861   1.385  -9.301  0.00  0.00     0.064 H 
BRANCH  11  17
ATOM     17  C   LIG d   1       8.711  -1.821 -12.096  0.00  0.00    -0.021 C 
ATOM     18  H   LIG d   1       9.780  -2.019 -12.181  0.00  0.00     0.034 H 
BRANCH  17  19
ATOM     19  C   LIG d   1       7.934  -3.126 -12.277  0.00  0.00    -0.059 C 
ATOM     20  H   LIG d   1       8.130  -3.786 -11.431  0.00  0.00     0.024 H 
ATOM     21  H   LIG d   1       6.867  -2.909 -12.328  0.00  0.00     0.024 H 
ATOM     22  H   LIG d   1       8.251  -3.613 -13.199  0.00  0.00     0.024 H 
ENDBRANCH  17  19
BRANCH  17  23
ATOM     23  C   LIG d   1       8.292  -0.823 -13.177  0.00  0.00    -0.059 C 
ATOM     24  H   LIG d   1       7.355  -1.149 -13.629  0.00  0.00     0.024 H 
ATOM     25  H   LIG d   1       8.158   0.162 -12.730  0.00  0.00     0.024 H 
ATOM     26  H   LIG d   1       9.065  -0.772 -13.943  0.00  0.00     0.024 H 
ENDBRANCH  17  23
ENDBRANCH  11  17
ENDBRANCH   4   7
ENDBRANCH   1   3
BRANCH   1  27
ATOM     27  C   LIG d   1       9.598   1.946  -4.290  0.00  0.00    -0.001 C 
ATOM     28  H   LIG d   1       9.707   1.363  -3.376  0.00  0.00     0.034 H 
ATOM     29  H   LIG d   1      10.414   1.706  -4.973  0.00  0.00     0.034 H 
BRANCH  27  30
ATOM     30  C   LIG d   1       9.638   3.415  -3.957  0.00  0.00    -0.045 A 
ATOM     31  C   LIG d   1      10.094   3.831  -2.720  0.00  0.00    -0.059 A 
ATOM     32  C   LIG d   1      10.130   5.179  -2.414  0.00  0.00    -0.061 A 
ATOM     33  H   LIG d   1      10.422   3.104  -1.992  0.00  0.00     0.062 H 
ATOM     34  C   LIG d   1       9.710   6.110  -3.346  0.00  0.00    -0.062 A 
ATOM     35  H   LIG d   1      10.486   5.504  -1.448  0.00  0.00     0.062 H 
ATOM     36  C   LIG d   1       9.255   5.694  -4.583  0.00  0.00    -0.061 A 
ATOM     37  H   LIG d   1       9.738   7.164  -3.107  0.00  0.00     0.062 H 
ATOM     38  C   LIG d   1       9.223   4.347  -4.890  0.00  0.00    -0.059 A 
ATOM     39  H   LIG d   1       8.927   6.421  -5.311  0.00  0.00     0.062 H 
ATOM     40  H   LIG d   1       8.872   4.022  -5.858  0.00  0.00     0.062 H 
ENDBRANCH  27  30
ENDBRANCH   1  27
BRANCH   1  41
ATOM     41  N   LIG d   1       7.590   0.553  -4.191  0.00  0.00    -0.288 N 
ATOM     42  C   LIG d   1       6.502   0.844  -3.451  0.00  0.00     0.303 C 
ATOM     43  O   LIG d   1       6.134   1.998  -3.338  0.00  0.00    -0.253 OA
ATOM     44  N   LIG d   1       5.826  -0.142  -2.829  0.00  0.00    -0.285 N 
ATOM     45  C   LIG d   1       4.579   0.143  -2.102  0.00  0.00     0.024 C 
ATOM     46  C   LIG d   1       6.314  -1.526  -2.869  0.00  0.00     0.021 C 
ATOM     47  C   LIG d   1       3.491  -0.781  -2.676  0.00  0.00     0.016 C 
ATOM     48  H   LIG d   1       4.714  -0.060  -1.040  0.00  0.00     0.047 H 
ATOM     49  H   LIG d   1       4.296   1.186  -2.247  0.00  0.00     0.047 H 
ATOM     50  C   LIG d   1       3.935  -2.232  -2.473  0.00  0.00    -0.037 C 
ATOM     51  H   LIG d   1       2.540  -0.594  -2.179  0.00  0.00     0.038 H 
ATOM     52  C   LIG d   1       3.371  -0.487  -4.153  0.00  0.00     0.027 C 
ATOM     53  C   LIG d   1       5.202  -2.468  -3.295  0.00  0.00    -0.006 C 
ATOM     54  H   LIG d   1       4.143  -2.407  -1.418  0.00  0.00     0.028 H 
ATOM     55  H   LIG d   1       3.147  -2.906  -2.809  0.00  0.00     0.028 H 
ATOM     56  H   LIG d   1       5.542  -3.487  -3.106  0.00  0.00     0.033 H 
ATOM     57  C   LIG d   1       4.889  -2.342  -4.775  0.00  0.00     0.031 C 
ATOM     58  N   LIG d   1       4.103  -1.147  -5.080  0.00  0.00    -0.312 N 
ATOM     59  H   LIG d   1       4.332  -3.223  -5.094  0.00  0.00     0.050 H 
ATOM     60  H   LIG d   1       5.826  -2.299  -5.330  0.00  0.00     0.050 H 
ATOM     61  C   LIG d   1       4.082  -0.739  -6.373  0.00  0.00     0.252 C 
ATOM     62  C   LIG d   1       3.181   0.247  -6.797  0.00  0.00     0.003 C 
ATOM     63  O   LIG d   1       4.855  -1.237  -7.176  0.00  0.00    -0.268 OA
ATOM     64  C   LIG d   1       2.373   0.848  -5.875  0.00  0.00    -0.055 C 
ATOM     65  H   LIG d   1       3.125   0.527  -7.838  0.00  0.00     0.067 H 
ATOM     66  C   LIG d   1       2.489   0.477  -4.531  0.00  0.00    -0.042 C 
ATOM     67  H   LIG d   1       1.657   1.598  -6.179  0.00  0.00     0.062 H 
ATOM     68  H   LIG d   1       1.871   0.959  -3.787  0.00  0.00     0.064 H 
ATOM     69  H   LIG d   1       7.138  -1.598  -3.579  0.00  0.00     0.047 H 
ATOM     70  H   LIG d   1       6.666  -1.813  -1.879  0.00  0.00     0.047 H 
ATOM     71  H   LIG d   1       7.928  -0.355  -4.219  0.00  0.00     0.151 HD
ENDBRANCH   1  41
TORSDOF 8
ENDMDL
MODEL 4
REMARK VINA RESULT:      -7.4      2.598      6.211
REMARK  8 active torsions:
REMARK  status: ('A' for Active; 'I' for Inactive)
REMARK    1  A    between atoms: C_1  and  C_2 
REMARK    2  A    between atoms: C_2  and  C_3 
REMARK    3  A    between atoms: C_2  and  C_4 
REMARK    4  A    between atoms: C_7  and  N_10 
REMARK       I    between atoms: N_10  and  C_11 
REMARK    5  A    between atoms: C_11  and  C_13 
REMARK    6  A    between atoms: C_13  and  C_15 
REMARK    7  A    between atoms: C_13  and  N_22 
REMARK    8  A    between atoms: C_15  and  C_16 
REMARK       I    between atoms: N_22  and  C_23 
REMARK       I    between atoms: C_23  and  N_25 
ROOT
ATOM      1  C   LIG d   1       4.377   0.607  -8.157  0.00  0.00     0.105 C 
ATOM      2  H   LIG d   1       4.544  -0.431  -8.446  0.00  0.00     0.060 H 
ENDROOT
BRANCH   1   3
ATOM      3  C   LIG d   1       5.614   1.415  -8.448  0.00  0.00     0.238 C 
ATOM      4  N   LIG d   1       6.822   0.963  -8.055  0.00  0.00    -0.284 N 
ATOM      5  H   LIG d   1       6.904   0.082  -7.658  0.00  0.00     0.155 HD
ATOM      6  O   LIG d   1       5.525   2.473  -9.035  0.00  0.00    -0.273 OA
BRANCH   4   7
ATOM      7  C   LIG d   1       7.957   1.765  -8.221  0.00  0.00     0.034 A 
ATOM      8  C   LIG d   1       8.418   2.544  -7.167  0.00  0.00    -0.040 A 
ATOM      9  C   LIG d   1       9.539   3.334  -7.334  0.00  0.00    -0.057 A 
ATOM     10  H   LIG d   1       7.900   2.533  -6.220  0.00  0.00     0.064 H 
ATOM     11  C   LIG d   1      10.202   3.349  -8.548  0.00  0.00    -0.045 A 
ATOM     12  H   LIG d   1       9.897   3.940  -6.516  0.00  0.00     0.062 H 
ATOM     13  C   LIG d   1       9.745   2.574  -9.598  0.00  0.00    -0.057 A 
ATOM     14  C   LIG d   1       8.628   1.778  -9.436  0.00  0.00    -0.040 A 
ATOM     15  H   LIG d   1      10.265   2.588 -10.545  0.00  0.00     0.062 H 
ATOM     16  H   LIG d   1       8.275   1.169 -10.256  0.00  0.00     0.064 H 
BRANCH  11  17
ATOM     17  C   LIG d   1      11.424   4.212  -8.727  0.00  0.00    -0.021 C 
ATOM     18  H   LIG d   1      12.319   3.620  -8.533  0.00  0.00     0.034 H 
BRANCH  17  19
ATOM     19  C   LIG d   1      11.466   4.747 -10.159  0.00  0.00    -0.059 C 
ATOM     20  H   LIG d   1      12.232   5.519 -10.236  0.00  0.00     0.024 H 
ATOM     21  H   LIG d   1      11.701   3.932 -10.844  0.00  0.00     0.024 H 
ATOM     22  H   LIG d   1      10.496   5.171 -10.418  0.00  0.00     0.024 H 
ENDBRANCH  17  19
BRANCH  17  23
ATOM     23  C   LIG d   1      11.368   5.385  -7.745  0.00  0.00    -0.059 C 
ATOM     24  H   LIG d   1      10.741   5.118  -6.895  0.00  0.00     0.024 H 
ATOM     25  H   LIG d   1      12.375   5.615  -7.398  0.00  0.00     0.024 H 
ATOM     26  H   LIG d   1      10.948   6.257  -8.246  0.00  0.00     0.024 H 
ENDBRANCH  17  23
ENDBRANCH  11  17
ENDBRANCH   4   7
ENDBRANCH   1   3
BRANCH   1  27
ATOM     27  C   LIG d   1       3.199   1.173  -8.952  0.00  0.00    -0.001 C 
ATOM     28  H   LIG d   1       2.359   1.349  -8.280  0.00  0.00     0.034 H 
ATOM     29  H   LIG d   1       3.493   2.113  -9.419  0.00  0.00     0.034 H 
BRANCH  27  30
ATOM     30  C   LIG d   1       2.791   0.189 -10.017  0.00  0.00    -0.045 A 
ATOM     31  C   LIG d   1       1.665  -0.594  -9.842  0.00  0.00    -0.059 A 
ATOM     32  C   LIG d   1       1.292  -1.497 -10.820  0.00  0.00    -0.061 A 
ATOM     33  H   LIG d   1       1.078  -0.500  -8.941  0.00  0.00     0.062 H 
ATOM     34  C   LIG d   1       2.045  -1.617 -11.973  0.00  0.00    -0.062 A 
ATOM     35  H   LIG d   1       0.412  -2.108 -10.682  0.00  0.00     0.062 H 
ATOM     36  C   LIG d   1       3.170  -0.834 -12.149  0.00  0.00    -0.061 A 
ATOM     37  H   LIG d   1       1.753  -2.323 -12.737  0.00  0.00     0.062 H 
ATOM     38  C   LIG d   1       3.541   0.072 -11.173  0.00  0.00    -0.059 A 
ATOM     39  H   LIG d   1       3.758  -0.928 -13.050  0.00  0.00     0.062 H 
ATOM     40  H   LIG d   1       4.418   0.687 -11.312  0.00  0.00     0.062 H 
ENDBRANCH  27  30
ENDBRANCH   1  27
BRANCH   1  41
ATOM     41  N   LIG d   1       4.077   0.672  -6.724  0.00  0.00    -0.288 N 
ATOM     42  C   LIG d   1       3.861  -0.463  -6.029  0.00  0.00     0.303 C 
ATOM     43  O   LIG d   1       3.821  -1.532  -6.606  0.00  0.00    -0.253 OA
ATOM     44  N   LIG d   1       3.683  -0.411  -4.694  0.00  0.00    -0.285 N 
ATOM     45  C   LIG d   1       3.549  -1.646  -3.904  0.00  0.00     0.024 C 
ATOM     46  C   LIG d   1       3.626   0.879  -3.994  0.00  0.00     0.021 C 
ATOM     47  C   LIG d   1       4.616  -1.601  -2.797  0.00  0.00     0.016 C 
ATOM     48  H   LIG d   1       2.556  -1.695  -3.459  0.00  0.00     0.047 H 
ATOM     49  H   LIG d   1       3.712  -2.514  -4.544  0.00  0.00     0.047 H 
ATOM     50  C   LIG d   1       4.366  -0.360  -1.937  0.00  0.00    -0.037 C 
ATOM     51  H   LIG d   1       4.568  -2.507  -2.194  0.00  0.00     0.038 H 
ATOM     52  C   LIG d   1       5.967  -1.494  -3.465  0.00  0.00     0.027 C 
ATOM     53  C   LIG d   1       4.572   0.880  -2.807  0.00  0.00    -0.006 C 
ATOM     54  H   LIG d   1       3.345  -0.377  -1.557  0.00  0.00     0.028 H 
ATOM     55  H   LIG d   1       5.068  -0.345  -1.103  0.00  0.00     0.028 H 
ATOM     56  H   LIG d   1       4.343   1.758  -2.203  0.00  0.00     0.033 H 
ATOM     57  C   LIG d   1       6.024   0.972  -3.241  0.00  0.00     0.031 C 
ATOM     58  N   LIG d   1       6.537  -0.300  -3.750  0.00  0.00    -0.312 N 
ATOM     59  H   LIG d   1       6.628   1.280  -2.388  0.00  0.00     0.050 H 
ATOM     60  H   LIG d   1       6.111   1.726  -4.023  0.00  0.00     0.050 H 
ATOM     61  C   LIG d   1       7.670  -0.252  -4.493  0.00  0.00     0.252 C 
ATOM     62  C   LIG d   1       8.356  -1.427  -4.826  0.00  0.00     0.003 C 
ATOM     63  O   LIG d   1       8.096   0.826  -4.876  0.00  0.00    -0.268 OA
ATOM     64  C   LIG d   1       7.830  -2.630  -4.456  0.00  0.00    -0.055 C 
ATOM     65  H   LIG d   1       9.290  -1.382  -5.367  0.00  0.00     0.067 H 
ATOM     66  C   LIG d   1       6.607  -2.653  -3.776  0.00  0.00    -0.042 C 
ATOM     67  H   LIG d   1       8.349  -3.550  -4.684  0.00  0.00     0.062 H 
ATOM     68  H   LIG d   1       6.167  -3.599  -3.496  0.00  0.00     0.064 H 
ATOM     69  H   LIG d   1       3.910   1.675  -4.682  0.00  0.00     0.047 H 
ATOM     70  H   LIG d   1       2.609   1.053  -3.642  0.00  0.00     0.047 H 
ATOM     71  H   LIG d   1       4.033   1.531  -6.276  0.00  0.00     0.151 HD
ENDBRANCH   1  41
TORSDOF 8
ENDMDL
MODEL 5
REMARK VINA RESULT:      -7.2      3.459      7.049
REMARK  8 active torsions:
REMARK  status: ('A' for Active; 'I' for Inactive)
REMARK    1  A    between atoms: C_1  and  C_2 
REMARK    2  A    between atoms: C_2  and  C_3 
REMARK    3  A    between atoms: C_2  and  C_4 
REMARK    4  A    between atoms: C_7  and  N_10 
REMARK       I    between atoms: N_10  and  C_11 
REMARK    5  A    between atoms: C_11  and  C_13 
REMARK    6  A    between atoms: C_13  and  C_15 
REMARK    7  A    between atoms: C_13  and  N_22 
REMARK    8  A    between atoms: C_15  and  C_16 
REMARK       I    between atoms: N_22  and  C_23 
REMARK       I    between atoms: C_23  and  N_25 
ROOT
ATOM      1  C   LIG d   1       4.059  -0.719  -6.267  0.00  0.00     0.105 C 
ATOM      2  H   LIG d   1       4.147  -1.753  -5.932  0.00  0.00     0.060 H 
ENDROOT
BRANCH   1   3
ATOM      3  C   LIG d   1       3.591  -0.693  -7.699  0.00  0.00     0.238 C 
ATOM      4  N   LIG d   1       3.095  -1.811  -8.266  0.00  0.00    -0.284 N 
ATOM      5  H   LIG d   1       2.964  -2.609  -7.731  0.00  0.00     0.155 HD
ATOM      6  O   LIG d   1       3.661   0.333  -8.341  0.00  0.00    -0.273 OA
BRANCH   4   7
ATOM      7  C   LIG d   1       2.769  -1.819  -9.628  0.00  0.00     0.034 A 
ATOM      8  C   LIG d   1       1.510  -1.405 -10.043  0.00  0.00    -0.040 A 
ATOM      9  C   LIG d   1       1.191  -1.414 -11.387  0.00  0.00    -0.057 A 
ATOM     10  H   LIG d   1       0.781  -1.079  -9.317  0.00  0.00     0.064 H 
ATOM     11  C   LIG d   1       2.124  -1.833 -12.318  0.00  0.00    -0.045 A 
ATOM     12  H   LIG d   1       0.213  -1.094 -11.711  0.00  0.00     0.062 H 
ATOM     13  C   LIG d   1       3.379  -2.245 -11.906  0.00  0.00    -0.057 A 
ATOM     14  C   LIG d   1       3.706  -2.234 -10.565  0.00  0.00    -0.040 A 
ATOM     15  H   LIG d   1       4.106  -2.572 -12.636  0.00  0.00     0.062 H 
ATOM     16  H   LIG d   1       4.687  -2.551 -10.245  0.00  0.00     0.064 H 
BRANCH  11  17
ATOM     17  C   LIG d   1       1.774  -1.842 -13.783  0.00  0.00    -0.021 C 
ATOM     18  H   LIG d   1       1.755  -0.818 -14.159  0.00  0.00     0.034 H 
BRANCH  17  19
ATOM     19  C   LIG d   1       2.820  -2.650 -14.554  0.00  0.00    -0.059 C 
ATOM     20  H   LIG d   1       3.309  -2.006 -15.286  0.00  0.00     0.024 H 
ATOM     21  H   LIG d   1       3.564  -3.038 -13.858  0.00  0.00     0.024 H 
ATOM     22  H   LIG d   1       2.334  -3.479 -15.067  0.00  0.00     0.024 H 
ENDBRANCH  17  19
BRANCH  17  23
ATOM     23  C   LIG d   1       0.396  -2.478 -13.975  0.00  0.00    -0.059 C 
ATOM     24  H   LIG d   1      -0.319  -2.010 -13.298  0.00  0.00     0.024 H 
ATOM     25  H   LIG d   1       0.069  -2.336 -15.004  0.00  0.00     0.024 H 
ATOM     26  H   LIG d   1       0.455  -3.545 -13.757  0.00  0.00     0.024 H 
ENDBRANCH  17  23
ENDBRANCH  11  17
ENDBRANCH   4   7
ENDBRANCH   1   3
BRANCH   1  27
ATOM     27  C   LIG d   1       3.048   0.017  -5.386  0.00  0.00    -0.001 C 
ATOM     28  H   LIG d   1       2.937   1.042  -5.741  0.00  0.00     0.034 H 
ATOM     29  H   LIG d   1       2.085  -0.490  -5.435  0.00  0.00     0.034 H 
BRANCH  27  30
ATOM     30  C   LIG d   1       3.539   0.031  -3.962  0.00  0.00    -0.045 A 
ATOM     31  C   LIG d   1       3.807  -1.159  -3.311  0.00  0.00    -0.059 A 
ATOM     32  C   LIG d   1       4.257  -1.146  -2.004  0.00  0.00    -0.061 A 
ATOM     33  H   LIG d   1       3.665  -2.099  -3.824  0.00  0.00     0.062 H 
ATOM     34  C   LIG d   1       4.438   0.057  -1.348  0.00  0.00    -0.062 A 
ATOM     35  H   LIG d   1       4.467  -2.076  -1.496  0.00  0.00     0.062 H 
ATOM     36  C   LIG d   1       4.171   1.247  -1.998  0.00  0.00    -0.061 A 
ATOM     37  H   LIG d   1       4.790   0.067  -0.326  0.00  0.00     0.062 H 
ATOM     38  C   LIG d   1       3.726   1.234  -3.306  0.00  0.00    -0.059 A 
ATOM     39  H   LIG d   1       4.313   2.186  -1.486  0.00  0.00     0.062 H 
ATOM     40  H   LIG d   1       3.521   2.163  -3.816  0.00  0.00     0.062 H 
ENDBRANCH  27  30
ENDBRANCH   1  27
BRANCH   1  41
ATOM     41  N   LIG d   1       5.365  -0.062  -6.168  0.00  0.00    -0.288 N 
ATOM     42  C   LIG d   1       6.494  -0.798  -6.208  0.00  0.00     0.303 C 
ATOM     43  O   LIG d   1       6.429  -2.012  -6.230  0.00  0.00    -0.253 OA
ATOM     44  N   LIG d   1       7.695  -0.188  -6.216  0.00  0.00    -0.285 N 
ATOM     45  C   LIG d   1       8.934  -0.968  -6.364  0.00  0.00     0.024 C 
ATOM     46  C   LIG d   1       7.797   1.271  -6.086  0.00  0.00     0.021 C 
ATOM     47  C   LIG d   1       9.704  -0.386  -7.561  0.00  0.00     0.016 C 
ATOM     48  H   LIG d   1       9.536  -0.882  -5.459  0.00  0.00     0.047 H 
ATOM     49  H   LIG d   1       8.693  -2.015  -6.549  0.00  0.00     0.047 H 
ATOM     50  C   LIG d   1      10.005   1.086  -7.272  0.00  0.00    -0.037 C 
ATOM     51  H   LIG d   1      10.626  -0.945  -7.722  0.00  0.00     0.038 H 
ATOM     52  C   LIG d   1       8.814  -0.495  -8.777  0.00  0.00     0.027 C 
ATOM     53  C   LIG d   1       8.678   1.841  -7.183  0.00  0.00    -0.006 C 
ATOM     54  H   LIG d   1      10.540   1.172  -6.326  0.00  0.00     0.028 H 
ATOM     55  H   LIG d   1      10.611   1.501  -8.077  0.00  0.00     0.028 H 
ATOM     56  H   LIG d   1       8.896   2.878  -6.926  0.00  0.00     0.033 H 
ATOM     57  C   LIG d   1       7.984   1.826  -8.532  0.00  0.00     0.031 C 
ATOM     58  N   LIG d   1       7.960   0.493  -9.134  0.00  0.00    -0.312 N 
ATOM     59  H   LIG d   1       8.504   2.508  -9.205  0.00  0.00     0.050 H 
ATOM     60  H   LIG d   1       6.958   2.174  -8.405  0.00  0.00     0.050 H 
ATOM     61  C   LIG d   1       7.067   0.285 -10.133  0.00  0.00     0.252 C 
ATOM     62  C   LIG d   1       7.129  -0.875 -10.917  0.00  0.00     0.003 C 
ATOM     63  O   LIG d   1       6.201   1.117 -10.352  0.00  0.00    -0.268 OA
ATOM     64  C   LIG d   1       8.054  -1.831 -10.615  0.00  0.00    -0.055 C 
ATOM     65  H   LIG d   1       6.454  -1.010 -11.749  0.00  0.00     0.067 H 
ATOM     66  C   LIG d   1       8.896  -1.633  -9.515  0.00  0.00    -0.042 C 
ATOM     67  H   LIG d   1       8.134  -2.725 -11.215  0.00  0.00     0.062 H 
ATOM     68  H   LIG d   1       9.619  -2.392  -9.251  0.00  0.00     0.064 H 
ATOM     69  H   LIG d   1       6.802   1.710  -6.160  0.00  0.00     0.047 H 
ATOM     70  H   LIG d   1       8.228   1.518  -5.116  0.00  0.00     0.047 H 
ATOM     71  H   LIG d   1       5.417   0.901  -6.073  0.00  0.00     0.151 HD
ENDBRANCH   1  41
TORSDOF 8
ENDMDL
MODEL 6
REMARK VINA RESULT:      -7.1      2.018      5.857
REMARK  8 active torsions:
REMARK  status: ('A' for Active; 'I' for Inactive)
REMARK    1  A    between atoms: C_1  and  C_2 
REMARK    2  A    between atoms: C_2  and  C_3 
REMARK    3  A    between atoms: C_2  and  C_4 
REMARK    4  A    between atoms: C_7  and  N_10 
REMARK       I    between atoms: N_10  and  C_11 
REMARK    5  A    between atoms: C_11  and  C_13 
REMARK    6  A    between atoms: C_13  and  C_15 
REMARK    7  A    between atoms: C_13  and  N_22 
REMARK    8  A    between atoms: C_15  and  C_16 
REMARK       I    between atoms: N_22  and  C_23 
REMARK       I    between atoms: C_23  and  N_25 
ROOT
ATOM      1  C   LIG d   1       8.619   0.854  -5.578  0.00  0.00     0.105 C 
ATOM      2  H   LIG d   1       9.244   0.244  -6.231  0.00  0.00     0.060 H 
ENDROOT
BRANCH   1   3
ATOM      3  C   LIG d   1       9.491   1.778  -4.769  0.00  0.00     0.238 C 
ATOM      4  N   LIG d   1       9.197   3.092  -4.699  0.00  0.00    -0.284 N 
ATOM      5  H   LIG d   1       8.381   3.429  -5.100  0.00  0.00     0.155 HD
ATOM      6  O   LIG d   1      10.458   1.342  -4.182  0.00  0.00    -0.273 OA
BRANCH   4   7
ATOM      7  C   LIG d   1      10.069   3.970  -4.044  0.00  0.00     0.034 A 
ATOM      8  C   LIG d   1      11.098   4.581  -4.749  0.00  0.00    -0.040 A 
ATOM      9  C   LIG d   1      11.957   5.448  -4.101  0.00  0.00    -0.057 A 
ATOM     10  H   LIG d   1      11.228   4.379  -5.802  0.00  0.00     0.064 H 
ATOM     11  C   LIG d   1      11.793   5.706  -2.752  0.00  0.00    -0.045 A 
ATOM     12  H   LIG d   1      12.757   5.923  -4.647  0.00  0.00     0.062 H 
ATOM     13  C   LIG d   1      10.769   5.099  -2.049  0.00  0.00    -0.057 A 
ATOM     14  C   LIG d   1       9.903   4.236  -2.692  0.00  0.00    -0.040 A 
ATOM     15  H   LIG d   1      10.643   5.303  -0.995  0.00  0.00     0.062 H 
ATOM     16  H   LIG d   1       9.102   3.766  -2.142  0.00  0.00     0.064 H 
BRANCH  11  17
ATOM     17  C   LIG d   1      12.731   6.651  -2.048  0.00  0.00    -0.021 C 
ATOM     18  H   LIG d   1      13.537   6.937  -2.726  0.00  0.00     0.034 H 
BRANCH  17  19
ATOM     19  C   LIG d   1      11.965   7.901  -1.611  0.00  0.00    -0.059 C 
ATOM     20  H   LIG d   1      11.818   7.879  -0.531  0.00  0.00     0.024 H 
ATOM     21  H   LIG d   1      12.536   8.790  -1.882  0.00  0.00     0.024 H 
ATOM     22  H   LIG d   1      10.996   7.926  -2.109  0.00  0.00     0.024 H 
ENDBRANCH  17  19
BRANCH  17  23
ATOM     23  C   LIG d   1      13.323   5.961  -0.818  0.00  0.00    -0.059 C 
ATOM     24  H   LIG d   1      13.515   6.701  -0.042  0.00  0.00     0.024 H 
ATOM     25  H   LIG d   1      12.620   5.216  -0.445  0.00  0.00     0.024 H 
ATOM     26  H   LIG d   1      14.258   5.472  -1.091  0.00  0.00     0.024 H 
ENDBRANCH  17  23
ENDBRANCH  11  17
ENDBRANCH   4   7
ENDBRANCH   1   3
BRANCH   1  27
ATOM     27  C   LIG d   1       7.650   1.679  -6.426  0.00  0.00    -0.001 C 
ATOM     28  H   LIG d   1       6.735   1.857  -5.861  0.00  0.00     0.034 H 
ATOM     29  H   LIG d   1       8.110   2.634  -6.681  0.00  0.00     0.034 H 
BRANCH  27  30
ATOM     30  C   LIG d   1       7.320   0.927  -7.689  0.00  0.00    -0.045 A 
ATOM     31  C   LIG d   1       7.985  -0.248  -7.988  0.00  0.00    -0.059 A 
ATOM     32  C   LIG d   1       7.682  -0.938  -9.147  0.00  0.00    -0.061 A 
ATOM     33  H   LIG d   1       8.740  -0.627  -7.316  0.00  0.00     0.062 H 
ATOM     34  C   LIG d   1       6.714  -0.453 -10.007  0.00  0.00    -0.062 A 
ATOM     35  H   LIG d   1       8.201  -1.856  -9.380  0.00  0.00     0.062 H 
ATOM     36  C   LIG d   1       6.049   0.721  -9.708  0.00  0.00    -0.061 A 
ATOM     37  H   LIG d   1       6.478  -0.993 -10.913  0.00  0.00     0.062 H 
ATOM     38  C   LIG d   1       6.348   1.409  -8.547  0.00  0.00    -0.059 A 
ATOM     39  H   LIG d   1       5.293   1.100 -10.379  0.00  0.00     0.062 H 
ATOM     40  H   LIG d   1       5.826   2.323  -8.311  0.00  0.00     0.062 H 
ENDBRANCH  27  30
ENDBRANCH   1  27
BRANCH   1  41
ATOM     41  N   LIG d   1       7.861  -0.016  -4.675  0.00  0.00    -0.288 N 
ATOM     42  C   LIG d   1       6.881   0.499  -3.907  0.00  0.00     0.303 C 
ATOM     43  O   LIG d   1       6.689   1.700  -3.891  0.00  0.00    -0.253 OA
ATOM     44  N   LIG d   1       6.119  -0.315  -3.150  0.00  0.00    -0.285 N 
ATOM     45  C   LIG d   1       4.980   0.217  -2.385  0.00  0.00     0.024 C 
ATOM     46  C   LIG d   1       6.403  -1.754  -3.077  0.00  0.00     0.021 C 
ATOM     47  C   LIG d   1       3.735  -0.586  -2.799  0.00  0.00     0.016 C 
ATOM     48  H   LIG d   1       5.162   0.095  -1.318  0.00  0.00     0.047 H 
ATOM     49  H   LIG d   1       4.838   1.272  -2.619  0.00  0.00     0.047 H 
ATOM     50  C   LIG d   1       3.983  -2.061  -2.475  0.00  0.00    -0.037 C 
ATOM     51  H   LIG d   1       2.857  -0.215  -2.269  0.00  0.00     0.038 H 
ATOM     52  C   LIG d   1       3.551  -0.415  -4.289  0.00  0.00     0.027 C 
ATOM     53  C   LIG d   1       5.142  -2.557  -3.340  0.00  0.00    -0.006 C 
ATOM     54  H   LIG d   1       4.239  -2.167  -1.421  0.00  0.00     0.028 H 
ATOM     55  H   LIG d   1       3.086  -2.640  -2.695  0.00  0.00     0.028 H 
ATOM     56  H   LIG d   1       5.347  -3.592  -3.069  0.00  0.00     0.033 H 
ATOM     57  C   LIG d   1       4.745  -2.523  -4.804  0.00  0.00     0.031 C 
ATOM     58  N   LIG d   1       4.115  -1.259  -5.184  0.00  0.00    -0.312 N 
ATOM     59  H   LIG d   1       4.047  -3.338  -5.000  0.00  0.00     0.050 H 
ATOM     60  H   LIG d   1       5.636  -2.670  -5.415  0.00  0.00     0.050 H 
ATOM     61  C   LIG d   1       4.059  -0.974  -6.509  0.00  0.00     0.252 C 
ATOM     62  C   LIG d   1       3.278   0.091  -6.978  0.00  0.00     0.003 C 
ATOM     63  O   LIG d   1       4.694  -1.652  -7.300  0.00  0.00    -0.268 OA
ATOM     64  C   LIG d   1       2.632   0.887  -6.077  0.00  0.00    -0.055 C 
ATOM     65  H   LIG d   1       3.188   0.279  -8.038  0.00  0.00     0.067 H 
ATOM     66  C   LIG d   1       2.789   0.629  -4.711  0.00  0.00    -0.042 C 
ATOM     67  H   LIG d   1       2.009   1.703  -6.414  0.00  0.00     0.062 H 
ATOM     68  H   LIG d   1       2.301   1.264  -3.987  0.00  0.00     0.064 H 
ATOM     69  H   LIG d   1       7.156  -2.012  -3.822  0.00  0.00     0.047 H 
ATOM     70  H   LIG d   1       6.782  -1.997  -2.084  0.00  0.00     0.047 H 
ATOM     71  H   LIG d   1       8.065  -0.963  -4.630  0.00  0.00     0.151 HD
ENDBRANCH   1  41
TORSDOF 8
ENDMDL
MODEL 7
REMARK VINA RESULT:      -7.0      3.074      6.383
REMARK  8 active torsions:
REMARK  status: ('A' for Active; 'I' for Inactive)
REMARK    1  A    between atoms: C_1  and  C_2 
REMARK    2  A    between atoms: C_2  and  C_3 
REMARK    3  A    between atoms: C_2  and  C_4 
REMARK    4  A    between atoms: C_7  and  N_10 
REMARK       I    between atoms: N_10  and  C_11 
REMARK    5  A    between atoms: C_11  and  C_13 
REMARK    6  A    between atoms: C_13  and  C_15 
REMARK    7  A    between atoms: C_13  and  N_22 
REMARK    8  A    between atoms: C_15  and  C_16 
REMARK       I    between atoms: N_22  and  C_23 
REMARK       I    between atoms: C_23  and  N_25 
ROOT
ATOM      1  C   LIG d   1       9.586   0.298  -4.708  0.00  0.00     0.105 C 
ATOM      2  H   LIG d   1       9.684  -0.387  -3.865  0.00  0.00     0.060 H 
ENDROOT
BRANCH   1   3
ATOM      3  C   LIG d   1       9.335   1.692  -4.194  0.00  0.00     0.238 C 
ATOM      4  N   LIG d   1      10.257   2.657  -4.385  0.00  0.00    -0.284 N 
ATOM      5  H   LIG d   1      11.045   2.476  -4.921  0.00  0.00     0.155 HD
ATOM      6  O   LIG d   1       8.303   1.947  -3.610  0.00  0.00    -0.273 OA
BRANCH   4   7
ATOM      7  C   LIG d   1      10.077   3.920  -3.809  0.00  0.00     0.034 A 
ATOM      8  C   LIG d   1      10.472   4.149  -2.497  0.00  0.00    -0.040 A 
ATOM      9  C   LIG d   1      10.293   5.397  -1.932  0.00  0.00    -0.057 A 
ATOM     10  H   LIG d   1      10.916   3.352  -1.919  0.00  0.00     0.064 H 
ATOM     11  C   LIG d   1       9.723   6.417  -2.672  0.00  0.00    -0.045 A 
ATOM     12  H   LIG d   1      10.599   5.575  -0.913  0.00  0.00     0.062 H 
ATOM     13  C   LIG d   1       9.330   6.191  -3.978  0.00  0.00    -0.057 A 
ATOM     14  C   LIG d   1       9.510   4.948  -4.551  0.00  0.00    -0.040 A 
ATOM     15  H   LIG d   1       8.885   6.991  -4.553  0.00  0.00     0.062 H 
ATOM     16  H   LIG d   1       9.207   4.774  -5.572  0.00  0.00     0.064 H 
BRANCH  11  17
ATOM     17  C   LIG d   1       9.529   7.777  -2.052  0.00  0.00    -0.021 C 
ATOM     18  H   LIG d   1       8.468   8.026  -2.047  0.00  0.00     0.034 H 
BRANCH  17  19
ATOM     19  C   LIG d   1      10.058   7.764  -0.617  0.00  0.00    -0.059 C 
ATOM     20  H   LIG d   1      10.142   8.788  -0.251  0.00  0.00     0.024 H 
ATOM     21  H   LIG d   1       9.368   7.208   0.019  0.00  0.00     0.024 H 
ATOM     22  H   LIG d   1      11.037   7.288  -0.594  0.00  0.00     0.024 H 
ENDBRANCH  17  19
BRANCH  17  23
ATOM     23  C   LIG d   1      10.293   8.822  -2.868  0.00  0.00    -0.059 C 
ATOM     24  H   LIG d   1       9.950   9.819  -2.593  0.00  0.00     0.024 H 
ATOM     25  H   LIG d   1      11.359   8.735  -2.663  0.00  0.00     0.024 H 
ATOM     26  H   LIG d   1      10.112   8.657  -3.930  0.00  0.00     0.024 H 
ENDBRANCH  17  23
ENDBRANCH  11  17
ENDBRANCH   4   7
ENDBRANCH   1   3
BRANCH   1  27
ATOM     27  C   LIG d   1      10.876   0.282  -5.529  0.00  0.00    -0.001 C 
ATOM     28  H   LIG d   1      10.686  -0.188  -6.494  0.00  0.00     0.034 H 
ATOM     29  H   LIG d   1      11.221   1.304  -5.685  0.00  0.00     0.034 H 
BRANCH  27  30
ATOM     30  C   LIG d   1      11.933  -0.499  -4.792  0.00  0.00    -0.045 A 
ATOM     31  C   LIG d   1      12.982   0.162  -4.182  0.00  0.00    -0.059 A 
ATOM     32  C   LIG d   1      13.952  -0.555  -3.505  0.00  0.00    -0.061 A 
ATOM     33  H   LIG d   1      13.046   1.239  -4.235  0.00  0.00     0.062 H 
ATOM     34  C   LIG d   1      13.870  -1.933  -3.438  0.00  0.00    -0.062 A 
ATOM     35  H   LIG d   1      14.771  -0.038  -3.029  0.00  0.00     0.062 H 
ATOM     36  C   LIG d   1      12.820  -2.594  -4.047  0.00  0.00    -0.061 A 
ATOM     37  H   LIG d   1      14.628  -2.493  -2.909  0.00  0.00     0.062 H 
ATOM     38  C   LIG d   1      11.849  -1.878  -4.720  0.00  0.00    -0.059 A 
ATOM     39  H   LIG d   1      12.757  -3.671  -3.994  0.00  0.00     0.062 H 
ATOM     40  H   LIG d   1      11.026  -2.393  -5.191  0.00  0.00     0.062 H 
ENDBRANCH  27  30
ENDBRANCH   1  27
BRANCH   1  41
ATOM     41  N   LIG d   1       8.463  -0.122  -5.550  0.00  0.00    -0.288 N 
ATOM     42  C   LIG d   1       7.913  -1.340  -5.381  0.00  0.00     0.303 C 
ATOM     43  O   LIG d   1       8.406  -2.127  -4.597  0.00  0.00    -0.253 OA
ATOM     44  N   LIG d   1       6.819  -1.689  -6.087  0.00  0.00    -0.285 N 
ATOM     45  C   LIG d   1       6.144  -2.974  -5.842  0.00  0.00     0.024 C 
ATOM     46  C   LIG d   1       6.271  -0.793  -7.112  0.00  0.00     0.021 C 
ATOM     47  C   LIG d   1       4.668  -2.665  -5.536  0.00  0.00     0.016 C 
ATOM     48  H   LIG d   1       6.214  -3.604  -6.728  0.00  0.00     0.047 H 
ATOM     49  H   LIG d   1       6.603  -3.477  -4.991  0.00  0.00     0.047 H 
ATOM     50  C   LIG d   1       4.066  -1.941  -6.742  0.00  0.00    -0.037 C 
ATOM     51  H   LIG d   1       4.127  -3.589  -5.329  0.00  0.00     0.038 H 
ATOM     52  C   LIG d   1       4.629  -1.760  -4.327  0.00  0.00     0.027 C 
ATOM     53  C   LIG d   1       4.779  -0.598  -6.905  0.00  0.00    -0.006 C 
ATOM     54  H   LIG d   1       4.208  -2.543  -7.640  0.00  0.00     0.028 H 
ATOM     55  H   LIG d   1       3.002  -1.775  -6.576  0.00  0.00     0.028 H 
ATOM     56  H   LIG d   1       4.383  -0.110  -7.795  0.00  0.00     0.033 H 
ATOM     57  C   LIG d   1       4.486   0.290  -5.709  0.00  0.00     0.031 C 
ATOM     58  N   LIG d   1       4.654  -0.411  -4.437  0.00  0.00    -0.312 N 
ATOM     59  H   LIG d   1       3.460   0.651  -5.782  0.00  0.00     0.050 H 
ATOM     60  H   LIG d   1       5.161   1.146  -5.732  0.00  0.00     0.050 H 
ATOM     61  C   LIG d   1       4.781   0.355  -3.325  0.00  0.00     0.252 C 
ATOM     62  C   LIG d   1       4.714  -0.221  -2.049  0.00  0.00     0.003 C 
ATOM     63  O   LIG d   1       4.955   1.558  -3.437  0.00  0.00    -0.268 OA
ATOM     64  C   LIG d   1       4.594  -1.576  -1.938  0.00  0.00    -0.055 C 
ATOM     65  H   LIG d   1       4.757   0.399  -1.166  0.00  0.00     0.067 H 
ATOM     66  C   LIG d   1       4.566  -2.350  -3.103  0.00  0.00    -0.042 C 
ATOM     67  H   LIG d   1       4.522  -2.042  -0.966  0.00  0.00     0.062 H 
ATOM     68  H   LIG d   1       4.493  -3.425  -3.030  0.00  0.00     0.064 H 
ATOM     69  H   LIG d   1       6.771   0.174  -7.053  0.00  0.00     0.047 H 
ATOM     70  H   LIG d   1       6.441  -1.225  -8.098  0.00  0.00     0.047 H 
ATOM     71  H   LIG d   1       8.117   0.477  -6.230  0.00  0.00     0.151 HD
ENDBRANCH   1  41
TORSDOF 8
ENDMDL
MODEL 8
REMARK VINA RESULT:      -6.6      4.354      8.135
REMARK  8 active torsions:
REMARK  status: ('A' for Active; 'I' for Inactive)
REMARK    1  A    between atoms: C_1  and  C_2 
REMARK    2  A    between atoms: C_2  and  C_3 
REMARK    3  A    between atoms: C_2  and  C_4 
REMARK    4  A    between atoms: C_7  and  N_10 
REMARK       I    between atoms: N_10  and  C_11 
REMARK    5  A    between atoms: C_11  and  C_13 
REMARK    6  A    between atoms: C_13  and  C_15 
REMARK    7  A    between atoms: C_13  and  N_22 
REMARK    8  A    between atoms: C_15  and  C_16 
REMARK       I    between atoms: N_22  and  C_23 
REMARK       I    between atoms: C_23  and  N_25 
ROOT
ATOM      1  C   LIG d   1       5.222  -5.148  -6.320  0.00  0.00     0.105 C 
ATOM      2  H   LIG d   1       6.291  -5.357  -6.368  0.00  0.00     0.060 H 
ENDROOT
BRANCH   1   3
ATOM      3  C   LIG d   1       4.770  -4.539  -7.622  0.00  0.00     0.238 C 
ATOM      4  N   LIG d   1       3.482  -4.648  -8.005  0.00  0.00    -0.284 N 
ATOM      5  H   LIG d   1       2.831  -5.047  -7.408  0.00  0.00     0.155 HD
ATOM      6  O   LIG d   1       5.564  -3.950  -8.325  0.00  0.00    -0.273 OA
BRANCH   4   7
ATOM      7  C   LIG d   1       3.086  -4.185  -9.265  0.00  0.00     0.034 A 
ATOM      8  C   LIG d   1       3.018  -5.064 -10.339  0.00  0.00    -0.040 A 
ATOM      9  C   LIG d   1       2.626  -4.604 -11.581  0.00  0.00    -0.057 A 
ATOM     10  H   LIG d   1       3.271  -6.104 -10.203  0.00  0.00     0.064 H 
ATOM     11  C   LIG d   1       2.302  -3.270 -11.756  0.00  0.00    -0.045 A 
ATOM     12  H   LIG d   1       2.573  -5.285 -12.416  0.00  0.00     0.062 H 
ATOM     13  C   LIG d   1       2.369  -2.394 -10.688  0.00  0.00    -0.057 A 
ATOM     14  C   LIG d   1       2.755  -2.848  -9.442  0.00  0.00    -0.040 A 
ATOM     15  H   LIG d   1       2.115  -1.353 -10.828  0.00  0.00     0.062 H 
ATOM     16  H   LIG d   1       2.803  -2.164  -8.609  0.00  0.00     0.064 H 
BRANCH  11  17
ATOM     17  C   LIG d   1       1.875  -2.772 -13.112  0.00  0.00    -0.021 C 
ATOM     18  H   LIG d   1       1.929  -3.588 -13.833  0.00  0.00     0.034 H 
BRANCH  17  19
ATOM     19  C   LIG d   1       0.438  -2.252 -13.036  0.00  0.00    -0.059 C 
ATOM     20  H   LIG d   1       0.397  -1.392 -12.367  0.00  0.00     0.024 H 
ATOM     21  H   LIG d   1       0.107  -1.954 -14.031  0.00  0.00     0.024 H 
ATOM     22  H   LIG d   1      -0.213  -3.039 -12.656  0.00  0.00     0.024 H 
ENDBRANCH  17  19
BRANCH  17  23
ATOM     23  C   LIG d   1       2.804  -1.640 -13.555  0.00  0.00    -0.059 C 
ATOM     24  H   LIG d   1       2.970  -1.704 -14.630  0.00  0.00     0.024 H 
ATOM     25  H   LIG d   1       2.348  -0.680 -13.314  0.00  0.00     0.024 H 
ATOM     26  H   LIG d   1       3.758  -1.729 -13.035  0.00  0.00     0.024 H 
ENDBRANCH  17  23
ENDBRANCH  11  17
ENDBRANCH   4   7
ENDBRANCH   1   3
BRANCH   1  27
ATOM     27  C   LIG d   1       4.459  -6.450  -6.074  0.00  0.00    -0.001 C 
ATOM     28  H   LIG d   1       3.613  -6.256  -5.414  0.00  0.00     0.034 H 
ATOM     29  H   LIG d   1       4.096  -6.845  -7.023  0.00  0.00     0.034 H 
BRANCH  27  30
ATOM     30  C   LIG d   1       5.377  -7.456  -5.429  0.00  0.00    -0.045 A 
ATOM     31  C   LIG d   1       4.859  -8.617  -4.885  0.00  0.00    -0.059 A 
ATOM     32  C   LIG d   1       5.701  -9.540  -4.293  0.00  0.00    -0.061 A 
ATOM     33  H   LIG d   1       3.796  -8.802  -4.922  0.00  0.00     0.062 H 
ATOM     34  C   LIG d   1       7.062  -9.301  -4.246  0.00  0.00    -0.062 A 
ATOM     35  H   LIG d   1       5.296 -10.446  -3.868  0.00  0.00     0.062 H 
ATOM     36  C   LIG d   1       7.581  -8.142  -4.790  0.00  0.00    -0.061 A 
ATOM     37  H   LIG d   1       7.721 -10.023  -3.783  0.00  0.00     0.062 H 
ATOM     38  C   LIG d   1       6.739  -7.221  -5.386  0.00  0.00    -0.059 A 
ATOM     39  H   LIG d   1       8.644  -7.956  -4.754  0.00  0.00     0.062 H 
ATOM     40  H   LIG d   1       7.144  -6.317  -5.815  0.00  0.00     0.062 H 
ENDBRANCH  27  30
ENDBRANCH   1  27
BRANCH   1  41
ATOM     41  N   LIG d   1       4.958  -4.211  -5.225  0.00  0.00    -0.288 N 
ATOM     42  C   LIG d   1       5.973  -3.521  -4.668  0.00  0.00     0.303 C 
ATOM     43  O   LIG d   1       7.119  -3.744  -5.008  0.00  0.00    -0.253 OA
ATOM     44  N   LIG d   1       5.719  -2.588  -3.729  0.00  0.00    -0.285 N 
ATOM     45  C   LIG d   1       6.802  -1.753  -3.185  0.00  0.00     0.024 C 
ATOM     46  C   LIG d   1       4.354  -2.376  -3.233  0.00  0.00     0.021 C 
ATOM     47  C   LIG d   1       6.393  -0.284  -3.383  0.00  0.00     0.016 C 
ATOM     48  H   LIG d   1       6.933  -1.962  -2.124  0.00  0.00     0.047 H 
ATOM     49  H   LIG d   1       7.730  -1.957  -3.720  0.00  0.00     0.047 H 
ATOM     50  C   LIG d   1       5.078  -0.045  -2.637  0.00  0.00    -0.037 C 
ATOM     51  H   LIG d   1       7.176   0.376  -3.009  0.00  0.00     0.038 H 
ATOM     52  C   LIG d   1       6.188  -0.059  -4.862  0.00  0.00     0.027 C 
ATOM     53  C   LIG d   1       3.992  -0.903  -3.286  0.00  0.00    -0.006 C 
ATOM     54  H   LIG d   1       5.194  -0.329  -1.590  0.00  0.00     0.028 H 
ATOM     55  H   LIG d   1       4.805   1.008  -2.704  0.00  0.00     0.028 H 
ATOM     56  H   LIG d   1       3.071  -0.768  -2.719  0.00  0.00     0.033 H 
ATOM     57  C   LIG d   1       3.744  -0.433  -4.708  0.00  0.00     0.031 C 
ATOM     58  N   LIG d   1       4.985  -0.238  -5.457  0.00  0.00    -0.312 N 
ATOM     59  H   LIG d   1       3.198   0.510  -4.677  0.00  0.00     0.050 H 
ATOM     60  H   LIG d   1       3.134  -1.175  -5.223  0.00  0.00     0.050 H 
ATOM     61  C   LIG d   1       4.885  -0.183  -6.808  0.00  0.00     0.252 C 
ATOM     62  C   LIG d   1       5.974   0.228  -7.589  0.00  0.00     0.003 C 
ATOM     63  O   LIG d   1       3.836  -0.493  -7.350  0.00  0.00    -0.268 OA
ATOM     64  C   LIG d   1       7.163   0.500  -6.978  0.00  0.00    -0.055 C 
ATOM     65  H   LIG d   1       5.874   0.328  -8.660  0.00  0.00     0.067 H 
ATOM     66  C   LIG d   1       7.264   0.338  -5.592  0.00  0.00    -0.042 C 
ATOM     67  H   LIG d   1       8.012   0.836  -7.555  0.00  0.00     0.062 H 
ATOM     68  H   LIG d   1       8.206   0.529  -5.098  0.00  0.00     0.064 H 
ATOM     69  H   LIG d   1       3.654  -2.941  -3.848  0.00  0.00     0.047 H 
ATOM     70  H   LIG d   1       4.287  -2.724  -2.202  0.00  0.00     0.047 H 
ATOM     71  H   LIG d   1       4.052  -4.088  -4.900  0.00  0.00     0.151 HD
ENDBRANCH   1  41
TORSDOF 8
ENDMDL
MODEL 9
REMARK VINA RESULT:      -6.6      3.464      6.416
REMARK  8 active torsions:
REMARK  status: ('A' for Active; 'I' for Inactive)
REMARK    1  A    between atoms: C_1  and  C_2 
REMARK    2  A    between atoms: C_2  and  C_3 
REMARK    3  A    between atoms: C_2  and  C_4 
REMARK    4  A    between atoms: C_7  and  N_10 
REMARK       I    between atoms: N_10  and  C_11 
REMARK    5  A    between atoms: C_11  and  C_13 
REMARK    6  A    between atoms: C_13  and  C_15 
REMARK    7  A    between atoms: C_13  and  N_22 
REMARK    8  A    between atoms: C_15  and  C_16 
REMARK       I    between atoms: N_22  and  C_23 
REMARK       I    between atoms: C_23  and  N_25 
ROOT
ATOM      1  C   LIG d   1      10.233  -1.609  -5.205  0.00  0.00     0.105 C 
ATOM      2  H   LIG d   1      10.113  -2.138  -4.259  0.00  0.00     0.060 H 
ENDROOT
BRANCH   1   3
ATOM      3  C   LIG d   1      10.429  -0.139  -4.937  0.00  0.00     0.238 C 
ATOM      4  N   LIG d   1       9.387   0.618  -4.540  0.00  0.00    -0.284 N 
ATOM      5  H   LIG d   1       8.531   0.204  -4.349  0.00  0.00     0.155 HD
ATOM      6  O   LIG d   1      11.524   0.363  -5.078  0.00  0.00    -0.273 OA
BRANCH   4   7
ATOM      7  C   LIG d   1       9.540   2.003  -4.404  0.00  0.00     0.034 A 
ATOM      8  C   LIG d   1       9.335   2.836  -5.495  0.00  0.00    -0.040 A 
ATOM      9  C   LIG d   1       9.487   4.203  -5.357  0.00  0.00    -0.057 A 
ATOM     10  H   LIG d   1       9.059   2.418  -6.451  0.00  0.00     0.064 H 
ATOM     11  C   LIG d   1       9.842   4.740  -4.133  0.00  0.00    -0.045 A 
ATOM     12  H   LIG d   1       9.329   4.851  -6.204  0.00  0.00     0.062 H 
ATOM     13  C   LIG d   1      10.047   3.911  -3.044  0.00  0.00    -0.057 A 
ATOM     14  C   LIG d   1       9.892   2.545  -3.174  0.00  0.00    -0.040 A 
ATOM     15  H   LIG d   1      10.325   4.334  -2.089  0.00  0.00     0.062 H 
ATOM     16  H   LIG d   1      10.047   1.900  -2.323  0.00  0.00     0.064 H 
BRANCH  11  17
ATOM     17  C   LIG d   1      10.008   6.230  -3.985  0.00  0.00    -0.021 C 
ATOM     18  H   LIG d   1      11.058   6.494  -4.114  0.00  0.00     0.034 H 
BRANCH  17  19
ATOM     19  C   LIG d   1       9.168   6.944  -5.045  0.00  0.00    -0.059 C 
ATOM     20  H   LIG d   1       9.529   6.673  -6.038  0.00  0.00     0.024 H 
ATOM     21  H   LIG d   1       8.124   6.645  -4.944  0.00  0.00     0.024 H 
ATOM     22  H   LIG d   1       9.252   8.022  -4.910  0.00  0.00     0.024 H 
ENDBRANCH  17  19
BRANCH  17  23
ATOM     23  C   LIG d   1       9.543   6.659  -2.592  0.00  0.00    -0.059 C 
ATOM     24  H   LIG d   1       8.615   6.145  -2.343  0.00  0.00     0.024 H 
ATOM     25  H   LIG d   1      10.308   6.405  -1.859  0.00  0.00     0.024 H 
ATOM     26  H   LIG d   1       9.374   7.736  -2.581  0.00  0.00     0.024 H 
ENDBRANCH  17  23
ENDBRANCH  11  17
ENDBRANCH   4   7
ENDBRANCH   1   3
BRANCH   1  27
ATOM     27  C   LIG d   1      11.453  -2.159  -5.946  0.00  0.00    -0.001 C 
ATOM     28  H   LIG d   1      11.127  -2.664  -6.856  0.00  0.00     0.034 H 
ATOM     29  H   LIG d   1      12.122  -1.339  -6.205  0.00  0.00     0.034 H 
BRANCH  27  30
ATOM     30  C   LIG d   1      12.178  -3.140  -5.061  0.00  0.00    -0.045 A 
ATOM     31  C   LIG d   1      11.813  -4.473  -5.062  0.00  0.00    -0.059 A 
ATOM     32  C   LIG d   1      12.479  -5.373  -4.250  0.00  0.00    -0.061 A 
ATOM     33  H   LIG d   1      11.008  -4.813  -5.697  0.00  0.00     0.062 H 
ATOM     34  C   LIG d   1      13.509  -4.938  -3.437  0.00  0.00    -0.062 A 
ATOM     35  H   LIG d   1      12.194  -6.414  -4.251  0.00  0.00     0.062 H 
ATOM     36  C   LIG d   1      13.875  -3.605  -3.437  0.00  0.00    -0.061 A 
ATOM     37  H   LIG d   1      14.030  -5.642  -2.803  0.00  0.00     0.062 H 
ATOM     38  C   LIG d   1      13.212  -2.707  -4.252  0.00  0.00    -0.059 A 
ATOM     39  H   LIG d   1      14.680  -3.266  -2.802  0.00  0.00     0.062 H 
ATOM     40  H   LIG d   1      13.500  -1.667  -4.255  0.00  0.00     0.062 H 
ENDBRANCH  27  30
ENDBRANCH   1  27
BRANCH   1  41
ATOM     41  N   LIG d   1       9.034  -1.799  -6.026  0.00  0.00    -0.288 N 
ATOM     42  C   LIG d   1       8.156  -2.775  -5.720  0.00  0.00     0.303 C 
ATOM     43  O   LIG d   1       8.404  -3.557  -4.822  0.00  0.00    -0.253 OA
ATOM     44  N   LIG d   1       7.006  -2.888  -6.413  0.00  0.00    -0.285 N 
ATOM     45  C   LIG d   1       5.990  -3.881  -6.027  0.00  0.00     0.024 C 
ATOM     46  C   LIG d   1       6.736  -2.019  -7.565  0.00  0.00     0.021 C 
ATOM     47  C   LIG d   1       4.667  -3.125  -5.817  0.00  0.00     0.016 C 
ATOM     48  H   LIG d   1       5.873  -4.618  -6.821  0.00  0.00     0.047 H 
ATOM     49  H   LIG d   1       6.288  -4.375  -5.103  0.00  0.00     0.047 H 
ATOM     50  C   LIG d   1       4.296  -2.428  -7.128  0.00  0.00    -0.037 C 
ATOM     51  H   LIG d   1       3.884  -3.818  -5.512  0.00  0.00     0.038 H 
ATOM     52  C   LIG d   1       4.894  -2.092  -4.738  0.00  0.00     0.027 C 
ATOM     53  C   LIG d   1       5.365  -1.380  -7.438  0.00  0.00    -0.006 C 
ATOM     54  H   LIG d   1       4.255  -3.161  -7.934  0.00  0.00     0.028 H 
ATOM     55  H   LIG d   1       3.325  -1.944  -7.024  0.00  0.00     0.028 H 
ATOM     56  H   LIG d   1       5.123  -0.924  -8.397  0.00  0.00     0.033 H 
ATOM     57  C   LIG d   1       5.344  -0.293  -6.379  0.00  0.00     0.031 C 
ATOM     58  N   LIG d   1       5.306  -0.834  -5.021  0.00  0.00    -0.312 N 
ATOM     59  H   LIG d   1       4.465   0.334  -6.535  0.00  0.00     0.050 H 
ATOM     60  H   LIG d   1       6.237   0.323  -6.489  0.00  0.00     0.050 H 
ATOM     61  C   LIG d   1       5.652   0.006  -4.015  0.00  0.00     0.252 C 
ATOM     62  C   LIG d   1       5.427  -0.349  -2.678  0.00  0.00     0.003 C 
ATOM     63  O   LIG d   1       6.166   1.082  -4.276  0.00  0.00    -0.268 OA
ATOM     64  C   LIG d   1       4.921  -1.585  -2.396  0.00  0.00    -0.055 C 
ATOM     65  H   LIG d   1       5.649   0.345  -1.882  0.00  0.00     0.067 H 
ATOM     66  C   LIG d   1       4.668  -2.469  -3.451  0.00  0.00    -0.042 C 
ATOM     67  H   LIG d   1       4.721  -1.876  -1.376  0.00  0.00     0.062 H 
ATOM     68  H   LIG d   1       4.288  -3.458  -3.242  0.00  0.00     0.064 H 
ATOM     69  H   LIG d   1       7.494  -1.238  -7.613  0.00  0.00     0.047 H 
ATOM     70  H   LIG d   1       6.772  -2.611  -8.480  0.00  0.00     0.047 H 
ATOM     71  H   LIG d   1       8.873  -1.224  -6.789  0.00  0.00     0.151 HD
ENDBRANCH   1  41
TORSDOF 8
ENDMDL
MODEL 10
REMARK VINA RESULT:      -6.5      2.728      6.400
REMARK  8 active torsions:
REMARK  status: ('A' for Active; 'I' for Inactive)
REMARK    1  A    between atoms: C_1  and  C_2 
REMARK    2  A    between atoms: C_2  and  C_3 
REMARK    3  A    between atoms: C_2  and  C_4 
REMARK    4  A    between atoms: C_7  and  N_10 
REMARK       I    between atoms: N_10  and  C_11 
REMARK    5  A    between atoms: C_11  and  C_13 
REMARK    6  A    between atoms: C_13  and  C_15 
REMARK    7  A    between atoms: C_13  and  N_22 
REMARK    8  A    between atoms: C_15  and  C_16 
REMARK       I    between atoms: N_22  and  C_23 
REMARK       I    between atoms: C_23  and  N_25 
ROOT
ATOM      1  C   LIG d   1       3.788  -0.845  -7.876  0.00  0.00     0.105 C 
ATOM      2  H   LIG d   1       3.640  -1.913  -8.033  0.00  0.00     0.060 H 
ENDROOT
BRANCH   1   3
ATOM      3  C   LIG d   1       5.198  -0.472  -8.253  0.00  0.00     0.238 C 
ATOM      4  N   LIG d   1       5.435   0.669  -8.931  0.00  0.00    -0.284 N 
ATOM      5  H   LIG d   1       4.710   1.290  -9.104  0.00  0.00     0.155 HD
ATOM      6  O   LIG d   1       6.121  -1.198  -7.948  0.00  0.00    -0.273 OA
BRANCH   4   7
ATOM      7  C   LIG d   1       6.728   0.959  -9.383  0.00  0.00     0.034 A 
ATOM      8  C   LIG d   1       7.332   0.144 -10.331  0.00  0.00    -0.040 A 
ATOM      9  C   LIG d   1       8.608   0.434 -10.775  0.00  0.00    -0.057 A 
ATOM     10  H   LIG d   1       6.806  -0.714 -10.720  0.00  0.00     0.064 H 
ATOM     11  C   LIG d   1       9.282   1.533 -10.277  0.00  0.00    -0.045 A 
ATOM     12  H   LIG d   1       9.078  -0.199 -11.512  0.00  0.00     0.062 H 
ATOM     13  C   LIG d   1       8.682   2.346  -9.333  0.00  0.00    -0.057 A 
ATOM     14  C   LIG d   1       7.405   2.066  -8.888  0.00  0.00    -0.040 A 
ATOM     15  H   LIG d   1       9.212   3.205  -8.945  0.00  0.00     0.062 H 
ATOM     16  H   LIG d   1       6.936   2.704  -8.154  0.00  0.00     0.064 H 
BRANCH  11  17
ATOM     17  C   LIG d   1      10.674   1.846 -10.763  0.00  0.00    -0.021 C 
ATOM     18  H   LIG d   1      10.930   2.872 -10.496  0.00  0.00     0.034 H 
BRANCH  17  19
ATOM     19  C   LIG d   1      11.670   0.885 -10.111  0.00  0.00    -0.059 C 
ATOM     20  H   LIG d   1      11.834   1.180  -9.074  0.00  0.00     0.024 H 
ATOM     21  H   LIG d   1      11.269  -0.128 -10.141  0.00  0.00     0.024 H 
ATOM     22  H   LIG d   1      12.615   0.919 -10.653  0.00  0.00     0.024 H 
ENDBRANCH  17  19
BRANCH  17  23
ATOM     23  C   LIG d   1      10.731   1.686 -12.283  0.00  0.00    -0.059 C 
ATOM     24  H   LIG d   1       9.850   1.143 -12.626  0.00  0.00     0.024 H 
ATOM     25  H   LIG d   1      10.757   2.670 -12.751  0.00  0.00     0.024 H 
ATOM     26  H   LIG d   1      11.628   1.131 -12.557  0.00  0.00     0.024 H 
ENDBRANCH  17  23
ENDBRANCH  11  17
ENDBRANCH   4   7
ENDBRANCH   1   3
BRANCH   1  27
ATOM     27  C   LIG d   1       2.803  -0.060  -8.744  0.00  0.00    -0.001 C 
ATOM     28  H   LIG d   1       1.952   0.251  -8.137  0.00  0.00     0.034 H 
ATOM     29  H   LIG d   1       3.299   0.821  -9.152  0.00  0.00     0.034 H 
BRANCH  27  30
ATOM     30  C   LIG d   1       2.321  -0.934  -9.873  0.00  0.00    -0.045 A 
ATOM     31  C   LIG d   1       2.007  -2.259  -9.636  0.00  0.00    -0.059 A 
ATOM     32  C   LIG d   1       1.565  -3.060 -10.673  0.00  0.00    -0.061 A 
ATOM     33  H   LIG d   1       2.108  -2.669  -8.642  0.00  0.00     0.062 H 
ATOM     34  C   LIG d   1       1.436  -2.536 -11.945  0.00  0.00    -0.062 A 
ATOM     35  H   LIG d   1       1.320  -4.095 -10.488  0.00  0.00     0.062 H 
ATOM     36  C   LIG d   1       1.749  -1.210 -12.181  0.00  0.00    -0.061 A 
ATOM     37  H   LIG d   1       1.091  -3.162 -12.755  0.00  0.00     0.062 H 
ATOM     38  C   LIG d   1       2.187  -0.408 -11.145  0.00  0.00    -0.059 A 
ATOM     39  H   LIG d   1       1.648  -0.800 -13.175  0.00  0.00     0.062 H 
ATOM     40  H   LIG d   1       2.427   0.629 -11.328  0.00  0.00     0.062 H 
ENDBRANCH  27  30
ENDBRANCH   1  27
BRANCH   1  41
ATOM     41  N   LIG d   1       3.560  -0.524  -6.464  0.00  0.00    -0.288 N 
ATOM     42  C   LIG d   1       3.771  -1.460  -5.518  0.00  0.00     0.303 C 
ATOM     43  O   LIG d   1       4.059  -2.597  -5.840  0.00  0.00    -0.253 OA
ATOM     44  N   LIG d   1       3.657  -1.138  -4.214  0.00  0.00    -0.285 N 
ATOM     45  C   LIG d   1       3.984  -2.118  -3.166  0.00  0.00     0.024 C 
ATOM     46  C   LIG d   1       3.211   0.200  -3.809  0.00  0.00     0.021 C 
ATOM     47  C   LIG d   1       5.032  -1.472  -2.244  0.00  0.00     0.016 C 
ATOM     48  H   LIG d   1       3.089  -2.362  -2.595  0.00  0.00     0.047 H 
ATOM     49  H   LIG d   1       4.392  -3.022  -3.618  0.00  0.00     0.047 H 
ATOM     50  C   LIG d   1       4.429  -0.198  -1.647  0.00  0.00    -0.037 C 
ATOM     51  H   LIG d   1       5.320  -2.169  -1.458  0.00  0.00     0.038 H 
ATOM     52  C   LIG d   1       6.233  -1.119  -3.090  0.00  0.00     0.027 C 
ATOM     53  C   LIG d   1       4.164   0.789  -2.784  0.00  0.00    -0.006 C 
ATOM     54  H   LIG d   1       3.493  -0.437  -1.142  0.00  0.00     0.028 H 
ATOM     55  H   LIG d   1       5.129   0.240  -0.935  0.00  0.00     0.028 H 
ATOM     56  H   LIG d   1       3.687   1.673  -2.360  0.00  0.00     0.033 H 
ATOM     57  C   LIG d   1       5.477   1.217  -3.413  0.00  0.00     0.031 C 
ATOM     58  N   LIG d   1       6.356   0.084  -3.698  0.00  0.00    -0.312 N 
ATOM     59  H   LIG d   1       5.988   1.899  -2.734  0.00  0.00     0.050 H 
ATOM     60  H   LIG d   1       5.266   1.743  -4.345  0.00  0.00     0.050 H 
ATOM     61  C   LIG d   1       7.368   0.296  -4.576  0.00  0.00     0.252 C 
ATOM     62  C   LIG d   1       8.388  -0.651  -4.733  0.00  0.00     0.003 C 
ATOM     63  O   LIG d   1       7.390   1.324  -5.235  0.00  0.00    -0.268 OA
ATOM     64  C   LIG d   1       8.312  -1.828  -4.046  0.00  0.00    -0.055 C 
ATOM     65  H   LIG d   1       9.223  -0.453  -5.389  0.00  0.00     0.067 H 
ATOM     66  C   LIG d   1       7.204  -2.061  -3.224  0.00  0.00    -0.042 C 
ATOM     67  H   LIG d   1       9.095  -2.567  -4.136  0.00  0.00     0.062 H 
ATOM     68  H   LIG d   1       7.121  -2.997  -2.691  0.00  0.00     0.064 H 
ATOM     69  H   LIG d   1       3.176   0.850  -4.683  0.00  0.00     0.047 H 
ATOM     70  H   LIG d   1       2.214   0.131  -3.372  0.00  0.00     0.047 H 
ATOM     71  H   LIG d   1       3.256   0.361  -6.211  0.00  0.00     0.151 HD
ENDBRANCH   1  41
TORSDOF 8
ENDMDL
