MODEL 1
REMARK VINA RESULT:      -6.8      0.000      0.000
REMARK  7 active torsions:
REMARK  status: ('A' for Active; 'I' for Inactive)
REMARK    1  A    between atoms: C_1  and  C_2 
REMARK    2  A    between atoms: C_2  and  C_4 
REMARK    3  A    between atoms: C_2  and  O_28 
REMARK    4  A    between atoms: C_4  and  C_27 
REMARK    5  A    between atoms: C_17  and  C_26 
REMARK    6  A    between atoms: C_18  and  C_25 
REMARK    7  A    between atoms: C_21  and  O_24 
ROOT
ATOM      1  C   LIG d   1       4.321  -0.235  -3.434  0.00  0.00     0.015 C 
ATOM      2  C   LIG d   1       2.779  -0.183  -3.328  0.00  0.00    -0.038 C 
ATOM      3  C   LIG d   1       2.402   0.417  -4.701  0.00  0.00    -0.030 C 
ATOM      4  C   LIG d   1       3.548   0.038  -5.607  0.00  0.00    -0.066 C 
ATOM      5  C   LIG d   1       4.607  -0.318  -4.917  0.00  0.00    -0.062 C 
ATOM      6  C   LIG d   1       5.924  -0.739  -5.524  0.00  0.00    -0.031 C 
ATOM      7  C   LIG d   1       5.780  -0.961  -7.031  0.00  0.00    -0.045 C 
ATOM      8  C   LIG d   1       4.926   0.146  -7.644  0.00  0.00    -0.028 C 
ATOM      9  H   LIG d   1       5.337   1.109  -7.293  0.00  0.00     0.031 H 
ATOM     10  C   LIG d   1       3.502   0.038  -7.121  0.00  0.00    -0.016 C 
ATOM     11  H   LIG d   1       3.082  -0.930  -7.409  0.00  0.00     0.035 H 
ATOM     12  C   LIG d   1       2.613   1.162  -7.626  0.00  0.00    -0.046 C 
ATOM     13  C   LIG d   1       3.050   1.678  -8.998  0.00  0.00    -0.046 C 
ATOM     14  C   LIG d   1       3.679   0.546  -9.800  0.00  0.00    -0.024 C 
ATOM     15  C   LIG d   1       5.004   0.152  -9.157  0.00  0.00    -0.023 C 
ATOM     16  C   LIG d   1       5.491  -1.145  -9.783  0.00  0.00    -0.044 C 
ATOM     17  C   LIG d   1       5.713  -0.942 -11.279  0.00  0.00    -0.026 C 
ATOM     18  C   LIG d   1       4.613  -0.206 -12.013  0.00  0.00     0.056 C 
ATOM     19  H   LIG d   1       5.076   0.244 -12.922  0.00  0.00     0.059 H 
ATOM     20  C   LIG d   1       3.939   0.931 -11.256  0.00  0.00    -0.021 C 
ATOM     21  H   LIG d   1       2.361  -1.184  -3.212  0.00  0.00     0.028 H 
ATOM     22  H   LIG d   1       2.462   0.469  -2.514  0.00  0.00     0.028 H 
ATOM     23  H   LIG d   1       1.471  -0.020  -5.063  0.00  0.00     0.031 H 
ATOM     24  H   LIG d   1       2.309   1.500  -4.632  0.00  0.00     0.031 H 
ATOM     25  H   LIG d   1       6.670   0.042  -5.346  0.00  0.00     0.031 H 
ATOM     26  H   LIG d   1       6.270  -1.664  -5.060  0.00  0.00     0.031 H 
ATOM     27  H   LIG d   1       6.771  -0.957  -7.489  0.00  0.00     0.027 H 
ATOM     28  H   LIG d   1       5.306  -1.927  -7.211  0.00  0.00     0.027 H 
ATOM     29  H   LIG d   1       2.650   1.993  -6.910  0.00  0.00     0.027 H 
ATOM     30  H   LIG d   1       1.577   0.816  -7.677  0.00  0.00     0.027 H 
ATOM     31  H   LIG d   1       3.756   2.500  -8.879  0.00  0.00     0.027 H 
ATOM     32  H   LIG d   1       2.173   2.052  -9.540  0.00  0.00     0.027 H 
ATOM     33  H   LIG d   1       6.458  -1.411  -9.325  0.00  0.00     0.027 H 
ATOM     34  H   LIG d   1       4.812  -1.969  -9.596  0.00  0.00     0.027 H 
ATOM     35  H   LIG d   1       5.819  -1.944 -11.738  0.00  0.00     0.029 H 
ATOM     36  H   LIG d   1       6.672  -0.440 -11.448  0.00  0.00     0.029 H 
ATOM     37  H   LIG d   1       2.954   1.124 -11.726  0.00  0.00     0.029 H 
ATOM     38  H   LIG d   1       4.498   1.857 -11.338  0.00  0.00     0.029 H 
ENDROOT
BRANCH   1  39
ATOM     39  C   LIG d   1       4.855  -1.471  -2.709  0.00  0.00     0.061 C 
ATOM     40  H   LIG d   1       5.928  -1.558  -2.880  0.00  0.00     0.060 H 
BRANCH  39  41
ATOM     41  C   LIG d   1       4.151  -2.721  -3.245  0.00  0.00    -0.038 C 
ATOM     42  H   LIG d   1       3.281  -2.424  -3.830  0.00  0.00     0.025 H 
ATOM     43  H   LIG d   1       3.832  -3.344  -2.410  0.00  0.00     0.025 H 
ATOM     44  H   LIG d   1       4.839  -3.283  -3.876  0.00  0.00     0.025 H 
ENDBRANCH  39  41
BRANCH  39  45
ATOM     45  O   LIG d   1       4.604  -1.347  -1.308  0.00  0.00    -0.391 OA
ATOM     46  H   LIG d   1       4.177  -2.121  -0.915  0.00  0.00     0.210 HD
ENDBRANCH  39  45
ENDBRANCH   1  39
BRANCH   1  47
ATOM     47  C   LIG d   1       4.936   1.035  -2.841  0.00  0.00    -0.053 C 
ATOM     48  H   LIG d   1       5.927   1.191  -3.267  0.00  0.00     0.024 H 
ATOM     49  H   LIG d   1       4.301   1.890  -3.075  0.00  0.00     0.024 H 
ATOM     50  H   LIG d   1       5.018   0.928  -1.759  0.00  0.00     0.024 H 
ENDBRANCH   1  47
BRANCH  15  51
ATOM     51  C   LIG d   1       6.057   1.233  -9.499  0.00  0.00    -0.059 C 
ATOM     52  H   LIG d   1       6.014   2.030  -8.756  0.00  0.00     0.024 H 
ATOM     53  H   LIG d   1       7.051   0.786  -9.496  0.00  0.00     0.024 H 
ATOM     54  H   LIG d   1       5.847   1.645 -10.486  0.00  0.00     0.024 H 
ENDBRANCH  15  51
BRANCH  14  55
ATOM     55  C   LIG d   1       2.688  -0.627  -9.829  0.00  0.00    -0.059 C 
ATOM     56  H   LIG d   1       2.525  -0.989  -8.815  0.00  0.00     0.024 H 
ATOM     57  H   LIG d   1       1.741  -0.291 -10.252  0.00  0.00     0.024 H 
ATOM     58  H   LIG d   1       3.095  -1.431 -10.442  0.00  0.00     0.024 H 
ENDBRANCH  14  55
BRANCH  18  59
ATOM     59  O   LIG d   1       3.640  -1.137 -12.500  0.00  0.00    -0.392 OA
ATOM     60  H   LIG d   1       3.157  -0.830 -13.280  0.00  0.00     0.210 HD
ENDBRANCH  18  59
TORSDOF 7
ENDMDL
MODEL 2
REMARK VINA RESULT:      -6.3      1.553      3.036
REMARK  7 active torsions:
REMARK  status: ('A' for Active; 'I' for Inactive)
REMARK    1  A    between atoms: C_1  and  C_2 
REMARK    2  A    between atoms: C_2  and  C_4 
REMARK    3  A    between atoms: C_2  and  O_28 
REMARK    4  A    between atoms: C_4  and  C_27 
REMARK    5  A    between atoms: C_17  and  C_26 
REMARK    6  A    between atoms: C_18  and  C_25 
REMARK    7  A    between atoms: C_21  and  O_24 
ROOT
ATOM      1  C   LIG d   1       3.833  -0.367  -3.686  0.00  0.00     0.015 C 
ATOM      2  C   LIG d   1       5.024  -1.319  -3.429  0.00  0.00    -0.038 C 
ATOM      3  C   LIG d   1       4.971  -2.214  -4.688  0.00  0.00    -0.030 C 
ATOM      4  C   LIG d   1       4.301  -1.358  -5.734  0.00  0.00    -0.066 C 
ATOM      5  C   LIG d   1       3.670  -0.342  -5.190  0.00  0.00    -0.062 C 
ATOM      6  C   LIG d   1       2.887   0.694  -5.960  0.00  0.00    -0.031 C 
ATOM      7  C   LIG d   1       3.152   0.566  -7.463  0.00  0.00    -0.045 C 
ATOM      8  C   LIG d   1       3.161  -0.906  -7.869  0.00  0.00    -0.028 C 
ATOM      9  H   LIG d   1       2.247  -1.365  -7.456  0.00  0.00     0.031 H 
ATOM     10  C   LIG d   1       4.353  -1.602  -7.228  0.00  0.00    -0.016 C 
ATOM     11  H   LIG d   1       5.277  -1.134  -7.577  0.00  0.00     0.035 H 
ATOM     12  C   LIG d   1       4.379  -3.092  -7.522  0.00  0.00    -0.046 C 
ATOM     13  C   LIG d   1       3.732  -3.432  -8.865  0.00  0.00    -0.046 C 
ATOM     14  C   LIG d   1       3.929  -2.278  -9.841  0.00  0.00    -0.024 C 
ATOM     15  C   LIG d   1       3.111  -1.080  -9.372  0.00  0.00    -0.023 C 
ATOM     16  C   LIG d   1       3.519   0.143 -10.178  0.00  0.00    -0.044 C 
ATOM     17  C   LIG d   1       3.235  -0.098 -11.658  0.00  0.00    -0.026 C 
ATOM     18  C   LIG d   1       3.666  -1.443 -12.201  0.00  0.00     0.056 C 
ATOM     19  H   LIG d   1       3.035  -1.648 -13.096  0.00  0.00     0.059 H 
ATOM     20  C   LIG d   1       3.502  -2.633 -11.265  0.00  0.00    -0.021 C 
ATOM     21  H   LIG d   1       5.963  -0.767  -3.383  0.00  0.00     0.028 H 
ATOM     22  H   LIG d   1       4.871  -1.906  -2.524  0.00  0.00     0.028 H 
ATOM     23  H   LIG d   1       5.980  -2.482  -5.005  0.00  0.00     0.031 H 
ATOM     24  H   LIG d   1       4.386  -3.112  -4.494  0.00  0.00     0.031 H 
ATOM     25  H   LIG d   1       1.819   0.554  -5.771  0.00  0.00     0.031 H 
ATOM     26  H   LIG d   1       3.171   1.696  -5.634  0.00  0.00     0.031 H 
ATOM     27  H   LIG d   1       2.367   1.093  -8.009  0.00  0.00     0.027 H 
ATOM     28  H   LIG d   1       4.117   1.015  -7.700  0.00  0.00     0.027 H 
ATOM     29  H   LIG d   1       3.837  -3.620  -6.728  0.00  0.00     0.027 H 
ATOM     30  H   LIG d   1       5.412  -3.450  -7.511  0.00  0.00     0.027 H 
ATOM     31  H   LIG d   1       2.670  -3.636  -8.727  0.00  0.00     0.027 H 
ATOM     32  H   LIG d   1       4.205  -4.331  -9.278  0.00  0.00     0.027 H 
ATOM     33  H   LIG d   1       2.910   0.999  -9.846  0.00  0.00     0.027 H 
ATOM     34  H   LIG d   1       4.558   0.409 -10.017  0.00  0.00     0.027 H 
ATOM     35  H   LIG d   1       3.764   0.688 -12.231  0.00  0.00     0.029 H 
ATOM     36  H   LIG d   1       2.170   0.060 -11.862  0.00  0.00     0.029 H 
ATOM     37  H   LIG d   1       4.171  -3.444 -11.616  0.00  0.00     0.029 H 
ATOM     38  H   LIG d   1       2.496  -3.037 -11.299  0.00  0.00     0.029 H 
ENDROOT
BRANCH   1  39
ATOM     39  C   LIG d   1       4.154   1.030  -3.153  0.00  0.00     0.061 C 
ATOM     40  H   LIG d   1       3.865   1.777  -3.892  0.00  0.00     0.060 H 
BRANCH  39  41
ATOM     41  C   LIG d   1       5.657   1.139  -2.879  0.00  0.00    -0.038 C 
ATOM     42  H   LIG d   1       6.167   1.475  -3.781  0.00  0.00     0.025 H 
ATOM     43  H   LIG d   1       6.044   0.164  -2.584  0.00  0.00     0.025 H 
ATOM     44  H   LIG d   1       5.828   1.855  -2.075  0.00  0.00     0.025 H 
ENDBRANCH  39  41
BRANCH  39  45
ATOM     45  O   LIG d   1       3.432   1.255  -1.941  0.00  0.00    -0.391 OA
ATOM     46  H   LIG d   1       2.541   0.877  -1.937  0.00  0.00     0.210 HD
ENDBRANCH  39  45
ENDBRANCH   1  39
BRANCH   1  47
ATOM     47  C   LIG d   1       2.566  -0.910  -3.021  0.00  0.00    -0.053 C 
ATOM     48  H   LIG d   1       2.243  -1.812  -3.539  0.00  0.00     0.024 H 
ATOM     49  H   LIG d   1       2.777  -1.146  -1.977  0.00  0.00     0.024 H 
ATOM     50  H   LIG d   1       1.778  -0.159  -3.072  0.00  0.00     0.024 H 
ENDBRANCH   1  47
BRANCH  15  51
ATOM     51  C   LIG d   1       1.621  -1.346  -9.694  0.00  0.00    -0.059 C 
ATOM     52  H   LIG d   1       1.462  -2.417  -9.818  0.00  0.00     0.024 H 
ATOM     53  H   LIG d   1       1.001  -0.978  -8.876  0.00  0.00     0.024 H 
ATOM     54  H   LIG d   1       1.350  -0.830 -10.616  0.00  0.00     0.024 H 
ENDBRANCH  15  51
BRANCH  14  55
ATOM     55  C   LIG d   1       5.429  -1.956  -9.902  0.00  0.00    -0.059 C 
ATOM     56  H   LIG d   1       6.000  -2.814  -9.547  0.00  0.00     0.024 H 
ATOM     57  H   LIG d   1       5.711  -1.734 -10.932  0.00  0.00     0.024 H 
ATOM     58  H   LIG d   1       5.641  -1.092  -9.273  0.00  0.00     0.024 H 
ENDBRANCH  14  55
BRANCH  18  59
ATOM     59  O   LIG d   1       5.010  -1.366 -12.691  0.00  0.00    -0.392 OA
ATOM     60  H   LIG d   1       5.270  -2.112 -13.247  0.00  0.00     0.210 HD
ENDBRANCH  18  59
TORSDOF 7
ENDMDL
MODEL 3
REMARK VINA RESULT:      -5.9      3.726      7.000
REMARK  7 active torsions:
REMARK  status: ('A' for Active; 'I' for Inactive)
REMARK    1  A    between atoms: C_1  and  C_2 
REMARK    2  A    between atoms: C_2  and  C_4 
REMARK    3  A    between atoms: C_2  and  O_28 
REMARK    4  A    between atoms: C_4  and  C_27 
REMARK    5  A    between atoms: C_17  and  C_26 
REMARK    6  A    between atoms: C_18  and  C_25 
REMARK    7  A    between atoms: C_21  and  O_24 
ROOT
ATOM      1  C   LIG d   1       9.765   2.972  -6.682  0.00  0.00     0.015 C 
ATOM      2  C   LIG d   1       9.112   2.969  -8.084  0.00  0.00    -0.038 C 
ATOM      3  C   LIG d   1       8.260   1.681  -8.018  0.00  0.00    -0.030 C 
ATOM      4  C   LIG d   1       7.986   1.484  -6.547  0.00  0.00    -0.066 C 
ATOM      5  C   LIG d   1       8.812   2.188  -5.807  0.00  0.00    -0.062 C 
ATOM      6  C   LIG d   1       8.813   2.201  -4.297  0.00  0.00    -0.031 C 
ATOM      7  C   LIG d   1       7.562   1.510  -3.749  0.00  0.00    -0.045 C 
ATOM      8  C   LIG d   1       7.273   0.241  -4.546  0.00  0.00    -0.028 C 
ATOM      9  H   LIG d   1       8.212  -0.337  -4.593  0.00  0.00     0.031 H 
ATOM     10  C   LIG d   1       6.891   0.611  -5.971  0.00  0.00    -0.016 C 
ATOM     11  H   LIG d   1       5.990   1.229  -5.956  0.00  0.00     0.035 H 
ATOM     12  C   LIG d   1       6.670  -0.610  -6.847  0.00  0.00    -0.046 C 
ATOM     13  C   LIG d   1       6.175  -1.818  -6.049  0.00  0.00    -0.046 C 
ATOM     14  C   LIG d   1       5.338  -1.347  -4.865  0.00  0.00    -0.024 C 
ATOM     15  C   LIG d   1       6.242  -0.635  -3.864  0.00  0.00    -0.023 C 
ATOM     16  C   LIG d   1       5.377   0.070  -2.832  0.00  0.00    -0.044 C 
ATOM     17  C   LIG d   1       4.529  -0.956  -2.085  0.00  0.00    -0.026 C 
ATOM     18  C   LIG d   1       3.845  -1.996  -2.945  0.00  0.00     0.056 C 
ATOM     19  H   LIG d   1       3.656  -2.880  -2.295  0.00  0.00     0.059 H 
ATOM     20  C   LIG d   1       4.630  -2.497  -4.151  0.00  0.00    -0.021 C 
ATOM     21  H   LIG d   1       8.482   3.847  -8.223  0.00  0.00     0.028 H 
ATOM     22  H   LIG d   1       9.865   2.901  -8.869  0.00  0.00     0.028 H 
ATOM     23  H   LIG d   1       7.326   1.817  -8.564  0.00  0.00     0.031 H 
ATOM     24  H   LIG d   1       8.814   0.835  -8.422  0.00  0.00     0.031 H 
ATOM     25  H   LIG d   1       9.701   1.676  -3.932  0.00  0.00     0.031 H 
ATOM     26  H   LIG d   1       8.840   3.228  -3.932  0.00  0.00     0.031 H 
ATOM     27  H   LIG d   1       7.724   1.257  -2.700  0.00  0.00     0.027 H 
ATOM     28  H   LIG d   1       6.711   2.190  -3.826  0.00  0.00     0.027 H 
ATOM     29  H   LIG d   1       7.618  -0.876  -7.332  0.00  0.00     0.027 H 
ATOM     30  H   LIG d   1       5.952  -0.372  -7.635  0.00  0.00     0.027 H 
ATOM     31  H   LIG d   1       7.022  -2.410  -5.704  0.00  0.00     0.027 H 
ATOM     32  H   LIG d   1       5.552  -2.448  -6.695  0.00  0.00     0.027 H 
ATOM     33  H   LIG d   1       6.039   0.565  -2.102  0.00  0.00     0.027 H 
ATOM     34  H   LIG d   1       4.758   0.841  -3.276  0.00  0.00     0.027 H 
ATOM     35  H   LIG d   1       3.746  -0.401  -1.532  0.00  0.00     0.029 H 
ATOM     36  H   LIG d   1       5.134  -1.449  -1.317  0.00  0.00     0.029 H 
ATOM     37  H   LIG d   1       3.913  -2.940  -4.871  0.00  0.00     0.029 H 
ATOM     38  H   LIG d   1       5.317  -3.293  -3.882  0.00  0.00     0.029 H 
ENDROOT
BRANCH   1  39
ATOM     39  C   LIG d   1       9.911   4.407  -6.175  0.00  0.00     0.061 C 
ATOM     40  H   LIG d   1       9.120   4.621  -5.457  0.00  0.00     0.060 H 
BRANCH  39  41
ATOM     41  C   LIG d   1       9.806   5.378  -7.353  0.00  0.00    -0.038 C 
ATOM     42  H   LIG d   1      10.701   5.299  -7.970  0.00  0.00     0.025 H 
ATOM     43  H   LIG d   1       9.713   6.397  -6.978  0.00  0.00     0.025 H 
ATOM     44  H   LIG d   1       8.929   5.130  -7.951  0.00  0.00     0.025 H 
ENDBRANCH  39  41
BRANCH  39  45
ATOM     45  O   LIG d   1      11.183   4.562  -5.543  0.00  0.00    -0.391 OA
ATOM     46  H   LIG d   1      11.574   5.440  -5.654  0.00  0.00     0.210 HD
ENDBRANCH  39  45
ENDBRANCH   1  39
BRANCH   1  47
ATOM     47  C   LIG d   1      11.132   2.285  -6.733  0.00  0.00    -0.053 C 
ATOM     48  H   LIG d   1      11.554   2.243  -5.729  0.00  0.00     0.024 H 
ATOM     49  H   LIG d   1      11.016   1.273  -7.122  0.00  0.00     0.024 H 
ATOM     50  H   LIG d   1      11.799   2.851  -7.384  0.00  0.00     0.024 H 
ENDBRANCH   1  47
BRANCH  15  51
ATOM     51  C   LIG d   1       7.064  -1.700  -3.101  0.00  0.00    -0.059 C 
ATOM     52  H   LIG d   1       7.207  -2.574  -3.737  0.00  0.00     0.024 H 
ATOM     53  H   LIG d   1       8.036  -1.286  -2.832  0.00  0.00     0.024 H 
ATOM     54  H   LIG d   1       6.531  -1.993  -2.196  0.00  0.00     0.024 H 
ENDBRANCH  15  51
BRANCH  14  55
ATOM     55  C   LIG d   1       4.236  -0.419  -5.398  0.00  0.00    -0.059 C 
ATOM     56  H   LIG d   1       4.483   0.614  -5.156  0.00  0.00     0.024 H 
ATOM     57  H   LIG d   1       4.160  -0.531  -6.480  0.00  0.00     0.024 H 
ATOM     58  H   LIG d   1       3.285  -0.684  -4.938  0.00  0.00     0.024 H 
ENDBRANCH  14  55
BRANCH  18  59
ATOM     59  O   LIG d   1       2.550  -1.530  -3.343  0.00  0.00    -0.392 OA
ATOM     60  H   LIG d   1       2.197  -1.970  -4.128  0.00  0.00     0.210 HD
ENDBRANCH  18  59
TORSDOF 7
ENDMDL
MODEL 4
REMARK VINA RESULT:      -5.3      3.994      7.108
REMARK  7 active torsions:
REMARK  status: ('A' for Active; 'I' for Inactive)
REMARK    1  A    between atoms: C_1  and  C_2 
REMARK    2  A    between atoms: C_2  and  C_4 
REMARK    3  A    between atoms: C_2  and  O_28 
REMARK    4  A    between atoms: C_4  and  C_27 
REMARK    5  A    between atoms: C_17  and  C_26 
REMARK    6  A    between atoms: C_18  and  C_25 
REMARK    7  A    between atoms: C_21  and  O_24 
ROOT
ATOM      1  C   LIG d   1      11.060  -2.577  -5.478  0.00  0.00     0.015 C 
ATOM      2  C   LIG d   1      11.439  -1.146  -5.926  0.00  0.00    -0.038 C 
ATOM      3  C   LIG d   1      10.045  -0.533  -6.188  0.00  0.00    -0.030 C 
ATOM      4  C   LIG d   1       9.112  -1.325  -5.306  0.00  0.00    -0.066 C 
ATOM      5  C   LIG d   1       9.662  -2.452  -4.915  0.00  0.00    -0.062 C 
ATOM      6  C   LIG d   1       8.986  -3.477  -4.037  0.00  0.00    -0.031 C 
ATOM      7  C   LIG d   1       7.694  -2.913  -3.441  0.00  0.00    -0.045 C 
ATOM      8  C   LIG d   1       6.927  -2.127  -4.502  0.00  0.00    -0.028 C 
ATOM      9  H   LIG d   1       6.855  -2.770  -5.396  0.00  0.00     0.031 H 
ATOM     10  C   LIG d   1       7.722  -0.889  -4.890  0.00  0.00    -0.016 C 
ATOM     11  H   LIG d   1       7.856  -0.254  -4.011  0.00  0.00     0.035 H 
ATOM     12  C   LIG d   1       7.057  -0.101  -6.005  0.00  0.00    -0.046 C 
ATOM     13  C   LIG d   1       5.534  -0.248  -5.994  0.00  0.00    -0.046 C 
ATOM     14  C   LIG d   1       5.045  -0.449  -4.566  0.00  0.00    -0.024 C 
ATOM     15  C   LIG d   1       5.513  -1.811  -4.062  0.00  0.00    -0.023 C 
ATOM     16  C   LIG d   1       5.268  -1.895  -2.565  0.00  0.00    -0.044 C 
ATOM     17  C   LIG d   1       3.776  -1.752  -2.278  0.00  0.00    -0.026 C 
ATOM     18  C   LIG d   1       3.067  -0.640  -3.020  0.00  0.00     0.056 C 
ATOM     19  H   LIG d   1       1.990  -0.919  -3.071  0.00  0.00     0.059 H 
ATOM     20  C   LIG d   1       3.522  -0.384  -4.451  0.00  0.00    -0.021 C 
ATOM     21  H   LIG d   1      11.958  -0.612  -5.129  0.00  0.00     0.028 H 
ATOM     22  H   LIG d   1      12.037  -1.165  -6.837  0.00  0.00     0.028 H 
ATOM     23  H   LIG d   1      10.036   0.520  -5.903  0.00  0.00     0.031 H 
ATOM     24  H   LIG d   1       9.770  -0.643  -7.236  0.00  0.00     0.031 H 
ATOM     25  H   LIG d   1       8.748  -4.363  -4.633  0.00  0.00     0.031 H 
ATOM     26  H   LIG d   1       9.652  -3.772  -3.225  0.00  0.00     0.031 H 
ATOM     27  H   LIG d   1       7.078  -3.737  -3.078  0.00  0.00     0.027 H 
ATOM     28  H   LIG d   1       7.938  -2.254  -2.606  0.00  0.00     0.027 H 
ATOM     29  H   LIG d   1       7.437  -0.461  -6.970  0.00  0.00     0.027 H 
ATOM     30  H   LIG d   1       7.324   0.955  -5.918  0.00  0.00     0.027 H 
ATOM     31  H   LIG d   1       5.236  -1.088  -6.621  0.00  0.00     0.027 H 
ATOM     32  H   LIG d   1       5.080   0.664  -6.400  0.00  0.00     0.027 H 
ATOM     33  H   LIG d   1       5.592  -2.888  -2.214  0.00  0.00     0.027 H 
ATOM     34  H   LIG d   1       5.844  -1.159  -2.015  0.00  0.00     0.027 H 
ATOM     35  H   LIG d   1       3.661  -1.567  -1.193  0.00  0.00     0.029 H 
ATOM     36  H   LIG d   1       3.269  -2.705  -2.467  0.00  0.00     0.029 H 
ATOM     37  H   LIG d   1       3.214   0.642  -4.734  0.00  0.00     0.029 H 
ATOM     38  H   LIG d   1       3.033  -1.050  -5.154  0.00  0.00     0.029 H 
ENDROOT
BRANCH   1  39
ATOM     39  C   LIG d   1      12.034  -3.066  -4.405  0.00  0.00     0.061 C 
ATOM     40  H   LIG d   1      11.474  -3.427  -3.543  0.00  0.00     0.060 H 
BRANCH  39  41
ATOM     41  C   LIG d   1      12.942  -1.910  -3.975  0.00  0.00    -0.038 C 
ATOM     42  H   LIG d   1      13.640  -1.678  -4.780  0.00  0.00     0.025 H 
ATOM     43  H   LIG d   1      13.499  -2.198  -3.084  0.00  0.00     0.025 H 
ATOM     44  H   LIG d   1      12.334  -1.033  -3.757  0.00  0.00     0.025 H 
ENDBRANCH  39  41
BRANCH  39  45
ATOM     45  O   LIG d   1      12.833  -4.127  -4.934  0.00  0.00    -0.391 OA
ATOM     46  H   LIG d   1      12.324  -4.813  -5.388  0.00  0.00     0.210 HD
ENDBRANCH  39  45
ENDBRANCH   1  39
BRANCH   1  47
ATOM     47  C   LIG d   1      11.070  -3.528  -6.677  0.00  0.00    -0.053 C 
ATOM     48  H   LIG d   1      12.094  -3.838  -6.886  0.00  0.00     0.024 H 
ATOM     49  H   LIG d   1      10.464  -4.406  -6.449  0.00  0.00     0.024 H 
ATOM     50  H   LIG d   1      10.659  -3.019  -7.549  0.00  0.00     0.024 H 
ENDBRANCH   1  47
BRANCH  15  51
ATOM     51  C   LIG d   1       4.637  -2.904  -4.718  0.00  0.00    -0.059 C 
ATOM     52  H   LIG d   1       3.779  -2.440  -5.204  0.00  0.00     0.024 H 
ATOM     53  H   LIG d   1       5.225  -3.446  -5.458  0.00  0.00     0.024 H 
ATOM     54  H   LIG d   1       4.288  -3.598  -3.952  0.00  0.00     0.024 H 
ENDBRANCH  15  51
BRANCH  14  55
ATOM     55  C   LIG d   1       5.596   0.697  -3.706  0.00  0.00    -0.059 C 
ATOM     56  H   LIG d   1       6.579   0.424  -3.323  0.00  0.00     0.024 H 
ATOM     57  H   LIG d   1       5.681   1.598  -4.314  0.00  0.00     0.024 H 
ATOM     58  H   LIG d   1       4.920   0.884  -2.872  0.00  0.00     0.024 H 
ENDBRANCH  14  55
BRANCH  18  59
ATOM     59  O   LIG d   1       3.113   0.569  -2.252  0.00  0.00    -0.392 OA
ATOM     60  H   LIG d   1       3.541   1.307  -2.704  0.00  0.00     0.210 HD
ENDBRANCH  18  59
TORSDOF 7
ENDMDL
MODEL 5
REMARK VINA RESULT:      -5.2      1.755      6.716
REMARK  7 active torsions:
REMARK  status: ('A' for Active; 'I' for Inactive)
REMARK    1  A    between atoms: C_1  and  C_2 
REMARK    2  A    between atoms: C_2  and  C_4 
REMARK    3  A    between atoms: C_2  and  O_28 
REMARK    4  A    between atoms: C_4  and  C_27 
REMARK    5  A    between atoms: C_17  and  C_26 
REMARK    6  A    between atoms: C_18  and  C_25 
REMARK    7  A    between atoms: C_21  and  O_24 
ROOT
ATOM      1  C   LIG d   1       2.602  -1.214 -10.555  0.00  0.00     0.015 C 
ATOM      2  C   LIG d   1       2.292   0.292 -10.385  0.00  0.00    -0.038 C 
ATOM      3  C   LIG d   1       2.416   0.455  -8.854  0.00  0.00    -0.030 C 
ATOM      4  C   LIG d   1       3.352  -0.650  -8.430  0.00  0.00    -0.066 C 
ATOM      5  C   LIG d   1       3.456  -1.573  -9.359  0.00  0.00    -0.062 C 
ATOM      6  C   LIG d   1       4.301  -2.819  -9.240  0.00  0.00    -0.031 C 
ATOM      7  C   LIG d   1       5.226  -2.732  -8.024  0.00  0.00    -0.045 C 
ATOM      8  C   LIG d   1       4.470  -2.152  -6.831  0.00  0.00    -0.028 C 
ATOM      9  H   LIG d   1       3.529  -2.719  -6.734  0.00  0.00     0.031 H 
ATOM     10  C   LIG d   1       4.105  -0.703  -7.116  0.00  0.00    -0.016 C 
ATOM     11  H   LIG d   1       5.018  -0.122  -7.270  0.00  0.00     0.035 H 
ATOM     12  C   LIG d   1       3.276  -0.085  -6.004  0.00  0.00    -0.046 C 
ATOM     13  C   LIG d   1       3.582  -0.702  -4.638  0.00  0.00    -0.046 C 
ATOM     14  C   LIG d   1       5.038  -1.148  -4.587  0.00  0.00    -0.024 C 
ATOM     15  C   LIG d   1       5.234  -2.327  -5.535  0.00  0.00    -0.023 C 
ATOM     16  C   LIG d   1       6.723  -2.590  -5.694  0.00  0.00    -0.044 C 
ATOM     17  C   LIG d   1       7.331  -2.943  -4.339  0.00  0.00    -0.026 C 
ATOM     18  C   LIG d   1       6.918  -2.058  -3.183  0.00  0.00     0.056 C 
ATOM     19  H   LIG d   1       7.053  -2.657  -2.253  0.00  0.00     0.059 H 
ATOM     20  C   LIG d   1       5.474  -1.572  -3.185  0.00  0.00    -0.021 C 
ATOM     21  H   LIG d   1       3.032   0.904 -10.904  0.00  0.00     0.028 H 
ATOM     22  H   LIG d   1       1.284   0.527 -10.725  0.00  0.00     0.028 H 
ATOM     23  H   LIG d   1       2.843   1.429  -8.610  0.00  0.00     0.031 H 
ATOM     24  H   LIG d   1       1.444   0.339  -8.378  0.00  0.00     0.031 H 
ATOM     25  H   LIG d   1       3.647  -3.690  -9.131  0.00  0.00     0.031 H 
ATOM     26  H   LIG d   1       4.906  -2.947 -10.138  0.00  0.00     0.031 H 
ATOM     27  H   LIG d   1       5.589  -3.732  -7.778  0.00  0.00     0.027 H 
ATOM     28  H   LIG d   1       6.077  -2.091  -8.262  0.00  0.00     0.027 H 
ATOM     29  H   LIG d   1       2.212  -0.238  -6.227  0.00  0.00     0.027 H 
ATOM     30  H   LIG d   1       3.454   0.993  -5.968  0.00  0.00     0.027 H 
ATOM     31  H   LIG d   1       2.918  -1.546  -4.453  0.00  0.00     0.027 H 
ATOM     32  H   LIG d   1       3.414   0.048  -3.856  0.00  0.00     0.027 H 
ATOM     33  H   LIG d   1       6.854  -3.455  -6.365  0.00  0.00     0.027 H 
ATOM     34  H   LIG d   1       7.240  -1.752  -6.148  0.00  0.00     0.027 H 
ATOM     35  H   LIG d   1       8.431  -2.881  -4.442  0.00  0.00     0.029 H 
ATOM     36  H   LIG d   1       7.118  -3.990  -4.099  0.00  0.00     0.029 H 
ATOM     37  H   LIG d   1       5.410  -0.676  -2.536  0.00  0.00     0.029 H 
ATOM     38  H   LIG d   1       4.801  -2.305  -2.754  0.00  0.00     0.029 H 
ENDROOT
BRANCH   1  39
ATOM     39  C   LIG d   1       3.369  -1.448 -11.857  0.00  0.00     0.061 C 
ATOM     40  H   LIG d   1       3.963  -2.357 -11.771  0.00  0.00     0.060 H 
BRANCH  39  41
ATOM     41  C   LIG d   1       4.293  -0.258 -12.127  0.00  0.00    -0.038 C 
ATOM     42  H   LIG d   1       4.636  -0.291 -13.161  0.00  0.00     0.025 H 
ATOM     43  H   LIG d   1       5.152  -0.306 -11.458  0.00  0.00     0.025 H 
ATOM     44  H   LIG d   1       3.749   0.670 -11.954  0.00  0.00     0.025 H 
ENDBRANCH  39  41
BRANCH  39  45
ATOM     45  O   LIG d   1       2.442  -1.585 -12.937  0.00  0.00    -0.391 OA
ATOM     46  H   LIG d   1       2.808  -1.351 -13.801  0.00  0.00     0.210 HD
ENDBRANCH  39  45
ENDBRANCH   1  39
BRANCH   1  47
ATOM     47  C   LIG d   1       1.305  -2.026 -10.549  0.00  0.00    -0.053 C 
ATOM     48  H   LIG d   1       1.377  -2.830 -11.280  0.00  0.00     0.024 H 
ATOM     49  H   LIG d   1       1.146  -2.449  -9.557  0.00  0.00     0.024 H 
ATOM     50  H   LIG d   1       0.468  -1.375 -10.805  0.00  0.00     0.024 H 
ENDBRANCH   1  47
BRANCH  15  51
ATOM     51  C   LIG d   1       4.628  -3.590  -4.881  0.00  0.00    -0.059 C 
ATOM     52  H   LIG d   1       3.766  -3.922  -5.461  0.00  0.00     0.024 H 
ATOM     53  H   LIG d   1       5.376  -4.382  -4.856  0.00  0.00     0.024 H 
ATOM     54  H   LIG d   1       4.312  -3.357  -3.863  0.00  0.00     0.024 H 
ENDBRANCH  15  51
BRANCH  14  55
ATOM     55  C   LIG d   1       5.918   0.049  -4.976  0.00  0.00    -0.059 C 
ATOM     56  H   LIG d   1       5.338   0.745  -5.580  0.00  0.00     0.024 H 
ATOM     57  H   LIG d   1       6.264   0.552  -4.073  0.00  0.00     0.024 H 
ATOM     58  H   LIG d   1       6.776  -0.302  -5.548  0.00  0.00     0.024 H 
ENDBRANCH  14  55
BRANCH  18  59
ATOM     59  O   LIG d   1       7.823  -0.955  -3.062  0.00  0.00    -0.392 OA
ATOM     60  H   LIG d   1       7.398  -0.089  -3.112  0.00  0.00     0.210 HD
ENDBRANCH  18  59
TORSDOF 7
ENDMDL
MODEL 6
REMARK VINA RESULT:      -5.1      8.263     11.858
REMARK  7 active torsions:
REMARK  status: ('A' for Active; 'I' for Inactive)
REMARK    1  A    between atoms: C_1  and  C_2 
REMARK    2  A    between atoms: C_2  and  C_4 
REMARK    3  A    between atoms: C_2  and  O_28 
REMARK    4  A    between atoms: C_4  and  C_27 
REMARK    5  A    between atoms: C_17  and  C_26 
REMARK    6  A    between atoms: C_18  and  C_25 
REMARK    7  A    between atoms: C_21  and  O_24 
ROOT
ATOM      1  C   LIG d   1      10.337   6.653  -8.363  0.00  0.00     0.015 C 
ATOM      2  C   LIG d   1      10.515   5.130  -8.564  0.00  0.00    -0.038 C 
ATOM      3  C   LIG d   1      11.283   4.744  -7.281  0.00  0.00    -0.030 C 
ATOM      4  C   LIG d   1      10.899   5.802  -6.276  0.00  0.00    -0.066 C 
ATOM      5  C   LIG d   1      10.382   6.856  -6.865  0.00  0.00    -0.062 C 
ATOM      6  C   LIG d   1       9.910   8.096  -6.144  0.00  0.00    -0.031 C 
ATOM      7  C   LIG d   1       9.857   7.857  -4.633  0.00  0.00    -0.045 C 
ATOM      8  C   LIG d   1      11.093   7.082  -4.182  0.00  0.00    -0.028 C 
ATOM      9  H   LIG d   1      11.973   7.599  -4.601  0.00  0.00     0.031 H 
ATOM     10  C   LIG d   1      11.058   5.682  -4.775  0.00  0.00    -0.016 C 
ATOM     11  H   LIG d   1      10.166   5.159  -4.419  0.00  0.00     0.035 H 
ATOM     12  C   LIG d   1      12.302   4.879  -4.435  0.00  0.00    -0.046 C 
ATOM     13  C   LIG d   1      12.916   5.294  -3.097  0.00  0.00    -0.046 C 
ATOM     14  C   LIG d   1      11.820   5.773  -2.153  0.00  0.00    -0.024 C 
ATOM     15  C   LIG d   1      11.246   7.086  -2.675  0.00  0.00    -0.023 C 
ATOM     16  C   LIG d   1       9.983   7.417  -1.898  0.00  0.00    -0.044 C 
ATOM     17  C   LIG d   1      10.317   7.582  -0.418  0.00  0.00    -0.026 C 
ATOM     18  C   LIG d   1      11.220   6.522   0.174  0.00  0.00     0.056 C 
ATOM     19  H   LIG d   1      11.717   6.979   1.061  0.00  0.00     0.059 H 
ATOM     20  C   LIG d   1      12.328   5.996  -0.728  0.00  0.00    -0.021 C 
ATOM     21  H   LIG d   1       9.548   4.626  -8.607  0.00  0.00     0.028 H 
ATOM     22  H   LIG d   1      11.105   4.917  -9.455  0.00  0.00     0.028 H 
ATOM     23  H   LIG d   1      10.969   3.758  -6.933  0.00  0.00     0.031 H 
ATOM     24  H   LIG d   1      12.357   4.756  -7.460  0.00  0.00     0.031 H 
ATOM     25  H   LIG d   1      10.599   8.920  -6.353  0.00  0.00     0.031 H 
ATOM     26  H   LIG d   1       8.915   8.376  -6.494  0.00  0.00     0.031 H 
ATOM     27  H   LIG d   1       9.820   8.820  -4.120  0.00  0.00     0.027 H 
ATOM     28  H   LIG d   1       8.960   7.286  -4.388  0.00  0.00     0.027 H 
ATOM     29  H   LIG d   1      13.049   5.030  -5.225  0.00  0.00     0.027 H 
ATOM     30  H   LIG d   1      12.057   3.814  -4.412  0.00  0.00     0.027 H 
ATOM     31  H   LIG d   1      13.654   6.080  -3.253  0.00  0.00     0.027 H 
ATOM     32  H   LIG d   1      13.420   4.430  -2.647  0.00  0.00     0.027 H 
ATOM     33  H   LIG d   1       9.586   8.376  -2.270  0.00  0.00     0.027 H 
ATOM     34  H   LIG d   1       9.207   6.673  -2.044  0.00  0.00     0.027 H 
ATOM     35  H   LIG d   1       9.362   7.571   0.142  0.00  0.00     0.029 H 
ATOM     36  H   LIG d   1      10.746   8.574  -0.244  0.00  0.00     0.029 H 
ATOM     37  H   LIG d   1      12.655   5.012  -0.338  0.00  0.00     0.029 H 
ATOM     38  H   LIG d   1      13.204   6.635  -0.705  0.00  0.00     0.029 H 
ENDROOT
BRANCH   1  39
ATOM     39  C   LIG d   1       8.990   7.103  -8.931  0.00  0.00     0.061 C 
ATOM     40  H   LIG d   1       8.304   7.317  -8.112  0.00  0.00     0.060 H 
BRANCH  39  41
ATOM     41  C   LIG d   1       8.408   5.991  -9.808  0.00  0.00    -0.038 C 
ATOM     42  H   LIG d   1       8.311   6.350 -10.832  0.00  0.00     0.025 H 
ATOM     43  H   LIG d   1       7.428   5.705  -9.428  0.00  0.00     0.025 H 
ATOM     44  H   LIG d   1       9.073   5.128  -9.787  0.00  0.00     0.025 H 
ENDBRANCH  39  41
BRANCH  39  45
ATOM     45  O   LIG d   1       9.175   8.282  -9.718  0.00  0.00    -0.391 OA
ATOM     46  H   LIG d   1       9.221   9.098  -9.200  0.00  0.00     0.210 HD
ENDBRANCH  39  45
ENDBRANCH   1  39
BRANCH   1  47
ATOM     47  C   LIG d   1      11.480   7.414  -9.040  0.00  0.00    -0.053 C 
ATOM     48  H   LIG d   1      11.805   8.228  -8.394  0.00  0.00     0.024 H 
ATOM     49  H   LIG d   1      12.314   6.734  -9.217  0.00  0.00     0.024 H 
ATOM     50  H   LIG d   1      11.133   7.819  -9.991  0.00  0.00     0.024 H 
ENDBRANCH   1  47
BRANCH  15  51
ATOM     51  C   LIG d   1      12.259   8.217  -2.379  0.00  0.00    -0.059 C 
ATOM     52  H   LIG d   1      13.190   8.020  -2.911  0.00  0.00     0.024 H 
ATOM     53  H   LIG d   1      11.846   9.170  -2.711  0.00  0.00     0.024 H 
ATOM     54  H   LIG d   1      12.454   8.259  -1.307  0.00  0.00     0.024 H 
ENDBRANCH  15  51
BRANCH  14  55
ATOM     55  C   LIG d   1      10.749   4.676  -2.067  0.00  0.00    -0.059 C 
ATOM     56  H   LIG d   1      10.456   4.535  -1.027  0.00  0.00     0.024 H 
ATOM     57  H   LIG d   1       9.879   4.972  -2.654  0.00  0.00     0.024 H 
ATOM     58  H   LIG d   1      11.153   3.743  -2.461  0.00  0.00     0.024 H 
ENDBRANCH  14  55
BRANCH  18  59
ATOM     59  O   LIG d   1      10.434   5.442   0.692  0.00  0.00    -0.392 OA
ATOM     60  H   LIG d   1       9.657   5.724   1.192  0.00  0.00     0.210 HD
ENDBRANCH  18  59
TORSDOF 7
ENDMDL
MODEL 7
REMARK VINA RESULT:      -5.0      9.334     10.951
REMARK  7 active torsions:
REMARK  status: ('A' for Active; 'I' for Inactive)
REMARK    1  A    between atoms: C_1  and  C_2 
REMARK    2  A    between atoms: C_2  and  C_4 
REMARK    3  A    between atoms: C_2  and  O_28 
REMARK    4  A    between atoms: C_4  and  C_27 
REMARK    5  A    between atoms: C_17  and  C_26 
REMARK    6  A    between atoms: C_18  and  C_25 
REMARK    7  A    between atoms: C_21  and  O_24 
ROOT
ATOM      1  C   LIG d   1      11.842   6.826  -0.624  0.00  0.00     0.015 C 
ATOM      2  C   LIG d   1      11.593   8.261  -0.101  0.00  0.00    -0.038 C 
ATOM      3  C   LIG d   1      11.730   9.083  -1.402  0.00  0.00    -0.030 C 
ATOM      4  C   LIG d   1      11.384   8.112  -2.503  0.00  0.00    -0.066 C 
ATOM      5  C   LIG d   1      11.447   6.869  -2.084  0.00  0.00    -0.062 C 
ATOM      6  C   LIG d   1      11.173   5.658  -2.943  0.00  0.00    -0.031 C 
ATOM      7  C   LIG d   1      10.550   6.072  -4.278  0.00  0.00    -0.045 C 
ATOM      8  C   LIG d   1      11.258   7.307  -4.827  0.00  0.00    -0.028 C 
ATOM      9  H   LIG d   1      12.342   7.103  -4.795  0.00  0.00     0.031 H 
ATOM     10  C   LIG d   1      10.989   8.495  -3.915  0.00  0.00    -0.016 C 
ATOM     11  H   LIG d   1       9.914   8.691  -3.883  0.00  0.00     0.035 H 
ATOM     12  C   LIG d   1      11.733   9.743  -4.355  0.00  0.00    -0.046 C 
ATOM     13  C   LIG d   1      11.964   9.781  -5.866  0.00  0.00    -0.046 C 
ATOM     14  C   LIG d   1      10.824   9.067  -6.581  0.00  0.00    -0.024 C 
ATOM     15  C   LIG d   1      10.895   7.575  -6.272  0.00  0.00    -0.023 C 
ATOM     16  C   LIG d   1       9.615   6.910  -6.750  0.00  0.00    -0.044 C 
ATOM     17  C   LIG d   1       9.472   7.092  -8.259  0.00  0.00    -0.026 C 
ATOM     18  C   LIG d   1       9.749   8.485  -8.781  0.00  0.00     0.056 C 
ATOM     19  H   LIG d   1      10.039   8.378  -9.852  0.00  0.00     0.059 H 
ATOM     20  C   LIG d   1      10.872   9.254  -8.097  0.00  0.00    -0.021 C 
ATOM     21  H   LIG d   1      10.590   8.356   0.316  0.00  0.00     0.028 H 
ATOM     22  H   LIG d   1      12.348   8.551   0.628  0.00  0.00     0.028 H 
ATOM     23  H   LIG d   1      11.029   9.919  -1.397  0.00  0.00     0.031 H 
ATOM     24  H   LIG d   1      12.750   9.448  -1.518  0.00  0.00     0.031 H 
ATOM     25  H   LIG d   1      12.112   5.130  -3.134  0.00  0.00     0.031 H 
ATOM     26  H   LIG d   1      10.491   4.980  -2.427  0.00  0.00     0.031 H 
ATOM     27  H   LIG d   1      10.646   5.247  -4.987  0.00  0.00     0.027 H 
ATOM     28  H   LIG d   1       9.492   6.295  -4.130  0.00  0.00     0.027 H 
ATOM     29  H   LIG d   1      12.708   9.772  -3.850  0.00  0.00     0.027 H 
ATOM     30  H   LIG d   1      11.176  10.631  -4.046  0.00  0.00     0.027 H 
ATOM     31  H   LIG d   1      12.918   9.314  -6.110  0.00  0.00     0.027 H 
ATOM     32  H   LIG d   1      11.994  10.825  -6.201  0.00  0.00     0.027 H 
ATOM     33  H   LIG d   1       9.684   5.830  -6.540  0.00  0.00     0.027 H 
ATOM     34  H   LIG d   1       8.741   7.282  -6.226  0.00  0.00     0.027 H 
ATOM     35  H   LIG d   1       8.432   6.826  -8.530  0.00  0.00     0.029 H 
ATOM     36  H   LIG d   1      10.105   6.368  -8.782  0.00  0.00     0.029 H 
ATOM     37  H   LIG d   1      10.727  10.333  -8.300  0.00  0.00     0.029 H 
ATOM     38  H   LIG d   1      11.843   8.998  -8.508  0.00  0.00     0.029 H 
ENDROOT
BRANCH   1  39
ATOM     39  C   LIG d   1      10.972   5.830   0.144  0.00  0.00     0.061 C 
ATOM     40  H   LIG d   1       9.940   5.912  -0.195  0.00  0.00     0.060 H 
BRANCH  39  41
ATOM     41  C   LIG d   1      11.042   6.140   1.642  0.00  0.00    -0.038 C 
ATOM     42  H   LIG d   1      11.997   5.797   2.039  0.00  0.00     0.025 H 
ATOM     43  H   LIG d   1      10.229   5.629   2.157  0.00  0.00     0.025 H 
ATOM     44  H   LIG d   1      10.950   7.215   1.795  0.00  0.00     0.025 H 
ENDBRANCH  39  41
BRANCH  39  45
ATOM     45  O   LIG d   1      11.448   4.503  -0.090  0.00  0.00    -0.391 OA
ATOM     46  H   LIG d   1      10.786   3.815   0.065  0.00  0.00     0.210 HD
ENDBRANCH  39  45
ENDBRANCH   1  39
BRANCH   1  47
ATOM     47  C   LIG d   1      13.321   6.460  -0.481  0.00  0.00    -0.053 C 
ATOM     48  H   LIG d   1      13.588   5.729  -1.243  0.00  0.00     0.024 H 
ATOM     49  H   LIG d   1      13.931   7.355  -0.606  0.00  0.00     0.024 H 
ATOM     50  H   LIG d   1      13.497   6.035   0.509  0.00  0.00     0.024 H 
ENDBRANCH   1  47
BRANCH  15  51
ATOM     51  C   LIG d   1      12.050   6.958  -7.096  0.00  0.00    -0.059 C 
ATOM     52  H   LIG d   1      12.709   7.751  -7.450  0.00  0.00     0.024 H 
ATOM     53  H   LIG d   1      12.616   6.269  -6.468  0.00  0.00     0.024 H 
ATOM     54  H   LIG d   1      11.640   6.418  -7.950  0.00  0.00     0.024 H 
ENDBRANCH  15  51
BRANCH  14  55
ATOM     55  C   LIG d   1       9.501   9.685  -6.107  0.00  0.00    -0.059 C 
ATOM     56  H   LIG d   1       8.739   9.544  -6.873  0.00  0.00     0.024 H 
ATOM     57  H   LIG d   1       9.183   9.198  -5.185  0.00  0.00     0.024 H 
ATOM     58  H   LIG d   1       9.642  10.750  -5.925  0.00  0.00     0.024 H 
ENDBRANCH  14  55
BRANCH  18  59
ATOM     59  O   LIG d   1       8.541   9.256  -8.789  0.00  0.00    -0.392 OA
ATOM     60  H   LIG d   1       8.649  10.155  -9.124  0.00  0.00     0.210 HD
ENDBRANCH  18  59
TORSDOF 7
ENDMDL
MODEL 8
REMARK VINA RESULT:      -5.0      4.164      6.364
REMARK  7 active torsions:
REMARK  status: ('A' for Active; 'I' for Inactive)
REMARK    1  A    between atoms: C_1  and  C_2 
REMARK    2  A    between atoms: C_2  and  C_4 
REMARK    3  A    between atoms: C_2  and  O_28 
REMARK    4  A    between atoms: C_4  and  C_27 
REMARK    5  A    between atoms: C_17  and  C_26 
REMARK    6  A    between atoms: C_18  and  C_25 
REMARK    7  A    between atoms: C_21  and  O_24 
ROOT
ATOM      1  C   LIG d   1       4.371  -0.789  -4.217  0.00  0.00     0.015 C 
ATOM      2  C   LIG d   1       4.707  -2.197  -4.762  0.00  0.00    -0.038 C 
ATOM      3  C   LIG d   1       5.975  -1.903  -5.594  0.00  0.00    -0.030 C 
ATOM      4  C   LIG d   1       6.569  -0.671  -4.958  0.00  0.00    -0.066 C 
ATOM      5  C   LIG d   1       5.692  -0.051  -4.202  0.00  0.00    -0.062 C 
ATOM      6  C   LIG d   1       5.965   1.222  -3.438  0.00  0.00    -0.031 C 
ATOM      7  C   LIG d   1       7.462   1.542  -3.437  0.00  0.00    -0.045 C 
ATOM      8  C   LIG d   1       8.052   1.289  -4.821  0.00  0.00    -0.028 C 
ATOM      9  H   LIG d   1       7.406   1.805  -5.552  0.00  0.00     0.031 H 
ATOM     10  C   LIG d   1       7.998  -0.199  -5.133  0.00  0.00    -0.016 C 
ATOM     11  H   LIG d   1       8.588  -0.746  -4.394  0.00  0.00     0.035 H 
ATOM     12  C   LIG d   1       8.494  -0.516  -6.533  0.00  0.00    -0.046 C 
ATOM     13  C   LIG d   1       9.543   0.485  -7.020  0.00  0.00    -0.046 C 
ATOM     14  C   LIG d   1      10.345   1.010  -5.835  0.00  0.00    -0.024 C 
ATOM     15  C   LIG d   1       9.442   1.874  -4.961  0.00  0.00    -0.023 C 
ATOM     16  C   LIG d   1      10.155   2.165  -3.651  0.00  0.00    -0.044 C 
ATOM     17  C   LIG d   1      11.448   2.928  -3.926  0.00  0.00    -0.026 C 
ATOM     18  C   LIG d   1      12.299   2.392  -5.057  0.00  0.00     0.056 C 
ATOM     19  H   LIG d   1      12.922   3.241  -5.423  0.00  0.00     0.059 H 
ATOM     20  C   LIG d   1      11.551   1.844  -6.265  0.00  0.00    -0.021 C 
ATOM     21  H   LIG d   1       4.925  -2.889  -3.948  0.00  0.00     0.028 H 
ATOM     22  H   LIG d   1       3.903  -2.577  -5.392  0.00  0.00     0.028 H 
ATOM     23  H   LIG d   1       6.672  -2.740  -5.528  0.00  0.00     0.031 H 
ATOM     24  H   LIG d   1       5.713  -1.711  -6.634  0.00  0.00     0.031 H 
ATOM     25  H   LIG d   1       5.422   2.048  -3.907  0.00  0.00     0.031 H 
ATOM     26  H   LIG d   1       5.623   1.120  -2.407  0.00  0.00     0.031 H 
ATOM     27  H   LIG d   1       7.603   2.589  -3.163  0.00  0.00     0.027 H 
ATOM     28  H   LIG d   1       7.966   0.910  -2.705  0.00  0.00     0.027 H 
ATOM     29  H   LIG d   1       7.642  -0.495  -7.225  0.00  0.00     0.027 H 
ATOM     30  H   LIG d   1       8.912  -1.526  -6.555  0.00  0.00     0.027 H 
ATOM     31  H   LIG d   1       9.058   1.308  -7.545  0.00  0.00     0.027 H 
ATOM     32  H   LIG d   1      10.226  -0.016  -7.716  0.00  0.00     0.027 H 
ATOM     33  H   LIG d   1       9.503   2.805  -3.034  0.00  0.00     0.027 H 
ATOM     34  H   LIG d   1      10.347   1.262  -3.081  0.00  0.00     0.027 H 
ATOM     35  H   LIG d   1      12.054   2.902  -3.000  0.00  0.00     0.029 H 
ATOM     36  H   LIG d   1      11.225   3.986  -4.100  0.00  0.00     0.029 H 
ATOM     37  H   LIG d   1      12.236   1.172  -6.820  0.00  0.00     0.029 H 
ATOM     38  H   LIG d   1      11.275   2.631  -6.959  0.00  0.00     0.029 H 
ENDROOT
BRANCH   1  39
ATOM     39  C   LIG d   1       3.795  -0.897  -2.804  0.00  0.00     0.061 C 
ATOM     40  H   LIG d   1       4.347  -0.237  -2.135  0.00  0.00     0.060 H 
BRANCH  39  41
ATOM     41  C   LIG d   1       3.918  -2.341  -2.312  0.00  0.00    -0.038 C 
ATOM     42  H   LIG d   1       3.296  -2.989  -2.929  0.00  0.00     0.025 H 
ATOM     43  H   LIG d   1       3.588  -2.401  -1.275  0.00  0.00     0.025 H 
ATOM     44  H   LIG d   1       4.958  -2.661  -2.381  0.00  0.00     0.025 H 
ENDBRANCH  39  41
BRANCH  39  45
ATOM     45  O   LIG d   1       2.418  -0.516  -2.821  0.00  0.00    -0.391 OA
ATOM     46  H   LIG d   1       1.870  -1.044  -3.419  0.00  0.00     0.210 HD
ENDBRANCH  39  45
ENDBRANCH   1  39
BRANCH   1  47
ATOM     47  C   LIG d   1       3.376  -0.085  -5.143  0.00  0.00    -0.053 C 
ATOM     48  H   LIG d   1       3.606  -0.334  -6.178  0.00  0.00     0.024 H 
ATOM     49  H   LIG d   1       2.364  -0.414  -4.906  0.00  0.00     0.024 H 
ATOM     50  H   LIG d   1       3.450   0.994  -5.004  0.00  0.00     0.024 H 
ENDBRANCH   1  47
BRANCH  15  51
ATOM     51  C   LIG d   1       9.235   3.235  -5.665  0.00  0.00    -0.059 C 
ATOM     52  H   LIG d   1       8.315   3.696  -5.303  0.00  0.00     0.024 H 
ATOM     53  H   LIG d   1      10.078   3.890  -5.448  0.00  0.00     0.024 H 
ATOM     54  H   LIG d   1       9.163   3.081  -6.742  0.00  0.00     0.024 H 
ENDBRANCH  15  51
BRANCH  14  55
ATOM     55  C   LIG d   1      10.901  -0.196  -5.064  0.00  0.00    -0.059 C 
ATOM     56  H   LIG d   1      11.046   0.077  -4.019  0.00  0.00     0.024 H 
ATOM     57  H   LIG d   1      10.196  -1.025  -5.129  0.00  0.00     0.024 H 
ATOM     58  H   LIG d   1      11.855  -0.496  -5.497  0.00  0.00     0.024 H 
ENDBRANCH  14  55
BRANCH  18  59
ATOM     59  O   LIG d   1      13.229   1.424  -4.555  0.00  0.00    -0.392 OA
ATOM     60  H   LIG d   1      13.389   1.488  -3.604  0.00  0.00     0.210 HD
ENDBRANCH  18  59
TORSDOF 7
ENDMDL
MODEL 9
REMARK VINA RESULT:      -4.9     11.996     15.020
REMARK  7 active torsions:
REMARK  status: ('A' for Active; 'I' for Inactive)
REMARK    1  A    between atoms: C_1  and  C_2 
REMARK    2  A    between atoms: C_2  and  C_4 
REMARK    3  A    between atoms: C_2  and  O_28 
REMARK    4  A    between atoms: C_4  and  C_27 
REMARK    5  A    between atoms: C_17  and  C_26 
REMARK    6  A    between atoms: C_18  and  C_25 
REMARK    7  A    between atoms: C_21  and  O_24 
ROOT
ATOM      1  C   LIG d   1      10.438  13.177  -6.003  0.00  0.00     0.015 C 
ATOM      2  C   LIG d   1      11.860  13.766  -5.856  0.00  0.00    -0.038 C 
ATOM      3  C   LIG d   1      12.176  13.426  -4.381  0.00  0.00    -0.030 C 
ATOM      4  C   LIG d   1      11.320  12.221  -4.078  0.00  0.00    -0.066 C 
ATOM      5  C   LIG d   1      10.360  12.080  -4.964  0.00  0.00    -0.062 C 
ATOM      6  C   LIG d   1       9.323  10.984  -4.937  0.00  0.00    -0.031 C 
ATOM      7  C   LIG d   1       9.697   9.909  -3.914  0.00  0.00    -0.045 C 
ATOM      8  C   LIG d   1      10.214  10.562  -2.635  0.00  0.00    -0.028 C 
ATOM      9  H   LIG d   1       9.481  11.333  -2.341  0.00  0.00     0.031 H 
ATOM     10  C   LIG d   1      11.531  11.267  -2.921  0.00  0.00    -0.016 C 
ATOM     11  H   LIG d   1      12.267  10.536  -3.265  0.00  0.00     0.035 H 
ATOM     12  C   LIG d   1      12.065  12.012  -1.709  0.00  0.00    -0.046 C 
ATOM     13  C   LIG d   1      11.641  11.360  -0.392  0.00  0.00    -0.046 C 
ATOM     14  C   LIG d   1      11.500   9.855  -0.582  0.00  0.00    -0.024 C 
ATOM     15  C   LIG d   1      10.307   9.574  -1.490  0.00  0.00    -0.023 C 
ATOM     16  C   LIG d   1      10.333   8.110  -1.901  0.00  0.00    -0.044 C 
ATOM     17  C   LIG d   1      10.226   7.226  -0.662  0.00  0.00    -0.026 C 
ATOM     18  C   LIG d   1      11.107   7.619   0.504  0.00  0.00     0.056 C 
ATOM     19  H   LIG d   1      10.630   7.207   1.423  0.00  0.00     0.059 H 
ATOM     20  C   LIG d   1      11.294   9.112   0.737  0.00  0.00    -0.021 C 
ATOM     21  H   LIG d   1      12.560  13.269  -6.528  0.00  0.00     0.028 H 
ATOM     22  H   LIG d   1      11.859  14.843  -6.019  0.00  0.00     0.028 H 
ATOM     23  H   LIG d   1      13.232  13.181  -4.267  0.00  0.00     0.031 H 
ATOM     24  H   LIG d   1      11.910  14.260  -3.732  0.00  0.00     0.031 H 
ATOM     25  H   LIG d   1       8.352  11.411  -4.670  0.00  0.00     0.031 H 
ATOM     26  H   LIG d   1       9.241  10.522  -5.923  0.00  0.00     0.031 H 
ATOM     27  H   LIG d   1       8.814   9.308  -3.688  0.00  0.00     0.027 H 
ATOM     28  H   LIG d   1      10.471   9.265  -4.332  0.00  0.00     0.027 H 
ATOM     29  H   LIG d   1      11.684  13.041  -1.729  0.00  0.00     0.027 H 
ATOM     30  H   LIG d   1      13.155  12.062  -1.760  0.00  0.00     0.027 H 
ATOM     31  H   LIG d   1      10.700  11.790  -0.049  0.00  0.00     0.027 H 
ATOM     32  H   LIG d   1      12.407  11.551   0.369  0.00  0.00     0.027 H 
ATOM     33  H   LIG d   1       9.458   7.913  -2.541  0.00  0.00     0.027 H 
ATOM     34  H   LIG d   1      11.215   7.865  -2.482  0.00  0.00     0.027 H 
ATOM     35  H   LIG d   1      10.497   6.196  -0.964  0.00  0.00     0.029 H 
ATOM     36  H   LIG d   1       9.183   7.169  -0.336  0.00  0.00     0.029 H 
ATOM     37  H   LIG d   1      12.211   9.256   1.342  0.00  0.00     0.029 H 
ATOM     38  H   LIG d   1      10.481   9.534   1.318  0.00  0.00     0.029 H 
ENDROOT
BRANCH   1  39
ATOM     39  C   LIG d   1      10.250  12.605  -7.409  0.00  0.00     0.061 C 
ATOM     40  H   LIG d   1      10.340  11.520  -7.375  0.00  0.00     0.060 H 
BRANCH  39  41
ATOM     41  C   LIG d   1      11.323  13.176  -8.340  0.00  0.00    -0.038 C 
ATOM     42  H   LIG d   1      11.035  14.180  -8.653  0.00  0.00     0.025 H 
ATOM     43  H   LIG d   1      11.422  12.537  -9.216  0.00  0.00     0.025 H 
ATOM     44  H   LIG d   1      12.275  13.219  -7.812  0.00  0.00     0.025 H 
ENDBRANCH  39  41
BRANCH  39  45
ATOM     45  O   LIG d   1       8.956  12.962  -7.899  0.00  0.00    -0.391 OA
ATOM     46  H   LIG d   1       8.791  12.687  -8.812  0.00  0.00     0.210 HD
ENDBRANCH  39  45
ENDBRANCH   1  39
BRANCH   1  47
ATOM     47  C   LIG d   1       9.387  14.254  -5.723  0.00  0.00    -0.053 C 
ATOM     48  H   LIG d   1       8.665  14.277  -6.539  0.00  0.00     0.024 H 
ATOM     49  H   LIG d   1       8.873  14.026  -4.789  0.00  0.00     0.024 H 
ATOM     50  H   LIG d   1       9.875  15.226  -5.642  0.00  0.00     0.024 H 
ENDBRANCH   1  47
BRANCH  15  51
ATOM     51  C   LIG d   1       9.010   9.783  -0.675  0.00  0.00    -0.059 C 
ATOM     52  H   LIG d   1       9.176  10.548   0.083  0.00  0.00     0.024 H 
ATOM     53  H   LIG d   1       8.208  10.101  -1.342  0.00  0.00     0.024 H 
ATOM     54  H   LIG d   1       8.729   8.847  -0.191  0.00  0.00     0.024 H 
ENDBRANCH  15  51
BRANCH  14  55
ATOM     55  C   LIG d   1      12.811   9.324  -1.182  0.00  0.00    -0.059 C 
ATOM     56  H   LIG d   1      13.653   9.853  -0.737  0.00  0.00     0.024 H 
ATOM     57  H   LIG d   1      12.899   8.258  -0.973  0.00  0.00     0.024 H 
ATOM     58  H   LIG d   1      12.808   9.485  -2.259  0.00  0.00     0.024 H 
ENDBRANCH  14  55
BRANCH  18  59
ATOM     59  O   LIG d   1      12.375   6.960   0.405  0.00  0.00    -0.392 OA
ATOM     60  H   LIG d   1      12.914   7.020   1.205  0.00  0.00     0.210 HD
ENDBRANCH  18  59
TORSDOF 7
ENDMDL
MODEL 10
REMARK VINA RESULT:      -4.9      8.234     11.622
REMARK  7 active torsions:
REMARK  status: ('A' for Active; 'I' for Inactive)
REMARK    1  A    between atoms: C_1  and  C_2 
REMARK    2  A    between atoms: C_2  and  C_4 
REMARK    3  A    between atoms: C_2  and  O_28 
REMARK    4  A    between atoms: C_4  and  C_27 
REMARK    5  A    between atoms: C_17  and  C_26 
REMARK    6  A    between atoms: C_18  and  C_25 
REMARK    7  A    between atoms: C_21  and  O_24 
ROOT
ATOM      1  C   LIG d   1       9.886   2.917  -4.990  0.00  0.00     0.015 C 
ATOM      2  C   LIG d   1      10.623   1.788  -4.233  0.00  0.00    -0.038 C 
ATOM      3  C   LIG d   1      11.614   2.601  -3.369  0.00  0.00    -0.030 C 
ATOM      4  C   LIG d   1      10.956   3.949  -3.205  0.00  0.00    -0.066 C 
ATOM      5  C   LIG d   1      10.008   4.131  -4.095  0.00  0.00    -0.062 C 
ATOM      6  C   LIG d   1       9.169   5.381  -4.211  0.00  0.00    -0.031 C 
ATOM      7  C   LIG d   1       9.376   6.287  -2.995  0.00  0.00    -0.045 C 
ATOM      8  C   LIG d   1      10.857   6.340  -2.628  0.00  0.00    -0.028 C 
ATOM      9  H   LIG d   1      11.415   6.567  -3.552  0.00  0.00     0.031 H 
ATOM     10  C   LIG d   1      11.310   4.970  -2.144  0.00  0.00    -0.016 C 
ATOM     11  H   LIG d   1      10.737   4.692  -1.256  0.00  0.00     0.035 H 
ATOM     12  C   LIG d   1      12.797   4.927  -1.839  0.00  0.00    -0.046 C 
ATOM     13  C   LIG d   1      13.339   6.284  -1.389  0.00  0.00    -0.046 C 
ATOM     14  C   LIG d   1      12.251   7.056  -0.652  0.00  0.00    -0.024 C 
ATOM     15  C   LIG d   1      11.157   7.447  -1.640  0.00  0.00    -0.023 C 
ATOM     16  C   LIG d   1       9.956   7.966  -0.866  0.00  0.00    -0.044 C 
ATOM     17  C   LIG d   1      10.355   9.200  -0.062  0.00  0.00    -0.026 C 
ATOM     18  C   LIG d   1      11.658   9.095   0.700  0.00  0.00     0.056 C 
ATOM     19  H   LIG d   1      12.029  10.135   0.852  0.00  0.00     0.059 H 
ATOM     20  C   LIG d   1      12.781   8.325   0.017  0.00  0.00    -0.021 C 
ATOM     21  H   LIG d   1       9.932   1.223  -3.606  0.00  0.00     0.028 H 
ATOM     22  H   LIG d   1      11.151   1.131  -4.923  0.00  0.00     0.028 H 
ATOM     23  H   LIG d   1      11.750   2.123  -2.398  0.00  0.00     0.031 H 
ATOM     24  H   LIG d   1      12.571   2.700  -3.878  0.00  0.00     0.031 H 
ATOM     25  H   LIG d   1       9.454   5.925  -5.116  0.00  0.00     0.031 H 
ATOM     26  H   LIG d   1       8.112   5.117  -4.281  0.00  0.00     0.031 H 
ATOM     27  H   LIG d   1       9.020   7.291  -3.233  0.00  0.00     0.027 H 
ATOM     28  H   LIG d   1       8.806   5.896  -2.151  0.00  0.00     0.027 H 
ATOM     29  H   LIG d   1      13.336   4.617  -2.744  0.00  0.00     0.027 H 
ATOM     30  H   LIG d   1      12.992   4.179  -1.067  0.00  0.00     0.027 H 
ATOM     31  H   LIG d   1      13.690   6.851  -2.251  0.00  0.00     0.027 H 
ATOM     32  H   LIG d   1      14.185   6.129  -0.709  0.00  0.00     0.027 H 
ATOM     33  H   LIG d   1       9.178   8.264  -1.589  0.00  0.00     0.027 H 
ATOM     34  H   LIG d   1       9.523   7.205  -0.226  0.00  0.00     0.027 H 
ATOM     35  H   LIG d   1       9.547   9.398   0.668  0.00  0.00     0.029 H 
ATOM     36  H   LIG d   1      10.378  10.078  -0.716  0.00  0.00     0.029 H 
ATOM     37  H   LIG d   1      13.506   8.009   0.793  0.00  0.00     0.029 H 
ATOM     38  H   LIG d   1      13.334   8.949  -0.677  0.00  0.00     0.029 H 
ENDROOT
BRANCH   1  39
ATOM     39  C   LIG d   1       8.418   2.541  -5.195  0.00  0.00     0.061 C 
ATOM     40  H   LIG d   1       7.828   3.445  -5.340  0.00  0.00     0.060 H 
BRANCH  39  41
ATOM     41  C   LIG d   1       7.907   1.790  -3.963  0.00  0.00    -0.038 C 
ATOM     42  H   LIG d   1       6.862   2.045  -3.790  0.00  0.00     0.025 H 
ATOM     43  H   LIG d   1       8.500   2.073  -3.093  0.00  0.00     0.025 H 
ATOM     44  H   LIG d   1       7.996   0.716  -4.129  0.00  0.00     0.025 H 
ENDBRANCH  39  41
BRANCH  39  45
ATOM     45  O   LIG d   1       8.298   1.703  -6.347  0.00  0.00    -0.391 OA
ATOM     46  H   LIG d   1       8.989   1.843  -7.010  0.00  0.00     0.210 HD
ENDBRANCH  39  45
ENDBRANCH   1  39
BRANCH   1  47
ATOM     47  C   LIG d   1      10.560   3.178  -6.339  0.00  0.00    -0.053 C 
ATOM     48  H   LIG d   1      10.888   4.216  -6.386  0.00  0.00     0.024 H 
ATOM     49  H   LIG d   1      11.423   2.519  -6.447  0.00  0.00     0.024 H 
ATOM     50  H   LIG d   1       9.851   2.984  -7.144  0.00  0.00     0.024 H 
ENDBRANCH   1  47
BRANCH  15  51
ATOM     51  C   LIG d   1      11.672   8.624  -2.502  0.00  0.00    -0.059 C 
ATOM     52  H   LIG d   1      12.652   8.938  -2.141  0.00  0.00     0.024 H 
ATOM     53  H   LIG d   1      11.752   8.305  -3.541  0.00  0.00     0.024 H 
ATOM     54  H   LIG d   1      10.974   9.459  -2.431  0.00  0.00     0.024 H 
ENDBRANCH  15  51
BRANCH  14  55
ATOM     55  C   LIG d   1      11.711   6.162   0.474  0.00  0.00    -0.059 C 
ATOM     56  H   LIG d   1      11.502   5.168   0.080  0.00  0.00     0.024 H 
ATOM     57  H   LIG d   1      12.454   6.090   1.268  0.00  0.00     0.024 H 
ATOM     58  H   LIG d   1      10.794   6.595   0.873  0.00  0.00     0.024 H 
ENDBRANCH  14  55
BRANCH  18  59
ATOM     59  O   LIG d   1      11.418   8.579   2.015  0.00  0.00    -0.392 OA
ATOM     60  H   LIG d   1      10.977   9.202   2.608  0.00  0.00     0.210 HD
ENDBRANCH  18  59
TORSDOF 7
ENDMDL
