MODEL 1
REMARK VINA RESULT:      -6.7      0.000      0.000
REMARK  1 active torsions:
REMARK  status: ('A' for Active; 'I' for Inactive)
REMARK    1  A    between atoms: N_15  and  C_16 
ROOT
ATOM      1  C   LIG d   1       4.165   0.839  -8.934  0.00  0.00    -0.061 A 
ATOM      2  C   LIG d   1       3.036   0.240  -8.403  0.00  0.00    -0.060 A 
ATOM      3  C   LIG d   1       3.121  -0.510  -7.241  0.00  0.00    -0.040 A 
ATOM      4  C   LIG d   1       4.354  -0.643  -6.629  0.00  0.00     0.038 A 
ATOM      5  C   LIG d   1       5.467  -0.028  -7.142  0.00  0.00    -0.026 A 
ATOM      6  C   LIG d   1       5.394   0.708  -8.303  0.00  0.00    -0.057 A 
ATOM      7  C   LIG d   1       6.738  -0.171  -6.347  0.00  0.00    -0.022 C 
ATOM      8  C   LIG d   1       7.396  -1.516  -6.597  0.00  0.00    -0.022 C 
ATOM      9  C   LIG d   1       6.529  -2.683  -6.181  0.00  0.00    -0.026 A 
ATOM     10  C   LIG d   1       7.110  -3.939  -6.369  0.00  0.00    -0.057 A 
ATOM     11  C   LIG d   1       6.455  -5.094  -6.013  0.00  0.00    -0.061 A 
ATOM     12  C   LIG d   1       5.193  -5.034  -5.449  0.00  0.00    -0.060 A 
ATOM     13  C   LIG d   1       4.598  -3.805  -5.262  0.00  0.00    -0.040 A 
ATOM     14  C   LIG d   1       5.254  -2.637  -5.639  0.00  0.00     0.038 A 
ATOM     15  N   LIG d   1       4.562  -1.429  -5.488  0.00  0.00    -0.291 N 
ATOM     16  H   LIG d   1       4.089   1.413  -9.845  0.00  0.00     0.062 H 
ATOM     17  H   LIG d   1       2.083   0.358  -8.898  0.00  0.00     0.062 H 
ATOM     18  H   LIG d   1       2.243  -0.980  -6.822  0.00  0.00     0.064 H 
ATOM     19  H   LIG d   1       6.277   1.173  -8.716  0.00  0.00     0.062 H 
ATOM     20  H   LIG d   1       7.429   0.623  -6.632  0.00  0.00     0.032 H 
ATOM     21  H   LIG d   1       6.508  -0.079  -5.285  0.00  0.00     0.032 H 
ATOM     22  H   LIG d   1       7.619  -1.605  -7.661  0.00  0.00     0.032 H 
ATOM     23  H   LIG d   1       8.333  -1.558  -6.041  0.00  0.00     0.032 H 
ATOM     24  H   LIG d   1       8.096  -4.004  -6.807  0.00  0.00     0.062 H 
ATOM     25  H   LIG d   1       6.927  -6.053  -6.174  0.00  0.00     0.062 H 
ATOM     26  H   LIG d   1       4.682  -5.940  -5.157  0.00  0.00     0.062 H 
ATOM     27  H   LIG d   1       3.613  -3.749  -4.821  0.00  0.00     0.064 H 
ENDROOT
BRANCH  15  28
ATOM     28  C   LIG d   1       4.067  -1.002  -4.177  0.00  0.00     0.072 C 
ATOM     29  H   LIG d   1       3.096  -1.460  -3.985  0.00  0.00     0.056 H 
ATOM     30  C   LIG d   1       5.060  -1.430  -3.088  0.00  0.00    -0.007 C 
ATOM     31  C   LIG d   1       6.409  -0.753  -3.363  0.00  0.00    -0.008 C 
ATOM     32  C   LIG d   1       4.537  -0.945  -1.731  0.00  0.00    -0.008 C 
ATOM     33  H   LIG d   1       5.177  -2.513  -3.093  0.00  0.00     0.032 H 
ATOM     34  C   LIG d   1       6.210   0.766  -3.361  0.00  0.00    -0.032 C 
ATOM     35  H   LIG d   1       7.122  -1.028  -2.587  0.00  0.00     0.032 H 
ATOM     36  H   LIG d   1       6.786  -1.071  -4.336  0.00  0.00     0.032 H 
ATOM     37  H   LIG d   1       6.830   1.212  -2.582  0.00  0.00     0.081 H 
ATOM     38  H   LIG d   1       6.494   1.173  -4.331  0.00  0.00     0.081 H 
ATOM     39  N   LIG d   1       4.794   1.100  -3.096  0.00  0.00     0.237 N 
ATOM     40  C   LIG d   1       3.933   0.523  -4.151  0.00  0.00    -0.012 C 
ATOM     41  C   LIG d   1       4.390   0.579  -1.773  0.00  0.00    -0.032 C 
ATOM     42  H   LIG d   1       4.686   2.121  -3.100  0.00  0.00     0.203 HD
ATOM     43  H   LIG d   1       4.234   0.931  -5.116  0.00  0.00     0.083 H 
ATOM     44  H   LIG d   1       2.896   0.794  -3.949  0.00  0.00     0.083 H 
ATOM     45  H   LIG d   1       5.025   1.026  -1.008  0.00  0.00     0.081 H 
ATOM     46  H   LIG d   1       3.351   0.850  -1.587  0.00  0.00     0.081 H 
ATOM     47  H   LIG d   1       3.567  -1.400  -1.530  0.00  0.00     0.032 H 
ATOM     48  H   LIG d   1       5.242  -1.222  -0.947  0.00  0.00     0.032 H 
ENDBRANCH  15  28
TORSDOF 1
ENDMDL
MODEL 2
REMARK VINA RESULT:      -6.5      1.668      4.891
REMARK  1 active torsions:
REMARK  status: ('A' for Active; 'I' for Inactive)
REMARK    1  A    between atoms: N_15  and  C_16 
ROOT
ATOM      1  C   LIG d   1       4.394  -0.491  -1.615  0.00  0.00    -0.061 A 
ATOM      2  C   LIG d   1       4.682   0.720  -2.219  0.00  0.00    -0.060 A 
ATOM      3  C   LIG d   1       5.266   0.755  -3.475  0.00  0.00    -0.040 A 
ATOM      4  C   LIG d   1       5.552  -0.442  -4.105  0.00  0.00     0.038 A 
ATOM      5  C   LIG d   1       5.243  -1.641  -3.516  0.00  0.00    -0.026 A 
ATOM      6  C   LIG d   1       4.675  -1.685  -2.263  0.00  0.00    -0.057 A 
ATOM      7  C   LIG d   1       5.521  -2.878  -4.328  0.00  0.00    -0.022 C 
ATOM      8  C   LIG d   1       6.990  -3.256  -4.271  0.00  0.00    -0.022 C 
ATOM      9  C   LIG d   1       7.896  -2.189  -4.843  0.00  0.00    -0.026 A 
ATOM     10  C   LIG d   1       9.255  -2.511  -4.834  0.00  0.00    -0.057 A 
ATOM     11  C   LIG d   1      10.200  -1.653  -5.345  0.00  0.00    -0.061 A 
ATOM     12  C   LIG d   1       9.817  -0.439  -5.890  0.00  0.00    -0.060 A 
ATOM     13  C   LIG d   1       8.482  -0.099  -5.901  0.00  0.00    -0.040 A 
ATOM     14  C   LIG d   1       7.528  -0.960  -5.367  0.00  0.00     0.038 A 
ATOM     15  N   LIG d   1       6.199  -0.519  -5.345  0.00  0.00    -0.291 N 
ATOM     16  H   LIG d   1       3.947  -0.506  -0.632  0.00  0.00     0.062 H 
ATOM     17  H   LIG d   1       4.449   1.643  -1.708  0.00  0.00     0.062 H 
ATOM     18  H   LIG d   1       5.493   1.698  -3.951  0.00  0.00     0.064 H 
ATOM     19  H   LIG d   1       4.452  -2.632  -1.793  0.00  0.00     0.062 H 
ATOM     20  H   LIG d   1       4.924  -3.703  -3.938  0.00  0.00     0.032 H 
ATOM     21  H   LIG d   1       5.240  -2.695  -5.366  0.00  0.00     0.032 H 
ATOM     22  H   LIG d   1       7.266  -3.433  -3.232  0.00  0.00     0.032 H 
ATOM     23  H   LIG d   1       7.137  -4.180  -4.832  0.00  0.00     0.032 H 
ATOM     24  H   LIG d   1       9.571  -3.454  -4.414  0.00  0.00     0.062 H 
ATOM     25  H   LIG d   1      11.245  -1.925  -5.323  0.00  0.00     0.062 H 
ATOM     26  H   LIG d   1      10.557   0.232  -6.304  0.00  0.00     0.062 H 
ATOM     27  H   LIG d   1       8.174   0.846  -6.325  0.00  0.00     0.064 H 
ENDROOT
BRANCH  15  28
ATOM     28  C   LIG d   1       5.507  -0.147  -6.582  0.00  0.00     0.072 C 
ATOM     29  H   LIG d   1       5.637   0.919  -6.767  0.00  0.00     0.056 H 
ATOM     30  C   LIG d   1       6.086  -0.948  -7.756  0.00  0.00    -0.007 C 
ATOM     31  C   LIG d   1       5.867  -2.442  -7.485  0.00  0.00    -0.008 C 
ATOM     32  C   LIG d   1       5.325  -0.564  -9.031  0.00  0.00    -0.008 C 
ATOM     33  H   LIG d   1       7.150  -0.739  -7.862  0.00  0.00     0.032 H 
ATOM     34  C   LIG d   1       4.365  -2.701  -7.330  0.00  0.00    -0.032 C 
ATOM     35  H   LIG d   1       6.253  -3.025  -8.320  0.00  0.00     0.032 H 
ATOM     36  H   LIG d   1       6.384  -2.727  -6.569  0.00  0.00     0.032 H 
ATOM     37  H   LIG d   1       4.038  -3.410  -8.091  0.00  0.00     0.081 H 
ATOM     38  H   LIG d   1       4.167  -3.112  -6.340  0.00  0.00     0.081 H 
ATOM     39  N   LIG d   1       3.604  -1.442  -7.488  0.00  0.00     0.237 N 
ATOM     40  C   LIG d   1       4.016  -0.470  -6.452  0.00  0.00    -0.012 C 
ATOM     41  C   LIG d   1       3.839  -0.876  -8.834  0.00  0.00    -0.032 C 
ATOM     42  H   LIG d   1       2.604  -1.642  -7.380  0.00  0.00     0.203 HD
ATOM     43  H   LIG d   1       3.820  -0.897  -5.468  0.00  0.00     0.083 H 
ATOM     44  H   LIG d   1       3.433   0.444  -6.574  0.00  0.00     0.083 H 
ATOM     45  H   LIG d   1       3.517  -1.600  -9.583  0.00  0.00     0.081 H 
ATOM     46  H   LIG d   1       3.257   0.039  -8.939  0.00  0.00     0.081 H 
ATOM     47  H   LIG d   1       5.452   0.500  -9.226  0.00  0.00     0.032 H 
ATOM     48  H   LIG d   1       5.710  -1.140  -9.873  0.00  0.00     0.032 H 
ENDBRANCH  15  28
TORSDOF 1
ENDMDL
MODEL 3
REMARK VINA RESULT:      -6.5      1.733      4.495
REMARK  1 active torsions:
REMARK  status: ('A' for Active; 'I' for Inactive)
REMARK    1  A    between atoms: N_15  and  C_16 
ROOT
ATOM      1  C   LIG d   1       6.600   1.460  -8.865  0.00  0.00    -0.061 A 
ATOM      2  C   LIG d   1       7.579   1.862  -7.974  0.00  0.00    -0.060 A 
ATOM      3  C   LIG d   1       7.673   1.272  -6.723  0.00  0.00    -0.040 A 
ATOM      4  C   LIG d   1       6.770   0.278  -6.391  0.00  0.00     0.038 A 
ATOM      5  C   LIG d   1       5.817  -0.137  -7.285  0.00  0.00    -0.026 A 
ATOM      6  C   LIG d   1       5.708   0.452  -8.524  0.00  0.00    -0.057 A 
ATOM      7  C   LIG d   1       4.944  -1.283  -6.848  0.00  0.00    -0.022 C 
ATOM      8  C   LIG d   1       3.836  -0.811  -5.924  0.00  0.00    -0.022 C 
ATOM      9  C   LIG d   1       4.358  -0.194  -4.645  0.00  0.00    -0.026 A 
ATOM     10  C   LIG d   1       3.369   0.228  -3.754  0.00  0.00    -0.057 A 
ATOM     11  C   LIG d   1       3.688   0.783  -2.537  0.00  0.00    -0.061 A 
ATOM     12  C   LIG d   1       5.013   0.931  -2.165  0.00  0.00    -0.060 A 
ATOM     13  C   LIG d   1       6.004   0.529  -3.033  0.00  0.00    -0.040 A 
ATOM     14  C   LIG d   1       5.681  -0.017  -4.272  0.00  0.00     0.038 A 
ATOM     15  N   LIG d   1       6.738  -0.337  -5.133  0.00  0.00    -0.291 N 
ATOM     16  H   LIG d   1       6.530   1.932  -9.833  0.00  0.00     0.062 H 
ATOM     17  H   LIG d   1       8.273   2.640  -8.255  0.00  0.00     0.062 H 
ATOM     18  H   LIG d   1       8.435   1.582  -6.023  0.00  0.00     0.064 H 
ATOM     19  H   LIG d   1       4.942   0.137  -9.218  0.00  0.00     0.062 H 
ATOM     20  H   LIG d   1       4.500  -1.749  -7.729  0.00  0.00     0.032 H 
ATOM     21  H   LIG d   1       5.554  -2.019  -6.326  0.00  0.00     0.032 H 
ATOM     22  H   LIG d   1       3.232  -0.071  -6.450  0.00  0.00     0.032 H 
ATOM     23  H   LIG d   1       3.203  -1.662  -5.671  0.00  0.00     0.032 H 
ATOM     24  H   LIG d   1       2.330   0.118  -4.029  0.00  0.00     0.062 H 
ATOM     25  H   LIG d   1       2.902   1.104  -1.869  0.00  0.00     0.062 H 
ATOM     26  H   LIG d   1       5.265   1.356  -1.204  0.00  0.00     0.062 H 
ATOM     27  H   LIG d   1       7.041   0.639  -2.750  0.00  0.00     0.064 H 
ENDROOT
BRANCH  15  28
ATOM     28  C   LIG d   1       7.780  -1.285  -4.729  0.00  0.00     0.072 C 
ATOM     29  H   LIG d   1       8.590  -0.749  -4.234  0.00  0.00     0.056 H 
ATOM     30  C   LIG d   1       7.186  -2.322  -3.767  0.00  0.00    -0.007 C 
ATOM     31  C   LIG d   1       6.068  -3.081  -4.494  0.00  0.00    -0.008 C 
ATOM     32  C   LIG d   1       8.287  -3.319  -3.384  0.00  0.00    -0.008 C 
ATOM     33  H   LIG d   1       6.788  -1.827  -2.882  0.00  0.00     0.032 H 
ATOM     34  C   LIG d   1       6.657  -3.756  -5.737  0.00  0.00    -0.032 C 
ATOM     35  H   LIG d   1       5.650  -3.837  -3.831  0.00  0.00     0.032 H 
ATOM     36  H   LIG d   1       5.287  -2.382  -4.792  0.00  0.00     0.032 H 
ATOM     37  H   LIG d   1       6.516  -4.835  -5.664  0.00  0.00     0.081 H 
ATOM     38  H   LIG d   1       6.154  -3.381  -6.627  0.00  0.00     0.081 H 
ATOM     39  N   LIG d   1       8.103  -3.468  -5.845  0.00  0.00     0.237 N 
ATOM     40  C   LIG d   1       8.320  -2.010  -5.965  0.00  0.00    -0.012 C 
ATOM     41  C   LIG d   1       8.812  -3.989  -4.657  0.00  0.00    -0.032 C 
ATOM     42  H   LIG d   1       8.473  -3.930  -6.683  0.00  0.00     0.203 HD
ATOM     43  H   LIG d   1       7.805  -1.647  -6.855  0.00  0.00     0.083 H 
ATOM     44  H   LIG d   1       9.390  -1.818  -6.061  0.00  0.00     0.083 H 
ATOM     45  H   LIG d   1       8.654  -5.065  -4.594  0.00  0.00     0.081 H 
ATOM     46  H   LIG d   1       9.878  -3.784  -4.763  0.00  0.00     0.081 H 
ATOM     47  H   LIG d   1       9.100  -2.792  -2.885  0.00  0.00     0.032 H 
ATOM     48  H   LIG d   1       7.876  -4.077  -2.716  0.00  0.00     0.032 H 
ENDBRANCH  15  28
TORSDOF 1
ENDMDL
MODEL 4
REMARK VINA RESULT:      -6.4      1.549      5.138
REMARK  1 active torsions:
REMARK  status: ('A' for Active; 'I' for Inactive)
REMARK    1  A    between atoms: N_15  and  C_16 
ROOT
ATOM      1  C   LIG d   1       9.167  -3.420  -4.702  0.00  0.00    -0.061 A 
ATOM      2  C   LIG d   1       8.046  -4.220  -4.562  0.00  0.00    -0.060 A 
ATOM      3  C   LIG d   1       6.778  -3.680  -4.710  0.00  0.00    -0.040 A 
ATOM      4  C   LIG d   1       6.662  -2.333  -5.000  0.00  0.00     0.038 A 
ATOM      5  C   LIG d   1       7.775  -1.548  -5.163  0.00  0.00    -0.026 A 
ATOM      6  C   LIG d   1       9.037  -2.073  -5.005  0.00  0.00    -0.057 A 
ATOM      7  C   LIG d   1       7.531  -0.116  -5.559  0.00  0.00    -0.022 C 
ATOM      8  C   LIG d   1       7.141   0.729  -4.360  0.00  0.00    -0.022 C 
ATOM      9  C   LIG d   1       5.856   0.270  -3.708  0.00  0.00    -0.026 A 
ATOM     10  C   LIG d   1       5.447   1.040  -2.617  0.00  0.00    -0.057 A 
ATOM     11  C   LIG d   1       4.284   0.762  -1.937  0.00  0.00    -0.061 A 
ATOM     12  C   LIG d   1       3.483  -0.295  -2.330  0.00  0.00    -0.060 A 
ATOM     13  C   LIG d   1       3.873  -1.072  -3.400  0.00  0.00    -0.040 A 
ATOM     14  C   LIG d   1       5.059  -0.802  -4.076  0.00  0.00     0.038 A 
ATOM     15  N   LIG d   1       5.429  -1.676  -5.105  0.00  0.00    -0.291 N 
ATOM     16  H   LIG d   1      10.149  -3.850  -4.576  0.00  0.00     0.062 H 
ATOM     17  H   LIG d   1       8.160  -5.270  -4.337  0.00  0.00     0.062 H 
ATOM     18  H   LIG d   1       5.899  -4.299  -4.602  0.00  0.00     0.064 H 
ATOM     19  H   LIG d   1       9.911  -1.447  -5.113  0.00  0.00     0.062 H 
ATOM     20  H   LIG d   1       8.441   0.291  -6.002  0.00  0.00     0.032 H 
ATOM     21  H   LIG d   1       6.729  -0.080  -6.297  0.00  0.00     0.032 H 
ATOM     22  H   LIG d   1       7.944   0.686  -3.624  0.00  0.00     0.032 H 
ATOM     23  H   LIG d   1       7.021   1.764  -4.683  0.00  0.00     0.032 H 
ATOM     24  H   LIG d   1       6.060   1.870  -2.298  0.00  0.00     0.062 H 
ATOM     25  H   LIG d   1       3.994   1.372  -1.094  0.00  0.00     0.062 H 
ATOM     26  H   LIG d   1       2.563  -0.508  -1.805  0.00  0.00     0.062 H 
ATOM     27  H   LIG d   1       3.253  -1.900  -3.714  0.00  0.00     0.064 H 
ENDROOT
BRANCH  15  28
ATOM     28  C   LIG d   1       4.553  -1.897  -6.259  0.00  0.00     0.072 C 
ATOM     29  H   LIG d   1       3.700  -2.506  -5.958  0.00  0.00     0.056 H 
ATOM     30  C   LIG d   1       4.058  -0.548  -6.795  0.00  0.00    -0.007 C 
ATOM     31  C   LIG d   1       5.273   0.279  -7.237  0.00  0.00    -0.008 C 
ATOM     32  C   LIG d   1       3.169  -0.805  -8.019  0.00  0.00    -0.008 C 
ATOM     33  H   LIG d   1       3.506  -0.017  -6.021  0.00  0.00     0.032 H 
ATOM     34  C   LIG d   1       6.032  -0.498  -8.317  0.00  0.00    -0.032 C 
ATOM     35  H   LIG d   1       4.937   1.233  -7.641  0.00  0.00     0.032 H 
ATOM     36  H   LIG d   1       5.926   0.453  -6.382  0.00  0.00     0.032 H 
ATOM     37  H   LIG d   1       6.060   0.090  -9.235  0.00  0.00     0.081 H 
ATOM     38  H   LIG d   1       7.050  -0.692  -7.978  0.00  0.00     0.081 H 
ATOM     39  N   LIG d   1       5.364  -1.787  -8.593  0.00  0.00     0.237 N 
ATOM     40  C   LIG d   1       5.332  -2.613  -7.366  0.00  0.00    -0.012 C 
ATOM     41  C   LIG d   1       3.988  -1.549  -9.077  0.00  0.00    -0.032 C 
ATOM     42  H   LIG d   1       5.891  -2.287  -9.317  0.00  0.00     0.203 HD
ATOM     43  H   LIG d   1       6.356  -2.792  -7.033  0.00  0.00     0.083 H 
ATOM     44  H   LIG d   1       4.852  -3.565  -7.592  0.00  0.00     0.083 H 
ATOM     45  H   LIG d   1       4.032  -0.953  -9.989  0.00  0.00     0.081 H 
ATOM     46  H   LIG d   1       3.517  -2.509  -9.293  0.00  0.00     0.081 H 
ATOM     47  H   LIG d   1       2.312  -1.410  -7.727  0.00  0.00     0.032 H 
ATOM     48  H   LIG d   1       2.825   0.147  -8.426  0.00  0.00     0.032 H 
ENDBRANCH  15  28
TORSDOF 1
ENDMDL
MODEL 5
REMARK VINA RESULT:      -6.4      1.951      4.012
REMARK  1 active torsions:
REMARK  status: ('A' for Active; 'I' for Inactive)
REMARK    1  A    between atoms: N_15  and  C_16 
ROOT
ATOM      1  C   LIG d   1       2.870  -0.262  -3.297  0.00  0.00    -0.061 A 
ATOM      2  C   LIG d   1       3.195  -1.370  -2.534  0.00  0.00    -0.060 A 
ATOM      3  C   LIG d   1       4.061  -2.332  -3.029  0.00  0.00    -0.040 A 
ATOM      4  C   LIG d   1       4.587  -2.158  -4.296  0.00  0.00     0.038 A 
ATOM      5  C   LIG d   1       4.284  -1.047  -5.040  0.00  0.00    -0.026 A 
ATOM      6  C   LIG d   1       3.416  -0.093  -4.561  0.00  0.00    -0.057 A 
ATOM      7  C   LIG d   1       4.981  -0.921  -6.369  0.00  0.00    -0.022 C 
ATOM      8  C   LIG d   1       4.313  -1.781  -7.426  0.00  0.00    -0.022 C 
ATOM      9  C   LIG d   1       4.347  -3.256  -7.094  0.00  0.00    -0.026 A 
ATOM     10  C   LIG d   1       3.767  -4.085  -8.057  0.00  0.00    -0.057 A 
ATOM     11  C   LIG d   1       3.746  -5.452  -7.909  0.00  0.00    -0.061 A 
ATOM     12  C   LIG d   1       4.312  -6.041  -6.792  0.00  0.00    -0.060 A 
ATOM     13  C   LIG d   1       4.883  -5.240  -5.826  0.00  0.00    -0.040 A 
ATOM     14  C   LIG d   1       4.888  -3.855  -5.968  0.00  0.00     0.038 A 
ATOM     15  N   LIG d   1       5.419  -3.100  -4.915  0.00  0.00    -0.291 N 
ATOM     16  H   LIG d   1       2.188   0.477  -2.904  0.00  0.00     0.062 H 
ATOM     17  H   LIG d   1       2.772  -1.484  -1.547  0.00  0.00     0.062 H 
ATOM     18  H   LIG d   1       4.317  -3.199  -2.439  0.00  0.00     0.064 H 
ATOM     19  H   LIG d   1       3.163   0.770  -5.159  0.00  0.00     0.062 H 
ATOM     20  H   LIG d   1       4.955   0.122  -6.688  0.00  0.00     0.032 H 
ATOM     21  H   LIG d   1       6.020  -1.233  -6.259  0.00  0.00     0.032 H 
ATOM     22  H   LIG d   1       3.274  -1.467  -7.528  0.00  0.00     0.032 H 
ATOM     23  H   LIG d   1       4.819  -1.623  -8.379  0.00  0.00     0.032 H 
ATOM     24  H   LIG d   1       3.322  -3.641  -8.935  0.00  0.00     0.062 H 
ATOM     25  H   LIG d   1       3.287  -6.069  -8.667  0.00  0.00     0.062 H 
ATOM     26  H   LIG d   1       4.307  -7.116  -6.680  0.00  0.00     0.062 H 
ATOM     27  H   LIG d   1       5.328  -5.691  -4.952  0.00  0.00     0.064 H 
ENDROOT
BRANCH  15  28
ATOM     28  C   LIG d   1       6.803  -3.291  -4.473  0.00  0.00     0.072 C 
ATOM     29  H   LIG d   1       6.846  -4.104  -3.748  0.00  0.00     0.056 H 
ATOM     30  C   LIG d   1       7.686  -3.631  -5.680  0.00  0.00    -0.007 C 
ATOM     31  C   LIG d   1       7.631  -2.462  -6.672  0.00  0.00    -0.008 C 
ATOM     32  C   LIG d   1       9.133  -3.795  -5.197  0.00  0.00    -0.008 C 
ATOM     33  H   LIG d   1       7.332  -4.544  -6.158  0.00  0.00     0.032 H 
ATOM     34  C   LIG d   1       8.124  -1.194  -5.969  0.00  0.00    -0.032 C 
ATOM     35  H   LIG d   1       8.271  -2.678  -7.527  0.00  0.00     0.032 H 
ATOM     36  H   LIG d   1       6.604  -2.319  -7.010  0.00  0.00     0.032 H 
ATOM     37  H   LIG d   1       8.999  -0.806  -6.493  0.00  0.00     0.081 H 
ATOM     38  H   LIG d   1       7.333  -0.444  -5.974  0.00  0.00     0.081 H 
ATOM     39  N   LIG d   1       8.496  -1.491  -4.569  0.00  0.00     0.237 N 
ATOM     40  C   LIG d   1       7.320  -2.000  -3.831  0.00  0.00    -0.012 C 
ATOM     41  C   LIG d   1       9.585  -2.490  -4.536  0.00  0.00    -0.032 C 
ATOM     42  H   LIG d   1       8.822  -0.627  -4.121  0.00  0.00     0.203 HD
ATOM     43  H   LIG d   1       6.534  -1.244  -3.852  0.00  0.00     0.083 H 
ATOM     44  H   LIG d   1       7.608  -2.197  -2.798  0.00  0.00     0.083 H 
ATOM     45  H   LIG d   1      10.447  -2.091  -5.071  0.00  0.00     0.081 H 
ATOM     46  H   LIG d   1       9.858  -2.682  -3.499  0.00  0.00     0.081 H 
ATOM     47  H   LIG d   1       9.186  -4.609  -4.474  0.00  0.00     0.032 H 
ATOM     48  H   LIG d   1       9.779  -4.017  -6.047  0.00  0.00     0.032 H 
ENDBRANCH  15  28
TORSDOF 1
ENDMDL
MODEL 6
REMARK VINA RESULT:      -6.4      1.549      4.989
REMARK  1 active torsions:
REMARK  status: ('A' for Active; 'I' for Inactive)
REMARK    1  A    between atoms: N_15  and  C_16 
ROOT
ATOM      1  C   LIG d   1       6.211  -6.500  -5.577  0.00  0.00    -0.061 A 
ATOM      2  C   LIG d   1       4.868  -6.325  -5.861  0.00  0.00    -0.060 A 
ATOM      3  C   LIG d   1       4.323  -5.052  -5.913  0.00  0.00    -0.040 A 
ATOM      4  C   LIG d   1       5.150  -3.969  -5.674  0.00  0.00     0.038 A 
ATOM      5  C   LIG d   1       6.485  -4.143  -5.417  0.00  0.00    -0.026 A 
ATOM      6  C   LIG d   1       7.032  -5.405  -5.352  0.00  0.00    -0.057 A 
ATOM      7  C   LIG d   1       7.305  -2.890  -5.256  0.00  0.00    -0.022 C 
ATOM      8  C   LIG d   1       7.140  -2.298  -3.868  0.00  0.00    -0.022 C 
ATOM      9  C   LIG d   1       5.717  -1.887  -3.568  0.00  0.00    -0.026 A 
ATOM     10  C   LIG d   1       5.529  -1.311  -2.310  0.00  0.00    -0.057 A 
ATOM     11  C   LIG d   1       4.294  -0.861  -1.903  0.00  0.00    -0.061 A 
ATOM     12  C   LIG d   1       3.202  -0.967  -2.745  0.00  0.00    -0.060 A 
ATOM     13  C   LIG d   1       3.364  -1.540  -3.988  0.00  0.00    -0.040 A 
ATOM     14  C   LIG d   1       4.610  -2.011  -4.392  0.00  0.00     0.038 A 
ATOM     15  N   LIG d   1       4.687  -2.647  -5.638  0.00  0.00    -0.291 N 
ATOM     16  H   LIG d   1       6.623  -7.497  -5.531  0.00  0.00     0.062 H 
ATOM     17  H   LIG d   1       4.242  -7.186  -6.046  0.00  0.00     0.062 H 
ATOM     18  H   LIG d   1       3.276  -4.909  -6.134  0.00  0.00     0.064 H 
ATOM     19  H   LIG d   1       8.080  -5.539  -5.128  0.00  0.00     0.062 H 
ATOM     20  H   LIG d   1       8.356  -3.129  -5.421  0.00  0.00     0.032 H 
ATOM     21  H   LIG d   1       6.986  -2.157  -5.997  0.00  0.00     0.032 H 
ATOM     22  H   LIG d   1       7.456  -3.037  -3.132  0.00  0.00     0.032 H 
ATOM     23  H   LIG d   1       7.785  -1.423  -3.781  0.00  0.00     0.032 H 
ATOM     24  H   LIG d   1       6.371  -1.219  -1.640  0.00  0.00     0.062 H 
ATOM     25  H   LIG d   1       4.177  -0.423  -0.922  0.00  0.00     0.062 H 
ATOM     26  H   LIG d   1       2.233  -0.603  -2.432  0.00  0.00     0.062 H 
ATOM     27  H   LIG d   1       2.517  -1.626  -4.653  0.00  0.00     0.064 H 
ENDROOT
BRANCH  15  28
ATOM     28  C   LIG d   1       4.295  -1.951  -6.866  0.00  0.00     0.072 C 
ATOM     29  H   LIG d   1       3.239  -2.133  -7.067  0.00  0.00     0.056 H 
ATOM     30  C   LIG d   1       4.535  -0.445  -6.703  0.00  0.00    -0.007 C 
ATOM     31  C   LIG d   1       6.030  -0.213  -6.448  0.00  0.00    -0.008 C 
ATOM     32  C   LIG d   1       4.147   0.257  -8.010  0.00  0.00    -0.008 C 
ATOM     33  H   LIG d   1       3.949  -0.060  -5.869  0.00  0.00     0.032 H 
ATOM     34  C   LIG d   1       6.826  -0.773  -7.631  0.00  0.00    -0.032 C 
ATOM     35  H   LIG d   1       6.223   0.855  -6.351  0.00  0.00     0.032 H 
ATOM     36  H   LIG d   1       6.328  -0.723  -5.532  0.00  0.00     0.032 H 
ATOM     37  H   LIG d   1       7.399   0.031  -8.095  0.00  0.00     0.081 H 
ATOM     38  H   LIG d   1       7.506  -1.548  -7.278  0.00  0.00     0.081 H 
ATOM     39  N   LIG d   1       5.914  -1.355  -8.638  0.00  0.00     0.237 N 
ATOM     40  C   LIG d   1       5.139  -2.462  -8.037  0.00  0.00    -0.012 C 
ATOM     41  C   LIG d   1       4.996  -0.315  -9.150  0.00  0.00    -0.032 C 
ATOM     42  H   LIG d   1       6.469  -1.722  -9.418  0.00  0.00     0.203 HD
ATOM     43  H   LIG d   1       5.831  -3.226  -7.681  0.00  0.00     0.083 H 
ATOM     44  H   LIG d   1       4.485  -2.890  -8.798  0.00  0.00     0.083 H 
ATOM     45  H   LIG d   1       5.583   0.484  -9.602  0.00  0.00     0.081 H 
ATOM     46  H   LIG d   1       4.344  -0.757  -9.903  0.00  0.00     0.081 H 
ATOM     47  H   LIG d   1       3.091   0.083  -8.218  0.00  0.00     0.032 H 
ATOM     48  H   LIG d   1       4.332   1.328  -7.919  0.00  0.00     0.032 H 
ENDBRANCH  15  28
TORSDOF 1
ENDMDL
MODEL 7
REMARK VINA RESULT:      -6.4      1.781      4.046
REMARK  1 active torsions:
REMARK  status: ('A' for Active; 'I' for Inactive)
REMARK    1  A    between atoms: N_15  and  C_16 
ROOT
ATOM      1  C   LIG d   1       3.149  -1.965  -8.849  0.00  0.00    -0.061 A 
ATOM      2  C   LIG d   1       3.243  -0.602  -8.629  0.00  0.00    -0.060 A 
ATOM      3  C   LIG d   1       4.050  -0.110  -7.616  0.00  0.00    -0.040 A 
ATOM      4  C   LIG d   1       4.754  -1.009  -6.835  0.00  0.00     0.038 A 
ATOM      5  C   LIG d   1       4.679  -2.358  -7.071  0.00  0.00    -0.026 A 
ATOM      6  C   LIG d   1       3.870  -2.856  -8.067  0.00  0.00    -0.057 A 
ATOM      7  C   LIG d   1       5.553  -3.236  -6.215  0.00  0.00    -0.022 C 
ATOM      8  C   LIG d   1       4.934  -3.466  -4.848  0.00  0.00    -0.022 C 
ATOM      9  C   LIG d   1       4.756  -2.187  -4.060  0.00  0.00    -0.026 A 
ATOM     10  C   LIG d   1       4.215  -2.359  -2.784  0.00  0.00    -0.057 A 
ATOM     11  C   LIG d   1       4.019  -1.293  -1.937  0.00  0.00    -0.061 A 
ATOM     12  C   LIG d   1       4.364  -0.014  -2.337  0.00  0.00    -0.060 A 
ATOM     13  C   LIG d   1       4.891   0.178  -3.595  0.00  0.00    -0.040 A 
ATOM     14  C   LIG d   1       5.073  -0.899  -4.458  0.00  0.00     0.038 A 
ATOM     15  N   LIG d   1       5.546  -0.621  -5.747  0.00  0.00    -0.291 N 
ATOM     16  H   LIG d   1       2.510  -2.338  -9.636  0.00  0.00     0.062 H 
ATOM     17  H   LIG d   1       2.685   0.082  -9.252  0.00  0.00     0.062 H 
ATOM     18  H   LIG d   1       4.127   0.953  -7.439  0.00  0.00     0.064 H 
ATOM     19  H   LIG d   1       3.798  -3.920  -8.236  0.00  0.00     0.062 H 
ATOM     20  H   LIG d   1       5.688  -4.198  -6.712  0.00  0.00     0.032 H 
ATOM     21  H   LIG d   1       6.526  -2.761  -6.091  0.00  0.00     0.032 H 
ATOM     22  H   LIG d   1       3.960  -3.937  -4.979  0.00  0.00     0.032 H 
ATOM     23  H   LIG d   1       5.574  -4.142  -4.281  0.00  0.00     0.032 H 
ATOM     24  H   LIG d   1       3.941  -3.351  -2.456  0.00  0.00     0.062 H 
ATOM     25  H   LIG d   1       3.594  -1.454  -0.957  0.00  0.00     0.062 H 
ATOM     26  H   LIG d   1       4.221   0.824  -1.669  0.00  0.00     0.062 H 
ATOM     27  H   LIG d   1       5.165   1.174  -3.915  0.00  0.00     0.064 H 
ENDROOT
BRANCH  15  28
ATOM     28  C   LIG d   1       6.829   0.055  -5.951  0.00  0.00     0.072 C 
ATOM     29  H   LIG d   1       6.666   1.129  -6.040  0.00  0.00     0.056 H 
ATOM     30  C   LIG d   1       7.754  -0.226  -4.759  0.00  0.00    -0.007 C 
ATOM     31  C   LIG d   1       7.990  -1.739  -4.670  0.00  0.00    -0.008 C 
ATOM     32  C   LIG d   1       9.099   0.466  -5.010  0.00  0.00    -0.008 C 
ATOM     33  H   LIG d   1       7.298   0.136  -3.838  0.00  0.00     0.032 H 
ATOM     34  C   LIG d   1       8.621  -2.219  -5.981  0.00  0.00    -0.032 C 
ATOM     35  H   LIG d   1       8.663  -1.956  -3.841  0.00  0.00     0.032 H 
ATOM     36  H   LIG d   1       7.040  -2.249  -4.512  0.00  0.00     0.032 H 
ATOM     37  H   LIG d   1       9.594  -2.666  -5.773  0.00  0.00     0.081 H 
ATOM     38  H   LIG d   1       7.972  -2.960  -6.447  0.00  0.00     0.081 H 
ATOM     39  N   LIG d   1       8.802  -1.085  -6.912  0.00  0.00     0.237 N 
ATOM     40  C   LIG d   1       7.492  -0.474  -7.225  0.00  0.00    -0.012 C 
ATOM     41  C   LIG d   1       9.699  -0.076  -6.310  0.00  0.00    -0.032 C 
ATOM     42  H   LIG d   1       9.224  -1.431  -7.781  0.00  0.00     0.203 HD
ATOM     43  H   LIG d   1       6.850  -1.228  -7.683  0.00  0.00     0.083 H 
ATOM     44  H   LIG d   1       7.643   0.348  -7.926  0.00  0.00     0.083 H 
ATOM     45  H   LIG d   1      10.663  -0.539  -6.101  0.00  0.00     0.081 H 
ATOM     46  H   LIG d   1       9.836   0.743  -7.017  0.00  0.00     0.081 H 
ATOM     47  H   LIG d   1       8.946   1.541  -5.098  0.00  0.00     0.032 H 
ATOM     48  H   LIG d   1       9.777   0.259  -4.181  0.00  0.00     0.032 H 
ENDBRANCH  15  28
TORSDOF 1
ENDMDL
MODEL 8
REMARK VINA RESULT:      -6.2      1.518      4.802
REMARK  1 active torsions:
REMARK  status: ('A' for Active; 'I' for Inactive)
REMARK    1  A    between atoms: N_15  and  C_16 
ROOT
ATOM      1  C   LIG d   1       3.920   0.819  -2.172  0.00  0.00    -0.061 A 
ATOM      2  C   LIG d   1       3.038   0.609  -3.218  0.00  0.00    -0.060 A 
ATOM      3  C   LIG d   1       3.480   0.043  -4.404  0.00  0.00    -0.040 A 
ATOM      4  C   LIG d   1       4.814  -0.304  -4.514  0.00  0.00     0.038 A 
ATOM      5  C   LIG d   1       5.681  -0.118  -3.468  0.00  0.00    -0.026 A 
ATOM      6  C   LIG d   1       5.254   0.455  -2.292  0.00  0.00    -0.057 A 
ATOM      7  C   LIG d   1       7.089  -0.610  -3.671  0.00  0.00    -0.022 C 
ATOM      8  C   LIG d   1       7.905   0.374  -4.489  0.00  0.00    -0.022 C 
ATOM      9  C   LIG d   1       7.350   0.586  -5.880  0.00  0.00    -0.026 A 
ATOM     10  C   LIG d   1       8.090   1.465  -6.675  0.00  0.00    -0.057 A 
ATOM     11  C   LIG d   1       7.726   1.738  -7.973  0.00  0.00    -0.061 A 
ATOM     12  C   LIG d   1       6.610   1.134  -8.525  0.00  0.00    -0.060 A 
ATOM     13  C   LIG d   1       5.862   0.271  -7.755  0.00  0.00    -0.040 A 
ATOM     14  C   LIG d   1       6.220   0.009  -6.436  0.00  0.00     0.038 A 
ATOM     15  N   LIG d   1       5.375  -0.821  -5.689  0.00  0.00    -0.291 N 
ATOM     16  H   LIG d   1       3.567   1.269  -1.256  0.00  0.00     0.062 H 
ATOM     17  H   LIG d   1       2.000   0.888  -3.109  0.00  0.00     0.062 H 
ATOM     18  H   LIG d   1       2.796  -0.122  -5.223  0.00  0.00     0.064 H 
ATOM     19  H   LIG d   1       5.944   0.619  -1.478  0.00  0.00     0.062 H 
ATOM     20  H   LIG d   1       7.563  -0.746  -2.698  0.00  0.00     0.032 H 
ATOM     21  H   LIG d   1       7.062  -1.569  -4.189  0.00  0.00     0.032 H 
ATOM     22  H   LIG d   1       7.924   1.332  -3.968  0.00  0.00     0.032 H 
ATOM     23  H   LIG d   1       8.927   0.002  -4.571  0.00  0.00     0.032 H 
ATOM     24  H   LIG d   1       8.965   1.943  -6.260  0.00  0.00     0.062 H 
ATOM     25  H   LIG d   1       8.314   2.424  -8.565  0.00  0.00     0.062 H 
ATOM     26  H   LIG d   1       6.329   1.338  -9.549  0.00  0.00     0.062 H 
ATOM     27  H   LIG d   1       4.989  -0.206  -8.178  0.00  0.00     0.064 H 
ENDROOT
BRANCH  15  28
ATOM     28  C   LIG d   1       5.085  -2.190  -6.124  0.00  0.00     0.072 C 
ATOM     29  H   LIG d   1       4.187  -2.194  -6.743  0.00  0.00     0.056 H 
ATOM     30  C   LIG d   1       6.269  -2.734  -6.933  0.00  0.00    -0.007 C 
ATOM     31  C   LIG d   1       7.513  -2.744  -6.035  0.00  0.00    -0.008 C 
ATOM     32  C   LIG d   1       5.954  -4.177  -7.350  0.00  0.00    -0.008 C 
ATOM     33  H   LIG d   1       6.444  -2.109  -7.808  0.00  0.00     0.032 H 
ATOM     34  C   LIG d   1       7.231  -3.623  -4.812  0.00  0.00    -0.032 C 
ATOM     35  H   LIG d   1       8.359  -3.149  -6.588  0.00  0.00     0.032 H 
ATOM     36  H   LIG d   1       7.738  -1.728  -5.712  0.00  0.00     0.032 H 
ATOM     37  H   LIG d   1       7.948  -4.444  -4.783  0.00  0.00     0.081 H 
ATOM     38  H   LIG d   1       7.326  -3.025  -3.905  0.00  0.00     0.081 H 
ATOM     39  N   LIG d   1       5.864  -4.181  -4.880  0.00  0.00     0.237 N 
ATOM     40  C   LIG d   1       4.871  -3.084  -4.899  0.00  0.00    -0.012 C 
ATOM     41  C   LIG d   1       5.718  -5.015  -6.091  0.00  0.00    -0.032 C 
ATOM     42  H   LIG d   1       5.700  -4.763  -4.051  0.00  0.00     0.203 HD
ATOM     43  H   LIG d   1       4.983  -2.490  -3.991  0.00  0.00     0.083 H 
ATOM     44  H   LIG d   1       3.870  -3.514  -4.932  0.00  0.00     0.083 H 
ATOM     45  H   LIG d   1       6.446  -5.825  -6.052  0.00  0.00     0.081 H 
ATOM     46  H   LIG d   1       4.711  -5.432  -6.115  0.00  0.00     0.081 H 
ATOM     47  H   LIG d   1       5.059  -4.190  -7.972  0.00  0.00     0.032 H 
ATOM     48  H   LIG d   1       6.796  -4.587  -7.910  0.00  0.00     0.032 H 
ENDBRANCH  15  28
TORSDOF 1
ENDMDL
MODEL 9
REMARK VINA RESULT:      -6.1      1.950      4.728
REMARK  1 active torsions:
REMARK  status: ('A' for Active; 'I' for Inactive)
REMARK    1  A    between atoms: N_15  and  C_16 
ROOT
ATOM      1  C   LIG d   1       8.433  -4.603  -5.338  0.00  0.00    -0.061 A 
ATOM      2  C   LIG d   1       8.617  -4.218  -4.022  0.00  0.00    -0.060 A 
ATOM      3  C   LIG d   1       8.042  -3.050  -3.547  0.00  0.00    -0.040 A 
ATOM      4  C   LIG d   1       7.286  -2.285  -4.416  0.00  0.00     0.038 A 
ATOM      5  C   LIG d   1       7.084  -2.681  -5.713  0.00  0.00    -0.026 A 
ATOM      6  C   LIG d   1       7.662  -3.833  -6.197  0.00  0.00    -0.057 A 
ATOM      7  C   LIG d   1       6.175  -1.815  -6.544  0.00  0.00    -0.022 C 
ATOM      8  C   LIG d   1       6.903  -0.586  -7.059  0.00  0.00    -0.022 C 
ATOM      9  C   LIG d   1       7.405   0.309  -5.948  0.00  0.00    -0.026 A 
ATOM     10  C   LIG d   1       8.057   1.467  -6.382  0.00  0.00    -0.057 A 
ATOM     11  C   LIG d   1       8.545   2.392  -5.490  0.00  0.00    -0.061 A 
ATOM     12  C   LIG d   1       8.394   2.196  -4.128  0.00  0.00    -0.060 A 
ATOM     13  C   LIG d   1       7.761   1.056  -3.680  0.00  0.00    -0.040 A 
ATOM     14  C   LIG d   1       7.283   0.111  -4.583  0.00  0.00     0.038 A 
ATOM     15  N   LIG d   1       6.716  -1.056  -4.056  0.00  0.00    -0.291 N 
ATOM     16  H   LIG d   1       8.893  -5.511  -5.700  0.00  0.00     0.062 H 
ATOM     17  H   LIG d   1       9.211  -4.832  -3.361  0.00  0.00     0.062 H 
ATOM     18  H   LIG d   1       8.183  -2.744  -2.521  0.00  0.00     0.064 H 
ATOM     19  H   LIG d   1       7.518  -4.131  -7.225  0.00  0.00     0.062 H 
ATOM     20  H   LIG d   1       5.807  -2.394  -7.392  0.00  0.00     0.032 H 
ATOM     21  H   LIG d   1       5.327  -1.499  -5.935  0.00  0.00     0.032 H 
ATOM     22  H   LIG d   1       7.751  -0.908  -7.662  0.00  0.00     0.032 H 
ATOM     23  H   LIG d   1       6.223  -0.014  -7.691  0.00  0.00     0.032 H 
ATOM     24  H   LIG d   1       8.182   1.636  -7.441  0.00  0.00     0.062 H 
ATOM     25  H   LIG d   1       9.048   3.277  -5.852  0.00  0.00     0.062 H 
ATOM     26  H   LIG d   1       8.766   2.928  -3.426  0.00  0.00     0.062 H 
ATOM     27  H   LIG d   1       7.638   0.895  -2.619  0.00  0.00     0.064 H 
ENDROOT
BRANCH  15  28
ATOM     28  C   LIG d   1       5.563  -0.995  -3.155  0.00  0.00     0.072 C 
ATOM     29  H   LIG d   1       5.905  -1.034  -2.120  0.00  0.00     0.056 H 
ATOM     30  C   LIG d   1       4.793   0.310  -3.393  0.00  0.00    -0.007 C 
ATOM     31  C   LIG d   1       4.299   0.329  -4.845  0.00  0.00    -0.008 C 
ATOM     32  C   LIG d   1       3.575   0.336  -2.461  0.00  0.00    -0.008 C 
ATOM     33  H   LIG d   1       5.440   1.166  -3.206  0.00  0.00     0.032 H 
ATOM     34  C   LIG d   1       3.401  -0.890  -5.077  0.00  0.00    -0.032 C 
ATOM     35  H   LIG d   1       3.730   1.241  -5.025  0.00  0.00     0.032 H 
ATOM     36  H   LIG d   1       5.153   0.290  -5.522  0.00  0.00     0.032 H 
ATOM     37  H   LIG d   1       2.405  -0.556  -5.371  0.00  0.00     0.081 H 
ATOM     38  H   LIG d   1       3.825  -1.509  -5.867  0.00  0.00     0.081 H 
ATOM     39  N   LIG d   1       3.292  -1.695  -3.842  0.00  0.00     0.237 N 
ATOM     40  C   LIG d   1       4.630  -2.177  -3.434  0.00  0.00    -0.012 C 
ATOM     41  C   LIG d   1       2.697  -0.882  -2.760  0.00  0.00    -0.032 C 
ATOM     42  H   LIG d   1       2.687  -2.503  -4.023  0.00  0.00     0.203 HD
ATOM     43  H   LIG d   1       5.046  -2.787  -4.236  0.00  0.00     0.083 H 
ATOM     44  H   LIG d   1       4.528  -2.782  -2.532  0.00  0.00     0.083 H 
ATOM     45  H   LIG d   1       1.707  -0.549  -3.072  0.00  0.00     0.081 H 
ATOM     46  H   LIG d   1       2.607  -1.496  -1.864  0.00  0.00     0.081 H 
ATOM     47  H   LIG d   1       3.908   0.301  -1.424  0.00  0.00     0.032 H 
ATOM     48  H   LIG d   1       3.004   1.249  -2.632  0.00  0.00     0.032 H 
ENDBRANCH  15  28
TORSDOF 1
ENDMDL
