MODEL 1
REMARK VINA RESULT:      -6.6      0.000      0.000
REMARK  2 active torsions:
REMARK  status: ('A' for Active; 'I' for Inactive)
REMARK    1  A    between atoms: N_13  and  C_16 
REMARK    2  A    between atoms: C_16  and  C_17 
ROOT
ATOM      1  C   LIG d   1       3.830   0.821  -2.094  0.00  0.00    -0.061 A 
ATOM      2  C   LIG d   1       4.472  -0.329  -1.654  0.00  0.00    -0.060 A 
ATOM      3  C   LIG d   1       4.821  -1.322  -2.541  0.00  0.00    -0.038 A 
ATOM      4  C   LIG d   1       4.526  -1.177  -3.895  0.00  0.00     0.049 A 
ATOM      5  C   LIG d   1       3.871  -0.013  -4.334  0.00  0.00     0.026 A 
ATOM      6  C   LIG d   1       3.533   0.983  -3.418  0.00  0.00    -0.051 A 
ATOM      7  C   LIG d   1       3.696  -0.156  -5.786  0.00  0.00     0.103 A 
ATOM      8  C   LIG d   1       4.248  -1.388  -6.130  0.00  0.00     0.131 A 
ATOM      9  N   LIG d   1       4.748  -1.985  -4.990  0.00  0.00    -0.349 N 
ATOM     10  H   LIG d   1       5.183  -2.852  -4.961  0.00  0.00     0.166 HD
ATOM     11  C   LIG d   1       4.211  -1.780  -7.489  0.00  0.00     0.278 A 
ATOM     12  O   LIG d   1       4.680  -2.849  -7.842  0.00  0.00    -0.265 OA
ATOM     13  N   LIG d   1       3.647  -0.943  -8.386  0.00  0.00    -0.295 N 
ATOM     14  C   LIG d   1       3.127   0.246  -7.985  0.00  0.00     0.099 A 
ATOM     15  N   LIG d   1       3.152   0.622  -6.738  0.00  0.00    -0.235 NA
ATOM     16  H   LIG d   1       3.563   1.591  -1.385  0.00  0.00     0.062 H 
ATOM     17  H   LIG d   1       4.701  -0.444  -0.605  0.00  0.00     0.062 H 
ATOM     18  H   LIG d   1       5.320  -2.213  -2.189  0.00  0.00     0.064 H 
ATOM     19  H   LIG d   1       3.033   1.880  -3.753  0.00  0.00     0.062 H 
ATOM     20  H   LIG d   1       2.681   0.897  -8.720  0.00  0.00     0.103 H 
ENDROOT
BRANCH  13  21
ATOM     21  C   LIG d   1       3.594  -1.319  -9.801  0.00  0.00     0.054 C 
ATOM     22  H   LIG d   1       4.103  -0.561 -10.396  0.00  0.00     0.052 H 
ATOM     23  H   LIG d   1       4.085  -2.281  -9.940  0.00  0.00     0.052 H 
BRANCH  21  24
ATOM     24  C   LIG d   1       2.134  -1.422 -10.246  0.00  0.00     0.077 C 
ATOM     25  H   LIG d   1       1.495  -0.832  -9.589  0.00  0.00     0.061 H 
ATOM     26  O   LIG d   1       1.711  -2.794 -10.254  0.00  0.00    -0.375 OA
ATOM     27  C   LIG d   1       0.825  -3.027 -11.355  0.00  0.00     0.048 C 
ATOM     28  C   LIG d   1       0.700  -1.705 -12.142  0.00  0.00    -0.027 C 
ATOM     29  H   LIG d   1       1.233  -3.805 -12.000  0.00  0.00     0.056 H 
ATOM     30  H   LIG d   1      -0.155  -3.329 -10.984  0.00  0.00     0.056 H 
ATOM     31  C   LIG d   1       1.985  -0.944 -11.713  0.00  0.00    -0.023 C 
ATOM     32  H   LIG d   1       0.699  -1.891 -13.216  0.00  0.00     0.029 H 
ATOM     33  H   LIG d   1      -0.195  -1.158 -11.843  0.00  0.00     0.029 H 
ATOM     34  H   LIG d   1       1.838   0.134 -11.763  0.00  0.00     0.029 H 
ATOM     35  H   LIG d   1       2.841  -1.251 -12.315  0.00  0.00     0.029 H 
ENDBRANCH  21  24
ENDBRANCH  13  21
TORSDOF 2
ENDMDL
MODEL 2
REMARK VINA RESULT:      -6.4      4.453      6.147
REMARK  2 active torsions:
REMARK  status: ('A' for Active; 'I' for Inactive)
REMARK    1  A    between atoms: N_13  and  C_16 
REMARK    2  A    between atoms: C_16  and  C_17 
ROOT
ATOM      1  C   LIG d   1       4.942   1.023  -2.183  0.00  0.00    -0.061 A 
ATOM      2  C   LIG d   1       3.564   0.881  -2.262  0.00  0.00    -0.060 A 
ATOM      3  C   LIG d   1       3.004  -0.209  -2.889  0.00  0.00    -0.038 A 
ATOM      4  C   LIG d   1       3.826  -1.182  -3.453  0.00  0.00     0.049 A 
ATOM      5  C   LIG d   1       5.222  -1.030  -3.376  0.00  0.00     0.026 A 
ATOM      6  C   LIG d   1       5.767   0.080  -2.730  0.00  0.00    -0.051 A 
ATOM      7  C   LIG d   1       5.805  -2.194  -4.057  0.00  0.00     0.103 A 
ATOM      8  C   LIG d   1       4.737  -2.967  -4.503  0.00  0.00     0.131 A 
ATOM      9  N   LIG d   1       3.558  -2.353  -4.129  0.00  0.00    -0.349 N 
ATOM     10  H   LIG d   1       2.669  -2.692  -4.321  0.00  0.00     0.166 HD
ATOM     11  C   LIG d   1       5.023  -4.163  -5.203  0.00  0.00     0.278 A 
ATOM     12  O   LIG d   1       4.123  -4.875  -5.616  0.00  0.00    -0.265 OA
ATOM     13  N   LIG d   1       6.316  -4.498  -5.403  0.00  0.00    -0.295 N 
ATOM     14  C   LIG d   1       7.313  -3.700  -4.940  0.00  0.00     0.099 A 
ATOM     15  N   LIG d   1       7.067  -2.595  -4.294  0.00  0.00    -0.235 NA
ATOM     16  H   LIG d   1       5.366   1.884  -1.688  0.00  0.00     0.062 H 
ATOM     17  H   LIG d   1       2.923   1.634  -1.826  0.00  0.00     0.062 H 
ATOM     18  H   LIG d   1       1.930  -0.310  -2.945  0.00  0.00     0.064 H 
ATOM     19  H   LIG d   1       6.839   0.197  -2.666  0.00  0.00     0.062 H 
ATOM     20  H   LIG d   1       8.338  -3.990  -5.112  0.00  0.00     0.103 H 
ENDROOT
BRANCH  13  21
ATOM     21  C   LIG d   1       6.646  -5.730  -6.122  0.00  0.00     0.054 C 
ATOM     22  H   LIG d   1       5.788  -6.046  -6.714  0.00  0.00     0.052 H 
ATOM     23  H   LIG d   1       7.495  -5.550  -6.781  0.00  0.00     0.052 H 
BRANCH  21  24
ATOM     24  C   LIG d   1       7.004  -6.827  -5.117  0.00  0.00     0.077 C 
ATOM     25  H   LIG d   1       7.020  -6.422  -4.105  0.00  0.00     0.061 H 
ATOM     26  O   LIG d   1       8.278  -7.406  -5.442  0.00  0.00    -0.375 OA
ATOM     27  C   LIG d   1       8.259  -8.812  -5.171  0.00  0.00     0.048 C 
ATOM     28  C   LIG d   1       6.845  -9.172  -4.667  0.00  0.00    -0.027 C 
ATOM     29  H   LIG d   1       8.480  -9.368  -6.082  0.00  0.00     0.056 H 
ATOM     30  H   LIG d   1       8.997  -9.050  -4.403  0.00  0.00     0.056 H 
ATOM     31  C   LIG d   1       5.991  -7.996  -5.214  0.00  0.00    -0.023 C 
ATOM     32  H   LIG d   1       6.514 -10.122  -5.087  0.00  0.00     0.029 H 
ATOM     33  H   LIG d   1       6.818  -9.201  -3.577  0.00  0.00     0.029 H 
ATOM     34  H   LIG d   1       5.121  -7.816  -4.583  0.00  0.00     0.029 H 
ATOM     35  H   LIG d   1       5.695  -8.174  -6.248  0.00  0.00     0.029 H 
ENDBRANCH  21  24
ENDBRANCH  13  21
TORSDOF 2
ENDMDL
MODEL 3
REMARK VINA RESULT:      -6.4      1.589      2.282
REMARK  2 active torsions:
REMARK  status: ('A' for Active; 'I' for Inactive)
REMARK    1  A    between atoms: N_13  and  C_16 
REMARK    2  A    between atoms: C_16  and  C_17 
ROOT
ATOM      1  C   LIG d   1       4.552  -1.910  -2.473  0.00  0.00    -0.061 A 
ATOM      2  C   LIG d   1       4.015  -0.734  -1.968  0.00  0.00    -0.060 A 
ATOM      3  C   LIG d   1       3.527   0.236  -2.815  0.00  0.00    -0.038 A 
ATOM      4  C   LIG d   1       3.572   0.040  -4.193  0.00  0.00     0.049 A 
ATOM      5  C   LIG d   1       4.123  -1.151  -4.700  0.00  0.00     0.026 A 
ATOM      6  C   LIG d   1       4.605  -2.123  -3.823  0.00  0.00    -0.051 A 
ATOM      7  C   LIG d   1       4.037  -1.060  -6.163  0.00  0.00     0.103 A 
ATOM      8  C   LIG d   1       3.450   0.170  -6.448  0.00  0.00     0.131 A 
ATOM      9  N   LIG d   1       3.170   0.815  -5.259  0.00  0.00    -0.349 N 
ATOM     10  H   LIG d   1       2.759   1.690  -5.186  0.00  0.00     0.166 HD
ATOM     11  C   LIG d   1       3.248   0.516  -7.806  0.00  0.00     0.278 A 
ATOM     12  O   LIG d   1       2.738   1.582  -8.108  0.00  0.00    -0.265 OA
ATOM     13  N   LIG d   1       3.631  -0.362  -8.757  0.00  0.00    -0.295 N 
ATOM     14  C   LIG d   1       4.198  -1.547  -8.413  0.00  0.00     0.099 A 
ATOM     15  N   LIG d   1       4.392  -1.881  -7.168  0.00  0.00    -0.235 NA
ATOM     16  H   LIG d   1       4.931  -2.662  -1.796  0.00  0.00     0.062 H 
ATOM     17  H   LIG d   1       3.979  -0.579  -0.900  0.00  0.00     0.062 H 
ATOM     18  H   LIG d   1       3.111   1.147  -2.412  0.00  0.00     0.064 H 
ATOM     19  H   LIG d   1       5.025  -3.040  -4.209  0.00  0.00     0.062 H 
ATOM     20  H   LIG d   1       4.496  -2.231  -9.191  0.00  0.00     0.103 H 
ENDROOT
BRANCH  13  21
ATOM     21  C   LIG d   1       3.435  -0.035 -10.172  0.00  0.00     0.054 C 
ATOM     22  H   LIG d   1       2.786   0.837 -10.256  0.00  0.00     0.052 H 
ATOM     23  H   LIG d   1       4.398   0.184 -10.631  0.00  0.00     0.052 H 
BRANCH  21  24
ATOM     24  C   LIG d   1       2.788  -1.224 -10.885  0.00  0.00     0.077 C 
ATOM     25  H   LIG d   1       2.936  -2.137 -10.308  0.00  0.00     0.061 H 
ATOM     26  O   LIG d   1       3.334  -1.372 -12.204  0.00  0.00    -0.375 OA
ATOM     27  C   LIG d   1       2.309  -1.790 -13.114  0.00  0.00     0.048 C 
ATOM     28  C   LIG d   1       0.988  -1.879 -12.321  0.00  0.00    -0.027 C 
ATOM     29  H   LIG d   1       2.210  -1.061 -13.919  0.00  0.00     0.056 H 
ATOM     30  H   LIG d   1       2.559  -2.768 -13.528  0.00  0.00     0.056 H 
ATOM     31  C   LIG d   1       1.275  -0.962 -11.100  0.00  0.00    -0.023 C 
ATOM     32  H   LIG d   1       0.156  -1.493 -12.909  0.00  0.00     0.029 H 
ATOM     33  H   LIG d   1       0.795  -2.903 -12.003  0.00  0.00     0.029 H 
ATOM     34  H   LIG d   1       0.695  -1.273 -10.231  0.00  0.00     0.029 H 
ATOM     35  H   LIG d   1       1.088   0.084 -11.342  0.00  0.00     0.029 H 
ENDBRANCH  21  24
ENDBRANCH  13  21
TORSDOF 2
ENDMDL
MODEL 4
REMARK VINA RESULT:      -6.1      1.533      1.972
REMARK  2 active torsions:
REMARK  status: ('A' for Active; 'I' for Inactive)
REMARK    1  A    between atoms: N_13  and  C_16 
REMARK    2  A    between atoms: C_16  and  C_17 
ROOT
ATOM      1  C   LIG d   1       3.777   1.205  -2.153  0.00  0.00    -0.061 A 
ATOM      2  C   LIG d   1       4.564   0.183  -1.641  0.00  0.00    -0.060 A 
ATOM      3  C   LIG d   1       4.983  -0.853  -2.446  0.00  0.00    -0.038 A 
ATOM      4  C   LIG d   1       4.614  -0.880  -3.789  0.00  0.00     0.049 A 
ATOM      5  C   LIG d   1       3.812   0.155  -4.301  0.00  0.00     0.026 A 
ATOM      6  C   LIG d   1       3.404   1.197  -3.469  0.00  0.00    -0.051 A 
ATOM      7  C   LIG d   1       3.590  -0.154  -5.720  0.00  0.00     0.103 A 
ATOM      8  C   LIG d   1       4.261  -1.348  -5.974  0.00  0.00     0.131 A 
ATOM      9  N   LIG d   1       4.876  -1.767  -4.810  0.00  0.00    -0.349 N 
ATOM     10  H   LIG d   1       5.408  -2.574  -4.722  0.00  0.00     0.166 HD
ATOM     11  C   LIG d   1       4.209  -1.879  -7.284  0.00  0.00     0.278 A 
ATOM     12  O   LIG d   1       4.779  -2.922  -7.558  0.00  0.00    -0.265 OA
ATOM     13  N   LIG d   1       3.514  -1.204  -8.225  0.00  0.00    -0.295 N 
ATOM     14  C   LIG d   1       2.881  -0.044  -7.913  0.00  0.00     0.099 A 
ATOM     15  N   LIG d   1       2.918   0.459  -6.711  0.00  0.00    -0.235 NA
ATOM     16  H   LIG d   1       3.457   2.011  -1.509  0.00  0.00     0.062 H 
ATOM     17  H   LIG d   1       4.851   0.201  -0.600  0.00  0.00     0.062 H 
ATOM     18  H   LIG d   1       5.595  -1.643  -2.037  0.00  0.00     0.064 H 
ATOM     19  H   LIG d   1       2.791   1.996  -3.861  0.00  0.00     0.062 H 
ATOM     20  H   LIG d   1       2.332   0.477  -8.682  0.00  0.00     0.103 H 
ENDROOT
BRANCH  13  21
ATOM     21  C   LIG d   1       3.441  -1.727  -9.591  0.00  0.00     0.054 C 
ATOM     22  H   LIG d   1       3.832  -2.744  -9.612  0.00  0.00     0.052 H 
ATOM     23  H   LIG d   1       2.404  -1.729  -9.925  0.00  0.00     0.052 H 
BRANCH  21  24
ATOM     24  C   LIG d   1       4.274  -0.841 -10.520  0.00  0.00     0.077 C 
ATOM     25  H   LIG d   1       4.641   0.033  -9.981  0.00  0.00     0.061 H 
ATOM     26  O   LIG d   1       3.493  -0.435 -11.655  0.00  0.00    -0.375 OA
ATOM     27  C   LIG d   1       4.316  -0.396 -12.827  0.00  0.00     0.048 C 
ATOM     28  C   LIG d   1       5.733  -0.852 -12.418  0.00  0.00    -0.027 C 
ATOM     29  H   LIG d   1       3.914  -1.069 -13.584  0.00  0.00     0.056 H 
ATOM     30  H   LIG d   1       4.354   0.622 -13.218  0.00  0.00     0.056 H 
ATOM     31  C   LIG d   1       5.458  -1.647 -11.111  0.00  0.00    -0.023 C 
ATOM     32  H   LIG d   1       6.168  -1.497 -13.181  0.00  0.00     0.029 H 
ATOM     33  H   LIG d   1       6.376   0.007 -12.225  0.00  0.00     0.029 H 
ATOM     34  H   LIG d   1       6.322  -1.620 -10.448  0.00  0.00     0.029 H 
ATOM     35  H   LIG d   1       5.164  -2.673 -11.331  0.00  0.00     0.029 H 
ENDBRANCH  21  24
ENDBRANCH  13  21
TORSDOF 2
ENDMDL
MODEL 5
REMARK VINA RESULT:      -6.0      4.459      5.085
REMARK  2 active torsions:
REMARK  status: ('A' for Active; 'I' for Inactive)
REMARK    1  A    between atoms: N_13  and  C_16 
REMARK    2  A    between atoms: C_16  and  C_17 
ROOT
ATOM      1  C   LIG d   1       4.984   1.113  -2.212  0.00  0.00    -0.061 A 
ATOM      2  C   LIG d   1       3.604   0.971  -2.276  0.00  0.00    -0.060 A 
ATOM      3  C   LIG d   1       3.038  -0.136  -2.867  0.00  0.00    -0.038 A 
ATOM      4  C   LIG d   1       3.855  -1.126  -3.409  0.00  0.00     0.049 A 
ATOM      5  C   LIG d   1       5.251  -0.975  -3.347  0.00  0.00     0.026 A 
ATOM      6  C   LIG d   1       5.802   0.153  -2.738  0.00  0.00    -0.051 A 
ATOM      7  C   LIG d   1       5.828  -2.159  -3.998  0.00  0.00     0.103 A 
ATOM      8  C   LIG d   1       4.755  -2.942  -4.414  0.00  0.00     0.131 A 
ATOM      9  N   LIG d   1       3.579  -2.316  -4.048  0.00  0.00    -0.349 N 
ATOM     10  H   LIG d   1       2.689  -2.659  -4.224  0.00  0.00     0.166 HD
ATOM     11  C   LIG d   1       5.034  -4.159  -5.081  0.00  0.00     0.278 A 
ATOM     12  O   LIG d   1       4.130  -4.881  -5.466  0.00  0.00    -0.265 OA
ATOM     13  N   LIG d   1       6.324  -4.502  -5.280  0.00  0.00    -0.295 N 
ATOM     14  C   LIG d   1       7.326  -3.693  -4.849  0.00  0.00     0.099 A 
ATOM     15  N   LIG d   1       7.087  -2.569  -4.234  0.00  0.00    -0.235 NA
ATOM     16  H   LIG d   1       5.412   1.987  -1.745  0.00  0.00     0.062 H 
ATOM     17  H   LIG d   1       2.969   1.737  -1.857  0.00  0.00     0.062 H 
ATOM     18  H   LIG d   1       1.964  -0.237  -2.912  0.00  0.00     0.064 H 
ATOM     19  H   LIG d   1       6.875   0.270  -2.685  0.00  0.00     0.062 H 
ATOM     20  H   LIG d   1       8.349  -3.989  -5.020  0.00  0.00     0.103 H 
ENDROOT
BRANCH  13  21
ATOM     21  C   LIG d   1       6.648  -5.755  -5.966  0.00  0.00     0.054 C 
ATOM     22  H   LIG d   1       7.489  -6.236  -5.467  0.00  0.00     0.052 H 
ATOM     23  H   LIG d   1       5.783  -6.417  -5.940  0.00  0.00     0.052 H 
BRANCH  21  24
ATOM     24  C   LIG d   1       7.019  -5.459  -7.421  0.00  0.00     0.077 C 
ATOM     25  H   LIG d   1       6.942  -4.390  -7.621  0.00  0.00     0.061 H 
ATOM     26  O   LIG d   1       6.170  -6.196  -8.313  0.00  0.00    -0.375 OA
ATOM     27  C   LIG d   1       6.920  -6.631  -9.454  0.00  0.00     0.048 C 
ATOM     28  C   LIG d   1       8.379  -6.168  -9.258  0.00  0.00    -0.027 C 
ATOM     29  H   LIG d   1       6.882  -7.718  -9.528  0.00  0.00     0.056 H 
ATOM     30  H   LIG d   1       6.508  -6.184 -10.359  0.00  0.00     0.056 H 
ATOM     31  C   LIG d   1       8.455  -5.960  -7.721  0.00  0.00    -0.023 C 
ATOM     32  H   LIG d   1       9.077  -6.941  -9.581  0.00  0.00     0.029 H 
ATOM     33  H   LIG d   1       8.564  -5.234  -9.788  0.00  0.00     0.029 H 
ATOM     34  H   LIG d   1       9.197  -5.205  -7.464  0.00  0.00     0.029 H 
ATOM     35  H   LIG d   1       8.658  -6.900  -7.207  0.00  0.00     0.029 H 
ENDBRANCH  21  24
ENDBRANCH  13  21
TORSDOF 2
ENDMDL
MODEL 6
REMARK VINA RESULT:      -5.9      1.699      7.015
REMARK  2 active torsions:
REMARK  status: ('A' for Active; 'I' for Inactive)
REMARK    1  A    between atoms: N_13  and  C_16 
REMARK    2  A    between atoms: C_16  and  C_17 
ROOT
ATOM      1  C   LIG d   1       0.839  -1.239 -11.833  0.00  0.00    -0.061 A 
ATOM      2  C   LIG d   1       1.292  -2.468 -12.293  0.00  0.00    -0.060 A 
ATOM      3  C   LIG d   1       2.198  -3.202 -11.561  0.00  0.00    -0.038 A 
ATOM      4  C   LIG d   1       2.667  -2.711 -10.345  0.00  0.00     0.049 A 
ATOM      5  C   LIG d   1       2.209  -1.463  -9.886  0.00  0.00     0.026 A 
ATOM      6  C   LIG d   1       1.287  -0.739 -10.642  0.00  0.00    -0.051 A 
ATOM      7  C   LIG d   1       2.880  -1.220  -8.602  0.00  0.00     0.103 A 
ATOM      8  C   LIG d   1       3.698  -2.322  -8.369  0.00  0.00     0.131 A 
ATOM      9  N   LIG d   1       3.555  -3.211  -9.417  0.00  0.00    -0.349 N 
ATOM     10  H   LIG d   1       4.019  -4.059  -9.493  0.00  0.00     0.166 HD
ATOM     11  C   LIG d   1       4.469  -2.344  -7.182  0.00  0.00     0.278 A 
ATOM     12  O   LIG d   1       5.202  -3.287  -6.932  0.00  0.00    -0.265 OA
ATOM     13  N   LIG d   1       4.374  -1.298  -6.334  0.00  0.00    -0.295 N 
ATOM     14  C   LIG d   1       3.556  -0.253  -6.620  0.00  0.00     0.099 A 
ATOM     15  N   LIG d   1       2.840  -0.216  -7.707  0.00  0.00    -0.235 NA
ATOM     16  H   LIG d   1       0.129  -0.675 -12.419  0.00  0.00     0.062 H 
ATOM     17  H   LIG d   1       0.931  -2.851 -13.236  0.00  0.00     0.062 H 
ATOM     18  H   LIG d   1       2.544  -4.157 -11.928  0.00  0.00     0.064 H 
ATOM     19  H   LIG d   1       0.931   0.218 -10.290  0.00  0.00     0.062 H 
ATOM     20  H   LIG d   1       3.498   0.572  -5.926  0.00  0.00     0.103 H 
ENDROOT
BRANCH  13  21
ATOM     21  C   LIG d   1       5.158  -1.291  -5.096  0.00  0.00     0.054 C 
ATOM     22  H   LIG d   1       5.182  -2.296  -4.676  0.00  0.00     0.052 H 
ATOM     23  H   LIG d   1       6.174  -0.963  -5.312  0.00  0.00     0.052 H 
BRANCH  21  24
ATOM     24  C   LIG d   1       4.515  -0.332  -4.092  0.00  0.00     0.077 C 
ATOM     25  H   LIG d   1       3.509  -0.064  -4.415  0.00  0.00     0.061 H 
ATOM     26  O   LIG d   1       5.321   0.847  -3.940  0.00  0.00    -0.375 OA
ATOM     27  C   LIG d   1       5.293   1.286  -2.577  0.00  0.00     0.048 C 
ATOM     28  C   LIG d   1       4.429   0.285  -1.781  0.00  0.00    -0.027 C 
ATOM     29  H   LIG d   1       6.305   1.305  -2.174  0.00  0.00     0.056 H 
ATOM     30  H   LIG d   1       4.852   2.282  -2.519  0.00  0.00     0.056 H 
ATOM     31  C   LIG d   1       4.473  -0.978  -2.684  0.00  0.00    -0.023 C 
ATOM     32  H   LIG d   1       4.872   0.081  -0.806  0.00  0.00     0.029 H 
ATOM     33  H   LIG d   1       3.409   0.652  -1.673  0.00  0.00     0.029 H 
ATOM     34  H   LIG d   1       3.577  -1.584  -2.555  0.00  0.00     0.029 H 
ATOM     35  H   LIG d   1       5.373  -1.565  -2.494  0.00  0.00     0.029 H 
ENDBRANCH  21  24
ENDBRANCH  13  21
TORSDOF 2
ENDMDL
MODEL 7
REMARK VINA RESULT:      -5.9      1.916      7.205
REMARK  2 active torsions:
REMARK  status: ('A' for Active; 'I' for Inactive)
REMARK    1  A    between atoms: N_13  and  C_16 
REMARK    2  A    between atoms: C_16  and  C_17 
ROOT
ATOM      1  C   LIG d   1       1.313  -3.281 -11.894  0.00  0.00    -0.061 A 
ATOM      2  C   LIG d   1       0.695  -2.077 -12.202  0.00  0.00    -0.060 A 
ATOM      3  C   LIG d   1       0.903  -0.961 -11.422  0.00  0.00    -0.038 A 
ATOM      4  C   LIG d   1       1.741  -1.038 -10.311  0.00  0.00     0.049 A 
ATOM      5  C   LIG d   1       2.359  -2.263 -10.001  0.00  0.00     0.026 A 
ATOM      6  C   LIG d   1       2.138  -3.378 -10.809  0.00  0.00    -0.051 A 
ATOM      7  C   LIG d   1       3.159  -2.030  -8.791  0.00  0.00     0.103 A 
ATOM      8  C   LIG d   1       2.973  -0.694  -8.446  0.00  0.00     0.131 A 
ATOM      9  N   LIG d   1       2.128  -0.110  -9.369  0.00  0.00    -0.349 N 
ATOM     10  H   LIG d   1       1.840   0.816  -9.351  0.00  0.00     0.166 HD
ATOM     11  C   LIG d   1       3.641  -0.200  -7.300  0.00  0.00     0.278 A 
ATOM     12  O   LIG d   1       3.511   0.962  -6.955  0.00  0.00    -0.265 OA
ATOM     13  N   LIG d   1       4.426  -1.046  -6.599  0.00  0.00    -0.295 N 
ATOM     14  C   LIG d   1       4.567  -2.339  -6.989  0.00  0.00     0.099 A 
ATOM     15  N   LIG d   1       3.959  -2.810  -8.041  0.00  0.00    -0.235 NA
ATOM     16  H   LIG d   1       1.139  -4.148 -12.516  0.00  0.00     0.062 H 
ATOM     17  H   LIG d   1       0.045  -2.014 -13.062  0.00  0.00     0.062 H 
ATOM     18  H   LIG d   1       0.418  -0.029 -11.669  0.00  0.00     0.064 H 
ATOM     19  H   LIG d   1       2.615  -4.319 -10.575  0.00  0.00     0.062 H 
ATOM     20  H   LIG d   1       5.200  -2.995  -6.412  0.00  0.00     0.103 H 
ENDROOT
BRANCH  13  21
ATOM     21  C   LIG d   1       5.133  -0.566  -5.408  0.00  0.00     0.054 C 
ATOM     22  H   LIG d   1       6.074  -1.104  -5.304  0.00  0.00     0.052 H 
ATOM     23  H   LIG d   1       5.333   0.500  -5.510  0.00  0.00     0.052 H 
BRANCH  21  24
ATOM     24  C   LIG d   1       4.267  -0.807  -4.170  0.00  0.00     0.077 C 
ATOM     25  H   LIG d   1       3.237  -1.013  -4.463  0.00  0.00     0.061 H 
ATOM     26  O   LIG d   1       4.319   0.330  -3.295  0.00  0.00    -0.375 OA
ATOM     27  C   LIG d   1       4.303  -0.102  -1.930  0.00  0.00     0.048 C 
ATOM     28  C   LIG d   1       4.279  -1.645  -1.928  0.00  0.00    -0.027 C 
ATOM     29  H   LIG d   1       5.198   0.255  -1.419  0.00  0.00     0.056 H 
ATOM     30  H   LIG d   1       3.413   0.282  -1.430  0.00  0.00     0.056 H 
ATOM     31  C   LIG d   1       4.835  -1.985  -3.338  0.00  0.00    -0.023 C 
ATOM     32  H   LIG d   1       4.928  -2.043  -1.148  0.00  0.00     0.029 H 
ATOM     33  H   LIG d   1       3.261  -2.017  -1.811  0.00  0.00     0.029 H 
ATOM     34  H   LIG d   1       4.449  -2.940  -3.693  0.00  0.00     0.029 H 
ATOM     35  H   LIG d   1       5.925  -1.977  -3.342  0.00  0.00     0.029 H 
ENDBRANCH  21  24
ENDBRANCH  13  21
TORSDOF 2
ENDMDL
MODEL 8
REMARK VINA RESULT:      -5.8      6.001      8.162
REMARK  2 active torsions:
REMARK  status: ('A' for Active; 'I' for Inactive)
REMARK    1  A    between atoms: N_13  and  C_16 
REMARK    2  A    between atoms: C_16  and  C_17 
ROOT
ATOM      1  C   LIG d   1       4.080   0.405  -1.979  0.00  0.00    -0.061 A 
ATOM      2  C   LIG d   1       4.222  -0.975  -1.990  0.00  0.00    -0.060 A 
ATOM      3  C   LIG d   1       5.305  -1.565  -2.602  0.00  0.00    -0.038 A 
ATOM      4  C   LIG d   1       6.270  -0.772  -3.219  0.00  0.00     0.049 A 
ATOM      5  C   LIG d   1       6.118   0.626  -3.211  0.00  0.00     0.026 A 
ATOM      6  C   LIG d   1       5.015   1.202  -2.579  0.00  0.00    -0.051 A 
ATOM      7  C   LIG d   1       7.272   1.174  -3.935  0.00  0.00     0.103 A 
ATOM      8  C   LIG d   1       8.040   0.085  -4.337  0.00  0.00     0.131 A 
ATOM      9  N   LIG d   1       7.433  -1.074  -3.895  0.00  0.00    -0.349 N 
ATOM     10  H   LIG d   1       7.770  -1.971  -4.047  0.00  0.00     0.166 HD
ATOM     11  C   LIG d   1       9.227   0.336  -5.065  0.00  0.00     0.278 A 
ATOM     12  O   LIG d   1       9.935  -0.583  -5.441  0.00  0.00    -0.265 OA
ATOM     13  N   LIG d   1       9.558   1.617  -5.334  0.00  0.00    -0.295 N 
ATOM     14  C   LIG d   1       8.766   2.636  -4.912  0.00  0.00     0.099 A 
ATOM     15  N   LIG d   1       7.669   2.423  -4.241  0.00  0.00    -0.235 NA
ATOM     16  H   LIG d   1       3.225   0.853  -1.495  0.00  0.00     0.062 H 
ATOM     17  H   LIG d   1       3.476  -1.593  -1.513  0.00  0.00     0.062 H 
ATOM     18  H   LIG d   1       5.407  -2.641  -2.605  0.00  0.00     0.064 H 
ATOM     19  H   LIG d   1       4.898   2.275  -2.567  0.00  0.00     0.062 H 
ATOM     20  H   LIG d   1       9.052   3.651  -5.139  0.00  0.00     0.103 H 
ENDROOT
BRANCH  13  21
ATOM     21  C   LIG d   1      10.781   1.912  -6.085  0.00  0.00     0.054 C 
ATOM     22  H   LIG d   1      11.309   0.982  -6.296  0.00  0.00     0.052 H 
ATOM     23  H   LIG d   1      10.523   2.404  -7.021  0.00  0.00     0.052 H 
BRANCH  21  24
ATOM     24  C   LIG d   1      11.680   2.831  -5.255  0.00  0.00     0.077 C 
ATOM     25  H   LIG d   1      11.087   3.619  -4.789  0.00  0.00     0.061 H 
ATOM     26  O   LIG d   1      12.707   3.403  -6.081  0.00  0.00    -0.375 OA
ATOM     27  C   LIG d   1      13.928   3.508  -5.339  0.00  0.00     0.048 C 
ATOM     28  C   LIG d   1      13.674   2.919  -3.935  0.00  0.00    -0.027 C 
ATOM     29  H   LIG d   1      14.715   2.943  -5.841  0.00  0.00     0.056 H 
ATOM     30  H   LIG d   1      14.220   4.555  -5.254  0.00  0.00     0.056 H 
ATOM     31  C   LIG d   1      12.435   2.014  -4.176  0.00  0.00    -0.023 C 
ATOM     32  H   LIG d   1      14.528   2.328  -3.602  0.00  0.00     0.029 H 
ATOM     33  H   LIG d   1      13.447   3.709  -3.219  0.00  0.00     0.029 H 
ATOM     34  H   LIG d   1      11.839   1.915  -3.270  0.00  0.00     0.029 H 
ATOM     35  H   LIG d   1      12.731   1.038  -4.560  0.00  0.00     0.029 H 
ENDBRANCH  21  24
ENDBRANCH  13  21
TORSDOF 2
ENDMDL
MODEL 9
REMARK VINA RESULT:      -5.8      5.810      8.335
REMARK  2 active torsions:
REMARK  status: ('A' for Active; 'I' for Inactive)
REMARK    1  A    between atoms: N_13  and  C_16 
REMARK    2  A    between atoms: C_16  and  C_17 
ROOT
ATOM      1  C   LIG d   1       3.902  -2.146  -2.881  0.00  0.00    -0.061 A 
ATOM      2  C   LIG d   1       3.304  -0.997  -2.383  0.00  0.00    -0.060 A 
ATOM      3  C   LIG d   1       3.950   0.218  -2.452  0.00  0.00    -0.038 A 
ATOM      4  C   LIG d   1       5.217   0.298  -3.025  0.00  0.00     0.049 A 
ATOM      5  C   LIG d   1       5.821  -0.871  -3.522  0.00  0.00     0.026 A 
ATOM      6  C   LIG d   1       5.145  -2.089  -3.448  0.00  0.00    -0.051 A 
ATOM      7  C   LIG d   1       7.132  -0.470  -4.048  0.00  0.00     0.103 A 
ATOM      8  C   LIG d   1       7.242   0.901  -3.833  0.00  0.00     0.131 A 
ATOM      9  N   LIG d   1       6.085   1.349  -3.226  0.00  0.00    -0.349 N 
ATOM     10  H   LIG d   1       5.911   2.269  -2.971  0.00  0.00     0.166 HD
ATOM     11  C   LIG d   1       8.427   1.551  -4.251  0.00  0.00     0.278 A 
ATOM     12  O   LIG d   1       8.572   2.751  -4.085  0.00  0.00    -0.265 OA
ATOM     13  N   LIG d   1       9.393   0.813  -4.839  0.00  0.00    -0.295 N 
ATOM     14  C   LIG d   1       9.224  -0.522  -5.020  0.00  0.00     0.099 A 
ATOM     15  N   LIG d   1       8.139  -1.137  -4.641  0.00  0.00    -0.235 NA
ATOM     16  H   LIG d   1       3.383  -3.091  -2.820  0.00  0.00     0.062 H 
ATOM     17  H   LIG d   1       2.322  -1.056  -1.938  0.00  0.00     0.062 H 
ATOM     18  H   LIG d   1       3.476   1.106  -2.061  0.00  0.00     0.064 H 
ATOM     19  H   LIG d   1       5.605  -2.987  -3.833  0.00  0.00     0.062 H 
ATOM     20  H   LIG d   1      10.010  -1.091  -5.492  0.00  0.00     0.103 H 
ENDROOT
BRANCH  13  21
ATOM     21  C   LIG d   1      10.632   1.455  -5.284  0.00  0.00     0.054 C 
ATOM     22  H   LIG d   1      11.033   0.915  -6.141  0.00  0.00     0.052 H 
ATOM     23  H   LIG d   1      10.424   2.486  -5.569  0.00  0.00     0.052 H 
BRANCH  21  24
ATOM     24  C   LIG d   1      11.653   1.436  -4.145  0.00  0.00     0.077 C 
ATOM     25  H   LIG d   1      11.159   1.228  -3.197  0.00  0.00     0.061 H 
ATOM     26  O   LIG d   1      12.350   2.690  -4.079  0.00  0.00    -0.375 OA
ATOM     27  C   LIG d   1      13.721   2.470  -3.724  0.00  0.00     0.048 C 
ATOM     28  C   LIG d   1      13.929   0.947  -3.589  0.00  0.00    -0.027 C 
ATOM     29  H   LIG d   1      14.373   2.866  -4.503  0.00  0.00     0.056 H 
ATOM     30  H   LIG d   1      13.939   2.959  -2.774  0.00  0.00     0.056 H 
ATOM     31  C   LIG d   1      12.750   0.378  -4.425  0.00  0.00    -0.023 C 
ATOM     32  H   LIG d   1      14.887   0.648  -4.015  0.00  0.00     0.029 H 
ATOM     33  H   LIG d   1      13.855   0.636  -2.547  0.00  0.00     0.029 H 
ATOM     34  H   LIG d   1      12.450  -0.605  -4.062  0.00  0.00     0.029 H 
ATOM     35  H   LIG d   1      13.001   0.344  -5.485  0.00  0.00     0.029 H 
ENDBRANCH  21  24
ENDBRANCH  13  21
TORSDOF 2
ENDMDL
MODEL 10
REMARK VINA RESULT:      -5.7      5.255      6.871
REMARK  2 active torsions:
REMARK  status: ('A' for Active; 'I' for Inactive)
REMARK    1  A    between atoms: N_13  and  C_16 
REMARK    2  A    between atoms: C_16  and  C_17 
ROOT
ATOM      1  C   LIG d   1       3.918  -1.084  -1.938  0.00  0.00    -0.061 A 
ATOM      2  C   LIG d   1       3.918  -2.256  -2.682  0.00  0.00    -0.060 A 
ATOM      3  C   LIG d   1       4.835  -2.448  -3.691  0.00  0.00    -0.038 A 
ATOM      4  C   LIG d   1       5.773  -1.458  -3.973  0.00  0.00     0.049 A 
ATOM      5  C   LIG d   1       5.765  -0.270  -3.220  0.00  0.00     0.026 A 
ATOM      6  C   LIG d   1       4.830  -0.100  -2.198  0.00  0.00    -0.051 A 
ATOM      7  C   LIG d   1       6.849   0.566  -3.751  0.00  0.00     0.103 A 
ATOM      8  C   LIG d   1       7.437  -0.158  -4.785  0.00  0.00     0.131 A 
ATOM      9  N   LIG d   1       6.788  -1.371  -4.901  0.00  0.00    -0.349 N 
ATOM     10  H   LIG d   1       7.007  -2.059  -5.550  0.00  0.00     0.166 HD
ATOM     11  C   LIG d   1       8.524   0.427  -5.477  0.00  0.00     0.278 A 
ATOM     12  O   LIG d   1       9.072  -0.166  -6.391  0.00  0.00    -0.265 OA
ATOM     13  N   LIG d   1       8.938   1.656  -5.104  0.00  0.00    -0.295 N 
ATOM     14  C   LIG d   1       8.322   2.310  -4.086  0.00  0.00     0.099 A 
ATOM     15  N   LIG d   1       7.320   1.787  -3.437  0.00  0.00    -0.235 NA
ATOM     16  H   LIG d   1       3.192  -0.949  -1.150  0.00  0.00     0.062 H 
ATOM     17  H   LIG d   1       3.191  -3.026  -2.466  0.00  0.00     0.062 H 
ATOM     18  H   LIG d   1       4.826  -3.364  -4.264  0.00  0.00     0.064 H 
ATOM     19  H   LIG d   1       4.824   0.809  -1.616  0.00  0.00     0.062 H 
ATOM     20  H   LIG d   1       8.672   3.292  -3.805  0.00  0.00     0.103 H 
ENDROOT
BRANCH  13  21
ATOM     21  C   LIG d   1      10.061   2.289  -5.800  0.00  0.00     0.054 C 
ATOM     22  H   LIG d   1      10.727   2.749  -5.071  0.00  0.00     0.052 H 
ATOM     23  H   LIG d   1      10.608   1.537  -6.367  0.00  0.00     0.052 H 
BRANCH  21  24
ATOM     24  C   LIG d   1       9.530   3.361  -6.754  0.00  0.00     0.077 C 
ATOM     25  H   LIG d   1       8.444   3.300  -6.825  0.00  0.00     0.061 H 
ATOM     26  O   LIG d   1      10.124   3.212  -8.053  0.00  0.00    -0.375 OA
ATOM     27  C   LIG d   1      10.360   4.500  -8.633  0.00  0.00     0.048 C 
ATOM     28  C   LIG d   1       9.918   5.564  -7.606  0.00  0.00    -0.027 C 
ATOM     29  H   LIG d   1      11.422   4.617  -8.854  0.00  0.00     0.056 H 
ATOM     30  H   LIG d   1       9.777   4.606  -9.549  0.00  0.00     0.056 H 
ATOM     31  C   LIG d   1       9.959   4.770  -6.271  0.00  0.00    -0.023 C 
ATOM     32  H   LIG d   1      10.620   6.397  -7.584  0.00  0.00     0.029 H 
ATOM     33  H   LIG d   1       8.908   5.914  -7.821  0.00  0.00     0.029 H 
ATOM     34  H   LIG d   1       9.247   5.174  -5.552  0.00  0.00     0.029 H 
ATOM     35  H   LIG d   1      10.967   4.752  -5.856  0.00  0.00     0.029 H 
ENDBRANCH  21  24
ENDBRANCH  13  21
TORSDOF 2
ENDMDL
