MODEL 1
REMARK VINA RESULT:      -6.3      0.000      0.000
REMARK  3 active torsions:
REMARK  status: ('A' for Active; 'I' for Inactive)
REMARK    1  A    between atoms: C_3  and  C_14 
REMARK    2  A    between atoms: C_6  and  C_7 
REMARK    3  A    between atoms: C_11  and  N_13 
ROOT
ATOM      1  C   LIG d   1       2.481   0.348  -5.050  0.00  0.00    -0.054 A 
ATOM      2  C   LIG d   1       2.840  -0.165  -3.818  0.00  0.00    -0.050 A 
ATOM      3  C   LIG d   1       3.954  -0.975  -3.705  0.00  0.00     0.055 A 
ATOM      4  C   LIG d   1       4.713  -1.267  -4.823  0.00  0.00    -0.050 A 
ATOM      5  C   LIG d   1       4.351  -0.758  -6.056  0.00  0.00    -0.054 A 
ATOM      6  C   LIG d   1       3.237   0.052  -6.169  0.00  0.00    -0.005 A 
ATOM      7  H   LIG d   1       1.610   0.980  -5.139  0.00  0.00     0.062 H 
ATOM      8  H   LIG d   1       2.249   0.066  -2.944  0.00  0.00     0.062 H 
ATOM      9  H   LIG d   1       5.587  -1.896  -4.733  0.00  0.00     0.062 H 
ATOM     10  H   LIG d   1       4.942  -0.990  -6.930  0.00  0.00     0.062 H 
ENDROOT
BRANCH   6  11
ATOM     11  C   LIG d   1       2.845   0.611  -7.513  0.00  0.00     0.147 C 
ATOM     12  H   LIG d   1       2.303   1.550  -7.400  0.00  0.00     0.080 H 
ATOM     13  O   LIG d   1       2.076  -0.347  -8.268  0.00  0.00    -0.456 OA
ATOM     14  C   LIG d   1       2.434  -0.232  -9.562  0.00  0.00     0.276 C 
ATOM     15  N   LIG d   1       3.558   0.391  -9.742  0.00  0.00    -0.233 NA
ATOM     16  C   LIG d   1       4.086   0.791  -8.423  0.00  0.00     0.086 C 
ATOM     17  H   LIG d   1       4.413   1.830  -8.434  0.00  0.00     0.055 H 
ATOM     18  H   LIG d   1       4.896   0.131  -8.112  0.00  0.00     0.055 H 
BRANCH  14  19
ATOM     19  N   LIG d   1       1.679  -0.730 -10.596  0.00  0.00    -0.313 N 
ATOM     20  H   LIG d   1       0.761  -0.438 -10.710  0.00  0.00     0.147 HD
ATOM     21  H   LIG d   1       2.063  -1.373 -11.212  0.00  0.00     0.147 HD
ENDBRANCH  14  19
ENDBRANCH   6  11
BRANCH   3  22
ATOM     22  C   LIG d   1       4.346  -1.535  -2.362  0.00  0.00     0.417 C 
ATOM     23  F   LIG d   1       5.669  -1.986  -2.412  0.00  0.00    -0.166 F 
ATOM     24  F   LIG d   1       3.501  -2.602  -2.037  0.00  0.00    -0.166 F 
ATOM     25  F   LIG d   1       4.231  -0.536  -1.388  0.00  0.00    -0.166 F 
ENDBRANCH   3  22
TORSDOF 3
ENDMDL
MODEL 2
REMARK VINA RESULT:      -6.3      0.015      1.553
REMARK  3 active torsions:
REMARK  status: ('A' for Active; 'I' for Inactive)
REMARK    1  A    between atoms: C_3  and  C_14 
REMARK    2  A    between atoms: C_6  and  C_7 
REMARK    3  A    between atoms: C_11  and  N_13 
ROOT
ATOM      1  C   LIG d   1       4.349  -0.772  -6.052  0.00  0.00    -0.054 A 
ATOM      2  C   LIG d   1       4.708  -1.287  -4.820  0.00  0.00    -0.050 A 
ATOM      3  C   LIG d   1       3.962  -0.977  -3.699  0.00  0.00     0.055 A 
ATOM      4  C   LIG d   1       2.855  -0.157  -3.809  0.00  0.00    -0.050 A 
ATOM      5  C   LIG d   1       2.499   0.362  -5.040  0.00  0.00    -0.054 A 
ATOM      6  C   LIG d   1       3.245   0.052  -6.162  0.00  0.00    -0.005 A 
ATOM      7  H   LIG d   1       4.932  -1.013  -6.928  0.00  0.00     0.062 H 
ATOM      8  H   LIG d   1       5.571  -1.931  -4.735  0.00  0.00     0.062 H 
ATOM      9  H   LIG d   1       2.269   0.081  -2.932  0.00  0.00     0.062 H 
ATOM     10  H   LIG d   1       1.637   1.006  -5.125  0.00  0.00     0.062 H 
ENDROOT
BRANCH   6  11
ATOM     11  C   LIG d   1       2.854   0.615  -7.504  0.00  0.00     0.147 C 
ATOM     12  H   LIG d   1       2.313   1.555  -7.389  0.00  0.00     0.080 H 
ATOM     13  O   LIG d   1       2.082  -0.339  -8.261  0.00  0.00    -0.456 OA
ATOM     14  C   LIG d   1       2.440  -0.223  -9.555  0.00  0.00     0.276 C 
ATOM     15  N   LIG d   1       3.565   0.398  -9.734  0.00  0.00    -0.233 NA
ATOM     16  C   LIG d   1       4.094   0.794  -8.414  0.00  0.00     0.086 C 
ATOM     17  H   LIG d   1       4.424   1.832  -8.423  0.00  0.00     0.055 H 
ATOM     18  H   LIG d   1       4.903   0.132  -8.104  0.00  0.00     0.055 H 
BRANCH  14  19
ATOM     19  N   LIG d   1       1.683  -0.716 -10.590  0.00  0.00    -0.313 N 
ATOM     20  H   LIG d   1       0.828  -0.310 -10.802  0.00  0.00     0.147 HD
ATOM     21  H   LIG d   1       2.005  -1.470 -11.109  0.00  0.00     0.147 HD
ENDBRANCH  14  19
ENDBRANCH   6  11
BRANCH   3  22
ATOM     22  C   LIG d   1       4.353  -1.538  -2.356  0.00  0.00     0.417 C 
ATOM     23  F   LIG d   1       4.240  -0.540  -1.382  0.00  0.00    -0.166 F 
ATOM     24  F   LIG d   1       5.676  -1.992  -2.407  0.00  0.00    -0.166 F 
ATOM     25  F   LIG d   1       3.506  -2.604  -2.030  0.00  0.00    -0.166 F 
ENDBRANCH   3  22
TORSDOF 3
ENDMDL
MODEL 3
REMARK VINA RESULT:      -6.0      3.393      4.238
REMARK  3 active torsions:
REMARK  status: ('A' for Active; 'I' for Inactive)
REMARK    1  A    between atoms: C_3  and  C_14 
REMARK    2  A    between atoms: C_6  and  C_7 
REMARK    3  A    between atoms: C_11  and  N_13 
ROOT
ATOM      1  C   LIG d   1       5.352  -1.316  -5.141  0.00  0.00    -0.054 A 
ATOM      2  C   LIG d   1       5.205  -0.226  -4.304  0.00  0.00    -0.050 A 
ATOM      3  C   LIG d   1       4.581  -0.374  -3.080  0.00  0.00     0.055 A 
ATOM      4  C   LIG d   1       4.109  -1.613  -2.689  0.00  0.00    -0.050 A 
ATOM      5  C   LIG d   1       4.252  -2.703  -3.529  0.00  0.00    -0.054 A 
ATOM      6  C   LIG d   1       4.875  -2.554  -4.753  0.00  0.00    -0.005 A 
ATOM      7  H   LIG d   1       5.838  -1.200  -6.098  0.00  0.00     0.062 H 
ATOM      8  H   LIG d   1       5.577   0.742  -4.608  0.00  0.00     0.062 H 
ATOM      9  H   LIG d   1       3.626  -1.730  -1.730  0.00  0.00     0.062 H 
ATOM     10  H   LIG d   1       3.879  -3.670  -3.226  0.00  0.00     0.062 H 
ENDROOT
BRANCH   6  11
ATOM     11  C   LIG d   1       5.034  -3.743  -5.666  0.00  0.00     0.147 C 
ATOM     12  H   LIG d   1       6.080  -3.885  -5.941  0.00  0.00     0.080 H 
ATOM     13  O   LIG d   1       4.203  -3.613  -6.837  0.00  0.00    -0.456 OA
ATOM     14  C   LIG d   1       3.733  -4.837  -7.145  0.00  0.00     0.276 C 
ATOM     15  N   LIG d   1       3.827  -5.694  -6.176  0.00  0.00    -0.233 NA
ATOM     16  C   LIG d   1       4.451  -5.023  -5.019  0.00  0.00     0.086 C 
ATOM     17  H   LIG d   1       5.241  -5.639  -4.591  0.00  0.00     0.055 H 
ATOM     18  H   LIG d   1       3.703  -4.772  -4.266  0.00  0.00     0.055 H 
BRANCH  14  19
ATOM     19  N   LIG d   1       3.201  -5.149  -8.373  0.00  0.00    -0.313 N 
ATOM     20  H   LIG d   1       3.675  -4.902  -9.183  0.00  0.00     0.147 HD
ATOM     21  H   LIG d   1       2.353  -5.616  -8.430  0.00  0.00     0.147 HD
ENDBRANCH  14  19
ENDBRANCH   6  11
BRANCH   3  22
ATOM     22  C   LIG d   1       4.421   0.814  -2.167  0.00  0.00     0.417 C 
ATOM     23  F   LIG d   1       3.087   1.236  -2.179  0.00  0.00    -0.166 F 
ATOM     24  F   LIG d   1       5.243   1.857  -2.610  0.00  0.00    -0.166 F 
ATOM     25  F   LIG d   1       4.784   0.454  -0.864  0.00  0.00    -0.166 F 
ENDBRANCH   3  22
TORSDOF 3
ENDMDL
MODEL 4
REMARK VINA RESULT:      -5.8      5.463      6.440
REMARK  3 active torsions:
REMARK  status: ('A' for Active; 'I' for Inactive)
REMARK    1  A    between atoms: C_3  and  C_14 
REMARK    2  A    between atoms: C_6  and  C_7 
REMARK    3  A    between atoms: C_11  and  N_13 
ROOT
ATOM      1  C   LIG d   1       7.319  -0.557  -3.776  0.00  0.00    -0.054 A 
ATOM      2  C   LIG d   1       6.409   0.377  -3.318  0.00  0.00    -0.050 A 
ATOM      3  C   LIG d   1       5.220  -0.038  -2.748  0.00  0.00     0.055 A 
ATOM      4  C   LIG d   1       4.943  -1.387  -2.632  0.00  0.00    -0.050 A 
ATOM      5  C   LIG d   1       5.851  -2.321  -3.096  0.00  0.00    -0.054 A 
ATOM      6  C   LIG d   1       7.039  -1.906  -3.665  0.00  0.00    -0.005 A 
ATOM      7  H   LIG d   1       8.247  -0.233  -4.222  0.00  0.00     0.062 H 
ATOM      8  H   LIG d   1       6.627   1.432  -3.405  0.00  0.00     0.062 H 
ATOM      9  H   LIG d   1       4.016  -1.712  -2.182  0.00  0.00     0.062 H 
ATOM     10  H   LIG d   1       5.632  -3.375  -3.009  0.00  0.00     0.062 H 
ENDROOT
BRANCH   6  11
ATOM     11  C   LIG d   1       8.031  -2.925  -4.166  0.00  0.00     0.147 C 
ATOM     12  H   LIG d   1       7.536  -3.680  -4.778  0.00  0.00     0.080 H 
ATOM     13  O   LIG d   1       8.749  -3.531  -3.073  0.00  0.00    -0.456 OA
ATOM     14  C   LIG d   1      10.019  -3.729  -3.475  0.00  0.00     0.276 C 
ATOM     15  N   LIG d   1      10.351  -3.038  -4.522  0.00  0.00    -0.233 NA
ATOM     16  C   LIG d   1       9.182  -2.243  -4.947  0.00  0.00     0.086 C 
ATOM     17  H   LIG d   1       9.026  -2.325  -6.021  0.00  0.00     0.055 H 
ATOM     18  H   LIG d   1       9.291  -1.201  -4.647  0.00  0.00     0.055 H 
BRANCH  14  19
ATOM     19  N   LIG d   1      10.884  -4.584  -2.836  0.00  0.00    -0.313 N 
ATOM     20  H   LIG d   1      10.663  -4.930  -1.957  0.00  0.00     0.147 HD
ATOM     21  H   LIG d   1      11.716  -4.840  -3.263  0.00  0.00     0.147 HD
ENDBRANCH  14  19
ENDBRANCH   6  11
BRANCH   3  22
ATOM     22  C   LIG d   1       4.228   0.980  -2.248  0.00  0.00     0.417 C 
ATOM     23  F   LIG d   1       4.263   2.110  -3.072  0.00  0.00    -0.166 F 
ATOM     24  F   LIG d   1       4.557   1.348  -0.938  0.00  0.00    -0.166 F 
ATOM     25  F   LIG d   1       2.942   0.428  -2.269  0.00  0.00    -0.166 F 
ENDBRANCH   3  22
TORSDOF 3
ENDMDL
MODEL 5
REMARK VINA RESULT:      -5.6      4.990      5.720
REMARK  3 active torsions:
REMARK  status: ('A' for Active; 'I' for Inactive)
REMARK    1  A    between atoms: C_3  and  C_14 
REMARK    2  A    between atoms: C_6  and  C_7 
REMARK    3  A    between atoms: C_11  and  N_13 
ROOT
ATOM      1  C   LIG d   1       7.240  -0.523  -3.933  0.00  0.00    -0.054 A 
ATOM      2  C   LIG d   1       6.373   0.385  -3.356  0.00  0.00    -0.050 A 
ATOM      3  C   LIG d   1       5.154  -0.040  -2.863  0.00  0.00     0.055 A 
ATOM      4  C   LIG d   1       4.804  -1.375  -2.941  0.00  0.00    -0.050 A 
ATOM      5  C   LIG d   1       5.669  -2.283  -3.523  0.00  0.00    -0.054 A 
ATOM      6  C   LIG d   1       6.887  -1.858  -4.017  0.00  0.00    -0.005 A 
ATOM      7  H   LIG d   1       8.191  -0.191  -4.320  0.00  0.00     0.062 H 
ATOM      8  H   LIG d   1       6.648   1.428  -3.292  0.00  0.00     0.062 H 
ATOM      9  H   LIG d   1       3.853  -1.708  -2.550  0.00  0.00     0.062 H 
ATOM     10  H   LIG d   1       5.393  -3.325  -3.589  0.00  0.00     0.062 H 
ENDROOT
BRANCH   6  11
ATOM     11  C   LIG d   1       7.832  -2.849  -4.647  0.00  0.00     0.147 C 
ATOM     12  H   LIG d   1       8.453  -2.367  -5.404  0.00  0.00     0.080 H 
ATOM     13  O   LIG d   1       7.113  -3.969  -5.202  0.00  0.00    -0.456 OA
ATOM     14  C   LIG d   1       7.853  -5.076  -4.991  0.00  0.00     0.276 C 
ATOM     15  N   LIG d   1       8.770  -4.929  -4.086  0.00  0.00    -0.233 NA
ATOM     16  C   LIG d   1       8.704  -3.546  -3.574  0.00  0.00     0.086 C 
ATOM     17  H   LIG d   1       9.696  -3.100  -3.529  0.00  0.00     0.055 H 
ATOM     18  H   LIG d   1       8.218  -3.515  -2.599  0.00  0.00     0.055 H 
BRANCH  14  19
ATOM     19  N   LIG d   1       7.654  -6.252  -5.674  0.00  0.00    -0.313 N 
ATOM     20  H   LIG d   1       7.499  -7.075  -5.186  0.00  0.00     0.147 HD
ATOM     21  H   LIG d   1       7.668  -6.258  -6.644  0.00  0.00     0.147 HD
ENDBRANCH  14  19
ENDBRANCH   6  11
BRANCH   3  22
ATOM     22  C   LIG d   1       4.209   0.950  -2.233  0.00  0.00     0.417 C 
ATOM     23  F   LIG d   1       4.629   1.232  -0.929  0.00  0.00    -0.166 F 
ATOM     24  F   LIG d   1       2.919   0.408  -2.201  0.00  0.00    -0.166 F 
ATOM     25  F   LIG d   1       4.200   2.131  -2.985  0.00  0.00    -0.166 F 
ENDBRANCH   3  22
TORSDOF 3
ENDMDL
MODEL 6
REMARK VINA RESULT:      -5.6      4.985      5.819
REMARK  3 active torsions:
REMARK  status: ('A' for Active; 'I' for Inactive)
REMARK    1  A    between atoms: C_3  and  C_14 
REMARK    2  A    between atoms: C_6  and  C_7 
REMARK    3  A    between atoms: C_11  and  N_13 
ROOT
ATOM      1  C   LIG d   1       6.288   1.435  -3.212  0.00  0.00    -0.054 A 
ATOM      2  C   LIG d   1       5.132   0.760  -2.867  0.00  0.00    -0.050 A 
ATOM      3  C   LIG d   1       5.058  -0.610  -3.030  0.00  0.00     0.055 A 
ATOM      4  C   LIG d   1       6.140  -1.307  -3.534  0.00  0.00    -0.050 A 
ATOM      5  C   LIG d   1       7.294  -0.631  -3.884  0.00  0.00    -0.054 A 
ATOM      6  C   LIG d   1       7.369   0.740  -3.720  0.00  0.00    -0.005 A 
ATOM      7  H   LIG d   1       6.346   2.505  -3.085  0.00  0.00     0.062 H 
ATOM      8  H   LIG d   1       4.287   1.304  -2.470  0.00  0.00     0.062 H 
ATOM      9  H   LIG d   1       6.084  -2.379  -3.657  0.00  0.00     0.062 H 
ATOM     10  H   LIG d   1       8.138  -1.174  -4.282  0.00  0.00     0.062 H 
ENDROOT
BRANCH   6  11
ATOM     11  C   LIG d   1       8.629   1.476  -4.098  0.00  0.00     0.147 C 
ATOM     12  H   LIG d   1       9.492   0.810  -4.065  0.00  0.00     0.080 H 
ATOM     13  O   LIG d   1       8.829   2.628  -3.255  0.00  0.00    -0.456 OA
ATOM     14  C   LIG d   1       9.345   3.611  -4.018  0.00  0.00     0.276 C 
ATOM     15  N   LIG d   1       9.194   3.419  -5.292  0.00  0.00    -0.233 NA
ATOM     16  C   LIG d   1       8.489   2.137  -5.491  0.00  0.00     0.086 C 
ATOM     17  H   LIG d   1       8.980   1.539  -6.258  0.00  0.00     0.055 H 
ATOM     18  H   LIG d   1       7.441   2.304  -5.740  0.00  0.00     0.055 H 
BRANCH  14  19
ATOM     19  N   LIG d   1       9.975   4.714  -3.495  0.00  0.00    -0.313 N 
ATOM     20  H   LIG d   1      10.624   5.200  -4.028  0.00  0.00     0.147 HD
ATOM     21  H   LIG d   1       9.770   5.007  -2.594  0.00  0.00     0.147 HD
ENDBRANCH  14  19
ENDBRANCH   6  11
BRANCH   3  22
ATOM     22  C   LIG d   1       3.798  -1.347  -2.654  0.00  0.00     0.417 C 
ATOM     23  F   LIG d   1       3.419  -2.190  -3.704  0.00  0.00    -0.166 F 
ATOM     24  F   LIG d   1       2.775  -0.425  -2.405  0.00  0.00    -0.166 F 
ATOM     25  F   LIG d   1       4.029  -2.110  -1.504  0.00  0.00    -0.166 F 
ENDBRANCH   3  22
TORSDOF 3
ENDMDL
MODEL 7
REMARK VINA RESULT:      -5.5      4.732      5.557
REMARK  3 active torsions:
REMARK  status: ('A' for Active; 'I' for Inactive)
REMARK    1  A    between atoms: C_3  and  C_14 
REMARK    2  A    between atoms: C_6  and  C_7 
REMARK    3  A    between atoms: C_11  and  N_13 
ROOT
ATOM      1  C   LIG d   1       4.756  -2.537  -3.787  0.00  0.00    -0.054 A 
ATOM      2  C   LIG d   1       4.161  -1.440  -3.193  0.00  0.00    -0.050 A 
ATOM      3  C   LIG d   1       4.924  -0.336  -2.861  0.00  0.00     0.055 A 
ATOM      4  C   LIG d   1       6.280  -0.326  -3.128  0.00  0.00    -0.050 A 
ATOM      5  C   LIG d   1       6.876  -1.426  -3.717  0.00  0.00    -0.054 A 
ATOM      6  C   LIG d   1       6.113  -2.530  -4.049  0.00  0.00    -0.005 A 
ATOM      7  H   LIG d   1       4.161  -3.400  -4.045  0.00  0.00     0.062 H 
ATOM      8  H   LIG d   1       3.101  -1.445  -2.988  0.00  0.00     0.062 H 
ATOM      9  H   LIG d   1       6.875   0.539  -2.874  0.00  0.00     0.062 H 
ATOM     10  H   LIG d   1       7.936  -1.420  -3.921  0.00  0.00     0.062 H 
ENDROOT
BRANCH   6  11
ATOM     11  C   LIG d   1       6.762  -3.727  -4.695  0.00  0.00     0.147 C 
ATOM     12  H   LIG d   1       6.144  -4.617  -4.575  0.00  0.00     0.080 H 
ATOM     13  O   LIG d   1       8.089  -3.942  -4.173  0.00  0.00    -0.456 OA
ATOM     14  C   LIG d   1       8.868  -4.360  -5.190  0.00  0.00     0.276 C 
ATOM     15  N   LIG d   1       8.370  -4.121  -6.364  0.00  0.00    -0.233 NA
ATOM     16  C   LIG d   1       7.063  -3.457  -6.190  0.00  0.00     0.086 C 
ATOM     17  H   LIG d   1       6.307  -3.912  -6.828  0.00  0.00     0.055 H 
ATOM     18  H   LIG d   1       7.142  -2.387  -6.384  0.00  0.00     0.055 H 
BRANCH  14  19
ATOM     19  N   LIG d   1      10.079  -4.981  -5.001  0.00  0.00    -0.313 N 
ATOM     20  H   LIG d   1      10.903  -4.504  -5.189  0.00  0.00     0.147 HD
ATOM     21  H   LIG d   1      10.110  -5.896  -4.681  0.00  0.00     0.147 HD
ENDBRANCH  14  19
ENDBRANCH   6  11
BRANCH   3  22
ATOM     22  C   LIG d   1       4.276   0.861  -2.214  0.00  0.00     0.417 C 
ATOM     23  F   LIG d   1       4.589   2.013  -2.944  0.00  0.00    -0.166 F 
ATOM     24  F   LIG d   1       4.749   0.996  -0.904  0.00  0.00    -0.166 F 
ATOM     25  F   LIG d   1       2.887   0.686  -2.193  0.00  0.00    -0.166 F 
ENDBRANCH   3  22
TORSDOF 3
ENDMDL
MODEL 8
REMARK VINA RESULT:      -5.3      5.372      6.142
REMARK  3 active torsions:
REMARK  status: ('A' for Active; 'I' for Inactive)
REMARK    1  A    between atoms: C_3  and  C_14 
REMARK    2  A    between atoms: C_6  and  C_7 
REMARK    3  A    between atoms: C_11  and  N_13 
ROOT
ATOM      1  C   LIG d   1       7.249  -1.304  -4.043  0.00  0.00    -0.054 A 
ATOM      2  C   LIG d   1       6.145  -1.227  -3.215  0.00  0.00    -0.050 A 
ATOM      3  C   LIG d   1       5.666   0.006  -2.815  0.00  0.00     0.055 A 
ATOM      4  C   LIG d   1       6.288   1.163  -3.246  0.00  0.00    -0.050 A 
ATOM      5  C   LIG d   1       7.396   1.086  -4.070  0.00  0.00    -0.054 A 
ATOM      6  C   LIG d   1       7.875  -0.148  -4.470  0.00  0.00    -0.005 A 
ATOM      7  H   LIG d   1       7.624  -2.267  -4.355  0.00  0.00     0.062 H 
ATOM      8  H   LIG d   1       5.657  -2.131  -2.881  0.00  0.00     0.062 H 
ATOM      9  H   LIG d   1       5.911   2.127  -2.938  0.00  0.00     0.062 H 
ATOM     10  H   LIG d   1       7.885   1.989  -4.403  0.00  0.00     0.062 H 
ENDROOT
BRANCH   6  11
ATOM     11  C   LIG d   1       9.080  -0.231  -5.371  0.00  0.00     0.147 C 
ATOM     12  H   LIG d   1       8.790  -0.138  -6.418  0.00  0.00     0.080 H 
ATOM     13  O   LIG d   1       9.815  -1.451  -5.143  0.00  0.00    -0.456 OA
ATOM     14  C   LIG d   1      11.127  -1.168  -5.259  0.00  0.00     0.276 C 
ATOM     15  N   LIG d   1      11.399   0.098  -5.178  0.00  0.00    -0.233 NA
ATOM     16  C   LIG d   1      10.135   0.836  -4.989  0.00  0.00     0.086 C 
ATOM     17  H   LIG d   1      10.081   1.694  -5.658  0.00  0.00     0.055 H 
ATOM     18  H   LIG d   1      10.017   1.145  -3.951  0.00  0.00     0.055 H 
BRANCH  14  19
ATOM     19  N   LIG d   1      12.088  -2.131  -5.446  0.00  0.00    -0.313 N 
ATOM     20  H   LIG d   1      13.024  -1.880  -5.492  0.00  0.00     0.147 HD
ATOM     21  H   LIG d   1      11.831  -3.062  -5.533  0.00  0.00     0.147 HD
ENDBRANCH  14  19
ENDBRANCH   6  11
BRANCH   3  22
ATOM     22  C   LIG d   1       4.462   0.090  -1.913  0.00  0.00     0.417 C 
ATOM     23  F   LIG d   1       3.320   0.342  -2.681  0.00  0.00    -0.166 F 
ATOM     24  F   LIG d   1       4.641   1.128  -0.991  0.00  0.00    -0.166 F 
ATOM     25  F   LIG d   1       4.305  -1.120  -1.229  0.00  0.00    -0.166 F 
ENDBRANCH   3  22
TORSDOF 3
ENDMDL
MODEL 9
REMARK VINA RESULT:      -5.3      3.791      4.730
REMARK  3 active torsions:
REMARK  status: ('A' for Active; 'I' for Inactive)
REMARK    1  A    between atoms: C_3  and  C_14 
REMARK    2  A    between atoms: C_6  and  C_7 
REMARK    3  A    between atoms: C_11  and  N_13 
ROOT
ATOM      1  C   LIG d   1       4.845  -1.536  -5.114  0.00  0.00    -0.054 A 
ATOM      2  C   LIG d   1       4.796  -0.277  -4.548  0.00  0.00    -0.050 A 
ATOM      3  C   LIG d   1       4.568  -0.137  -3.192  0.00  0.00     0.055 A 
ATOM      4  C   LIG d   1       4.393  -1.257  -2.401  0.00  0.00    -0.050 A 
ATOM      5  C   LIG d   1       4.437  -2.517  -2.969  0.00  0.00    -0.054 A 
ATOM      6  C   LIG d   1       4.665  -2.657  -4.325  0.00  0.00    -0.005 A 
ATOM      7  H   LIG d   1       5.022  -1.646  -6.173  0.00  0.00     0.062 H 
ATOM      8  H   LIG d   1       4.936   0.599  -5.165  0.00  0.00     0.062 H 
ATOM      9  H   LIG d   1       4.220  -1.148  -1.340  0.00  0.00     0.062 H 
ATOM     10  H   LIG d   1       4.296  -3.392  -2.351  0.00  0.00     0.062 H 
ENDROOT
BRANCH   6  11
ATOM     11  C   LIG d   1       4.717  -4.031  -4.942  0.00  0.00     0.147 C 
ATOM     12  H   LIG d   1       4.138  -4.743  -4.354  0.00  0.00     0.080 H 
ATOM     13  O   LIG d   1       6.079  -4.476  -5.104  0.00  0.00    -0.456 OA
ATOM     14  C   LIG d   1       6.152  -5.163  -6.260  0.00  0.00     0.276 C 
ATOM     15  N   LIG d   1       5.154  -4.950  -7.061  0.00  0.00    -0.233 NA
ATOM     16  C   LIG d   1       4.230  -3.998  -6.412  0.00  0.00     0.086 C 
ATOM     17  H   LIG d   1       3.200  -4.342  -6.489  0.00  0.00     0.055 H 
ATOM     18  H   LIG d   1       4.339  -3.000  -6.836  0.00  0.00     0.055 H 
BRANCH  14  19
ATOM     19  N   LIG d   1       7.188  -6.012  -6.564  0.00  0.00    -0.313 N 
ATOM     20  H   LIG d   1       8.105  -5.702  -6.497  0.00  0.00     0.147 HD
ATOM     21  H   LIG d   1       7.003  -6.922  -6.846  0.00  0.00     0.147 HD
ENDBRANCH  14  19
ENDBRANCH   6  11
BRANCH   3  22
ATOM     22  C   LIG d   1       4.515   1.236  -2.574  0.00  0.00     0.417 C 
ATOM     23  F   LIG d   1       5.723   1.901  -2.810  0.00  0.00    -0.166 F 
ATOM     24  F   LIG d   1       4.309   1.119  -1.195  0.00  0.00    -0.166 F 
ATOM     25  F   LIG d   1       3.464   1.964  -3.143  0.00  0.00    -0.166 F 
ENDBRANCH   3  22
TORSDOF 3
ENDMDL
MODEL 10
REMARK VINA RESULT:      -5.3      1.838      2.599
REMARK  3 active torsions:
REMARK  status: ('A' for Active; 'I' for Inactive)
REMARK    1  A    between atoms: C_3  and  C_14 
REMARK    2  A    between atoms: C_6  and  C_7 
REMARK    3  A    between atoms: C_11  and  N_13 
ROOT
ATOM      1  C   LIG d   1       4.877  -0.850  -6.094  0.00  0.00    -0.054 A 
ATOM      2  C   LIG d   1       4.611  -0.904  -4.739  0.00  0.00    -0.050 A 
ATOM      3  C   LIG d   1       3.487  -0.280  -4.230  0.00  0.00     0.055 A 
ATOM      4  C   LIG d   1       2.626   0.392  -5.076  0.00  0.00    -0.050 A 
ATOM      5  C   LIG d   1       2.895   0.450  -6.431  0.00  0.00    -0.054 A 
ATOM      6  C   LIG d   1       4.018  -0.173  -6.940  0.00  0.00    -0.005 A 
ATOM      7  H   LIG d   1       5.755  -1.336  -6.492  0.00  0.00     0.062 H 
ATOM      8  H   LIG d   1       5.282  -1.432  -4.078  0.00  0.00     0.062 H 
ATOM      9  H   LIG d   1       1.745   0.875  -4.679  0.00  0.00     0.062 H 
ATOM     10  H   LIG d   1       2.224   0.980  -7.092  0.00  0.00     0.062 H 
ENDROOT
BRANCH   6  11
ATOM     11  C   LIG d   1       4.308  -0.113  -8.418  0.00  0.00     0.147 C 
ATOM     12  H   LIG d   1       3.666  -0.801  -8.969  0.00  0.00     0.080 H 
ATOM     13  O   LIG d   1       5.701  -0.377  -8.685  0.00  0.00    -0.456 OA
ATOM     14  C   LIG d   1       6.082   0.419  -9.702  0.00  0.00     0.276 C 
ATOM     15  N   LIG d   1       5.277   1.412  -9.921  0.00  0.00    -0.233 NA
ATOM     16  C   LIG d   1       4.164   1.332  -8.955  0.00  0.00     0.086 C 
ATOM     17  H   LIG d   1       3.205   1.469  -9.453  0.00  0.00     0.055 H 
ATOM     18  H   LIG d   1       4.292   2.060  -8.153  0.00  0.00     0.055 H 
BRANCH  14  19
ATOM     19  N   LIG d   1       7.220   0.199 -10.441  0.00  0.00    -0.313 N 
ATOM     20  H   LIG d   1       8.072   0.075  -9.994  0.00  0.00     0.147 HD
ATOM     21  H   LIG d   1       7.171   0.169 -11.409  0.00  0.00     0.147 HD
ENDBRANCH  14  19
ENDBRANCH   6  11
BRANCH   3  22
ATOM     22  C   LIG d   1       3.197  -0.339  -2.752  0.00  0.00     0.417 C 
ATOM     23  F   LIG d   1       4.216  -1.046  -2.104  0.00  0.00    -0.166 F 
ATOM     24  F   LIG d   1       1.975  -0.986  -2.542  0.00  0.00    -0.166 F 
ATOM     25  F   LIG d   1       3.132   0.961  -2.237  0.00  0.00    -0.166 F 
ENDBRANCH   3  22
TORSDOF 3
ENDMDL
