MODEL 1
REMARK VINA RESULT:      -5.3      0.000      0.000
REMARK  5 active torsions:
REMARK  status: ('A' for Active; 'I' for Inactive)
REMARK    1  A    between atoms: C_1  and  C_2 
REMARK    2  A    between atoms: C_4  and  C_15 
REMARK    3  A    between atoms: C_7  and  C_8 
REMARK    4  A    between atoms: C_10  and  C_13 
REMARK    5  A    between atoms: C_10  and  C_14 
ROOT
ATOM      1  C   LIG d   1       5.289  -0.266  -2.715  0.00  0.00    -0.044 A 
ATOM      2  C   LIG d   1       6.483   0.104  -3.308  0.00  0.00    -0.055 A 
ATOM      3  C   LIG d   1       7.093  -0.739  -4.215  0.00  0.00    -0.043 A 
ATOM      4  C   LIG d   1       6.516  -1.957  -4.535  0.00  0.00    -0.002 A 
ATOM      5  C   LIG d   1       5.326  -2.334  -3.936  0.00  0.00     0.128 A 
ATOM      6  C   LIG d   1       4.710  -1.478  -3.028  0.00  0.00    -0.006 A 
ATOM      7  O   LIG d   1       4.728  -3.520  -4.217  0.00  0.00    -0.486 OA
ATOM      8  C   LIG d   1       5.138  -4.214  -5.396  0.00  0.00     0.105 C 
ATOM      9  C   LIG d   1       6.670  -4.276  -5.412  0.00  0.00    -0.009 C 
ATOM     10  C   LIG d   1       7.208  -2.848  -5.534  0.00  0.00    -0.020 C 
ATOM     11  H   LIG d   1       6.938   1.052  -3.061  0.00  0.00     0.062 H 
ATOM     12  H   LIG d   1       7.005  -4.869  -6.264  0.00  0.00     0.031 H 
ATOM     13  H   LIG d   1       7.030  -4.726  -4.488  0.00  0.00     0.031 H 
ATOM     14  H   LIG d   1       7.023  -2.475  -6.542  0.00  0.00     0.032 H 
ATOM     15  H   LIG d   1       8.280  -2.846  -5.340  0.00  0.00     0.032 H 
ENDROOT
BRANCH   8  16
ATOM     16  C   LIG d   1       4.565  -5.633  -5.386  0.00  0.00    -0.025 C 
ATOM     17  H   LIG d   1       4.915  -6.172  -6.267  0.00  0.00     0.027 H 
ATOM     18  H   LIG d   1       4.899  -6.152  -4.487  0.00  0.00     0.027 H 
ATOM     19  H   LIG d   1       3.477  -5.586  -5.396  0.00  0.00     0.027 H 
ENDBRANCH   8  16
BRANCH   8  20
ATOM     20  C   LIG d   1       4.639  -3.466  -6.634  0.00  0.00    -0.025 C 
ATOM     21  H   LIG d   1       4.776  -2.394  -6.491  0.00  0.00     0.027 H 
ATOM     22  H   LIG d   1       5.204  -3.791  -7.507  0.00  0.00     0.027 H 
ATOM     23  H   LIG d   1       3.581  -3.679  -6.786  0.00  0.00     0.027 H 
ENDBRANCH   8  20
BRANCH   6  24
ATOM     24  C   LIG d   1       3.409  -1.879  -2.382  0.00  0.00    -0.036 C 
ATOM     25  H   LIG d   1       3.101  -1.108  -1.676  0.00  0.00     0.028 H 
ATOM     26  H   LIG d   1       2.644  -1.998  -3.148  0.00  0.00     0.028 H 
ATOM     27  H   LIG d   1       3.543  -2.823  -1.853  0.00  0.00     0.028 H 
ENDBRANCH   6  24
BRANCH   3  28
ATOM     28  C   LIG d   1       8.393  -0.333  -4.860  0.00  0.00    -0.039 C 
ATOM     29  H   LIG d   1       8.733  -1.128  -5.524  0.00  0.00     0.028 H 
ATOM     30  H   LIG d   1       8.243   0.581  -5.434  0.00  0.00     0.028 H 
ATOM     31  H   LIG d   1       9.143  -0.159  -4.088  0.00  0.00     0.028 H 
ENDBRANCH   3  28
BRANCH   1  32
ATOM     32  C   LIG d   1       4.622   0.655  -1.726  0.00  0.00    -0.039 C 
ATOM     33  H   LIG d   1       5.018   0.468  -0.728  0.00  0.00     0.028 H 
ATOM     34  H   LIG d   1       4.816   1.691  -2.005  0.00  0.00     0.028 H 
ATOM     35  H   LIG d   1       3.547   0.474  -1.730  0.00  0.00     0.028 H 
ENDBRANCH   1  32
TORSDOF 5
ENDMDL
MODEL 2
REMARK VINA RESULT:      -5.2      2.232      4.882
REMARK  5 active torsions:
REMARK  status: ('A' for Active; 'I' for Inactive)
REMARK    1  A    between atoms: C_1  and  C_2 
REMARK    2  A    between atoms: C_4  and  C_15 
REMARK    3  A    between atoms: C_7  and  C_8 
REMARK    4  A    between atoms: C_10  and  C_13 
REMARK    5  A    between atoms: C_10  and  C_14 
ROOT
ATOM      1  C   LIG d   1       4.109  -1.677  -7.626  0.00  0.00    -0.044 A 
ATOM      2  C   LIG d   1       4.742  -2.813  -7.154  0.00  0.00    -0.055 A 
ATOM      3  C   LIG d   1       5.078  -2.911  -5.819  0.00  0.00    -0.043 A 
ATOM      4  C   LIG d   1       4.785  -1.877  -4.946  0.00  0.00    -0.002 A 
ATOM      5  C   LIG d   1       4.161  -0.735  -5.416  0.00  0.00     0.128 A 
ATOM      6  C   LIG d   1       3.816  -0.642  -6.761  0.00  0.00    -0.006 A 
ATOM      7  O   LIG d   1       3.859   0.306  -4.597  0.00  0.00    -0.486 OA
ATOM      8  C   LIG d   1       3.860   0.069  -3.189  0.00  0.00     0.105 C 
ATOM      9  C   LIG d   1       5.164  -0.649  -2.820  0.00  0.00    -0.009 C 
ATOM     10  C   LIG d   1       5.162  -2.024  -3.494  0.00  0.00    -0.020 C 
ATOM     11  H   LIG d   1       4.974  -3.622  -7.831  0.00  0.00     0.062 H 
ATOM     12  H   LIG d   1       5.223  -0.771  -1.737  0.00  0.00     0.031 H 
ATOM     13  H   LIG d   1       6.016  -0.069  -3.170  0.00  0.00     0.031 H 
ATOM     14  H   LIG d   1       4.441  -2.672  -2.995  0.00  0.00     0.032 H 
ATOM     15  H   LIG d   1       6.156  -2.464  -3.420  0.00  0.00     0.032 H 
ENDROOT
BRANCH   8  16
ATOM     16  C   LIG d   1       3.778   1.402  -2.442  0.00  0.00    -0.025 C 
ATOM     17  H   LIG d   1       3.591   1.215  -1.384  0.00  0.00     0.027 H 
ATOM     18  H   LIG d   1       4.721   1.939  -2.554  0.00  0.00     0.027 H 
ATOM     19  H   LIG d   1       2.967   2.001  -2.854  0.00  0.00     0.027 H 
ENDBRANCH   8  16
BRANCH   8  20
ATOM     20  C   LIG d   1       2.664  -0.806  -2.811  0.00  0.00    -0.025 C 
ATOM     21  H   LIG d   1       2.574  -0.852  -1.725  0.00  0.00     0.027 H 
ATOM     22  H   LIG d   1       1.754  -0.381  -3.233  0.00  0.00     0.027 H 
ATOM     23  H   LIG d   1       2.811  -1.812  -3.205  0.00  0.00     0.027 H 
ENDBRANCH   8  20
BRANCH   6  24
ATOM     24  C   LIG d   1       3.126   0.595  -7.276  0.00  0.00    -0.036 C 
ATOM     25  H   LIG d   1       3.537   0.862  -8.249  0.00  0.00     0.028 H 
ATOM     26  H   LIG d   1       2.058   0.400  -7.374  0.00  0.00     0.028 H 
ATOM     27  H   LIG d   1       3.283   1.416  -6.576  0.00  0.00     0.028 H 
ENDBRANCH   6  24
BRANCH   3  28
ATOM     28  C   LIG d   1       5.767  -4.151  -5.308  0.00  0.00    -0.039 C 
ATOM     29  H   LIG d   1       5.269  -4.496  -4.402  0.00  0.00     0.028 H 
ATOM     30  H   LIG d   1       5.722  -4.930  -6.068  0.00  0.00     0.028 H 
ATOM     31  H   LIG d   1       6.809  -3.921  -5.084  0.00  0.00     0.028 H 
ENDBRANCH   3  28
BRANCH   1  32
ATOM     32  C   LIG d   1       3.740  -1.570  -9.083  0.00  0.00    -0.039 C 
ATOM     33  H   LIG d   1       4.569  -1.923  -9.696  0.00  0.00     0.028 H 
ATOM     34  H   LIG d   1       2.858  -2.179  -9.280  0.00  0.00     0.028 H 
ATOM     35  H   LIG d   1       3.524  -0.529  -9.327  0.00  0.00     0.028 H 
ENDBRANCH   1  32
TORSDOF 5
ENDMDL
MODEL 3
REMARK VINA RESULT:      -5.1      2.800      3.994
REMARK  5 active torsions:
REMARK  status: ('A' for Active; 'I' for Inactive)
REMARK    1  A    between atoms: C_1  and  C_2 
REMARK    2  A    between atoms: C_4  and  C_15 
REMARK    3  A    between atoms: C_7  and  C_8 
REMARK    4  A    between atoms: C_10  and  C_13 
REMARK    5  A    between atoms: C_10  and  C_14 
ROOT
ATOM      1  C   LIG d   1       4.393  -1.154  -3.126  0.00  0.00    -0.044 A 
ATOM      2  C   LIG d   1       4.809  -2.398  -3.565  0.00  0.00    -0.055 A 
ATOM      3  C   LIG d   1       4.782  -2.700  -4.912  0.00  0.00    -0.043 A 
ATOM      4  C   LIG d   1       4.339  -1.763  -5.830  0.00  0.00    -0.002 A 
ATOM      5  C   LIG d   1       3.912  -0.521  -5.393  0.00  0.00     0.128 A 
ATOM      6  C   LIG d   1       3.948  -0.217  -4.036  0.00  0.00    -0.006 A 
ATOM      7  O   LIG d   1       3.465   0.427  -6.258  0.00  0.00    -0.486 OA
ATOM      8  C   LIG d   1       3.776   0.269  -7.642  0.00  0.00     0.105 C 
ATOM      9  C   LIG d   1       3.419  -1.163  -8.058  0.00  0.00    -0.009 C 
ATOM     10  C   LIG d   1       4.329  -2.127  -7.292  0.00  0.00    -0.020 C 
ATOM     11  H   LIG d   1       5.155  -3.134  -2.853  0.00  0.00     0.062 H 
ATOM     12  H   LIG d   1       3.574  -1.285  -9.130  0.00  0.00     0.031 H 
ATOM     13  H   LIG d   1       2.377  -1.369  -7.813  0.00  0.00     0.031 H 
ATOM     14  H   LIG d   1       5.343  -2.062  -7.689  0.00  0.00     0.032 H 
ATOM     15  H   LIG d   1       3.960  -3.146  -7.410  0.00  0.00     0.032 H 
ENDROOT
BRANCH   8  16
ATOM     16  C   LIG d   1       2.960   1.264  -8.471  0.00  0.00    -0.025 C 
ATOM     17  H   LIG d   1       1.907   0.980  -8.446  0.00  0.00     0.027 H 
ATOM     18  H   LIG d   1       3.075   2.265  -8.053  0.00  0.00     0.027 H 
ATOM     19  H   LIG d   1       3.315   1.256  -9.501  0.00  0.00     0.027 H 
ENDBRANCH   8  16
BRANCH   8  20
ATOM     20  C   LIG d   1       5.269   0.514  -7.867  0.00  0.00    -0.025 C 
ATOM     21  H   LIG d   1       5.816   0.289  -6.951  0.00  0.00     0.027 H 
ATOM     22  H   LIG d   1       5.626  -0.128  -8.672  0.00  0.00     0.027 H 
ATOM     23  H   LIG d   1       5.430   1.558  -8.137  0.00  0.00     0.027 H 
ENDBRANCH   8  20
BRANCH   6  24
ATOM     24  C   LIG d   1       3.495   1.138  -3.557  0.00  0.00    -0.036 C 
ATOM     25  H   LIG d   1       4.317   1.848  -3.644  0.00  0.00     0.028 H 
ATOM     26  H   LIG d   1       2.656   1.477  -4.165  0.00  0.00     0.028 H 
ATOM     27  H   LIG d   1       3.183   1.069  -2.514  0.00  0.00     0.028 H 
ENDBRANCH   6  24
BRANCH   3  28
ATOM     28  C   LIG d   1       5.238  -4.056  -5.386  0.00  0.00    -0.039 C 
ATOM     29  H   LIG d   1       4.863  -4.823  -4.708  0.00  0.00     0.028 H 
ATOM     30  H   LIG d   1       4.854  -4.238  -6.389  0.00  0.00     0.028 H 
ATOM     31  H   LIG d   1       6.328  -4.088  -5.402  0.00  0.00     0.028 H 
ENDBRANCH   3  28
BRANCH   1  32
ATOM     32  C   LIG d   1       4.424  -0.824  -1.657  0.00  0.00    -0.039 C 
ATOM     33  H   LIG d   1       4.040  -1.668  -1.085  0.00  0.00     0.028 H 
ATOM     34  H   LIG d   1       5.450  -0.616  -1.352  0.00  0.00     0.028 H 
ATOM     35  H   LIG d   1       3.805   0.054  -1.468  0.00  0.00     0.028 H 
ENDBRANCH   1  32
TORSDOF 5
ENDMDL
MODEL 4
REMARK VINA RESULT:      -5.0      1.526      4.697
REMARK  5 active torsions:
REMARK  status: ('A' for Active; 'I' for Inactive)
REMARK    1  A    between atoms: C_1  and  C_2 
REMARK    2  A    between atoms: C_4  and  C_15 
REMARK    3  A    between atoms: C_7  and  C_8 
REMARK    4  A    between atoms: C_10  and  C_13 
REMARK    5  A    between atoms: C_10  and  C_14 
ROOT
ATOM      1  C   LIG d   1       7.386  -1.777  -6.042  0.00  0.00    -0.044 A 
ATOM      2  C   LIG d   1       6.701  -2.979  -6.013  0.00  0.00    -0.055 A 
ATOM      3  C   LIG d   1       5.690  -3.174  -5.092  0.00  0.00    -0.043 A 
ATOM      4  C   LIG d   1       5.357  -2.172  -4.196  0.00  0.00    -0.002 A 
ATOM      5  C   LIG d   1       6.048  -0.972  -4.217  0.00  0.00     0.128 A 
ATOM      6  C   LIG d   1       7.060  -0.776  -5.151  0.00  0.00    -0.006 A 
ATOM      7  O   LIG d   1       5.758   0.036  -3.354  0.00  0.00    -0.486 OA
ATOM      8  C   LIG d   1       4.506  -0.010  -2.669  0.00  0.00     0.105 C 
ATOM      9  C   LIG d   1       4.336  -1.409  -2.064  0.00  0.00    -0.009 C 
ATOM     10  C   LIG d   1       4.245  -2.420  -3.210  0.00  0.00    -0.020 C 
ATOM     11  H   LIG d   1       6.957  -3.764  -6.709  0.00  0.00     0.062 H 
ATOM     12  H   LIG d   1       3.422  -1.444  -1.470  0.00  0.00     0.031 H 
ATOM     13  H   LIG d   1       5.192  -1.644  -1.433  0.00  0.00     0.031 H 
ATOM     14  H   LIG d   1       3.283  -2.313  -3.714  0.00  0.00     0.032 H 
ATOM     15  H   LIG d   1       4.333  -3.430  -2.810  0.00  0.00     0.032 H 
ENDROOT
BRANCH   8  16
ATOM     16  C   LIG d   1       4.489   1.038  -1.554  0.00  0.00    -0.025 C 
ATOM     17  H   LIG d   1       3.755   1.810  -1.791  0.00  0.00     0.027 H 
ATOM     18  H   LIG d   1       4.220   0.560  -0.611  0.00  0.00     0.027 H 
ATOM     19  H   LIG d   1       5.476   1.490  -1.465  0.00  0.00     0.027 H 
ENDBRANCH   8  16
BRANCH   8  20
ATOM     20  C   LIG d   1       3.369   0.268  -3.654  0.00  0.00    -0.025 C 
ATOM     21  H   LIG d   1       2.417   0.258  -3.123  0.00  0.00     0.027 H 
ATOM     22  H   LIG d   1       3.518   1.245  -4.115  0.00  0.00     0.027 H 
ATOM     23  H   LIG d   1       3.360  -0.501  -4.427  0.00  0.00     0.027 H 
ENDBRANCH   8  20
BRANCH   6  24
ATOM     24  C   LIG d   1       7.807   0.532  -5.185  0.00  0.00    -0.036 C 
ATOM     25  H   LIG d   1       8.131   0.740  -6.204  0.00  0.00     0.028 H 
ATOM     26  H   LIG d   1       7.153   1.333  -4.841  0.00  0.00     0.028 H 
ATOM     27  H   LIG d   1       8.678   0.470  -4.532  0.00  0.00     0.028 H 
ENDBRANCH   6  24
BRANCH   3  28
ATOM     28  C   LIG d   1       4.945  -4.484  -5.063  0.00  0.00    -0.039 C 
ATOM     29  H   LIG d   1       5.490  -5.224  -5.648  0.00  0.00     0.028 H 
ATOM     30  H   LIG d   1       4.855  -4.827  -4.033  0.00  0.00     0.028 H 
ATOM     31  H   LIG d   1       3.951  -4.345  -5.489  0.00  0.00     0.028 H 
ENDBRANCH   3  28
BRANCH   1  32
ATOM     32  C   LIG d   1       8.487  -1.563  -7.048  0.00  0.00    -0.039 C 
ATOM     33  H   LIG d   1       8.190  -0.787  -7.754  0.00  0.00     0.028 H 
ATOM     34  H   LIG d   1       9.397  -1.254  -6.531  0.00  0.00     0.028 H 
ATOM     35  H   LIG d   1       8.674  -2.492  -7.586  0.00  0.00     0.028 H 
ENDBRANCH   1  32
TORSDOF 5
ENDMDL
MODEL 5
REMARK VINA RESULT:      -4.8      2.564      4.845
REMARK  5 active torsions:
REMARK  status: ('A' for Active; 'I' for Inactive)
REMARK    1  A    between atoms: C_1  and  C_2 
REMARK    2  A    between atoms: C_4  and  C_15 
REMARK    3  A    between atoms: C_7  and  C_8 
REMARK    4  A    between atoms: C_10  and  C_13 
REMARK    5  A    between atoms: C_10  and  C_14 
ROOT
ATOM      1  C   LIG d   1       5.503  -0.976  -2.834  0.00  0.00    -0.044 A 
ATOM      2  C   LIG d   1       6.294  -2.013  -3.292  0.00  0.00    -0.055 A 
ATOM      3  C   LIG d   1       7.414  -1.743  -4.054  0.00  0.00    -0.043 A 
ATOM      4  C   LIG d   1       7.750  -0.436  -4.363  0.00  0.00    -0.002 A 
ATOM      5  C   LIG d   1       6.954   0.604  -3.914  0.00  0.00     0.128 A 
ATOM      6  C   LIG d   1       5.831   0.329  -3.140  0.00  0.00    -0.006 A 
ATOM      7  O   LIG d   1       7.244   1.901  -4.197  0.00  0.00    -0.486 OA
ATOM      8  C   LIG d   1       8.563   2.208  -4.650  0.00  0.00     0.105 C 
ATOM      9  C   LIG d   1       8.926   1.233  -5.777  0.00  0.00    -0.009 C 
ATOM     10  C   LIG d   1       8.983  -0.180  -5.191  0.00  0.00    -0.020 C 
ATOM     11  H   LIG d   1       6.036  -3.035  -3.054  0.00  0.00     0.062 H 
ATOM     12  H   LIG d   1       9.899   1.498  -6.193  0.00  0.00     0.031 H 
ATOM     13  H   LIG d   1       8.170   1.277  -6.560  0.00  0.00     0.031 H 
ATOM     14  H   LIG d   1       9.869  -0.278  -4.563  0.00  0.00     0.032 H 
ATOM     15  H   LIG d   1       9.032  -0.907  -6.002  0.00  0.00     0.032 H 
ENDROOT
BRANCH   8  16
ATOM     16  C   LIG d   1       8.606   3.644  -5.178  0.00  0.00    -0.025 C 
ATOM     17  H   LIG d   1       9.590   3.845  -5.603  0.00  0.00     0.027 H 
ATOM     18  H   LIG d   1       7.845   3.770  -5.949  0.00  0.00     0.027 H 
ATOM     19  H   LIG d   1       8.415   4.338  -4.360  0.00  0.00     0.027 H 
ENDBRANCH   8  16
BRANCH   8  20
ATOM     20  C   LIG d   1       9.554   2.053  -3.495  0.00  0.00    -0.025 C 
ATOM     21  H   LIG d   1       9.108   2.441  -2.579  0.00  0.00     0.027 H 
ATOM     22  H   LIG d   1       9.798   0.999  -3.364  0.00  0.00     0.027 H 
ATOM     23  H   LIG d   1      10.464   2.611  -3.719  0.00  0.00     0.027 H 
ENDBRANCH   8  20
BRANCH   6  24
ATOM     24  C   LIG d   1       4.969   1.458  -2.640  0.00  0.00    -0.036 C 
ATOM     25  H   LIG d   1       4.791   2.166  -3.449  0.00  0.00     0.028 H 
ATOM     26  H   LIG d   1       4.017   1.060  -2.288  0.00  0.00     0.028 H 
ATOM     27  H   LIG d   1       5.476   1.966  -1.818  0.00  0.00     0.028 H 
ENDBRANCH   6  24
BRANCH   3  28
ATOM     28  C   LIG d   1       8.275  -2.876  -4.550  0.00  0.00    -0.039 C 
ATOM     29  H   LIG d   1       8.139  -3.744  -3.906  0.00  0.00     0.028 H 
ATOM     30  H   LIG d   1       7.987  -3.131  -5.569  0.00  0.00     0.028 H 
ATOM     31  H   LIG d   1       9.321  -2.571  -4.533  0.00  0.00     0.028 H 
ENDBRANCH   3  28
BRANCH   1  32
ATOM     32  C   LIG d   1       4.282  -1.270  -2.001  0.00  0.00    -0.039 C 
ATOM     33  H   LIG d   1       4.589  -1.571  -0.999  0.00  0.00     0.028 H 
ATOM     34  H   LIG d   1       3.661  -0.376  -1.936  0.00  0.00     0.028 H 
ATOM     35  H   LIG d   1       3.712  -2.076  -2.464  0.00  0.00     0.028 H 
ENDBRANCH   1  32
TORSDOF 5
ENDMDL
MODEL 6
REMARK VINA RESULT:      -4.7      1.457      4.387
REMARK  5 active torsions:
REMARK  status: ('A' for Active; 'I' for Inactive)
REMARK    1  A    between atoms: C_1  and  C_2 
REMARK    2  A    between atoms: C_4  and  C_15 
REMARK    3  A    between atoms: C_7  and  C_8 
REMARK    4  A    between atoms: C_10  and  C_13 
REMARK    5  A    between atoms: C_10  and  C_14 
ROOT
ATOM      1  C   LIG d   1       6.342  -5.174  -5.789  0.00  0.00    -0.044 A 
ATOM      2  C   LIG d   1       7.521  -4.790  -5.176  0.00  0.00    -0.055 A 
ATOM      3  C   LIG d   1       7.555  -3.649  -4.399  0.00  0.00    -0.043 A 
ATOM      4  C   LIG d   1       6.413  -2.884  -4.230  0.00  0.00    -0.002 A 
ATOM      5  C   LIG d   1       5.234  -3.260  -4.851  0.00  0.00     0.128 A 
ATOM      6  C   LIG d   1       5.202  -4.415  -5.626  0.00  0.00    -0.006 A 
ATOM      7  O   LIG d   1       4.092  -2.538  -4.717  0.00  0.00    -0.486 OA
ATOM      8  C   LIG d   1       4.019  -1.595  -3.647  0.00  0.00     0.105 C 
ATOM      9  C   LIG d   1       5.292  -0.739  -3.669  0.00  0.00    -0.009 C 
ATOM     10  C   LIG d   1       6.487  -1.649  -3.371  0.00  0.00    -0.020 C 
ATOM     11  H   LIG d   1       8.415  -5.382  -5.305  0.00  0.00     0.062 H 
ATOM     12  H   LIG d   1       5.224   0.040  -2.909  0.00  0.00     0.031 H 
ATOM     13  H   LIG d   1       5.413  -0.284  -4.651  0.00  0.00     0.031 H 
ATOM     14  H   LIG d   1       6.471  -1.936  -2.319  0.00  0.00     0.032 H 
ATOM     15  H   LIG d   1       7.412  -1.113  -3.584  0.00  0.00     0.032 H 
ENDROOT
BRANCH   8  16
ATOM     16  C   LIG d   1       2.793  -0.698  -3.832  0.00  0.00    -0.025 C 
ATOM     17  H   LIG d   1       2.493  -0.288  -2.867  0.00  0.00     0.027 H 
ATOM     18  H   LIG d   1       3.041   0.119  -4.511  0.00  0.00     0.027 H 
ATOM     19  H   LIG d   1       1.974  -1.283  -4.250  0.00  0.00     0.027 H 
ENDBRANCH   8  16
BRANCH   8  20
ATOM     20  C   LIG d   1       3.918  -2.335  -2.312  0.00  0.00    -0.025 C 
ATOM     21  H   LIG d   1       3.358  -1.727  -1.601  0.00  0.00     0.027 H 
ATOM     22  H   LIG d   1       3.405  -3.285  -2.461  0.00  0.00     0.027 H 
ATOM     23  H   LIG d   1       4.919  -2.519  -1.922  0.00  0.00     0.027 H 
ENDBRANCH   8  20
BRANCH   6  24
ATOM     24  C   LIG d   1       3.918  -4.835  -6.295  0.00  0.00    -0.036 C 
ATOM     25  H   LIG d   1       3.734  -4.200  -7.160  0.00  0.00     0.028 H 
ATOM     26  H   LIG d   1       3.999  -5.874  -6.617  0.00  0.00     0.028 H 
ATOM     27  H   LIG d   1       3.093  -4.737  -5.589  0.00  0.00     0.028 H 
ENDBRANCH   6  24
BRANCH   3  28
ATOM     28  C   LIG d   1       8.840  -3.234  -3.731  0.00  0.00    -0.039 C 
ATOM     29  H   LIG d   1       9.121  -2.237  -4.070  0.00  0.00     0.028 H 
ATOM     30  H   LIG d   1       8.702  -3.225  -2.651  0.00  0.00     0.028 H 
ATOM     31  H   LIG d   1       9.629  -3.940  -3.991  0.00  0.00     0.028 H 
ENDBRANCH   3  28
BRANCH   1  32
ATOM     32  C   LIG d   1       6.304  -6.420  -6.635  0.00  0.00    -0.039 C 
ATOM     33  H   LIG d   1       6.515  -7.290  -6.012  0.00  0.00     0.028 H 
ATOM     34  H   LIG d   1       5.316  -6.526  -7.083  0.00  0.00     0.028 H 
ATOM     35  H   LIG d   1       7.055  -6.348  -7.423  0.00  0.00     0.028 H 
ENDBRANCH   1  32
TORSDOF 5
ENDMDL
MODEL 7
REMARK VINA RESULT:      -4.6      3.025      4.679
REMARK  5 active torsions:
REMARK  status: ('A' for Active; 'I' for Inactive)
REMARK    1  A    between atoms: C_1  and  C_2 
REMARK    2  A    between atoms: C_4  and  C_15 
REMARK    3  A    between atoms: C_7  and  C_8 
REMARK    4  A    between atoms: C_10  and  C_13 
REMARK    5  A    between atoms: C_10  and  C_14 
ROOT
ATOM      1  C   LIG d   1       6.131  -1.589  -4.036  0.00  0.00    -0.044 A 
ATOM      2  C   LIG d   1       4.981  -1.542  -3.268  0.00  0.00    -0.055 A 
ATOM      3  C   LIG d   1       3.840  -0.948  -3.770  0.00  0.00    -0.043 A 
ATOM      4  C   LIG d   1       3.840  -0.397  -5.040  0.00  0.00    -0.002 A 
ATOM      5  C   LIG d   1       4.992  -0.433  -5.807  0.00  0.00     0.128 A 
ATOM      6  C   LIG d   1       6.138  -1.040  -5.301  0.00  0.00    -0.006 A 
ATOM      7  O   LIG d   1       5.038   0.099  -7.056  0.00  0.00    -0.486 OA
ATOM      8  C   LIG d   1       3.800   0.372  -7.712  0.00  0.00     0.105 C 
ATOM      9  C   LIG d   1       2.899   1.148  -6.743  0.00  0.00    -0.009 C 
ATOM     10  C   LIG d   1       2.574   0.238  -5.556  0.00  0.00    -0.020 C 
ATOM     11  H   LIG d   1       4.976  -1.970  -2.276  0.00  0.00     0.062 H 
ATOM     12  H   LIG d   1       1.977   1.436  -7.248  0.00  0.00     0.031 H 
ATOM     13  H   LIG d   1       3.418   2.039  -6.391  0.00  0.00     0.031 H 
ATOM     14  H   LIG d   1       1.881  -0.542  -5.875  0.00  0.00     0.032 H 
ATOM     15  H   LIG d   1       2.114   0.827  -4.762  0.00  0.00     0.032 H 
ENDROOT
BRANCH   8  16
ATOM     16  C   LIG d   1       4.054   1.214  -8.964  0.00  0.00    -0.025 C 
ATOM     17  H   LIG d   1       5.121   1.418  -9.054  0.00  0.00     0.027 H 
ATOM     18  H   LIG d   1       3.714   0.667  -9.845  0.00  0.00     0.027 H 
ATOM     19  H   LIG d   1       3.509   2.154  -8.887  0.00  0.00     0.027 H 
ENDBRANCH   8  16
BRANCH   8  20
ATOM     20  C   LIG d   1       3.122  -0.943  -8.105  0.00  0.00    -0.025 C 
ATOM     21  H   LIG d   1       2.077  -0.754  -8.351  0.00  0.00     0.027 H 
ATOM     22  H   LIG d   1       3.629  -1.368  -8.971  0.00  0.00     0.027 H 
ATOM     23  H   LIG d   1       3.177  -1.643  -7.271  0.00  0.00     0.027 H 
ENDBRANCH   8  20
BRANCH   6  24
ATOM     24  C   LIG d   1       7.391  -1.092  -6.137  0.00  0.00    -0.036 C 
ATOM     25  H   LIG d   1       8.197  -1.539  -5.556  0.00  0.00     0.028 H 
ATOM     26  H   LIG d   1       7.209  -1.693  -7.028  0.00  0.00     0.028 H 
ATOM     27  H   LIG d   1       7.672  -0.081  -6.431  0.00  0.00     0.028 H 
ENDBRANCH   6  24
BRANCH   3  28
ATOM     28  C   LIG d   1       2.589  -0.900  -2.931  0.00  0.00    -0.039 C 
ATOM     29  H   LIG d   1       2.675  -1.611  -2.110  0.00  0.00     0.028 H 
ATOM     30  H   LIG d   1       2.459   0.105  -2.530  0.00  0.00     0.028 H 
ATOM     31  H   LIG d   1       1.728  -1.160  -3.549  0.00  0.00     0.028 H 
ENDBRANCH   3  28
BRANCH   1  32
ATOM     32  C   LIG d   1       7.376  -2.239  -3.490  0.00  0.00    -0.039 C 
ATOM     33  H   LIG d   1       8.233  -1.588  -3.661  0.00  0.00     0.028 H 
ATOM     34  H   LIG d   1       7.258  -2.409  -2.419  0.00  0.00     0.028 H 
ATOM     35  H   LIG d   1       7.538  -3.193  -3.992  0.00  0.00     0.028 H 
ENDBRANCH   1  32
TORSDOF 5
ENDMDL
MODEL 8
REMARK VINA RESULT:      -4.6      2.831      5.112
REMARK  5 active torsions:
REMARK  status: ('A' for Active; 'I' for Inactive)
REMARK    1  A    between atoms: C_1  and  C_2 
REMARK    2  A    between atoms: C_4  and  C_15 
REMARK    3  A    between atoms: C_7  and  C_8 
REMARK    4  A    between atoms: C_10  and  C_13 
REMARK    5  A    between atoms: C_10  and  C_14 
ROOT
ATOM      1  C   LIG d   1       5.049  -1.473  -8.244  0.00  0.00    -0.044 A 
ATOM      2  C   LIG d   1       4.304  -0.346  -8.542  0.00  0.00    -0.055 A 
ATOM      3  C   LIG d   1       3.572   0.278  -7.551  0.00  0.00    -0.043 A 
ATOM      4  C   LIG d   1       3.579  -0.218  -6.258  0.00  0.00    -0.002 A 
ATOM      5  C   LIG d   1       4.316  -1.352  -5.960  0.00  0.00     0.128 A 
ATOM      6  C   LIG d   1       5.059  -1.973  -6.959  0.00  0.00    -0.006 A 
ATOM      7  O   LIG d   1       4.348  -1.875  -4.707  0.00  0.00    -0.486 OA
ATOM      8  C   LIG d   1       3.912  -1.050  -3.626  0.00  0.00     0.105 C 
ATOM      9  C   LIG d   1       2.560  -0.433  -4.003  0.00  0.00    -0.009 C 
ATOM     10  C   LIG d   1       2.772   0.493  -5.203  0.00  0.00    -0.020 C 
ATOM     11  H   LIG d   1       4.295   0.044  -9.548  0.00  0.00     0.062 H 
ATOM     12  H   LIG d   1       2.169   0.139  -3.161  0.00  0.00     0.031 H 
ATOM     13  H   LIG d   1       1.856  -1.222  -4.268  0.00  0.00     0.031 H 
ATOM     14  H   LIG d   1       3.305   1.389  -4.881  0.00  0.00     0.032 H 
ATOM     15  H   LIG d   1       1.805   0.778  -5.617  0.00  0.00     0.032 H 
ENDROOT
BRANCH   8  16
ATOM     16  C   LIG d   1       3.757  -1.897  -2.361  0.00  0.00    -0.025 C 
ATOM     17  H   LIG d   1       4.607  -2.573  -2.269  0.00  0.00     0.027 H 
ATOM     18  H   LIG d   1       3.719  -1.243  -1.489  0.00  0.00     0.027 H 
ATOM     19  H   LIG d   1       2.836  -2.476  -2.422  0.00  0.00     0.027 H 
ENDBRANCH   8  16
BRANCH   8  20
ATOM     20  C   LIG d   1       4.935   0.060  -3.380  0.00  0.00    -0.025 C 
ATOM     21  H   LIG d   1       4.770   0.871  -4.090  0.00  0.00     0.027 H 
ATOM     22  H   LIG d   1       4.823   0.438  -2.364  0.00  0.00     0.027 H 
ATOM     23  H   LIG d   1       5.942  -0.337  -3.511  0.00  0.00     0.027 H 
ENDBRANCH   8  20
BRANCH   6  24
ATOM     24  C   LIG d   1       5.872  -3.201  -6.636  0.00  0.00    -0.036 C 
ATOM     25  H   LIG d   1       5.786  -3.918  -7.451  0.00  0.00     0.028 H 
ATOM     26  H   LIG d   1       6.917  -2.920  -6.506  0.00  0.00     0.028 H 
ATOM     27  H   LIG d   1       5.499  -3.651  -5.715  0.00  0.00     0.028 H 
ENDBRANCH   6  24
BRANCH   3  28
ATOM     28  C   LIG d   1       2.762   1.506  -7.878  0.00  0.00    -0.039 C 
ATOM     29  H   LIG d   1       1.786   1.435  -7.399  0.00  0.00     0.028 H 
ATOM     30  H   LIG d   1       3.282   2.392  -7.515  0.00  0.00     0.028 H 
ATOM     31  H   LIG d   1       2.632   1.578  -8.959  0.00  0.00     0.028 H 
ENDBRANCH   3  28
BRANCH   1  32
ATOM     32  C   LIG d   1       5.850  -2.153  -9.324  0.00  0.00    -0.039 C 
ATOM     33  H   LIG d   1       5.181  -2.716  -9.975  0.00  0.00     0.028 H 
ATOM     34  H   LIG d   1       6.381  -1.403  -9.911  0.00  0.00     0.028 H 
ATOM     35  H   LIG d   1       6.570  -2.834  -8.869  0.00  0.00     0.028 H 
ENDBRANCH   1  32
TORSDOF 5
ENDMDL
MODEL 9
REMARK VINA RESULT:      -4.4      1.340      3.132
REMARK  5 active torsions:
REMARK  status: ('A' for Active; 'I' for Inactive)
REMARK    1  A    between atoms: C_1  and  C_2 
REMARK    2  A    between atoms: C_4  and  C_15 
REMARK    3  A    between atoms: C_7  and  C_8 
REMARK    4  A    between atoms: C_10  and  C_13 
REMARK    5  A    between atoms: C_10  and  C_14 
ROOT
ATOM      1  C   LIG d   1       6.919   0.547  -3.915  0.00  0.00    -0.044 A 
ATOM      2  C   LIG d   1       6.022   0.200  -2.921  0.00  0.00    -0.055 A 
ATOM      3  C   LIG d   1       5.327  -0.991  -3.003  0.00  0.00    -0.043 A 
ATOM      4  C   LIG d   1       5.523  -1.842  -4.077  0.00  0.00    -0.002 A 
ATOM      5  C   LIG d   1       6.412  -1.493  -5.079  0.00  0.00     0.128 A 
ATOM      6  C   LIG d   1       7.117  -0.296  -4.989  0.00  0.00    -0.006 A 
ATOM      7  O   LIG d   1       6.632  -2.295  -6.153  0.00  0.00    -0.486 OA
ATOM      8  C   LIG d   1       6.216  -3.659  -6.065  0.00  0.00     0.105 C 
ATOM      9  C   LIG d   1       4.770  -3.691  -5.555  0.00  0.00    -0.009 C 
ATOM     10  C   LIG d   1       4.751  -3.135  -4.129  0.00  0.00    -0.020 C 
ATOM     11  H   LIG d   1       5.865   0.861  -2.081  0.00  0.00     0.062 H 
ATOM     12  H   LIG d   1       4.404  -4.719  -5.554  0.00  0.00     0.031 H 
ATOM     13  H   LIG d   1       4.139  -3.078  -6.197  0.00  0.00     0.031 H 
ATOM     14  H   LIG d   1       5.207  -3.857  -3.451  0.00  0.00     0.032 H 
ATOM     15  H   LIG d   1       3.720  -2.955  -3.824  0.00  0.00     0.032 H 
ENDROOT
BRANCH   8  16
ATOM     16  C   LIG d   1       6.289  -4.310  -7.448  0.00  0.00    -0.025 C 
ATOM     17  H   LIG d   1       7.287  -4.720  -7.604  0.00  0.00     0.027 H 
ATOM     18  H   LIG d   1       5.554  -5.114  -7.509  0.00  0.00     0.027 H 
ATOM     19  H   LIG d   1       6.077  -3.565  -8.213  0.00  0.00     0.027 H 
ENDBRANCH   8  16
BRANCH   8  20
ATOM     20  C   LIG d   1       7.124  -4.413  -5.092  0.00  0.00    -0.025 C 
ATOM     21  H   LIG d   1       8.088  -3.909  -5.029  0.00  0.00     0.027 H 
ATOM     22  H   LIG d   1       6.660  -4.436  -4.106  0.00  0.00     0.027 H 
ATOM     23  H   LIG d   1       7.270  -5.433  -5.448  0.00  0.00     0.027 H 
ENDBRANCH   8  20
BRANCH   6  24
ATOM     24  C   LIG d   1       8.095   0.082  -6.072  0.00  0.00    -0.036 C 
ATOM     25  H   LIG d   1       8.181  -0.736  -6.786  0.00  0.00     0.028 H 
ATOM     26  H   LIG d   1       7.741   0.977  -6.584  0.00  0.00     0.028 H 
ATOM     27  H   LIG d   1       9.070   0.281  -5.626  0.00  0.00     0.028 H 
ENDBRANCH   6  24
BRANCH   3  28
ATOM     28  C   LIG d   1       4.352  -1.366  -1.917  0.00  0.00    -0.039 C 
ATOM     29  H   LIG d   1       4.388  -0.621  -1.123  0.00  0.00     0.028 H 
ATOM     30  H   LIG d   1       3.345  -1.407  -2.331  0.00  0.00     0.028 H 
ATOM     31  H   LIG d   1       4.618  -2.342  -1.511  0.00  0.00     0.028 H 
ENDBRANCH   3  28
BRANCH   1  32
ATOM     32  C   LIG d   1       7.679   1.845  -3.826  0.00  0.00    -0.039 C 
ATOM     33  H   LIG d   1       7.558   2.403  -4.754  0.00  0.00     0.028 H 
ATOM     34  H   LIG d   1       7.293   2.436  -2.994  0.00  0.00     0.028 H 
ATOM     35  H   LIG d   1       8.736   1.636  -3.662  0.00  0.00     0.028 H 
ENDBRANCH   1  32
TORSDOF 5
ENDMDL
