MODEL 1
REMARK VINA RESULT:      -6.2      0.000      0.000
REMARK  17 active torsions:
REMARK  status: ('A' for Active; 'I' for Inactive)
REMARK    1  A    between atoms: C_1  and  C_2 
REMARK    2  A    between atoms: C_2  and  C_3 
REMARK    3  A    between atoms: C_2  and  C_4 
REMARK    4  A    between atoms: C_4  and  C_5 
REMARK    5  A    between atoms: C_5  and  C_7 
REMARK    6  A    between atoms: C_5  and  N_35 
REMARK    7  A    between atoms: C_10  and  S_12 
REMARK    8  A    between atoms: S_12  and  C_13 
REMARK    9  A    between atoms: C_13  and  C_14 
REMARK       I    between atoms: C_14  and  N_16 
REMARK   10  A    between atoms: C_29  and  C_31 
REMARK   11  A    between atoms: C_31  and  O_33 
REMARK   12  A    between atoms: O_33  and  C_34 
REMARK       I    between atoms: N_35  and  C_36 
REMARK   13  A    between atoms: C_36  and  O_38 
REMARK   14  A    between atoms: O_38  and  C_39 
REMARK   15  A    between atoms: C_39  and  C_40 
REMARK   16  A    between atoms: C_39  and  C_41 
REMARK   17  A    between atoms: C_39  and  C_42 
ROOT
ATOM      1  C   LIG d   1       4.252  -3.548  -7.403  0.00  0.00     0.238 A 
ATOM      2  N   LIG d   1       3.913  -4.449  -6.527  0.00  0.00    -0.110 NA
ATOM      3  N   LIG d   1       3.507  -5.509  -7.133  0.00  0.00    -0.101 NA
ATOM      4  C   LIG d   1       3.574  -5.320  -8.429  0.00  0.00     0.278 A 
ATOM      5  O   LIG d   1       4.042  -4.073  -8.627  0.00  0.00    -0.414 OA
ENDROOT
BRANCH   4   6
ATOM      6  S   LIG d   1       3.128  -6.479  -9.679  0.00  0.00    -0.056 SA
BRANCH   6   7
ATOM      7  C   LIG d   1       1.592  -5.808 -10.372  0.00  0.00     0.079 C 
ATOM      8  H   LIG d   1       0.944  -6.629 -10.681  0.00  0.00     0.048 H 
ATOM      9  H   LIG d   1       1.084  -5.209  -9.616  0.00  0.00     0.048 H 
BRANCH   7  10
ATOM     10  C   LIG d   1       1.914  -4.946 -11.565  0.00  0.00     0.227 C 
ATOM     11  O   LIG d   1       2.460  -5.430 -12.534  0.00  0.00    -0.275 OA
ATOM     12  N   LIG d   1       1.598  -3.636 -11.555  0.00  0.00    -0.281 N 
ATOM     13  C   LIG d   1       1.818  -2.797 -12.743  0.00  0.00     0.127 C 
ATOM     14  C   LIG d   1       1.027  -3.005 -10.351  0.00  0.00     0.056 C 
ATOM     15  C   LIG d   1       2.864  -1.731 -12.418  0.00  0.00     0.004 C 
ATOM     16  H   LIG d   1       0.884  -2.314 -13.027  0.00  0.00     0.062 H 
ATOM     17  C   LIG d   1       2.548  -1.126 -11.073  0.00  0.00    -0.015 A 
ATOM     18  H   LIG d   1       2.843  -0.953 -13.182  0.00  0.00     0.034 H 
ATOM     19  H   LIG d   1       3.853  -2.188 -12.389  0.00  0.00     0.034 H 
ATOM     20  C   LIG d   1       1.738  -1.687 -10.149  0.00  0.00     0.038 A 
ATOM     21  C   LIG d   1       3.029   0.120 -10.515  0.00  0.00     0.003 A 
ATOM     22  N   LIG d   1       1.673  -0.887  -9.039  0.00  0.00    -0.356 N 
ATOM     23  C   LIG d   1       2.446   0.223  -9.226  0.00  0.00     0.047 A 
ATOM     24  H   LIG d   1       1.156  -1.079  -8.242  0.00  0.00     0.166 HD
ATOM     25  C   LIG d   1       2.712   1.323  -8.413  0.00  0.00    -0.038 A 
ATOM     26  C   LIG d   1       3.561   2.290  -8.924  0.00  0.00    -0.060 A 
ATOM     27  H   LIG d   1       2.276   1.417  -7.429  0.00  0.00     0.064 H 
ATOM     28  C   LIG d   1       4.127   2.184 -10.184  0.00  0.00    -0.061 A 
ATOM     29  H   LIG d   1       3.788   3.156  -8.320  0.00  0.00     0.062 H 
ATOM     30  C   LIG d   1       3.883   1.113 -11.006  0.00  0.00    -0.052 A 
ATOM     31  H   LIG d   1       4.782   2.971 -10.530  0.00  0.00     0.062 H 
ATOM     32  H   LIG d   1       4.329   1.039 -11.987  0.00  0.00     0.062 H 
ATOM     33  H   LIG d   1      -0.039  -2.834 -10.494  0.00  0.00     0.053 H 
ATOM     34  H   LIG d   1       1.187  -3.649  -9.486  0.00  0.00     0.053 H 
BRANCH  13  35
ATOM     35  C   LIG d   1       2.312  -3.654 -13.880  0.00  0.00     0.328 C 
ATOM     36  O   LIG d   1       3.498  -3.754 -14.089  0.00  0.00    -0.249 OA
BRANCH  35  37
ATOM     37  O   LIG d   1       1.435  -4.304 -14.660  0.00  0.00    -0.467 OA
BRANCH  37  38
ATOM     38  C   LIG d   1       1.869  -4.647 -15.978  0.00  0.00     0.082 C 
ATOM     39  H   LIG d   1       1.010  -4.963 -16.572  0.00  0.00     0.066 H 
ATOM     40  H   LIG d   1       2.333  -3.778 -16.445  0.00  0.00     0.066 H 
ATOM     41  H   LIG d   1       2.592  -5.461 -15.923  0.00  0.00     0.066 H 
ENDBRANCH  37  38
ENDBRANCH  35  37
ENDBRANCH  13  35
ENDBRANCH   7  10
ENDBRANCH   6   7
ENDBRANCH   4   6
BRANCH   1  42
ATOM     42  C   LIG d   1       4.779  -2.169  -7.104  0.00  0.00     0.104 C 
ATOM     43  H   LIG d   1       4.073  -1.424  -7.471  0.00  0.00     0.060 H 
BRANCH  42  44
ATOM     44  C   LIG d   1       6.129  -1.977  -7.795  0.00  0.00    -0.023 C 
ATOM     45  H   LIG d   1       6.444  -2.918  -8.247  0.00  0.00     0.029 H 
ATOM     46  H   LIG d   1       6.871  -1.660  -7.062  0.00  0.00     0.029 H 
BRANCH  44  47
ATOM     47  C   LIG d   1       5.998  -0.908  -8.882  0.00  0.00    -0.045 C 
ATOM     48  H   LIG d   1       4.960  -0.583  -8.949  0.00  0.00     0.030 H 
BRANCH  47  49
ATOM     49  C   LIG d   1       6.885   0.288  -8.532  0.00  0.00    -0.063 C 
ATOM     50  H   LIG d   1       7.924  -0.038  -8.463  0.00  0.00     0.023 H 
ATOM     51  H   LIG d   1       6.793   1.049  -9.307  0.00  0.00     0.023 H 
ATOM     52  H   LIG d   1       6.571   0.704  -7.574  0.00  0.00     0.023 H 
ENDBRANCH  47  49
BRANCH  47  53
ATOM     53  C   LIG d   1       6.437  -1.492 -10.227  0.00  0.00    -0.063 C 
ATOM     54  H   LIG d   1       5.559  -1.801 -10.793  0.00  0.00     0.023 H 
ATOM     55  H   LIG d   1       6.984  -0.736 -10.791  0.00  0.00     0.023 H 
ATOM     56  H   LIG d   1       7.082  -2.354 -10.055  0.00  0.00     0.023 H 
ENDBRANCH  47  53
ENDBRANCH  44  47
ENDBRANCH  42  44
BRANCH  42  57
ATOM     57  N   LIG d   1       4.945  -2.013  -5.657  0.00  0.00    -0.270 N 
ATOM     58  C   LIG d   1       4.896  -0.787  -5.100  0.00  0.00     0.401 C 
ATOM     59  O   LIG d   1       4.624   0.180  -5.785  0.00  0.00    -0.226 OA
ATOM     60  H   LIG d   1       5.089  -2.794  -5.098  0.00  0.00     0.153 HD
BRANCH  58  61
ATOM     61  O   LIG d   1       5.149  -0.632  -3.787  0.00  0.00    -0.445 OA
BRANCH  61  62
ATOM     62  C   LIG d   1       4.025  -0.643  -2.904  0.00  0.00     0.107 C 
BRANCH  62  63
ATOM     63  C   LIG d   1       4.221   0.413  -1.815  0.00  0.00    -0.025 C 
ATOM     64  H   LIG d   1       5.074   0.142  -1.194  0.00  0.00     0.027 H 
ATOM     65  H   LIG d   1       4.403   1.383  -2.279  0.00  0.00     0.027 H 
ATOM     66  H   LIG d   1       3.325   0.469  -1.197  0.00  0.00     0.027 H 
ENDBRANCH  62  63
BRANCH  62  67
ATOM     67  C   LIG d   1       2.753  -0.329  -3.696  0.00  0.00    -0.025 C 
ATOM     68  H   LIG d   1       2.214   0.483  -3.209  0.00  0.00     0.027 H 
ATOM     69  H   LIG d   1       3.021  -0.033  -4.710  0.00  0.00     0.027 H 
ATOM     70  H   LIG d   1       2.120  -1.216  -3.732  0.00  0.00     0.027 H 
ENDBRANCH  62  67
BRANCH  62  71
ATOM     71  C   LIG d   1       3.897  -2.024  -2.260  0.00  0.00    -0.025 C 
ATOM     72  H   LIG d   1       4.037  -2.793  -3.020  0.00  0.00     0.027 H 
ATOM     73  H   LIG d   1       4.657  -2.136  -1.486  0.00  0.00     0.027 H 
ATOM     74  H   LIG d   1       2.908  -2.128  -1.815  0.00  0.00     0.027 H 
ENDBRANCH  62  71
ENDBRANCH  61  62
ENDBRANCH  58  61
ENDBRANCH  42  57
ENDBRANCH   1  42
TORSDOF 17
ENDMDL
MODEL 2
REMARK VINA RESULT:      -6.0      2.581      5.278
REMARK  17 active torsions:
REMARK  status: ('A' for Active; 'I' for Inactive)
REMARK    1  A    between atoms: C_1  and  C_2 
REMARK    2  A    between atoms: C_2  and  C_3 
REMARK    3  A    between atoms: C_2  and  C_4 
REMARK    4  A    between atoms: C_4  and  C_5 
REMARK    5  A    between atoms: C_5  and  C_7 
REMARK    6  A    between atoms: C_5  and  N_35 
REMARK    7  A    between atoms: C_10  and  S_12 
REMARK    8  A    between atoms: S_12  and  C_13 
REMARK    9  A    between atoms: C_13  and  C_14 
REMARK       I    between atoms: C_14  and  N_16 
REMARK   10  A    between atoms: C_29  and  C_31 
REMARK   11  A    between atoms: C_31  and  O_33 
REMARK   12  A    between atoms: O_33  and  C_34 
REMARK       I    between atoms: N_35  and  C_36 
REMARK   13  A    between atoms: C_36  and  O_38 
REMARK   14  A    between atoms: O_38  and  C_39 
REMARK   15  A    between atoms: C_39  and  C_40 
REMARK   16  A    between atoms: C_39  and  C_41 
REMARK   17  A    between atoms: C_39  and  C_42 
ROOT
ATOM      1  C   LIG d   1       2.534  -0.718  -8.689  0.00  0.00     0.238 A 
ATOM      2  N   LIG d   1       1.686  -0.339  -9.600  0.00  0.00    -0.110 NA
ATOM      3  N   LIG d   1       1.359  -1.346 -10.331  0.00  0.00    -0.101 NA
ATOM      4  C   LIG d   1       1.994  -2.413  -9.908  0.00  0.00     0.278 A 
ATOM      5  O   LIG d   1       2.755  -2.036  -8.863  0.00  0.00    -0.414 OA
ENDROOT
BRANCH   4   6
ATOM      6  S   LIG d   1       1.878  -4.035 -10.585  0.00  0.00    -0.056 SA
BRANCH   6   7
ATOM      7  C   LIG d   1       3.567  -4.684 -10.461  0.00  0.00     0.079 C 
ATOM      8  H   LIG d   1       3.657  -5.584 -11.070  0.00  0.00     0.048 H 
ATOM      9  H   LIG d   1       4.272  -3.932 -10.816  0.00  0.00     0.048 H 
BRANCH   7  10
ATOM     10  C   LIG d   1       3.872  -5.020  -9.023  0.00  0.00     0.227 C 
ATOM     11  O   LIG d   1       2.999  -5.460  -8.305  0.00  0.00    -0.275 OA
ATOM     12  N   LIG d   1       5.113  -4.830  -8.535  0.00  0.00    -0.281 N 
ATOM     13  C   LIG d   1       5.457  -5.237  -7.165  0.00  0.00     0.127 C 
ATOM     14  C   LIG d   1       6.162  -4.203  -9.360  0.00  0.00     0.056 C 
ATOM     15  C   LIG d   1       5.805  -3.996  -6.343  0.00  0.00     0.004 C 
ATOM     16  H   LIG d   1       6.314  -5.910  -7.187  0.00  0.00     0.062 H 
ATOM     17  C   LIG d   1       6.717  -3.111  -7.155  0.00  0.00    -0.015 A 
ATOM     18  H   LIG d   1       6.309  -4.294  -5.424  0.00  0.00     0.034 H 
ATOM     19  H   LIG d   1       4.892  -3.453  -6.100  0.00  0.00     0.034 H 
ATOM     20  C   LIG d   1       6.878  -3.193  -8.493  0.00  0.00     0.038 A 
ATOM     21  C   LIG d   1       7.567  -2.034  -6.691  0.00  0.00     0.003 A 
ATOM     22  N   LIG d   1       7.768  -2.240  -8.915  0.00  0.00    -0.356 N 
ATOM     23  C   LIG d   1       8.209  -1.516  -7.845  0.00  0.00     0.047 A 
ATOM     24  H   LIG d   1       8.043  -2.103  -9.835  0.00  0.00     0.166 HD
ATOM     25  C   LIG d   1       9.105  -0.454  -7.743  0.00  0.00    -0.038 A 
ATOM     26  C   LIG d   1       9.328   0.058  -6.475  0.00  0.00    -0.060 A 
ATOM     27  H   LIG d   1       9.602  -0.048  -8.611  0.00  0.00     0.064 H 
ATOM     28  C   LIG d   1       8.699  -0.452  -5.352  0.00  0.00    -0.061 A 
ATOM     29  H   LIG d   1      10.017   0.881  -6.360  0.00  0.00     0.062 H 
ATOM     30  C   LIG d   1       7.812  -1.498  -5.423  0.00  0.00    -0.052 A 
ATOM     31  H   LIG d   1       8.913  -0.012  -4.388  0.00  0.00     0.062 H 
ATOM     32  H   LIG d   1       7.326  -1.888  -4.541  0.00  0.00     0.062 H 
ATOM     33  H   LIG d   1       6.865  -4.962  -9.704  0.00  0.00     0.053 H 
ATOM     34  H   LIG d   1       5.709  -3.702 -10.216  0.00  0.00     0.053 H 
BRANCH  13  35
ATOM     35  C   LIG d   1       4.279  -5.939  -6.537  0.00  0.00     0.328 C 
ATOM     36  O   LIG d   1       3.483  -5.311  -5.879  0.00  0.00    -0.249 OA
BRANCH  35  37
ATOM     37  O   LIG d   1       4.115  -7.259  -6.711  0.00  0.00    -0.467 OA
BRANCH  37  38
ATOM     38  C   LIG d   1       4.957  -8.124  -5.945  0.00  0.00     0.082 C 
ATOM     39  H   LIG d   1       5.916  -8.239  -6.452  0.00  0.00     0.066 H 
ATOM     40  H   LIG d   1       5.117  -7.693  -4.957  0.00  0.00     0.066 H 
ATOM     41  H   LIG d   1       4.480  -9.100  -5.844  0.00  0.00     0.066 H 
ENDBRANCH  37  38
ENDBRANCH  35  37
ENDBRANCH  13  35
ENDBRANCH   7  10
ENDBRANCH   6   7
ENDBRANCH   4   6
BRANCH   1  42
ATOM     42  C   LIG d   1       3.160   0.159  -7.635  0.00  0.00     0.104 C 
ATOM     43  H   LIG d   1       2.726   1.158  -7.690  0.00  0.00     0.060 H 
BRANCH  42  44
ATOM     44  C   LIG d   1       4.668   0.244  -7.872  0.00  0.00    -0.023 C 
ATOM     45  H   LIG d   1       5.056  -0.747  -8.109  0.00  0.00     0.029 H 
ATOM     46  H   LIG d   1       5.157   0.620  -6.973  0.00  0.00     0.029 H 
BRANCH  44  47
ATOM     47  C   LIG d   1       4.948   1.193  -9.039  0.00  0.00    -0.045 C 
ATOM     48  H   LIG d   1       4.815   0.661  -9.981  0.00  0.00     0.030 H 
BRANCH  47  49
ATOM     49  C   LIG d   1       3.979   2.375  -8.980  0.00  0.00    -0.063 C 
ATOM     50  H   LIG d   1       2.971   2.030  -9.215  0.00  0.00     0.023 H 
ATOM     51  H   LIG d   1       3.992   2.807  -7.980  0.00  0.00     0.023 H 
ATOM     52  H   LIG d   1       4.283   3.130  -9.706  0.00  0.00     0.023 H 
ENDBRANCH  47  49
BRANCH  47  53
ATOM     53  C   LIG d   1       6.386   1.708  -8.944  0.00  0.00    -0.063 C 
ATOM     54  H   LIG d   1       6.596   2.011  -7.918  0.00  0.00     0.023 H 
ATOM     55  H   LIG d   1       7.076   0.917  -9.237  0.00  0.00     0.023 H 
ATOM     56  H   LIG d   1       6.510   2.564  -9.608  0.00  0.00     0.023 H 
ENDBRANCH  47  53
ENDBRANCH  44  47
ENDBRANCH  42  44
BRANCH  42  57
ATOM     57  N   LIG d   1       2.905  -0.413  -6.311  0.00  0.00    -0.270 N 
ATOM     58  C   LIG d   1       2.689   0.399  -5.257  0.00  0.00     0.401 C 
ATOM     59  O   LIG d   1       2.616   1.601  -5.420  0.00  0.00    -0.226 OA
ATOM     60  H   LIG d   1       2.891  -1.376  -6.192  0.00  0.00     0.153 HD
BRANCH  58  61
ATOM     61  O   LIG d   1       2.556  -0.122  -4.021  0.00  0.00    -0.445 OA
BRANCH  61  62
ATOM     62  C   LIG d   1       3.723  -0.142  -3.197  0.00  0.00     0.107 C 
BRANCH  62  63
ATOM     63  C   LIG d   1       4.971  -0.037  -4.076  0.00  0.00    -0.025 C 
ATOM     64  H   LIG d   1       4.676  -0.012  -5.124  0.00  0.00     0.027 H 
ATOM     65  H   LIG d   1       5.513   0.875  -3.828  0.00  0.00     0.027 H 
ATOM     66  H   LIG d   1       5.612  -0.901  -3.899  0.00  0.00     0.027 H 
ENDBRANCH  62  63
BRANCH  62  67
ATOM     67  C   LIG d   1       3.681   1.041  -2.227  0.00  0.00    -0.025 C 
ATOM     68  H   LIG d   1       2.643   1.305  -2.020  0.00  0.00     0.027 H 
ATOM     69  H   LIG d   1       4.178   0.765  -1.296  0.00  0.00     0.027 H 
ATOM     70  H   LIG d   1       4.191   1.894  -2.672  0.00  0.00     0.027 H 
ENDBRANCH  62  67
BRANCH  62  71
ATOM     71  C   LIG d   1       3.763  -1.450  -2.404  0.00  0.00    -0.025 C 
ATOM     72  H   LIG d   1       4.801  -1.728  -2.217  0.00  0.00     0.027 H 
ATOM     73  H   LIG d   1       3.247  -1.314  -1.453  0.00  0.00     0.027 H 
ATOM     74  H   LIG d   1       3.272  -2.237  -2.974  0.00  0.00     0.027 H 
ENDBRANCH  62  71
ENDBRANCH  61  62
ENDBRANCH  58  61
ENDBRANCH  42  57
ENDBRANCH   1  42
TORSDOF 17
ENDMDL
MODEL 3
REMARK VINA RESULT:      -6.0      2.803      8.052
REMARK  17 active torsions:
REMARK  status: ('A' for Active; 'I' for Inactive)
REMARK    1  A    between atoms: C_1  and  C_2 
REMARK    2  A    between atoms: C_2  and  C_3 
REMARK    3  A    between atoms: C_2  and  C_4 
REMARK    4  A    between atoms: C_4  and  C_5 
REMARK    5  A    between atoms: C_5  and  C_7 
REMARK    6  A    between atoms: C_5  and  N_35 
REMARK    7  A    between atoms: C_10  and  S_12 
REMARK    8  A    between atoms: S_12  and  C_13 
REMARK    9  A    between atoms: C_13  and  C_14 
REMARK       I    between atoms: C_14  and  N_16 
REMARK   10  A    between atoms: C_29  and  C_31 
REMARK   11  A    between atoms: C_31  and  O_33 
REMARK   12  A    between atoms: O_33  and  C_34 
REMARK       I    between atoms: N_35  and  C_36 
REMARK   13  A    between atoms: C_36  and  O_38 
REMARK   14  A    between atoms: O_38  and  C_39 
REMARK   15  A    between atoms: C_39  and  C_40 
REMARK   16  A    between atoms: C_39  and  C_41 
REMARK   17  A    between atoms: C_39  and  C_42 
ROOT
ATOM      1  C   LIG d   1       3.033   0.603  -6.508  0.00  0.00     0.238 A 
ATOM      2  N   LIG d   1       2.550   1.691  -5.984  0.00  0.00    -0.110 NA
ATOM      3  N   LIG d   1       2.519   1.577  -4.703  0.00  0.00    -0.101 NA
ATOM      4  C   LIG d   1       2.987   0.401  -4.362  0.00  0.00     0.278 A 
ATOM      5  O   LIG d   1       3.316  -0.243  -5.497  0.00  0.00    -0.414 OA
ENDROOT
BRANCH   4   6
ATOM      6  S   LIG d   1       3.147  -0.225  -2.722  0.00  0.00    -0.056 SA
BRANCH   6   7
ATOM      7  C   LIG d   1       4.646   0.577  -2.091  0.00  0.00     0.079 C 
ATOM      8  H   LIG d   1       4.426   1.616  -1.843  0.00  0.00     0.048 H 
ATOM      9  H   LIG d   1       4.989   0.055  -1.198  0.00  0.00     0.048 H 
BRANCH   7  10
ATOM     10  C   LIG d   1       5.722   0.530  -3.146  0.00  0.00     0.227 C 
ATOM     11  O   LIG d   1       6.167   1.561  -3.605  0.00  0.00    -0.275 OA
ATOM     12  N   LIG d   1       6.189  -0.657  -3.580  0.00  0.00    -0.281 N 
ATOM     13  C   LIG d   1       7.302  -0.726  -4.539  0.00  0.00     0.127 C 
ATOM     14  C   LIG d   1       5.593  -1.921  -3.111  0.00  0.00     0.056 C 
ATOM     15  C   LIG d   1       6.803  -1.344  -5.845  0.00  0.00     0.004 C 
ATOM     16  H   LIG d   1       8.100  -1.342  -4.127  0.00  0.00     0.062 H 
ATOM     17  C   LIG d   1       5.962  -2.554  -5.525  0.00  0.00    -0.015 A 
ATOM     18  H   LIG d   1       7.654  -1.643  -6.457  0.00  0.00     0.034 H 
ATOM     19  H   LIG d   1       6.201  -0.615  -6.386  0.00  0.00     0.034 H 
ATOM     20  C   LIG d   1       5.418  -2.815  -4.317  0.00  0.00     0.038 A 
ATOM     21  C   LIG d   1       5.574  -3.636  -6.407  0.00  0.00     0.003 A 
ATOM     22  N   LIG d   1       4.707  -3.985  -4.368  0.00  0.00    -0.356 N 
ATOM     23  C   LIG d   1       4.780  -4.514  -5.625  0.00  0.00     0.047 A 
ATOM     24  H   LIG d   1       4.226  -4.379  -3.624  0.00  0.00     0.166 HD
ATOM     25  C   LIG d   1       4.241  -5.670  -6.184  0.00  0.00    -0.038 A 
ATOM     26  C   LIG d   1       4.518  -5.909  -7.520  0.00  0.00    -0.060 A 
ATOM     27  H   LIG d   1       3.635  -6.349  -5.603  0.00  0.00     0.064 H 
ATOM     28  C   LIG d   1       5.295  -5.048  -8.278  0.00  0.00    -0.061 A 
ATOM     29  H   LIG d   1       4.116  -6.796  -7.984  0.00  0.00     0.062 H 
ATOM     30  C   LIG d   1       5.839  -3.902  -7.753  0.00  0.00    -0.052 A 
ATOM     31  H   LIG d   1       5.478  -5.287  -9.316  0.00  0.00     0.062 H 
ATOM     32  H   LIG d   1       6.443  -3.237  -8.353  0.00  0.00     0.062 H 
ATOM     33  H   LIG d   1       6.257  -2.397  -2.389  0.00  0.00     0.053 H 
ATOM     34  H   LIG d   1       4.624  -1.724  -2.651  0.00  0.00     0.053 H 
BRANCH  13  35
ATOM     35  C   LIG d   1       7.821   0.664  -4.809  0.00  0.00     0.328 C 
ATOM     36  O   LIG d   1       8.624   1.164  -4.057  0.00  0.00    -0.249 OA
BRANCH  35  37
ATOM     37  O   LIG d   1       7.392   1.343  -5.883  0.00  0.00    -0.467 OA
BRANCH  37  38
ATOM     38  C   LIG d   1       8.389   1.943  -6.713  0.00  0.00     0.082 C 
ATOM     39  H   LIG d   1       9.001   2.619  -6.114  0.00  0.00     0.066 H 
ATOM     40  H   LIG d   1       9.021   1.165  -7.141  0.00  0.00     0.066 H 
ATOM     41  H   LIG d   1       7.907   2.503  -7.514  0.00  0.00     0.066 H 
ENDBRANCH  37  38
ENDBRANCH  35  37
ENDBRANCH  13  35
ENDBRANCH   7  10
ENDBRANCH   6   7
ENDBRANCH   4   6
BRANCH   1  42
ATOM     42  C   LIG d   1       3.234   0.334  -7.977  0.00  0.00     0.104 C 
ATOM     43  H   LIG d   1       4.292   0.162  -8.173  0.00  0.00     0.060 H 
BRANCH  42  44
ATOM     44  C   LIG d   1       2.755   1.540  -8.786  0.00  0.00    -0.023 C 
ATOM     45  H   LIG d   1       2.449   2.336  -8.107  0.00  0.00     0.029 H 
ATOM     46  H   LIG d   1       1.908   1.248  -9.408  0.00  0.00     0.029 H 
BRANCH  44  47
ATOM     47  C   LIG d   1       3.893   2.041  -9.678  0.00  0.00    -0.045 C 
ATOM     48  H   LIG d   1       3.762   3.106  -9.871  0.00  0.00     0.030 H 
BRANCH  47  49
ATOM     49  C   LIG d   1       5.232   1.811  -8.974  0.00  0.00    -0.063 C 
ATOM     50  H   LIG d   1       5.096   1.900  -7.896  0.00  0.00     0.023 H 
ATOM     51  H   LIG d   1       5.603   0.815  -9.214  0.00  0.00     0.023 H 
ATOM     52  H   LIG d   1       5.952   2.558  -9.312  0.00  0.00     0.023 H 
ENDBRANCH  47  49
BRANCH  47  53
ATOM     53  C   LIG d   1       3.876   1.277 -11.004  0.00  0.00    -0.063 C 
ATOM     54  H   LIG d   1       4.790   0.689 -11.096  0.00  0.00     0.023 H 
ATOM     55  H   LIG d   1       3.013   0.612 -11.029  0.00  0.00     0.023 H 
ATOM     56  H   LIG d   1       3.815   1.985 -11.830  0.00  0.00     0.023 H 
ENDBRANCH  47  53
ENDBRANCH  44  47
ENDBRANCH  42  44
BRANCH  42  57
ATOM     57  N   LIG d   1       2.465  -0.851  -8.366  0.00  0.00    -0.270 N 
ATOM     58  C   LIG d   1       3.031  -1.796  -9.141  0.00  0.00     0.401 C 
ATOM     59  O   LIG d   1       4.205  -1.712  -9.443  0.00  0.00    -0.226 OA
ATOM     60  H   LIG d   1       1.549  -0.955  -8.064  0.00  0.00     0.153 HD
BRANCH  58  61
ATOM     61  O   LIG d   1       2.296  -2.835  -9.583  0.00  0.00    -0.445 OA
BRANCH  61  62
ATOM     62  C   LIG d   1       1.769  -2.740 -10.908  0.00  0.00     0.107 C 
BRANCH  62  63
ATOM     63  C   LIG d   1       0.603  -3.719 -11.065  0.00  0.00    -0.025 C 
ATOM     64  H   LIG d   1       0.273  -3.728 -12.103  0.00  0.00     0.027 H 
ATOM     65  H   LIG d   1       0.929  -4.719 -10.777  0.00  0.00     0.027 H 
ATOM     66  H   LIG d   1      -0.221  -3.407 -10.424  0.00  0.00     0.027 H 
ENDBRANCH  62  63
BRANCH  62  67
ATOM     67  C   LIG d   1       1.275  -1.314 -11.158  0.00  0.00    -0.025 C 
ATOM     68  H   LIG d   1       0.945  -1.219 -12.192  0.00  0.00     0.027 H 
ATOM     69  H   LIG d   1       0.441  -1.096 -10.489  0.00  0.00     0.027 H 
ATOM     70  H   LIG d   1       2.085  -0.610 -10.968  0.00  0.00     0.027 H 
ENDBRANCH  62  67
BRANCH  62  71
ATOM     71  C   LIG d   1       2.865  -3.084 -11.918  0.00  0.00    -0.025 C 
ATOM     72  H   LIG d   1       2.433  -3.654 -12.741  0.00  0.00     0.027 H 
ATOM     73  H   LIG d   1       3.304  -2.164 -12.305  0.00  0.00     0.027 H 
ATOM     74  H   LIG d   1       3.637  -3.677 -11.430  0.00  0.00     0.027 H 
ENDBRANCH  62  71
ENDBRANCH  61  62
ENDBRANCH  58  61
ENDBRANCH  42  57
ENDBRANCH   1  42
TORSDOF 17
ENDMDL
MODEL 4
REMARK VINA RESULT:      -5.9      7.968     12.515
REMARK  17 active torsions:
REMARK  status: ('A' for Active; 'I' for Inactive)
REMARK    1  A    between atoms: C_1  and  C_2 
REMARK    2  A    between atoms: C_2  and  C_3 
REMARK    3  A    between atoms: C_2  and  C_4 
REMARK    4  A    between atoms: C_4  and  C_5 
REMARK    5  A    between atoms: C_5  and  C_7 
REMARK    6  A    between atoms: C_5  and  N_35 
REMARK    7  A    between atoms: C_10  and  S_12 
REMARK    8  A    between atoms: S_12  and  C_13 
REMARK    9  A    between atoms: C_13  and  C_14 
REMARK       I    between atoms: C_14  and  N_16 
REMARK   10  A    between atoms: C_29  and  C_31 
REMARK   11  A    between atoms: C_31  and  O_33 
REMARK   12  A    between atoms: O_33  and  C_34 
REMARK       I    between atoms: N_35  and  C_36 
REMARK   13  A    between atoms: C_36  and  O_38 
REMARK   14  A    between atoms: O_38  and  C_39 
REMARK   15  A    between atoms: C_39  and  C_40 
REMARK   16  A    between atoms: C_39  and  C_41 
REMARK   17  A    between atoms: C_39  and  C_42 
ROOT
ATOM      1  C   LIG d   1       6.754   0.784  -4.515  0.00  0.00     0.238 A 
ATOM      2  N   LIG d   1       7.238   1.040  -5.696  0.00  0.00    -0.110 NA
ATOM      3  N   LIG d   1       8.360   1.658  -5.578  0.00  0.00    -0.101 NA
ATOM      4  C   LIG d   1       8.635   1.819  -4.305  0.00  0.00     0.278 A 
ATOM      5  O   LIG d   1       7.621   1.274  -3.606  0.00  0.00    -0.414 OA
ENDROOT
BRANCH   4   6
ATOM      6  S   LIG d   1      10.061   2.607  -3.635  0.00  0.00    -0.056 SA
BRANCH   6   7
ATOM      7  C   LIG d   1       9.724   4.377  -3.848  0.00  0.00     0.079 C 
ATOM      8  H   LIG d   1      10.155   4.718  -4.790  0.00  0.00     0.048 H 
ATOM      9  H   LIG d   1       8.647   4.543  -3.859  0.00  0.00     0.048 H 
BRANCH   7  10
ATOM     10  C   LIG d   1      10.341   5.146  -2.707  0.00  0.00     0.227 C 
ATOM     11  O   LIG d   1      10.350   4.672  -1.591  0.00  0.00    -0.275 OA
ATOM     12  N   LIG d   1      10.880   6.361  -2.928  0.00  0.00    -0.281 N 
ATOM     13  C   LIG d   1      11.569   7.088  -1.851  0.00  0.00     0.127 C 
ATOM     14  C   LIG d   1      10.791   6.998  -4.254  0.00  0.00     0.056 C 
ATOM     15  C   LIG d   1      10.796   8.368  -1.535  0.00  0.00     0.004 C 
ATOM     16  H   LIG d   1      12.579   7.343  -2.171  0.00  0.00     0.062 H 
ATOM     17  C   LIG d   1      10.419   9.046  -2.827  0.00  0.00    -0.015 A 
ATOM     18  H   LIG d   1      11.421   9.036  -0.941  0.00  0.00     0.034 H 
ATOM     19  H   LIG d   1       9.894   8.120  -0.976  0.00  0.00     0.034 H 
ATOM     20  C   LIG d   1      10.409   8.445  -4.037  0.00  0.00     0.038 A 
ATOM     21  C   LIG d   1      10.001  10.418  -3.032  0.00  0.00     0.003 A 
ATOM     22  N   LIG d   1      10.010   9.337  -4.997  0.00  0.00    -0.356 N 
ATOM     23  C   LIG d   1       9.754  10.548  -4.423  0.00  0.00     0.047 A 
ATOM     24  H   LIG d   1       9.924   9.137  -5.943  0.00  0.00     0.166 HD
ATOM     25  C   LIG d   1       9.329  11.763  -4.957  0.00  0.00    -0.038 A 
ATOM     26  C   LIG d   1       9.165  12.814  -4.071  0.00  0.00    -0.060 A 
ATOM     27  H   LIG d   1       9.136  11.880  -6.013  0.00  0.00     0.064 H 
ATOM     28  C   LIG d   1       9.408  12.681  -2.713  0.00  0.00    -0.061 A 
ATOM     29  H   LIG d   1       8.836  13.770  -4.451  0.00  0.00     0.062 H 
ATOM     30  C   LIG d   1       9.827  11.496  -2.160  0.00  0.00    -0.052 A 
ATOM     31  H   LIG d   1       9.262  13.537  -2.070  0.00  0.00     0.062 H 
ATOM     32  H   LIG d   1      10.014  11.402  -1.100  0.00  0.00     0.062 H 
ATOM     33  H   LIG d   1      11.755   6.941  -4.758  0.00  0.00     0.053 H 
ATOM     34  H   LIG d   1      10.028   6.500  -4.853  0.00  0.00     0.053 H 
BRANCH  13  35
ATOM     35  C   LIG d   1      11.631   6.222  -0.618  0.00  0.00     0.328 C 
ATOM     36  O   LIG d   1      12.544   5.443  -0.473  0.00  0.00    -0.249 OA
BRANCH  35  37
ATOM     37  O   LIG d   1      10.674   6.317   0.317  0.00  0.00    -0.467 OA
BRANCH  37  38
ATOM     38  C   LIG d   1      10.979   5.798   1.613  0.00  0.00     0.082 C 
ATOM     39  H   LIG d   1      11.125   4.719   1.547  0.00  0.00     0.066 H 
ATOM     40  H   LIG d   1      11.890   6.266   1.986  0.00  0.00     0.066 H 
ATOM     41  H   LIG d   1      10.155   6.012   2.294  0.00  0.00     0.066 H 
ENDBRANCH  37  38
ENDBRANCH  35  37
ENDBRANCH  13  35
ENDBRANCH   7  10
ENDBRANCH   6   7
ENDBRANCH   4   6
BRANCH   1  42
ATOM     42  C   LIG d   1       5.459   0.074  -4.219  0.00  0.00     0.104 C 
ATOM     43  H   LIG d   1       4.804   0.736  -3.652  0.00  0.00     0.060 H 
BRANCH  42  44
ATOM     44  C   LIG d   1       5.744  -1.186  -3.400  0.00  0.00    -0.023 C 
ATOM     45  H   LIG d   1       6.791  -1.194  -3.097  0.00  0.00     0.029 H 
ATOM     46  H   LIG d   1       5.533  -2.068  -4.005  0.00  0.00     0.029 H 
BRANCH  44  47
ATOM     47  C   LIG d   1       4.852  -1.198  -2.156  0.00  0.00    -0.045 C 
ATOM     48  H   LIG d   1       5.401  -1.631  -1.320  0.00  0.00     0.030 H 
BRANCH  47  49
ATOM     49  C   LIG d   1       4.441   0.233  -1.809  0.00  0.00    -0.063 C 
ATOM     50  H   LIG d   1       5.045   0.593  -0.975  0.00  0.00     0.023 H 
ATOM     51  H   LIG d   1       4.596   0.877  -2.675  0.00  0.00     0.023 H 
ATOM     52  H   LIG d   1       3.388   0.250  -1.527  0.00  0.00     0.023 H 
ENDBRANCH  47  49
BRANCH  47  53
ATOM     53  C   LIG d   1       3.601  -2.035  -2.433  0.00  0.00    -0.063 C 
ATOM     54  H   LIG d   1       3.040  -1.588  -3.253  0.00  0.00     0.023 H 
ATOM     55  H   LIG d   1       3.895  -3.049  -2.704  0.00  0.00     0.023 H 
ATOM     56  H   LIG d   1       2.978  -2.063  -1.539  0.00  0.00     0.023 H 
ENDBRANCH  47  53
ENDBRANCH  44  47
ENDBRANCH  42  44
BRANCH  42  57
ATOM     57  N   LIG d   1       4.808  -0.298  -5.477  0.00  0.00    -0.270 N 
ATOM     58  C   LIG d   1       3.571   0.159  -5.756  0.00  0.00     0.401 C 
ATOM     59  O   LIG d   1       3.033   0.952  -5.009  0.00  0.00    -0.226 OA
ATOM     60  H   LIG d   1       5.266  -0.873  -6.110  0.00  0.00     0.153 HD
BRANCH  58  61
ATOM     61  O   LIG d   1       2.931  -0.263  -6.864  0.00  0.00    -0.445 OA
BRANCH  61  62
ATOM     62  C   LIG d   1       3.266   0.384  -8.093  0.00  0.00     0.107 C 
BRANCH  62  63
ATOM     63  C   LIG d   1       2.517  -0.289  -9.245  0.00  0.00    -0.025 C 
ATOM     64  H   LIG d   1       1.799  -1.004  -8.844  0.00  0.00     0.027 H 
ATOM     65  H   LIG d   1       1.991   0.468  -9.827  0.00  0.00     0.027 H 
ATOM     66  H   LIG d   1       3.229  -0.810  -9.886  0.00  0.00     0.027 H 
ENDBRANCH  62  63
BRANCH  62  67
ATOM     67  C   LIG d   1       2.865   1.859  -8.018  0.00  0.00    -0.025 C 
ATOM     68  H   LIG d   1       3.394   2.419  -8.790  0.00  0.00     0.027 H 
ATOM     69  H   LIG d   1       1.790   1.952  -8.173  0.00  0.00     0.027 H 
ATOM     70  H   LIG d   1       3.127   2.257  -7.037  0.00  0.00     0.027 H 
ENDBRANCH  62  67
BRANCH  62  71
ATOM     71  C   LIG d   1       4.773   0.277  -8.331  0.00  0.00    -0.025 C 
ATOM     72  H   LIG d   1       5.056  -0.774  -8.395  0.00  0.00     0.027 H 
ATOM     73  H   LIG d   1       5.030   0.780  -9.264  0.00  0.00     0.027 H 
ATOM     74  H   LIG d   1       5.306   0.748  -7.506  0.00  0.00     0.027 H 
ENDBRANCH  62  71
ENDBRANCH  61  62
ENDBRANCH  58  61
ENDBRANCH  42  57
ENDBRANCH   1  42
TORSDOF 17
ENDMDL
MODEL 5
REMARK VINA RESULT:      -5.9      7.137     11.642
REMARK  17 active torsions:
REMARK  status: ('A' for Active; 'I' for Inactive)
REMARK    1  A    between atoms: C_1  and  C_2 
REMARK    2  A    between atoms: C_2  and  C_3 
REMARK    3  A    between atoms: C_2  and  C_4 
REMARK    4  A    between atoms: C_4  and  C_5 
REMARK    5  A    between atoms: C_5  and  C_7 
REMARK    6  A    between atoms: C_5  and  N_35 
REMARK    7  A    between atoms: C_10  and  S_12 
REMARK    8  A    between atoms: S_12  and  C_13 
REMARK    9  A    between atoms: C_13  and  C_14 
REMARK       I    between atoms: C_14  and  N_16 
REMARK   10  A    between atoms: C_29  and  C_31 
REMARK   11  A    between atoms: C_31  and  O_33 
REMARK   12  A    between atoms: O_33  and  C_34 
REMARK       I    between atoms: N_35  and  C_36 
REMARK   13  A    between atoms: C_36  and  O_38 
REMARK   14  A    between atoms: O_38  and  C_39 
REMARK   15  A    between atoms: C_39  and  C_40 
REMARK   16  A    between atoms: C_39  and  C_41 
REMARK   17  A    between atoms: C_39  and  C_42 
ROOT
ATOM      1  C   LIG d   1       6.786   0.981  -4.379  0.00  0.00     0.238 A 
ATOM      2  N   LIG d   1       7.576   1.407  -3.437  0.00  0.00    -0.110 NA
ATOM      3  N   LIG d   1       8.568   2.038  -3.958  0.00  0.00    -0.101 NA
ATOM      4  C   LIG d   1       8.445   2.038  -5.264  0.00  0.00     0.278 A 
ATOM      5  O   LIG d   1       7.317   1.364  -5.558  0.00  0.00    -0.414 OA
ENDROOT
BRANCH   4   6
ATOM      6  S   LIG d   1       9.552   2.776  -6.419  0.00  0.00    -0.056 SA
BRANCH   6   7
ATOM      7  C   LIG d   1      10.766   3.632  -5.377  0.00  0.00     0.079 C 
ATOM      8  H   LIG d   1      10.647   3.311  -4.342  0.00  0.00     0.048 H 
ATOM      9  H   LIG d   1      11.773   3.391  -5.720  0.00  0.00     0.048 H 
BRANCH   7  10
ATOM     10  C   LIG d   1      10.546   5.120  -5.470  0.00  0.00     0.227 C 
ATOM     11  O   LIG d   1      10.850   5.717  -6.481  0.00  0.00    -0.275 OA
ATOM     12  N   LIG d   1      10.013   5.788  -4.428  0.00  0.00    -0.281 N 
ATOM     13  C   LIG d   1       9.703   7.222  -4.529  0.00  0.00     0.127 C 
ATOM     14  C   LIG d   1       9.730   5.102  -3.155  0.00  0.00     0.056 C 
ATOM     15  C   LIG d   1      10.584   7.997  -3.550  0.00  0.00     0.004 C 
ATOM     16  H   LIG d   1       8.655   7.387  -4.284  0.00  0.00     0.062 H 
ATOM     17  C   LIG d   1      10.587   7.283  -2.222  0.00  0.00    -0.015 A 
ATOM     18  H   LIG d   1      10.190   9.005  -3.421  0.00  0.00     0.034 H 
ATOM     19  H   LIG d   1      11.601   8.049  -3.938  0.00  0.00     0.034 H 
ATOM     20  C   LIG d   1      10.215   5.999  -2.038  0.00  0.00     0.038 A 
ATOM     21  C   LIG d   1      10.979   7.800  -0.926  0.00  0.00     0.003 A 
ATOM     22  N   LIG d   1      10.345   5.659  -0.717  0.00  0.00    -0.356 N 
ATOM     23  C   LIG d   1      10.807   6.731  -0.010  0.00  0.00     0.047 A 
ATOM     24  H   LIG d   1      10.139   4.789  -0.342  0.00  0.00     0.166 HD
ATOM     25  C   LIG d   1      11.101   6.901   1.342  0.00  0.00    -0.038 A 
ATOM     26  C   LIG d   1      11.562   8.148   1.731  0.00  0.00    -0.060 A 
ATOM     27  H   LIG d   1      10.976   6.098   2.052  0.00  0.00     0.064 H 
ATOM     28  C   LIG d   1      11.728   9.188   0.831  0.00  0.00    -0.061 A 
ATOM     29  H   LIG d   1      11.799   8.314   2.771  0.00  0.00     0.062 H 
ATOM     30  C   LIG d   1      11.445   9.049  -0.505  0.00  0.00    -0.052 A 
ATOM     31  H   LIG d   1      12.090  10.139   1.193  0.00  0.00     0.062 H 
ATOM     32  H   LIG d   1      11.577   9.866  -1.199  0.00  0.00     0.062 H 
ATOM     33  H   LIG d   1       8.658   4.932  -3.056  0.00  0.00     0.053 H 
ATOM     34  H   LIG d   1      10.260   4.150  -3.122  0.00  0.00     0.053 H 
BRANCH  13  35
ATOM     35  C   LIG d   1       9.976   7.698  -5.933  0.00  0.00     0.328 C 
ATOM     36  O   LIG d   1      11.049   8.183  -6.209  0.00  0.00    -0.249 OA
BRANCH  35  37
ATOM     37  O   LIG d   1       9.029   7.584  -6.876  0.00  0.00    -0.467 OA
BRANCH  37  38
ATOM     38  C   LIG d   1       9.077   8.515  -7.961  0.00  0.00     0.082 C 
ATOM     39  H   LIG d   1      10.046   8.446  -8.456  0.00  0.00     0.066 H 
ATOM     40  H   LIG d   1       8.287   8.281  -8.674  0.00  0.00     0.066 H 
ATOM     41  H   LIG d   1       8.935   9.526  -7.578  0.00  0.00     0.066 H 
ENDBRANCH  37  38
ENDBRANCH  35  37
ENDBRANCH  13  35
ENDBRANCH   7  10
ENDBRANCH   6   7
ENDBRANCH   4   6
BRANCH   1  42
ATOM     42  C   LIG d   1       5.513   0.199  -4.187  0.00  0.00     0.104 C 
ATOM     43  H   LIG d   1       4.764   0.834  -3.715  0.00  0.00     0.060 H 
BRANCH  42  44
ATOM     44  C   LIG d   1       5.789  -1.014  -3.297  0.00  0.00    -0.023 C 
ATOM     45  H   LIG d   1       6.802  -0.951  -2.899  0.00  0.00     0.029 H 
ATOM     46  H   LIG d   1       5.685  -1.927  -3.883  0.00  0.00     0.029 H 
BRANCH  44  47
ATOM     47  C   LIG d   1       4.788  -1.035  -2.140  0.00  0.00    -0.045 C 
ATOM     48  H   LIG d   1       5.264  -1.458  -1.255  0.00  0.00     0.030 H 
BRANCH  47  49
ATOM     49  C   LIG d   1       4.327   0.392  -1.837  0.00  0.00    -0.063 C 
ATOM     50  H   LIG d   1       4.188   0.936  -2.772  0.00  0.00     0.023 H 
ATOM     51  H   LIG d   1       3.385   0.362  -1.290  0.00  0.00     0.023 H 
ATOM     52  H   LIG d   1       5.083   0.896  -1.233  0.00  0.00     0.023 H 
ENDBRANCH  47  49
BRANCH  47  53
ATOM     53  C   LIG d   1       3.579  -1.889  -2.526  0.00  0.00    -0.063 C 
ATOM     54  H   LIG d   1       3.784  -2.406  -3.464  0.00  0.00     0.023 H 
ATOM     55  H   LIG d   1       3.385  -2.622  -1.743  0.00  0.00     0.023 H 
ATOM     56  H   LIG d   1       2.705  -1.248  -2.648  0.00  0.00     0.023 H 
ENDBRANCH  47  53
ENDBRANCH  44  47
ENDBRANCH  42  44
BRANCH  42  57
ATOM     57  N   LIG d   1       5.019  -0.255  -5.490  0.00  0.00    -0.270 N 
ATOM     58  C   LIG d   1       3.752   0.015  -5.860  0.00  0.00     0.401 C 
ATOM     59  O   LIG d   1       3.047   0.711  -5.156  0.00  0.00    -0.226 OA
ATOM     60  H   LIG d   1       5.604  -0.749  -6.086  0.00  0.00     0.153 HD
BRANCH  58  61
ATOM     61  O   LIG d   1       3.264  -0.487  -7.012  0.00  0.00    -0.445 OA
BRANCH  61  62
ATOM     62  C   LIG d   1       3.487   0.277  -8.198  0.00  0.00     0.107 C 
BRANCH  62  63
ATOM     63  C   LIG d   1       2.937   1.692  -8.005  0.00  0.00    -0.025 C 
ATOM     64  H   LIG d   1       2.504   2.045  -8.941  0.00  0.00     0.027 H 
ATOM     65  H   LIG d   1       2.169   1.679  -7.231  0.00  0.00     0.027 H 
ATOM     66  H   LIG d   1       3.745   2.358  -7.705  0.00  0.00     0.027 H 
ENDBRANCH  62  63
BRANCH  62  67
ATOM     67  C   LIG d   1       4.989   0.349  -8.483  0.00  0.00    -0.025 C 
ATOM     68  H   LIG d   1       5.162   0.232  -9.553  0.00  0.00     0.027 H 
ATOM     69  H   LIG d   1       5.375   1.315  -8.155  0.00  0.00     0.027 H 
ATOM     70  H   LIG d   1       5.500  -0.448  -7.942  0.00  0.00     0.027 H 
ENDBRANCH  62  67
BRANCH  62  71
ATOM     71  C   LIG d   1       2.777  -0.392  -9.376  0.00  0.00    -0.025 C 
ATOM     72  H   LIG d   1       1.703  -0.221  -9.297  0.00  0.00     0.027 H 
ATOM     73  H   LIG d   1       3.143   0.034 -10.311  0.00  0.00     0.027 H 
ATOM     74  H   LIG d   1       2.977  -1.462  -9.362  0.00  0.00     0.027 H 
ENDBRANCH  62  71
ENDBRANCH  61  62
ENDBRANCH  58  61
ENDBRANCH  42  57
ENDBRANCH   1  42
TORSDOF 17
ENDMDL
MODEL 6
REMARK VINA RESULT:      -5.9      3.576      7.967
REMARK  17 active torsions:
REMARK  status: ('A' for Active; 'I' for Inactive)
REMARK    1  A    between atoms: C_1  and  C_2 
REMARK    2  A    between atoms: C_2  and  C_3 
REMARK    3  A    between atoms: C_2  and  C_4 
REMARK    4  A    between atoms: C_4  and  C_5 
REMARK    5  A    between atoms: C_5  and  C_7 
REMARK    6  A    between atoms: C_5  and  N_35 
REMARK    7  A    between atoms: C_10  and  S_12 
REMARK    8  A    between atoms: S_12  and  C_13 
REMARK    9  A    between atoms: C_13  and  C_14 
REMARK       I    between atoms: C_14  and  N_16 
REMARK   10  A    between atoms: C_29  and  C_31 
REMARK   11  A    between atoms: C_31  and  O_33 
REMARK   12  A    between atoms: O_33  and  C_34 
REMARK       I    between atoms: N_35  and  C_36 
REMARK   13  A    between atoms: C_36  and  O_38 
REMARK   14  A    between atoms: O_38  and  C_39 
REMARK   15  A    between atoms: C_39  and  C_40 
REMARK   16  A    between atoms: C_39  and  C_41 
REMARK   17  A    between atoms: C_39  and  C_42 
ROOT
ATOM      1  C   LIG d   1       5.667  -0.589  -7.689  0.00  0.00     0.238 A 
ATOM      2  N   LIG d   1       6.040   0.602  -7.321  0.00  0.00    -0.110 NA
ATOM      3  N   LIG d   1       7.292   0.758  -7.571  0.00  0.00    -0.101 NA
ATOM      4  C   LIG d   1       7.766  -0.338  -8.113  0.00  0.00     0.278 A 
ATOM      5  O   LIG d   1       6.748  -1.216  -8.194  0.00  0.00    -0.414 OA
ENDROOT
BRANCH   4   6
ATOM      6  S   LIG d   1       9.427  -0.614  -8.633  0.00  0.00    -0.056 SA
BRANCH   6   7
ATOM      7  C   LIG d   1      10.369  -0.663  -7.084  0.00  0.00     0.079 C 
ATOM      8  H   LIG d   1      11.432  -0.749  -7.307  0.00  0.00     0.048 H 
ATOM      9  H   LIG d   1      10.189   0.252  -6.520  0.00  0.00     0.048 H 
BRANCH   7  10
ATOM     10  C   LIG d   1       9.930  -1.852  -6.267  0.00  0.00     0.227 C 
ATOM     11  O   LIG d   1      10.192  -2.975  -6.641  0.00  0.00    -0.275 OA
ATOM     12  N   LIG d   1       9.244  -1.666  -5.122  0.00  0.00    -0.281 N 
ATOM     13  C   LIG d   1       8.887  -2.805  -4.262  0.00  0.00     0.127 C 
ATOM     14  C   LIG d   1       8.827  -0.316  -4.701  0.00  0.00     0.056 C 
ATOM     15  C   LIG d   1       7.366  -2.943  -4.217  0.00  0.00     0.004 C 
ATOM     16  H   LIG d   1       9.266  -2.634  -3.255  0.00  0.00     0.062 H 
ATOM     17  C   LIG d   1       6.754  -1.580  -4.014  0.00  0.00    -0.015 A 
ATOM     18  H   LIG d   1       7.082  -3.597  -3.393  0.00  0.00     0.034 H 
ATOM     19  H   LIG d   1       7.011  -3.366  -5.157  0.00  0.00     0.034 H 
ATOM     20  C   LIG d   1       7.393  -0.410  -4.230  0.00  0.00     0.038 A 
ATOM     21  C   LIG d   1       5.414  -1.255  -3.571  0.00  0.00     0.003 A 
ATOM     22  N   LIG d   1       6.553   0.637  -3.960  0.00  0.00    -0.356 N 
ATOM     23  C   LIG d   1       5.339   0.161  -3.556  0.00  0.00     0.047 A 
ATOM     24  H   LIG d   1       6.786   1.575  -4.043  0.00  0.00     0.166 HD
ATOM     25  C   LIG d   1       4.165   0.805  -3.172  0.00  0.00    -0.038 A 
ATOM     26  C   LIG d   1       3.097   0.000  -2.814  0.00  0.00    -0.060 A 
ATOM     27  H   LIG d   1       4.091   1.883  -3.154  0.00  0.00     0.064 H 
ATOM     28  C   LIG d   1       3.176  -1.383  -2.831  0.00  0.00    -0.061 A 
ATOM     29  H   LIG d   1       2.172   0.467  -2.511  0.00  0.00     0.062 H 
ATOM     30  C   LIG d   1       4.319  -2.043  -3.204  0.00  0.00    -0.052 A 
ATOM     31  H   LIG d   1       2.309  -1.959  -2.540  0.00  0.00     0.062 H 
ATOM     32  H   LIG d   1       4.371  -3.122  -3.214  0.00  0.00     0.062 H 
ATOM     33  H   LIG d   1       9.463   0.030  -3.886  0.00  0.00     0.053 H 
ATOM     34  H   LIG d   1       8.897   0.372  -5.543  0.00  0.00     0.053 H 
BRANCH  13  35
ATOM     35  C   LIG d   1       9.489  -4.068  -4.823  0.00  0.00     0.328 C 
ATOM     36  O   LIG d   1       8.827  -4.789  -5.531  0.00  0.00    -0.249 OA
BRANCH  35  37
ATOM     37  O   LIG d   1      10.760  -4.389  -4.537  0.00  0.00    -0.467 OA
BRANCH  37  38
ATOM     38  C   LIG d   1      11.193  -4.188  -3.190  0.00  0.00     0.082 C 
ATOM     39  H   LIG d   1      11.416  -3.132  -3.034  0.00  0.00     0.066 H 
ATOM     40  H   LIG d   1      10.403  -4.497  -2.505  0.00  0.00     0.066 H 
ATOM     41  H   LIG d   1      12.089  -4.780  -3.003  0.00  0.00     0.066 H 
ENDBRANCH  37  38
ENDBRANCH  35  37
ENDBRANCH  13  35
ENDBRANCH   7  10
ENDBRANCH   6   7
ENDBRANCH   4   6
BRANCH   1  42
ATOM     42  C   LIG d   1       4.279  -1.164  -7.568  0.00  0.00     0.104 C 
ATOM     43  H   LIG d   1       3.878  -1.355  -8.563  0.00  0.00     0.060 H 
BRANCH  42  44
ATOM     44  C   LIG d   1       3.377  -0.170  -6.836  0.00  0.00    -0.023 C 
ATOM     45  H   LIG d   1       3.985   0.628  -6.409  0.00  0.00     0.029 H 
ATOM     46  H   LIG d   1       2.841  -0.684  -6.038  0.00  0.00     0.029 H 
BRANCH  44  47
ATOM     47  C   LIG d   1       2.371   0.428  -7.822  0.00  0.00    -0.045 C 
ATOM     48  H   LIG d   1       1.410   0.561  -7.324  0.00  0.00     0.030 H 
BRANCH  47  49
ATOM     49  C   LIG d   1       2.881   1.782  -8.314  0.00  0.00    -0.063 C 
ATOM     50  H   LIG d   1       3.282   1.675  -9.323  0.00  0.00     0.023 H 
ATOM     51  H   LIG d   1       2.060   2.500  -8.324  0.00  0.00     0.023 H 
ATOM     52  H   LIG d   1       3.667   2.138  -7.647  0.00  0.00     0.023 H 
ENDBRANCH  47  49
BRANCH  47  53
ATOM     53  C   LIG d   1       2.201  -0.517  -9.013  0.00  0.00    -0.063 C 
ATOM     54  H   LIG d   1       1.164  -0.847  -9.070  0.00  0.00     0.023 H 
ATOM     55  H   LIG d   1       2.467   0.005  -9.932  0.00  0.00     0.023 H 
ATOM     56  H   LIG d   1       2.852  -1.383  -8.886  0.00  0.00     0.023 H 
ENDBRANCH  47  53
ENDBRANCH  44  47
ENDBRANCH  42  44
BRANCH  42  57
ATOM     57  N   LIG d   1       4.336  -2.419  -6.814  0.00  0.00    -0.270 N 
ATOM     58  C   LIG d   1       3.971  -3.575  -7.402  0.00  0.00     0.401 C 
ATOM     59  O   LIG d   1       3.682  -3.592  -8.582  0.00  0.00    -0.226 OA
ATOM     60  H   LIG d   1       4.637  -2.418  -5.892  0.00  0.00     0.153 HD
BRANCH  58  61
ATOM     61  O   LIG d   1       3.925  -4.713  -6.682  0.00  0.00    -0.445 OA
BRANCH  61  62
ATOM     62  C   LIG d   1       4.947  -5.680  -6.933  0.00  0.00     0.107 C 
BRANCH  62  63
ATOM     63  C   LIG d   1       6.104  -5.018  -7.684  0.00  0.00    -0.025 C 
ATOM     64  H   LIG d   1       6.719  -5.784  -8.153  0.00  0.00     0.027 H 
ATOM     65  H   LIG d   1       5.705  -4.352  -8.450  0.00  0.00     0.027 H 
ATOM     66  H   LIG d   1       6.710  -4.443  -6.983  0.00  0.00     0.027 H 
ENDBRANCH  62  63
BRANCH  62  67
ATOM     67  C   LIG d   1       5.456  -6.239  -5.602  0.00  0.00    -0.025 C 
ATOM     68  H   LIG d   1       5.416  -5.459  -4.842  0.00  0.00     0.027 H 
ATOM     69  H   LIG d   1       4.829  -7.077  -5.297  0.00  0.00     0.027 H 
ATOM     70  H   LIG d   1       6.484  -6.579  -5.720  0.00  0.00     0.027 H 
ENDBRANCH  62  67
BRANCH  62  71
ATOM     71  C   LIG d   1       4.374  -6.819  -7.778  0.00  0.00    -0.025 C 
ATOM     72  H   LIG d   1       3.500  -7.237  -7.278  0.00  0.00     0.027 H 
ATOM     73  H   LIG d   1       4.083  -6.435  -8.756  0.00  0.00     0.027 H 
ATOM     74  H   LIG d   1       5.128  -7.595  -7.902  0.00  0.00     0.027 H 
ENDBRANCH  62  71
ENDBRANCH  61  62
ENDBRANCH  58  61
ENDBRANCH  42  57
ENDBRANCH   1  42
TORSDOF 17
ENDMDL
MODEL 7
REMARK VINA RESULT:      -5.8      7.741     12.183
REMARK  17 active torsions:
REMARK  status: ('A' for Active; 'I' for Inactive)
REMARK    1  A    between atoms: C_1  and  C_2 
REMARK    2  A    between atoms: C_2  and  C_3 
REMARK    3  A    between atoms: C_2  and  C_4 
REMARK    4  A    between atoms: C_4  and  C_5 
REMARK    5  A    between atoms: C_5  and  C_7 
REMARK    6  A    between atoms: C_5  and  N_35 
REMARK    7  A    between atoms: C_10  and  S_12 
REMARK    8  A    between atoms: S_12  and  C_13 
REMARK    9  A    between atoms: C_13  and  C_14 
REMARK       I    between atoms: C_14  and  N_16 
REMARK   10  A    between atoms: C_29  and  C_31 
REMARK   11  A    between atoms: C_31  and  O_33 
REMARK   12  A    between atoms: O_33  and  C_34 
REMARK       I    between atoms: N_35  and  C_36 
REMARK   13  A    between atoms: C_36  and  O_38 
REMARK   14  A    between atoms: O_38  and  C_39 
REMARK   15  A    between atoms: C_39  and  C_40 
REMARK   16  A    between atoms: C_39  and  C_41 
REMARK   17  A    between atoms: C_39  and  C_42 
ROOT
ATOM      1  C   LIG d   1       6.621   0.764  -4.530  0.00  0.00     0.238 A 
ATOM      2  N   LIG d   1       7.160   0.993  -5.692  0.00  0.00    -0.110 NA
ATOM      3  N   LIG d   1       8.255   1.651  -5.538  0.00  0.00    -0.101 NA
ATOM      4  C   LIG d   1       8.455   1.867  -4.260  0.00  0.00     0.278 A 
ATOM      5  O   LIG d   1       7.422   1.315  -3.595  0.00  0.00    -0.414 OA
ENDROOT
BRANCH   4   6
ATOM      6  S   LIG d   1       9.818   2.725  -3.545  0.00  0.00    -0.056 SA
BRANCH   6   7
ATOM      7  C   LIG d   1       9.752   4.368  -4.311  0.00  0.00     0.079 C 
ATOM      8  H   LIG d   1      10.514   4.438  -5.087  0.00  0.00     0.048 H 
ATOM      9  H   LIG d   1       8.767   4.523  -4.753  0.00  0.00     0.048 H 
BRANCH   7  10
ATOM     10  C   LIG d   1      10.004   5.421  -3.262  0.00  0.00     0.227 C 
ATOM     11  O   LIG d   1       9.626   5.246  -2.123  0.00  0.00    -0.275 OA
ATOM     12  N   LIG d   1      10.649   6.557  -3.590  0.00  0.00    -0.281 N 
ATOM     13  C   LIG d   1      10.988   7.556  -2.566  0.00  0.00     0.127 C 
ATOM     14  C   LIG d   1      11.027   6.835  -4.988  0.00  0.00     0.056 C 
ATOM     15  C   LIG d   1      10.222   8.849  -2.850  0.00  0.00     0.004 C 
ATOM     16  H   LIG d   1      12.058   7.756  -2.591  0.00  0.00     0.062 H 
ATOM     17  C   LIG d   1      10.321   9.164  -4.321  0.00  0.00    -0.015 A 
ATOM     18  H   LIG d   1      10.655   9.665  -2.272  0.00  0.00     0.034 H 
ATOM     19  H   LIG d   1       9.176   8.719  -2.574  0.00  0.00     0.034 H 
ATOM     20  C   LIG d   1      10.672   8.277  -5.276  0.00  0.00     0.038 A 
ATOM     21  C   LIG d   1      10.064  10.424  -4.987  0.00  0.00     0.003 A 
ATOM     22  N   LIG d   1      10.654   8.882  -6.505  0.00  0.00    -0.356 N 
ATOM     23  C   LIG d   1      10.289  10.190  -6.368  0.00  0.00     0.047 A 
ATOM     24  H   LIG d   1      10.869   8.447  -7.344  0.00  0.00     0.166 HD
ATOM     25  C   LIG d   1      10.124  11.215  -7.297  0.00  0.00    -0.038 A 
ATOM     26  C   LIG d   1       9.737  12.451  -6.806  0.00  0.00    -0.060 A 
ATOM     27  H   LIG d   1      10.291  11.054  -8.352  0.00  0.00     0.064 H 
ATOM     28  C   LIG d   1       9.519  12.673  -5.456  0.00  0.00    -0.061 A 
ATOM     29  H   LIG d   1       9.600  13.267  -7.499  0.00  0.00     0.062 H 
ATOM     30  C   LIG d   1       9.674  11.682  -4.519  0.00  0.00    -0.052 A 
ATOM     31  H   LIG d   1       9.218  13.659  -5.131  0.00  0.00     0.062 H 
ATOM     32  H   LIG d   1       9.501  11.866  -3.468  0.00  0.00     0.062 H 
ATOM     33  H   LIG d   1      12.099   6.684  -5.117  0.00  0.00     0.053 H 
ATOM     34  H   LIG d   1      10.476   6.176  -5.658  0.00  0.00     0.053 H 
BRANCH  13  35
ATOM     35  C   LIG d   1      10.601   7.034  -1.205  0.00  0.00     0.328 C 
ATOM     36  O   LIG d   1       9.523   7.313  -0.736  0.00  0.00    -0.249 OA
BRANCH  35  37
ATOM     37  O   LIG d   1      11.454   6.259  -0.517  0.00  0.00    -0.467 OA
BRANCH  37  38
ATOM     38  C   LIG d   1      11.170   6.054   0.869  0.00  0.00     0.082 C 
ATOM     39  H   LIG d   1      10.286   5.423   0.969  0.00  0.00     0.066 H 
ATOM     40  H   LIG d   1      12.021   5.567   1.345  0.00  0.00     0.066 H 
ATOM     41  H   LIG d   1      10.986   7.016   1.348  0.00  0.00     0.066 H 
ENDBRANCH  37  38
ENDBRANCH  35  37
ENDBRANCH  13  35
ENDBRANCH   7  10
ENDBRANCH   6   7
ENDBRANCH   4   6
BRANCH   1  42
ATOM     42  C   LIG d   1       5.334   0.024  -4.276  0.00  0.00     0.104 C 
ATOM     43  H   LIG d   1       4.664   0.652  -3.689  0.00  0.00     0.060 H 
BRANCH  42  44
ATOM     44  C   LIG d   1       5.630  -1.264  -3.506  0.00  0.00    -0.023 C 
ATOM     45  H   LIG d   1       6.696  -1.319  -3.285  0.00  0.00     0.029 H 
ATOM     46  H   LIG d   1       5.339  -2.124  -4.110  0.00  0.00     0.029 H 
BRANCH  44  47
ATOM     47  C   LIG d   1       4.836  -1.270  -2.197  0.00  0.00    -0.045 C 
ATOM     48  H   LIG d   1       5.481  -1.603  -1.384  0.00  0.00     0.030 H 
BRANCH  47  49
ATOM     49  C   LIG d   1       4.330   0.142  -1.901  0.00  0.00    -0.063 C 
ATOM     50  H   LIG d   1       4.976   0.613  -1.160  0.00  0.00     0.023 H 
ATOM     51  H   LIG d   1       4.337   0.732  -2.819  0.00  0.00     0.023 H 
ATOM     52  H   LIG d   1       3.312   0.089  -1.513  0.00  0.00     0.023 H 
ENDBRANCH  47  49
BRANCH  47  53
ATOM     53  C   LIG d   1       3.646  -2.222  -2.327  0.00  0.00    -0.063 C 
ATOM     54  H   LIG d   1       3.463  -2.434  -3.380  0.00  0.00     0.023 H 
ATOM     55  H   LIG d   1       3.865  -3.152  -1.802  0.00  0.00     0.023 H 
ATOM     56  H   LIG d   1       2.761  -1.759  -1.891  0.00  0.00     0.023 H 
ENDBRANCH  47  53
ENDBRANCH  44  47
ENDBRANCH  42  44
BRANCH  42  57
ATOM     57  N   LIG d   1       4.700  -0.306  -5.554  0.00  0.00    -0.270 N 
ATOM     58  C   LIG d   1       3.483   0.190  -5.852  0.00  0.00     0.401 C 
ATOM     59  O   LIG d   1       2.951   0.984  -5.101  0.00  0.00    -0.226 OA
ATOM     60  H   LIG d   1       5.157  -0.882  -6.188  0.00  0.00     0.153 HD
BRANCH  58  61
ATOM     61  O   LIG d   1       2.856  -0.192  -6.980  0.00  0.00    -0.445 OA
BRANCH  61  62
ATOM     62  C   LIG d   1       3.180   0.520  -8.176  0.00  0.00     0.107 C 
BRANCH  62  63
ATOM     63  C   LIG d   1       2.417  -0.088  -9.355  0.00  0.00    -0.025 C 
ATOM     64  H   LIG d   1       2.994   0.046 -10.269  0.00  0.00     0.027 H 
ATOM     65  H   LIG d   1       2.261  -1.151  -9.175  0.00  0.00     0.027 H 
ATOM     66  H   LIG d   1       1.453   0.409  -9.458  0.00  0.00     0.027 H 
ENDBRANCH  62  63
BRANCH  62  67
ATOM     67  C   LIG d   1       2.784   1.990  -8.016  0.00  0.00    -0.025 C 
ATOM     68  H   LIG d   1       3.664   2.620  -8.147  0.00  0.00     0.027 H 
ATOM     69  H   LIG d   1       2.037   2.248  -8.766  0.00  0.00     0.027 H 
ATOM     70  H   LIG d   1       2.370   2.148  -7.021  0.00  0.00     0.027 H 
ENDBRANCH  62  67
BRANCH  62  71
ATOM     71  C   LIG d   1       4.684   0.423  -8.436  0.00  0.00    -0.025 C 
ATOM     72  H   LIG d   1       5.156   1.377  -8.197  0.00  0.00     0.027 H 
ATOM     73  H   LIG d   1       5.111  -0.360  -7.808  0.00  0.00     0.027 H 
ATOM     74  H   LIG d   1       4.858   0.183  -9.484  0.00  0.00     0.027 H 
ENDBRANCH  62  71
ENDBRANCH  61  62
ENDBRANCH  58  61
ENDBRANCH  42  57
ENDBRANCH   1  42
TORSDOF 17
ENDMDL
MODEL 8
REMARK VINA RESULT:      -5.7      3.537      7.950
REMARK  17 active torsions:
REMARK  status: ('A' for Active; 'I' for Inactive)
REMARK    1  A    between atoms: C_1  and  C_2 
REMARK    2  A    between atoms: C_2  and  C_3 
REMARK    3  A    between atoms: C_2  and  C_4 
REMARK    4  A    between atoms: C_4  and  C_5 
REMARK    5  A    between atoms: C_5  and  C_7 
REMARK    6  A    between atoms: C_5  and  N_35 
REMARK    7  A    between atoms: C_10  and  S_12 
REMARK    8  A    between atoms: S_12  and  C_13 
REMARK    9  A    between atoms: C_13  and  C_14 
REMARK       I    between atoms: C_14  and  N_16 
REMARK   10  A    between atoms: C_29  and  C_31 
REMARK   11  A    between atoms: C_31  and  O_33 
REMARK   12  A    between atoms: O_33  and  C_34 
REMARK       I    between atoms: N_35  and  C_36 
REMARK   13  A    between atoms: C_36  and  O_38 
REMARK   14  A    between atoms: O_38  and  C_39 
REMARK   15  A    between atoms: C_39  and  C_40 
REMARK   16  A    between atoms: C_39  and  C_41 
REMARK   17  A    between atoms: C_39  and  C_42 
ROOT
ATOM      1  C   LIG d   1       3.263   0.419  -6.804  0.00  0.00     0.238 A 
ATOM      2  N   LIG d   1       2.739   1.535  -6.391  0.00  0.00    -0.110 NA
ATOM      3  N   LIG d   1       2.509   1.462  -5.127  0.00  0.00    -0.101 NA
ATOM      4  C   LIG d   1       2.882   0.285  -4.686  0.00  0.00     0.278 A 
ATOM      5  O   LIG d   1       3.363  -0.402  -5.739  0.00  0.00    -0.414 OA
ENDROOT
BRANCH   4   6
ATOM      6  S   LIG d   1       2.770  -0.293  -3.025  0.00  0.00    -0.056 SA
BRANCH   6   7
ATOM      7  C   LIG d   1       4.264   0.362  -2.231  0.00  0.00     0.079 C 
ATOM      8  H   LIG d   1       4.081   1.384  -1.898  0.00  0.00     0.048 H 
ATOM      9  H   LIG d   1       4.522  -0.260  -1.373  0.00  0.00     0.048 H 
BRANCH   7  10
ATOM     10  C   LIG d   1       5.403   0.352  -3.219  0.00  0.00     0.227 C 
ATOM     11  O   LIG d   1       5.847   1.398  -3.642  0.00  0.00    -0.275 OA
ATOM     12  N   LIG d   1       5.926  -0.819  -3.633  0.00  0.00    -0.281 N 
ATOM     13  C   LIG d   1       7.096  -0.850  -4.523  0.00  0.00     0.127 C 
ATOM     14  C   LIG d   1       5.336  -2.102  -3.210  0.00  0.00     0.056 C 
ATOM     15  C   LIG d   1       6.694  -1.470  -5.861  0.00  0.00     0.004 C 
ATOM     16  H   LIG d   1       7.884  -1.449  -4.068  0.00  0.00     0.062 H 
ATOM     17  C   LIG d   1       5.867  -2.704  -5.602  0.00  0.00    -0.015 A 
ATOM     18  H   LIG d   1       7.588  -1.741  -6.423  0.00  0.00     0.034 H 
ATOM     19  H   LIG d   1       6.107  -0.751  -6.433  0.00  0.00     0.034 H 
ATOM     20  C   LIG d   1       5.258  -2.990  -4.431  0.00  0.00     0.038 A 
ATOM     21  C   LIG d   1       5.562  -3.787  -6.514  0.00  0.00     0.003 A 
ATOM     22  N   LIG d   1       4.582  -4.177  -4.534  0.00  0.00    -0.356 N 
ATOM     23  C   LIG d   1       4.745  -4.692  -5.788  0.00  0.00     0.047 A 
ATOM     24  H   LIG d   1       4.068  -4.590  -3.824  0.00  0.00     0.166 HD
ATOM     25  C   LIG d   1       4.272  -5.857  -6.388  0.00  0.00    -0.038 A 
ATOM     26  C   LIG d   1       4.635  -6.076  -7.706  0.00  0.00    -0.060 A 
ATOM     27  H   LIG d   1       3.649  -6.556  -5.850  0.00  0.00     0.064 H 
ATOM     28  C   LIG d   1       5.433  -5.189  -8.409  0.00  0.00    -0.061 A 
ATOM     29  H   LIG d   1       4.285  -6.969  -8.201  0.00  0.00     0.062 H 
ATOM     30  C   LIG d   1       5.914  -4.034  -7.844  0.00  0.00    -0.052 A 
ATOM     31  H   LIG d   1       5.685  -5.413  -9.436  0.00  0.00     0.062 H 
ATOM     32  H   LIG d   1       6.536  -3.348  -8.401  0.00  0.00     0.062 H 
ATOM     33  H   LIG d   1       5.967  -2.567  -2.453  0.00  0.00     0.053 H 
ATOM     34  H   LIG d   1       4.337  -1.935  -2.808  0.00  0.00     0.053 H 
BRANCH  13  35
ATOM     35  C   LIG d   1       7.594   0.554  -4.750  0.00  0.00     0.328 C 
ATOM     36  O   LIG d   1       8.322   1.076  -3.938  0.00  0.00    -0.249 OA
BRANCH  35  37
ATOM     37  O   LIG d   1       7.229   1.225  -5.853  0.00  0.00    -0.467 OA
BRANCH  37  38
ATOM     38  C   LIG d   1       8.263   1.897  -6.576  0.00  0.00     0.082 C 
ATOM     39  H   LIG d   1       8.487   1.343  -7.488  0.00  0.00     0.066 H 
ATOM     40  H   LIG d   1       7.930   2.903  -6.834  0.00  0.00     0.066 H 
ATOM     41  H   LIG d   1       9.159   1.957  -5.958  0.00  0.00     0.066 H 
ENDBRANCH  37  38
ENDBRANCH  35  37
ENDBRANCH  13  35
ENDBRANCH   7  10
ENDBRANCH   6   7
ENDBRANCH   4   6
BRANCH   1  42
ATOM     42  C   LIG d   1       3.679   0.100  -8.217  0.00  0.00     0.104 C 
ATOM     43  H   LIG d   1       3.090   0.699  -8.912  0.00  0.00     0.060 H 
BRANCH  42  44
ATOM     44  C   LIG d   1       3.442  -1.385  -8.495  0.00  0.00    -0.023 C 
ATOM     45  H   LIG d   1       2.792  -1.801  -7.725  0.00  0.00     0.029 H 
ATOM     46  H   LIG d   1       4.396  -1.913  -8.490  0.00  0.00     0.029 H 
BRANCH  44  47
ATOM     47  C   LIG d   1       2.777  -1.548  -9.864  0.00  0.00    -0.045 C 
ATOM     48  H   LIG d   1       3.489  -1.284 -10.647  0.00  0.00     0.030 H 
BRANCH  47  49
ATOM     49  C   LIG d   1       2.333  -3.000 -10.047  0.00  0.00    -0.063 C 
ATOM     50  H   LIG d   1       3.164  -3.666  -9.814  0.00  0.00     0.023 H 
ATOM     51  H   LIG d   1       1.498  -3.212  -9.379  0.00  0.00     0.023 H 
ATOM     52  H   LIG d   1       2.022  -3.157 -11.080  0.00  0.00     0.023 H 
ENDBRANCH  47  49
BRANCH  47  53
ATOM     53  C   LIG d   1       1.559  -0.627  -9.952  0.00  0.00    -0.063 C 
ATOM     54  H   LIG d   1       0.650  -1.228  -9.968  0.00  0.00     0.023 H 
ATOM     55  H   LIG d   1       1.540   0.036  -9.087  0.00  0.00     0.023 H 
ATOM     56  H   LIG d   1       1.618  -0.033 -10.864  0.00  0.00     0.023 H 
ENDBRANCH  47  53
ENDBRANCH  44  47
ENDBRANCH  42  44
BRANCH  42  57
ATOM     57  N   LIG d   1       5.100   0.408  -8.389  0.00  0.00    -0.270 N 
ATOM     58  C   LIG d   1       5.521   1.060  -9.490  0.00  0.00     0.401 C 
ATOM     59  O   LIG d   1       4.711   1.474 -10.297  0.00  0.00    -0.226 OA
ATOM     60  H   LIG d   1       5.740   0.142  -7.709  0.00  0.00     0.153 HD
BRANCH  58  61
ATOM     61  O   LIG d   1       6.837   1.254  -9.698  0.00  0.00    -0.445 OA
BRANCH  61  62
ATOM     62  C   LIG d   1       7.583   0.149 -10.213  0.00  0.00     0.107 C 
BRANCH  62  63
ATOM     63  C   LIG d   1       7.898  -0.826  -9.077  0.00  0.00    -0.025 C 
ATOM     64  H   LIG d   1       8.357  -0.286  -8.250  0.00  0.00     0.027 H 
ATOM     65  H   LIG d   1       6.975  -1.297  -8.737  0.00  0.00     0.027 H 
ATOM     66  H   LIG d   1       8.585  -1.592  -9.436  0.00  0.00     0.027 H 
ENDBRANCH  62  63
BRANCH  62  67
ATOM     67  C   LIG d   1       6.758  -0.566 -11.285  0.00  0.00    -0.025 C 
ATOM     68  H   LIG d   1       6.771  -1.640 -11.098  0.00  0.00     0.027 H 
ATOM     69  H   LIG d   1       5.730  -0.203 -11.254  0.00  0.00     0.027 H 
ATOM     70  H   LIG d   1       7.185  -0.363 -12.267  0.00  0.00     0.027 H 
ENDBRANCH  62  67
BRANCH  62  71
ATOM     71  C   LIG d   1       8.888   0.657 -10.828  0.00  0.00    -0.025 C 
ATOM     72  H   LIG d   1       9.656   0.711 -10.055  0.00  0.00     0.027 H 
ATOM     73  H   LIG d   1       9.210  -0.028 -11.612  0.00  0.00     0.027 H 
ATOM     74  H   LIG d   1       8.729   1.647 -11.253  0.00  0.00     0.027 H 
ENDBRANCH  62  71
ENDBRANCH  61  62
ENDBRANCH  58  61
ENDBRANCH  42  57
ENDBRANCH   1  42
TORSDOF 17
ENDMDL
MODEL 9
REMARK VINA RESULT:      -5.6      3.468      8.039
REMARK  17 active torsions:
REMARK  status: ('A' for Active; 'I' for Inactive)
REMARK    1  A    between atoms: C_1  and  C_2 
REMARK    2  A    between atoms: C_2  and  C_3 
REMARK    3  A    between atoms: C_2  and  C_4 
REMARK    4  A    between atoms: C_4  and  C_5 
REMARK    5  A    between atoms: C_5  and  C_7 
REMARK    6  A    between atoms: C_5  and  N_35 
REMARK    7  A    between atoms: C_10  and  S_12 
REMARK    8  A    between atoms: S_12  and  C_13 
REMARK    9  A    between atoms: C_13  and  C_14 
REMARK       I    between atoms: C_14  and  N_16 
REMARK   10  A    between atoms: C_29  and  C_31 
REMARK   11  A    between atoms: C_31  and  O_33 
REMARK   12  A    between atoms: O_33  and  C_34 
REMARK       I    between atoms: N_35  and  C_36 
REMARK   13  A    between atoms: C_36  and  O_38 
REMARK   14  A    between atoms: O_38  and  C_39 
REMARK   15  A    between atoms: C_39  and  C_40 
REMARK   16  A    between atoms: C_39  and  C_41 
REMARK   17  A    between atoms: C_39  and  C_42 
ROOT
ATOM      1  C   LIG d   1       5.482  -0.600  -7.371  0.00  0.00     0.238 A 
ATOM      2  N   LIG d   1       5.666   0.660  -7.103  0.00  0.00    -0.110 NA
ATOM      3  N   LIG d   1       6.764   1.060  -7.638  0.00  0.00    -0.101 NA
ATOM      4  C   LIG d   1       7.326   0.060  -8.273  0.00  0.00     0.278 A 
ATOM      5  O   LIG d   1       6.529  -1.014  -8.113  0.00  0.00    -0.414 OA
ENDROOT
BRANCH   4   6
ATOM      6  S   LIG d   1       8.845   0.108  -9.166  0.00  0.00    -0.056 SA
BRANCH   6   7
ATOM      7  C   LIG d   1      10.115   0.083  -7.871  0.00  0.00     0.079 C 
ATOM      8  H   LIG d   1      11.103   0.042  -8.331  0.00  0.00     0.048 H 
ATOM      9  H   LIG d   1      10.034   0.986  -7.265  0.00  0.00     0.048 H 
BRANCH   7  10
ATOM     10  C   LIG d   1       9.918  -1.129  -6.997  0.00  0.00     0.227 C 
ATOM     11  O   LIG d   1      10.127  -2.238  -7.442  0.00  0.00    -0.275 OA
ATOM     12  N   LIG d   1       9.507  -0.981  -5.723  0.00  0.00    -0.281 N 
ATOM     13  C   LIG d   1       9.397  -2.141  -4.825  0.00  0.00     0.127 C 
ATOM     14  C   LIG d   1       9.150   0.347  -5.193  0.00  0.00     0.056 C 
ATOM     15  C   LIG d   1       7.932  -2.339  -4.436  0.00  0.00     0.004 C 
ATOM     16  H   LIG d   1       9.991  -1.966  -3.929  0.00  0.00     0.062 H 
ATOM     17  C   LIG d   1       7.336  -1.003  -4.073  0.00  0.00    -0.015 A 
ATOM     18  H   LIG d   1       7.868  -3.011  -3.580  0.00  0.00     0.034 H 
ATOM     19  H   LIG d   1       7.387  -2.766  -5.278  0.00  0.00     0.034 H 
ATOM     20  C   LIG d   1       7.866   0.193  -4.408  0.00  0.00     0.038 A 
ATOM     21  C   LIG d   1       6.122  -0.734  -3.330  0.00  0.00     0.003 A 
ATOM     22  N   LIG d   1       7.074   1.204  -3.935  0.00  0.00    -0.356 N 
ATOM     23  C   LIG d   1       6.002   0.678  -3.272  0.00  0.00     0.047 A 
ATOM     24  H   LIG d   1       7.248   2.151  -4.051  0.00  0.00     0.166 HD
ATOM     25  C   LIG d   1       4.925   1.272  -2.618  0.00  0.00    -0.038 A 
ATOM     26  C   LIG d   1       3.997   0.423  -2.040  0.00  0.00    -0.060 A 
ATOM     27  H   LIG d   1       4.819   2.346  -2.564  0.00  0.00     0.064 H 
ATOM     28  C   LIG d   1       4.119  -0.956  -2.100  0.00  0.00    -0.061 A 
ATOM     29  H   LIG d   1       3.150   0.851  -1.525  0.00  0.00     0.062 H 
ATOM     30  C   LIG d   1       5.169  -1.568  -2.737  0.00  0.00    -0.052 A 
ATOM     31  H   LIG d   1       3.363  -1.568  -1.629  0.00  0.00     0.062 H 
ATOM     32  H   LIG d   1       5.256  -2.644  -2.778  0.00  0.00     0.062 H 
ATOM     33  H   LIG d   1       9.943   0.710  -4.539  0.00  0.00     0.053 H 
ATOM     34  H   LIG d   1       9.000   1.045  -6.016  0.00  0.00     0.053 H 
BRANCH  13  35
ATOM     35  C   LIG d   1       9.899  -3.374  -5.532  0.00  0.00     0.328 C 
ATOM     36  O   LIG d   1      11.078  -3.641  -5.518  0.00  0.00    -0.249 OA
BRANCH  35  37
ATOM     37  O   LIG d   1       9.037  -4.175  -6.177  0.00  0.00    -0.467 OA
BRANCH  37  38
ATOM     38  C   LIG d   1       9.290  -5.581  -6.120  0.00  0.00     0.082 C 
ATOM     39  H   LIG d   1       8.540  -6.110  -6.709  0.00  0.00     0.066 H 
ATOM     40  H   LIG d   1      10.281  -5.788  -6.524  0.00  0.00     0.066 H 
ATOM     41  H   LIG d   1       9.242  -5.917  -5.084  0.00  0.00     0.066 H 
ENDBRANCH  37  38
ENDBRANCH  35  37
ENDBRANCH  13  35
ENDBRANCH   7  10
ENDBRANCH   6   7
ENDBRANCH   4   6
BRANCH   1  42
ATOM     42  C   LIG d   1       4.316  -1.444  -6.928  0.00  0.00     0.104 C 
ATOM     43  H   LIG d   1       3.727  -0.893  -6.194  0.00  0.00     0.060 H 
BRANCH  42  44
ATOM     44  C   LIG d   1       4.832  -2.739  -6.300  0.00  0.00    -0.023 C 
ATOM     45  H   LIG d   1       4.308  -2.923  -5.362  0.00  0.00     0.029 H 
ATOM     46  H   LIG d   1       5.901  -2.648  -6.107  0.00  0.00     0.029 H 
BRANCH  44  47
ATOM     47  C   LIG d   1       4.585  -3.905  -7.260  0.00  0.00    -0.045 C 
ATOM     48  H   LIG d   1       3.944  -3.574  -8.076  0.00  0.00     0.030 H 
BRANCH  47  49
ATOM     49  C   LIG d   1       5.920  -4.392  -7.825  0.00  0.00    -0.063 C 
ATOM     50  H   LIG d   1       5.902  -5.479  -7.916  0.00  0.00     0.023 H 
ATOM     51  H   LIG d   1       6.084  -3.947  -8.806  0.00  0.00     0.023 H 
ATOM     52  H   LIG d   1       6.728  -4.099  -7.153  0.00  0.00     0.023 H 
ENDBRANCH  47  49
BRANCH  47  53
ATOM     53  C   LIG d   1       3.903  -5.049  -6.507  0.00  0.00    -0.063 C 
ATOM     54  H   LIG d   1       2.984  -4.685  -6.048  0.00  0.00     0.023 H 
ATOM     55  H   LIG d   1       3.666  -5.853  -7.204  0.00  0.00     0.023 H 
ATOM     56  H   LIG d   1       4.571  -5.425  -5.733  0.00  0.00     0.023 H 
ENDBRANCH  47  53
ENDBRANCH  44  47
ENDBRANCH  42  44
BRANCH  42  57
ATOM     57  N   LIG d   1       3.478  -1.764  -8.086  0.00  0.00    -0.270 N 
ATOM     58  C   LIG d   1       2.533  -0.895  -8.495  0.00  0.00     0.401 C 
ATOM     59  O   LIG d   1       2.436   0.193  -7.961  0.00  0.00    -0.226 OA
ATOM     60  H   LIG d   1       3.603  -2.602  -8.560  0.00  0.00     0.153 HD
BRANCH  58  61
ATOM     61  O   LIG d   1       1.695  -1.230  -9.495  0.00  0.00    -0.445 OA
BRANCH  61  62
ATOM     62  C   LIG d   1       2.235  -1.240 -10.818  0.00  0.00     0.107 C 
BRANCH  62  63
ATOM     63  C   LIG d   1       3.084  -2.498 -11.013  0.00  0.00    -0.025 C 
ATOM     64  H   LIG d   1       3.550  -2.474 -11.998  0.00  0.00     0.027 H 
ATOM     65  H   LIG d   1       3.858  -2.535 -10.246  0.00  0.00     0.027 H 
ATOM     66  H   LIG d   1       2.450  -3.381 -10.932  0.00  0.00     0.027 H 
ENDBRANCH  62  63
BRANCH  62  67
ATOM     67  C   LIG d   1       1.091  -1.235 -11.835  0.00  0.00    -0.025 C 
ATOM     68  H   LIG d   1       1.453  -1.613 -12.791  0.00  0.00     0.027 H 
ATOM     69  H   LIG d   1       0.282  -1.871 -11.474  0.00  0.00     0.027 H 
ATOM     70  H   LIG d   1       0.723  -0.217 -11.962  0.00  0.00     0.027 H 
ENDBRANCH  62  67
BRANCH  62  71
ATOM     71  C   LIG d   1       3.105   0.001 -11.023  0.00  0.00    -0.025 C 
ATOM     72  H   LIG d   1       2.504   0.796 -11.465  0.00  0.00     0.027 H 
ATOM     73  H   LIG d   1       3.495   0.334 -10.061  0.00  0.00     0.027 H 
ATOM     74  H   LIG d   1       3.933  -0.241 -11.687  0.00  0.00     0.027 H 
ENDBRANCH  62  71
ENDBRANCH  61  62
ENDBRANCH  58  61
ENDBRANCH  42  57
ENDBRANCH   1  42
TORSDOF 17
ENDMDL
MODEL 10
REMARK VINA RESULT:      -5.6      3.793      8.576
REMARK  17 active torsions:
REMARK  status: ('A' for Active; 'I' for Inactive)
REMARK    1  A    between atoms: C_1  and  C_2 
REMARK    2  A    between atoms: C_2  and  C_3 
REMARK    3  A    between atoms: C_2  and  C_4 
REMARK    4  A    between atoms: C_4  and  C_5 
REMARK    5  A    between atoms: C_5  and  C_7 
REMARK    6  A    between atoms: C_5  and  N_35 
REMARK    7  A    between atoms: C_10  and  S_12 
REMARK    8  A    between atoms: S_12  and  C_13 
REMARK    9  A    between atoms: C_13  and  C_14 
REMARK       I    between atoms: C_14  and  N_16 
REMARK   10  A    between atoms: C_29  and  C_31 
REMARK   11  A    between atoms: C_31  and  O_33 
REMARK   12  A    between atoms: O_33  and  C_34 
REMARK       I    between atoms: N_35  and  C_36 
REMARK   13  A    between atoms: C_36  and  O_38 
REMARK   14  A    between atoms: O_38  and  C_39 
REMARK   15  A    between atoms: C_39  and  C_40 
REMARK   16  A    between atoms: C_39  and  C_41 
REMARK   17  A    between atoms: C_39  and  C_42 
ROOT
ATOM      1  C   LIG d   1       5.276   0.587  -8.301  0.00  0.00     0.238 A 
ATOM      2  N   LIG d   1       4.949   1.762  -8.754  0.00  0.00    -0.110 NA
ATOM      3  N   LIG d   1       5.998   2.365  -9.188  0.00  0.00    -0.101 NA
ATOM      4  C   LIG d   1       7.043   1.589  -9.027  0.00  0.00     0.278 A 
ATOM      5  O   LIG d   1       6.609   0.449  -8.457  0.00  0.00    -0.414 OA
ENDROOT
BRANCH   4   6
ATOM      6  S   LIG d   1       8.706   1.968  -9.467  0.00  0.00    -0.056 SA
BRANCH   6   7
ATOM      7  C   LIG d   1       9.543   2.189  -7.873  0.00  0.00     0.079 C 
ATOM      8  H   LIG d   1      10.499   2.689  -8.031  0.00  0.00     0.048 H 
ATOM      9  H   LIG d   1       8.919   2.796  -7.217  0.00  0.00     0.048 H 
BRANCH   7  10
ATOM     10  C   LIG d   1       9.779   0.843  -7.239  0.00  0.00     0.227 C 
ATOM     11  O   LIG d   1      10.250  -0.062  -7.894  0.00  0.00    -0.275 OA
ATOM     12  N   LIG d   1       9.465   0.644  -5.944  0.00  0.00    -0.281 N 
ATOM     13  C   LIG d   1       9.772  -0.632  -5.280  0.00  0.00     0.127 C 
ATOM     14  C   LIG d   1       8.799   1.697  -5.157  0.00  0.00     0.056 C 
ATOM     15  C   LIG d   1       8.467  -1.317  -4.876  0.00  0.00     0.004 C 
ATOM     16  H   LIG d   1      10.374  -0.445  -4.391  0.00  0.00     0.062 H 
ATOM     17  C   LIG d   1       7.554  -0.298  -4.242  0.00  0.00    -0.015 A 
ATOM     18  H   LIG d   1       8.676  -2.113  -4.162  0.00  0.00     0.034 H 
ATOM     19  H   LIG d   1       7.987  -1.735  -5.761  0.00  0.00     0.034 H 
ATOM     20  C   LIG d   1       7.691   1.040  -4.364  0.00  0.00     0.038 A 
ATOM     21  C   LIG d   1       6.390  -0.530  -3.412  0.00  0.00     0.003 A 
ATOM     22  N   LIG d   1       6.694   1.677  -3.675  0.00  0.00    -0.356 N 
ATOM     23  C   LIG d   1       5.882   0.753  -3.081  0.00  0.00     0.047 A 
ATOM     24  H   LIG d   1       6.582   2.639  -3.616  0.00  0.00     0.166 HD
ATOM     25  C   LIG d   1       4.748   0.883  -2.283  0.00  0.00    -0.038 A 
ATOM     26  C   LIG d   1       4.156  -0.287  -1.839  0.00  0.00    -0.060 A 
ATOM     27  H   LIG d   1       4.349   1.852  -2.022  0.00  0.00     0.064 H 
ATOM     28  C   LIG d   1       4.656  -1.537  -2.166  0.00  0.00    -0.061 A 
ATOM     29  H   LIG d   1       3.275  -0.223  -1.219  0.00  0.00     0.062 H 
ATOM     30  C   LIG d   1       5.772  -1.695  -2.950  0.00  0.00    -0.052 A 
ATOM     31  H   LIG d   1       4.152  -2.416  -1.790  0.00  0.00     0.062 H 
ATOM     32  H   LIG d   1       6.154  -2.674  -3.199  0.00  0.00     0.062 H 
ATOM     33  H   LIG d   1       9.516   2.160  -4.479  0.00  0.00     0.053 H 
ATOM     34  H   LIG d   1       8.381   2.450  -5.825  0.00  0.00     0.053 H 
BRANCH  13  35
ATOM     35  C   LIG d   1      10.533  -1.523  -6.228  0.00  0.00     0.328 C 
ATOM     36  O   LIG d   1       9.941  -2.340  -6.895  0.00  0.00    -0.249 OA
BRANCH  35  37
ATOM     37  O   LIG d   1      11.866  -1.410  -6.332  0.00  0.00    -0.467 OA
BRANCH  37  38
ATOM     38  C   LIG d   1      12.583  -1.079  -5.141  0.00  0.00     0.082 C 
ATOM     39  H   LIG d   1      12.816  -0.013  -5.141  0.00  0.00     0.066 H 
ATOM     40  H   LIG d   1      11.972  -1.318  -4.271  0.00  0.00     0.066 H 
ATOM     41  H   LIG d   1      13.510  -1.653  -5.104  0.00  0.00     0.066 H 
ENDBRANCH  37  38
ENDBRANCH  35  37
ENDBRANCH  13  35
ENDBRANCH   7  10
ENDBRANCH   6   7
ENDBRANCH   4   6
BRANCH   1  42
ATOM     42  C   LIG d   1       4.339  -0.432  -7.707  0.00  0.00     0.104 C 
ATOM     43  H   LIG d   1       3.489   0.079  -7.253  0.00  0.00     0.060 H 
BRANCH  42  44
ATOM     44  C   LIG d   1       5.076  -1.243  -6.641  0.00  0.00    -0.023 C 
ATOM     45  H   LIG d   1       4.553  -1.153  -5.688  0.00  0.00     0.029 H 
ATOM     46  H   LIG d   1       6.093  -0.864  -6.534  0.00  0.00     0.029 H 
BRANCH  44  47
ATOM     47  C   LIG d   1       5.122  -2.714  -7.060  0.00  0.00    -0.045 C 
ATOM     48  H   LIG d   1       4.476  -2.865  -7.925  0.00  0.00     0.030 H 
BRANCH  47  49
ATOM     49  C   LIG d   1       6.558  -3.097  -7.423  0.00  0.00    -0.063 C 
ATOM     50  H   LIG d   1       7.121  -2.198  -7.677  0.00  0.00     0.023 H 
ATOM     51  H   LIG d   1       7.028  -3.593  -6.574  0.00  0.00     0.023 H 
ATOM     52  H   LIG d   1       6.548  -3.773  -8.279  0.00  0.00     0.023 H 
ENDBRANCH  47  49
BRANCH  47  53
ATOM     53  C   LIG d   1       4.638  -3.590  -5.903  0.00  0.00    -0.063 C 
ATOM     54  H   LIG d   1       3.593  -3.857  -6.063  0.00  0.00     0.023 H 
ATOM     55  H   LIG d   1       5.241  -4.496  -5.856  0.00  0.00     0.023 H 
ATOM     56  H   LIG d   1       4.733  -3.040  -4.967  0.00  0.00     0.023 H 
ENDBRANCH  47  53
ENDBRANCH  44  47
ENDBRANCH  42  44
BRANCH  42  57
ATOM     57  N   LIG d   1       3.862  -1.330  -8.761  0.00  0.00    -0.270 N 
ATOM     58  C   LIG d   1       2.597  -1.228  -9.213  0.00  0.00     0.401 C 
ATOM     59  O   LIG d   1       1.879  -0.333  -8.812  0.00  0.00    -0.226 OA
ATOM     60  H   LIG d   1       4.458  -1.999  -9.135  0.00  0.00     0.153 HD
BRANCH  58  61
ATOM     61  O   LIG d   1       2.126  -2.117 -10.108  0.00  0.00    -0.445 OA
BRANCH  61  62
ATOM     62  C   LIG d   1       2.153  -1.729 -11.483  0.00  0.00     0.107 C 
BRANCH  62  63
ATOM     63  C   LIG d   1       0.755  -1.278 -11.913  0.00  0.00    -0.025 C 
ATOM     64  H   LIG d   1       0.349  -0.593 -11.170  0.00  0.00     0.027 H 
ATOM     65  H   LIG d   1       0.818  -0.773 -12.878  0.00  0.00     0.027 H 
ATOM     66  H   LIG d   1       0.104  -2.147 -12.000  0.00  0.00     0.027 H 
ENDBRANCH  62  63
BRANCH  62  67
ATOM     67  C   LIG d   1       3.141  -0.574 -11.667  0.00  0.00    -0.025 C 
ATOM     68  H   LIG d   1       3.747  -0.469 -10.767  0.00  0.00     0.027 H 
ATOM     69  H   LIG d   1       3.787  -0.782 -12.520  0.00  0.00     0.027 H 
ATOM     70  H   LIG d   1       2.591   0.349 -11.845  0.00  0.00     0.027 H 
ENDBRANCH  62  67
BRANCH  62  71
ATOM     71  C   LIG d   1       2.593  -2.917 -12.340  0.00  0.00    -0.025 C 
ATOM     72  H   LIG d   1       1.833  -3.122 -13.094  0.00  0.00     0.027 H 
ATOM     73  H   LIG d   1       3.537  -2.681 -12.831  0.00  0.00     0.027 H 
ATOM     74  H   LIG d   1       2.723  -3.794 -11.707  0.00  0.00     0.027 H 
ENDBRANCH  62  71
ENDBRANCH  61  62
ENDBRANCH  58  61
ENDBRANCH  42  57
ENDBRANCH   1  42
TORSDOF 17
ENDMDL
