MODEL 1
REMARK VINA RESULT:      -6.2      0.000      0.000
REMARK  7 active torsions:
REMARK  status: ('A' for Active; 'I' for Inactive)
REMARK    1  A    between atoms: C_1  and  C_2 
REMARK    2  A    between atoms: C_2  and  C_30 
REMARK    3  A    between atoms: C_6  and  C_21 
REMARK    4  A    between atoms: C_17  and  C_19 
REMARK    5  A    between atoms: C_17  and  C_20 
REMARK    6  A    between atoms: C_21  and  N_22 
REMARK       I    between atoms: N_22  and  C_23 
REMARK    7  A    between atoms: C_23  and  C_25 
ROOT
ATOM      1  C   LIG d   1       4.591  -1.728  -8.087  0.00  0.00     0.166 C 
ATOM      2  O   LIG d   1       6.014  -1.910  -8.095  0.00  0.00    -0.341 OA
ATOM      3  C   LIG d   1       6.506  -1.482  -6.799  0.00  0.00     0.118 C 
ATOM      4  H   LIG d   1       7.475  -0.987  -6.863  0.00  0.00     0.065 H 
ATOM      5  C   LIG d   1       6.570  -2.724  -5.915  0.00  0.00     0.106 C 
ATOM      6  H   LIG d   1       7.507  -3.245  -6.112  0.00  0.00     0.064 H 
ATOM      7  O   LIG d   1       6.493  -2.429  -4.515  0.00  0.00    -0.341 OA
ATOM      8  C   LIG d   1       5.288  -1.746  -4.208  0.00  0.00     0.191 C 
ATOM      9  H   LIG d   1       4.427  -2.287  -4.598  0.00  0.00     0.094 H 
ATOM     10  C   LIG d   1       5.426  -0.342  -4.858  0.00  0.00     0.141 C 
ATOM     11  H   LIG d   1       6.384   0.091  -4.573  0.00  0.00     0.068 H 
ATOM     12  C   LIG d   1       5.393  -0.502  -6.350  0.00  0.00     0.121 C 
ATOM     13  H   LIG d   1       5.507   0.467  -6.836  0.00  0.00     0.065 H 
ATOM     14  O   LIG d   1       4.204  -1.162  -6.820  0.00  0.00    -0.341 OA
ATOM     15  O   LIG d   1       4.379   0.384  -4.231  0.00  0.00    -0.338 OA
ATOM     16  C   LIG d   1       4.198  -0.231  -2.934  0.00  0.00     0.168 C 
ATOM     17  O   LIG d   1       5.082  -1.377  -2.843  0.00  0.00    -0.318 OA
ENDROOT
BRANCH   5  18
ATOM     18  C   LIG d   1       5.408  -3.648  -6.285  0.00  0.00     0.041 C 
ATOM     19  H   LIG d   1       4.510  -3.335  -5.752  0.00  0.00     0.049 H 
ATOM     20  H   LIG d   1       5.230  -3.595  -7.360  0.00  0.00     0.049 H 
BRANCH  18  21
ATOM     21  N   LIG d   1       5.742  -5.025  -5.914  0.00  0.00    -0.306 N 
ATOM     22  C   LIG d   1       4.761  -5.935  -5.750  0.00  0.00     0.279 C 
ATOM     23  O   LIG d   1       3.599  -5.613  -5.911  0.00  0.00    -0.267 OA
ATOM     24  H   LIG d   1       6.668  -5.282  -5.784  0.00  0.00     0.149 HD
BRANCH  22  25
ATOM     25  C   LIG d   1       5.095  -7.313  -5.377  0.00  0.00     0.189 A 
ATOM     26  O   LIG d   1       4.212  -8.297  -5.103  0.00  0.00    -0.458 OA
ATOM     27  C   LIG d   1       4.878  -9.421  -4.805  0.00  0.00     0.093 A 
ATOM     28  C   LIG d   1       6.204  -9.173  -4.876  0.00  0.00    -0.023 A 
ATOM     29  H   LIG d   1       4.427 -10.368  -4.547  0.00  0.00     0.103 H 
ATOM     30  C   LIG d   1       6.354  -7.826  -5.241  0.00  0.00    -0.011 A 
ATOM     31  H   LIG d   1       6.999  -9.878  -4.686  0.00  0.00     0.065 H 
ATOM     32  H   LIG d   1       7.284  -7.297  -5.386  0.00  0.00     0.066 H 
ENDBRANCH  22  25
ENDBRANCH  18  21
ENDBRANCH   5  18
BRANCH   1  33
ATOM     33  C   LIG d   1       3.898  -3.078  -8.278  0.00  0.00    -0.011 C 
ATOM     34  H   LIG d   1       3.991  -3.668  -7.367  0.00  0.00     0.028 H 
ATOM     35  H   LIG d   1       2.843  -2.916  -8.501  0.00  0.00     0.028 H 
ATOM     36  H   LIG d   1       4.365  -3.613  -9.106  0.00  0.00     0.028 H 
ENDBRANCH   1  33
BRANCH   1  37
ATOM     37  C   LIG d   1       4.191  -0.780  -9.218  0.00  0.00    -0.011 C 
ATOM     38  H   LIG d   1       4.129  -1.336 -10.154  0.00  0.00     0.028 H 
ATOM     39  H   LIG d   1       3.221  -0.336  -8.994  0.00  0.00     0.028 H 
ATOM     40  H   LIG d   1       4.938   0.010  -9.313  0.00  0.00     0.028 H 
ENDBRANCH   1  37
BRANCH  16  41
ATOM     41  C   LIG d   1       2.746  -0.687  -2.777  0.00  0.00    -0.011 C 
ATOM     42  H   LIG d   1       2.143   0.142  -2.410  0.00  0.00     0.028 H 
ATOM     43  H   LIG d   1       2.363  -1.016  -3.744  0.00  0.00     0.028 H 
ATOM     44  H   LIG d   1       2.700  -1.513  -2.068  0.00  0.00     0.028 H 
ENDBRANCH  16  41
BRANCH  16  45
ATOM     45  C   LIG d   1       4.544   0.775  -1.836  0.00  0.00    -0.011 C 
ATOM     46  H   LIG d   1       5.343   0.373  -1.213  0.00  0.00     0.028 H 
ATOM     47  H   LIG d   1       4.873   1.710  -2.290  0.00  0.00     0.028 H 
ATOM     48  H   LIG d   1       3.663   0.960  -1.221  0.00  0.00     0.028 H 
ENDBRANCH  16  45
TORSDOF 7
ENDMDL
MODEL 2
REMARK VINA RESULT:      -6.1      3.626      7.493
REMARK  7 active torsions:
REMARK  status: ('A' for Active; 'I' for Inactive)
REMARK    1  A    between atoms: C_1  and  C_2 
REMARK    2  A    between atoms: C_2  and  C_30 
REMARK    3  A    between atoms: C_6  and  C_21 
REMARK    4  A    between atoms: C_17  and  C_19 
REMARK    5  A    between atoms: C_17  and  C_20 
REMARK    6  A    between atoms: C_21  and  N_22 
REMARK       I    between atoms: N_22  and  C_23 
REMARK    7  A    between atoms: C_23  and  C_25 
ROOT
ATOM      1  C   LIG d   1       4.591  -1.344  -3.018  0.00  0.00     0.166 C 
ATOM      2  O   LIG d   1       5.811  -2.087  -3.155  0.00  0.00    -0.341 OA
ATOM      3  C   LIG d   1       6.103  -2.168  -4.573  0.00  0.00     0.118 C 
ATOM      4  H   LIG d   1       6.547  -3.123  -4.855  0.00  0.00     0.065 H 
ATOM      5  C   LIG d   1       7.031  -1.002  -4.904  0.00  0.00     0.106 C 
ATOM      6  H   LIG d   1       8.054  -1.291  -4.665  0.00  0.00     0.064 H 
ATOM      7  O   LIG d   1       6.975  -0.604  -6.279  0.00  0.00    -0.341 OA
ATOM      8  C   LIG d   1       5.658  -0.220  -6.641  0.00  0.00     0.191 C 
ATOM      9  H   LIG d   1       5.267   0.521  -5.946  0.00  0.00     0.094 H 
ATOM     10  C   LIG d   1       4.820  -1.528  -6.617  0.00  0.00     0.141 C 
ATOM     11  H   LIG d   1       5.340  -2.296  -7.189  0.00  0.00     0.068 H 
ATOM     12  C   LIG d   1       4.695  -1.988  -5.194  0.00  0.00     0.121 C 
ATOM     13  H   LIG d   1       4.126  -2.916  -5.146  0.00  0.00     0.065 H 
ATOM     14  O   LIG d   1       4.110  -0.997  -4.331  0.00  0.00    -0.341 OA
ATOM     15  O   LIG d   1       3.642  -1.143  -7.311  0.00  0.00    -0.338 OA
ATOM     16  C   LIG d   1       4.049  -0.097  -8.223  0.00  0.00     0.168 C 
ATOM     17  O   LIG d   1       5.452   0.191  -7.994  0.00  0.00    -0.318 OA
ENDROOT
BRANCH   5  18
ATOM     18  C   LIG d   1       6.642   0.193  -4.032  0.00  0.00     0.041 C 
ATOM     19  H   LIG d   1       6.079   0.911  -4.629  0.00  0.00     0.049 H 
ATOM     20  H   LIG d   1       6.027  -0.149  -3.200  0.00  0.00     0.049 H 
BRANCH  18  21
ATOM     21  N   LIG d   1       7.853   0.834  -3.513  0.00  0.00    -0.306 N 
ATOM     22  C   LIG d   1       8.316   1.963  -4.084  0.00  0.00     0.279 C 
ATOM     23  O   LIG d   1       7.728   2.452  -5.031  0.00  0.00    -0.267 OA
ATOM     24  H   LIG d   1       8.323   0.444  -2.758  0.00  0.00     0.149 HD
BRANCH  22  25
ATOM     25  C   LIG d   1       9.528   2.604  -3.565  0.00  0.00     0.189 A 
ATOM     26  O   LIG d   1       9.573   3.709  -2.791  0.00  0.00    -0.458 OA
ATOM     27  C   LIG d   1      10.849   4.001  -2.508  0.00  0.00     0.093 A 
ATOM     28  C   LIG d   1      11.647   3.089  -3.104  0.00  0.00    -0.023 A 
ATOM     29  H   LIG d   1      11.184   4.832  -1.904  0.00  0.00     0.103 H 
ATOM     30  C   LIG d   1      10.812   2.189  -3.784  0.00  0.00    -0.011 A 
ATOM     31  H   LIG d   1      12.726   3.058  -3.065  0.00  0.00     0.065 H 
ATOM     32  H   LIG d   1      11.123   1.336  -4.367  0.00  0.00     0.066 H 
ENDBRANCH  22  25
ENDBRANCH  18  21
ENDBRANCH   5  18
BRANCH   1  33
ATOM     33  C   LIG d   1       4.853  -0.069  -2.214  0.00  0.00    -0.011 C 
ATOM     34  H   LIG d   1       5.241  -0.332  -1.230  0.00  0.00     0.028 H 
ATOM     35  H   LIG d   1       5.581   0.549  -2.739  0.00  0.00     0.028 H 
ATOM     36  H   LIG d   1       3.922   0.486  -2.099  0.00  0.00     0.028 H 
ENDBRANCH   1  33
BRANCH   1  37
ATOM     37  C   LIG d   1       3.549  -2.201  -2.298  0.00  0.00    -0.011 C 
ATOM     38  H   LIG d   1       2.550  -1.912  -2.628  0.00  0.00     0.028 H 
ATOM     39  H   LIG d   1       3.719  -3.252  -2.530  0.00  0.00     0.028 H 
ATOM     40  H   LIG d   1       3.633  -2.049  -1.221  0.00  0.00     0.028 H 
ENDBRANCH   1  37
BRANCH  16  41
ATOM     41  C   LIG d   1       3.217   1.162  -7.968  0.00  0.00    -0.011 C 
ATOM     42  H   LIG d   1       3.259   1.809  -8.844  0.00  0.00     0.028 H 
ATOM     43  H   LIG d   1       2.182   0.879  -7.774  0.00  0.00     0.028 H 
ATOM     44  H   LIG d   1       3.617   1.693  -7.105  0.00  0.00     0.028 H 
ENDBRANCH  16  41
BRANCH  16  45
ATOM     45  C   LIG d   1       3.847  -0.565  -9.665  0.00  0.00    -0.011 C 
ATOM     46  H   LIG d   1       4.556  -1.362  -9.890  0.00  0.00     0.028 H 
ATOM     47  H   LIG d   1       2.831  -0.938  -9.787  0.00  0.00     0.028 H 
ATOM     48  H   LIG d   1       4.012   0.271 -10.345  0.00  0.00     0.028 H 
ENDBRANCH  16  45
TORSDOF 7
ENDMDL
MODEL 3
REMARK VINA RESULT:      -6.0      2.913      4.999
REMARK  7 active torsions:
REMARK  status: ('A' for Active; 'I' for Inactive)
REMARK    1  A    between atoms: C_1  and  C_2 
REMARK    2  A    between atoms: C_2  and  C_30 
REMARK    3  A    between atoms: C_6  and  C_21 
REMARK    4  A    between atoms: C_17  and  C_19 
REMARK    5  A    between atoms: C_17  and  C_20 
REMARK    6  A    between atoms: C_21  and  N_22 
REMARK       I    between atoms: N_22  and  C_23 
REMARK    7  A    between atoms: C_23  and  C_25 
ROOT
ATOM      1  C   LIG d   1       5.155   0.084  -3.208  0.00  0.00     0.166 C 
ATOM      2  O   LIG d   1       4.464  -1.156  -3.003  0.00  0.00    -0.341 OA
ATOM      3  C   LIG d   1       3.758  -1.459  -4.233  0.00  0.00     0.118 C 
ATOM      4  H   LIG d   1       2.791  -1.930  -4.055  0.00  0.00     0.065 H 
ATOM      5  C   LIG d   1       4.673  -2.356  -5.062  0.00  0.00     0.106 C 
ATOM      6  H   LIG d   1       4.552  -3.385  -4.726  0.00  0.00     0.064 H 
ATOM      7  O   LIG d   1       4.404  -2.296  -6.468  0.00  0.00    -0.341 OA
ATOM      8  C   LIG d   1       4.546  -0.972  -6.955  0.00  0.00     0.191 C 
ATOM      9  H   LIG d   1       5.511  -0.556  -6.668  0.00  0.00     0.094 H 
ATOM     10  C   LIG d   1       3.368  -0.170  -6.336  0.00  0.00     0.141 C 
ATOM     11  H   LIG d   1       2.439  -0.714  -6.502  0.00  0.00     0.068 H 
ATOM     12  C   LIG d   1       3.599  -0.050  -4.858  0.00  0.00     0.121 C 
ATOM     13  H   LIG d   1       2.777   0.493  -4.391  0.00  0.00     0.065 H 
ATOM     14  O   LIG d   1       4.857   0.567  -4.532  0.00  0.00    -0.341 OA
ATOM     15  O   LIG d   1       3.365   1.014  -7.120  0.00  0.00    -0.338 OA
ATOM     16  C   LIG d   1       3.897   0.631  -8.409  0.00  0.00     0.168 C 
ATOM     17  O   LIG d   1       4.295  -0.762  -8.346  0.00  0.00    -0.318 OA
ENDROOT
BRANCH   5  18
ATOM     18  C   LIG d   1       6.122  -1.929  -4.823  0.00  0.00     0.041 C 
ATOM     19  H   LIG d   1       6.599  -1.707  -5.778  0.00  0.00     0.049 H 
ATOM     20  H   LIG d   1       6.140  -1.039  -4.193  0.00  0.00     0.049 H 
BRANCH  18  21
ATOM     21  N   LIG d   1       6.847  -3.013  -4.156  0.00  0.00    -0.306 N 
ATOM     22  C   LIG d   1       8.174  -3.154  -4.346  0.00  0.00     0.279 C 
ATOM     23  O   LIG d   1       8.770  -2.381  -5.072  0.00  0.00    -0.267 OA
ATOM     24  H   LIG d   1       6.372  -3.630  -3.577  0.00  0.00     0.149 HD
BRANCH  22  25
ATOM     25  C   LIG d   1       8.899  -4.240  -3.678  0.00  0.00     0.189 A 
ATOM     26  O   LIG d   1       9.011  -5.509  -4.122  0.00  0.00    -0.458 OA
ATOM     27  C   LIG d   1       9.747  -6.219  -3.257  0.00  0.00     0.093 A 
ATOM     28  C   LIG d   1      10.113  -5.415  -2.235  0.00  0.00    -0.023 A 
ATOM     29  H   LIG d   1      10.002  -7.264  -3.358  0.00  0.00     0.103 H 
ATOM     30  C   LIG d   1       9.575  -4.145  -2.495  0.00  0.00    -0.011 A 
ATOM     31  H   LIG d   1      10.707  -5.696  -1.378  0.00  0.00     0.065 H 
ATOM     32  H   LIG d   1       9.675  -3.264  -1.879  0.00  0.00     0.066 H 
ENDBRANCH  22  25
ENDBRANCH  18  21
ENDBRANCH   5  18
BRANCH   1  33
ATOM     33  C   LIG d   1       6.662  -0.137  -3.069  0.00  0.00    -0.011 C 
ATOM     34  H   LIG d   1       7.186   0.439  -3.831  0.00  0.00     0.028 H 
ATOM     35  H   LIG d   1       6.988   0.188  -2.080  0.00  0.00     0.028 H 
ATOM     36  H   LIG d   1       6.888  -1.196  -3.196  0.00  0.00     0.028 H 
ENDBRANCH   1  33
BRANCH   1  37
ATOM     37  C   LIG d   1       4.688   1.106  -2.170  0.00  0.00    -0.011 C 
ATOM     38  H   LIG d   1       4.382   0.588  -1.260  0.00  0.00     0.028 H 
ATOM     39  H   LIG d   1       5.504   1.791  -1.941  0.00  0.00     0.028 H 
ATOM     40  H   LIG d   1       3.843   1.670  -2.568  0.00  0.00     0.028 H 
ENDBRANCH   1  37
BRANCH  16  41
ATOM     41  C   LIG d   1       5.111   1.499  -8.746  0.00  0.00    -0.011 C 
ATOM     42  H   LIG d   1       5.879   1.360  -7.985  0.00  0.00     0.028 H 
ATOM     43  H   LIG d   1       5.506   1.207  -9.719  0.00  0.00     0.028 H 
ATOM     44  H   LIG d   1       4.812   2.546  -8.774  0.00  0.00     0.028 H 
ENDBRANCH  16  41
BRANCH  16  45
ATOM     45  C   LIG d   1       2.821   0.811  -9.482  0.00  0.00    -0.011 C 
ATOM     46  H   LIG d   1       3.079   0.216 -10.359  0.00  0.00     0.028 H 
ATOM     47  H   LIG d   1       1.859   0.483  -9.090  0.00  0.00     0.028 H 
ATOM     48  H   LIG d   1       2.760   1.863  -9.762  0.00  0.00     0.028 H 
ENDBRANCH  16  45
TORSDOF 7
ENDMDL
MODEL 4
REMARK VINA RESULT:      -5.7      4.106      5.501
REMARK  7 active torsions:
REMARK  status: ('A' for Active; 'I' for Inactive)
REMARK    1  A    between atoms: C_1  and  C_2 
REMARK    2  A    between atoms: C_2  and  C_30 
REMARK    3  A    between atoms: C_6  and  C_21 
REMARK    4  A    between atoms: C_17  and  C_19 
REMARK    5  A    between atoms: C_17  and  C_20 
REMARK    6  A    between atoms: C_21  and  N_22 
REMARK       I    between atoms: N_22  and  C_23 
REMARK    7  A    between atoms: C_23  and  C_25 
ROOT
ATOM      1  C   LIG d   1       8.456   1.689  -6.586  0.00  0.00     0.166 C 
ATOM      2  O   LIG d   1       8.915   0.336  -6.716  0.00  0.00    -0.341 OA
ATOM      3  C   LIG d   1       8.226  -0.447  -5.709  0.00  0.00     0.118 C 
ATOM      4  H   LIG d   1       8.857  -1.227  -5.282  0.00  0.00     0.065 H 
ATOM      5  C   LIG d   1       6.984  -1.034  -6.373  0.00  0.00     0.106 C 
ATOM      6  H   LIG d   1       7.268  -1.944  -6.903  0.00  0.00     0.064 H 
ATOM      7  O   LIG d   1       5.939  -1.349  -5.446  0.00  0.00    -0.341 OA
ATOM      8  C   LIG d   1       5.536  -0.194  -4.728  0.00  0.00     0.191 C 
ATOM      9  H   LIG d   1       5.296   0.621  -5.409  0.00  0.00     0.094 H 
ATOM     10  C   LIG d   1       6.732   0.163  -3.804  0.00  0.00     0.141 C 
ATOM     11  H   LIG d   1       7.046  -0.730  -3.265  0.00  0.00     0.068 H 
ATOM     12  C   LIG d   1       7.870   0.637  -4.660  0.00  0.00     0.121 C 
ATOM     13  H   LIG d   1       8.734   0.877  -4.040  0.00  0.00     0.065 H 
ATOM     14  O   LIG d   1       7.522   1.757  -5.491  0.00  0.00    -0.341 OA
ATOM     15  O   LIG d   1       6.144   1.079  -2.891  0.00  0.00    -0.338 OA
ATOM     16  C   LIG d   1       4.748   0.712  -2.814  0.00  0.00     0.168 C 
ATOM     17  O   LIG d   1       4.502  -0.363  -3.754  0.00  0.00    -0.318 OA
ENDROOT
BRANCH   5  18
ATOM     18  C   LIG d   1       6.450  -0.022  -7.388  0.00  0.00     0.041 C 
ATOM     19  H   LIG d   1       6.046   0.843  -6.862  0.00  0.00     0.049 H 
ATOM     20  H   LIG d   1       7.260   0.297  -8.045  0.00  0.00     0.049 H 
BRANCH  18  21
ATOM     21  N   LIG d   1       5.391  -0.645  -8.188  0.00  0.00    -0.306 N 
ATOM     22  C   LIG d   1       4.177  -0.066  -8.266  0.00  0.00     0.279 C 
ATOM     23  O   LIG d   1       3.959   0.975  -7.675  0.00  0.00    -0.267 OA
ATOM     24  H   LIG d   1       5.564  -1.475  -8.660  0.00  0.00     0.149 HD
BRANCH  22  25
ATOM     25  C   LIG d   1       3.118  -0.689  -9.066  0.00  0.00     0.189 A 
ATOM     26  O   LIG d   1       2.897  -2.015  -9.195  0.00  0.00    -0.458 OA
ATOM     27  C   LIG d   1       1.844  -2.214  -9.999  0.00  0.00     0.093 A 
ATOM     28  C   LIG d   1       1.376  -1.014 -10.407  0.00  0.00    -0.023 A 
ATOM     29  H   LIG d   1       1.439  -3.176 -10.277  0.00  0.00     0.103 H 
ATOM     30  C   LIG d   1       2.184  -0.031  -9.815  0.00  0.00    -0.011 A 
ATOM     31  H   LIG d   1       0.537  -0.844 -11.065  0.00  0.00     0.065 H 
ATOM     32  H   LIG d   1       2.088   1.038  -9.931  0.00  0.00     0.066 H 
ENDBRANCH  22  25
ENDBRANCH  18  21
ENDBRANCH   5  18
BRANCH   1  33
ATOM     33  C   LIG d   1       7.764   2.125  -7.879  0.00  0.00    -0.011 C 
ATOM     34  H   LIG d   1       7.995   3.170  -8.081  0.00  0.00     0.028 H 
ATOM     35  H   LIG d   1       8.118   1.508  -8.706  0.00  0.00     0.028 H 
ATOM     36  H   LIG d   1       6.686   2.005  -7.773  0.00  0.00     0.028 H 
ENDBRANCH   1  33
BRANCH   1  37
ATOM     37  C   LIG d   1       9.646   2.608  -6.305  0.00  0.00    -0.011 C 
ATOM     38  H   LIG d   1       9.536   3.530  -6.876  0.00  0.00     0.028 H 
ATOM     39  H   LIG d   1       9.683   2.841  -5.241  0.00  0.00     0.028 H 
ATOM     40  H   LIG d   1      10.570   2.107  -6.599  0.00  0.00     0.028 H 
ENDBRANCH   1  37
BRANCH  16  41
ATOM     41  C   LIG d   1       3.877   1.918  -3.173  0.00  0.00    -0.011 C 
ATOM     42  H   LIG d   1       2.908   1.826  -2.683  0.00  0.00     0.028 H 
ATOM     43  H   LIG d   1       4.368   2.832  -2.837  0.00  0.00     0.028 H 
ATOM     44  H   LIG d   1       3.737   1.957  -4.253  0.00  0.00     0.028 H 
ENDBRANCH  16  41
BRANCH  16  45
ATOM     45  C   LIG d   1       4.417   0.242  -1.396  0.00  0.00    -0.011 C 
ATOM     46  H   LIG d   1       3.449   0.645  -1.096  0.00  0.00     0.028 H 
ATOM     47  H   LIG d   1       4.380  -0.846  -1.374  0.00  0.00     0.028 H 
ATOM     48  H   LIG d   1       5.186   0.594  -0.708  0.00  0.00     0.028 H 
ENDBRANCH  16  45
TORSDOF 7
ENDMDL
MODEL 5
REMARK VINA RESULT:      -5.6      2.270      6.407
REMARK  7 active torsions:
REMARK  status: ('A' for Active; 'I' for Inactive)
REMARK    1  A    between atoms: C_1  and  C_2 
REMARK    2  A    between atoms: C_2  and  C_30 
REMARK    3  A    between atoms: C_6  and  C_21 
REMARK    4  A    between atoms: C_17  and  C_19 
REMARK    5  A    between atoms: C_17  and  C_20 
REMARK    6  A    between atoms: C_21  and  N_22 
REMARK       I    between atoms: N_22  and  C_23 
REMARK    7  A    between atoms: C_23  and  C_25 
ROOT
ATOM      1  C   LIG d   1       4.187  -0.403  -3.459  0.00  0.00     0.166 C 
ATOM      2  O   LIG d   1       5.063   0.532  -4.106  0.00  0.00    -0.341 OA
ATOM      3  C   LIG d   1       6.026  -0.242  -4.866  0.00  0.00     0.118 C 
ATOM      4  H   LIG d   1       7.018   0.208  -4.864  0.00  0.00     0.065 H 
ATOM      5  C   LIG d   1       5.473  -0.372  -6.282  0.00  0.00     0.106 C 
ATOM      6  H   LIG d   1       5.734   0.525  -6.843  0.00  0.00     0.064 H 
ATOM      7  O   LIG d   1       5.976  -1.516  -6.984  0.00  0.00    -0.341 OA
ATOM      8  C   LIG d   1       5.662  -2.713  -6.290  0.00  0.00     0.191 C 
ATOM      9  H   LIG d   1       4.598  -2.761  -6.063  0.00  0.00     0.094 H 
ATOM     10  C   LIG d   1       6.525  -2.685  -4.999  0.00  0.00     0.141 C 
ATOM     11  H   LIG d   1       7.558  -2.464  -5.263  0.00  0.00     0.068 H 
ATOM     12  C   LIG d   1       6.011  -1.593  -4.106  0.00  0.00     0.121 C 
ATOM     13  H   LIG d   1       6.609  -1.535  -3.197  0.00  0.00     0.065 H 
ATOM     14  O   LIG d   1       4.618  -1.739  -3.781  0.00  0.00    -0.341 OA
ATOM     15  O   LIG d   1       6.433  -4.028  -4.547  0.00  0.00    -0.338 OA
ATOM     16  C   LIG d   1       6.232  -4.828  -5.734  0.00  0.00     0.168 C 
ATOM     17  O   LIG d   1       6.114  -3.937  -6.873  0.00  0.00    -0.318 OA
ENDROOT
BRANCH   5  18
ATOM     18  C   LIG d   1       3.949  -0.476  -6.204  0.00  0.00     0.041 C 
ATOM     19  H   LIG d   1       3.673  -1.212  -5.449  0.00  0.00     0.049 H 
ATOM     20  H   LIG d   1       3.532   0.495  -5.935  0.00  0.00     0.049 H 
BRANCH  18  21
ATOM     21  N   LIG d   1       3.421  -0.891  -7.506  0.00  0.00    -0.306 N 
ATOM     22  C   LIG d   1       3.051   0.039  -8.410  0.00  0.00     0.279 C 
ATOM     23  O   LIG d   1       3.156   1.222  -8.145  0.00  0.00    -0.267 OA
ATOM     24  H   LIG d   1       3.337  -1.834  -7.718  0.00  0.00     0.149 HD
BRANCH  22  25
ATOM     25  C   LIG d   1       2.522  -0.376  -9.713  0.00  0.00     0.189 A 
ATOM     26  O   LIG d   1       3.213  -0.423 -10.872  0.00  0.00    -0.458 OA
ATOM     27  C   LIG d   1       2.407  -0.851 -11.852  0.00  0.00     0.093 A 
ATOM     28  C   LIG d   1       1.179  -1.079 -11.338  0.00  0.00    -0.023 A 
ATOM     29  H   LIG d   1       2.692  -0.988 -12.885  0.00  0.00     0.103 H 
ATOM     30  C   LIG d   1       1.241  -0.778  -9.969  0.00  0.00    -0.011 A 
ATOM     31  H   LIG d   1       0.311  -1.427 -11.879  0.00  0.00     0.065 H 
ATOM     32  H   LIG d   1       0.434  -0.849  -9.256  0.00  0.00     0.066 H 
ENDBRANCH  22  25
ENDBRANCH  18  21
ENDBRANCH   5  18
BRANCH   1  33
ATOM     33  C   LIG d   1       2.754  -0.192  -3.953  0.00  0.00    -0.011 C 
ATOM     34  H   LIG d   1       2.390  -1.109  -4.414  0.00  0.00     0.028 H 
ATOM     35  H   LIG d   1       2.114   0.070  -3.109  0.00  0.00     0.028 H 
ATOM     36  H   LIG d   1       2.737   0.614  -4.685  0.00  0.00     0.028 H 
ENDBRANCH   1  33
BRANCH   1  37
ATOM     37  C   LIG d   1       4.245  -0.194  -1.945  0.00  0.00    -0.011 C 
ATOM     38  H   LIG d   1       4.611   0.811  -1.730  0.00  0.00     0.028 H 
ATOM     39  H   LIG d   1       3.248  -0.316  -1.523  0.00  0.00     0.028 H 
ATOM     40  H   LIG d   1       4.919  -0.928  -1.502  0.00  0.00     0.028 H 
ENDBRANCH   1  37
BRANCH  16  41
ATOM     41  C   LIG d   1       4.950  -5.651  -5.591  0.00  0.00    -0.011 C 
ATOM     42  H   LIG d   1       5.205  -6.678  -5.332  0.00  0.00     0.028 H 
ATOM     43  H   LIG d   1       4.330  -5.221  -4.804  0.00  0.00     0.028 H 
ATOM     44  H   LIG d   1       4.403  -5.638  -6.533  0.00  0.00     0.028 H 
ENDBRANCH  16  41
BRANCH  16  45
ATOM     45  C   LIG d   1       7.425  -5.763  -5.933  0.00  0.00    -0.011 C 
ATOM     46  H   LIG d   1       8.196  -5.530  -5.197  0.00  0.00     0.028 H 
ATOM     47  H   LIG d   1       7.103  -6.796  -5.805  0.00  0.00     0.028 H 
ATOM     48  H   LIG d   1       7.829  -5.630  -6.936  0.00  0.00     0.028 H 
ENDBRANCH  16  45
TORSDOF 7
ENDMDL
MODEL 6
REMARK VINA RESULT:      -5.6      4.188      6.967
REMARK  7 active torsions:
REMARK  status: ('A' for Active; 'I' for Inactive)
REMARK    1  A    between atoms: C_1  and  C_2 
REMARK    2  A    between atoms: C_2  and  C_30 
REMARK    3  A    between atoms: C_6  and  C_21 
REMARK    4  A    between atoms: C_17  and  C_19 
REMARK    5  A    between atoms: C_17  and  C_20 
REMARK    6  A    between atoms: C_21  and  N_22 
REMARK       I    between atoms: N_22  and  C_23 
REMARK    7  A    between atoms: C_23  and  C_25 
ROOT
ATOM      1  C   LIG d   1       6.408  -0.128 -10.000  0.00  0.00     0.166 C 
ATOM      2  O   LIG d   1       6.033   1.234  -9.750  0.00  0.00    -0.341 OA
ATOM      3  C   LIG d   1       4.647   1.375 -10.151  0.00  0.00     0.118 C 
ATOM      4  H   LIG d   1       4.438   2.347 -10.599  0.00  0.00     0.065 H 
ATOM      5  C   LIG d   1       3.797   1.141  -8.905  0.00  0.00     0.106 C 
ATOM      6  H   LIG d   1       3.741   2.071  -8.340  0.00  0.00     0.064 H 
ATOM      7  O   LIG d   1       2.466   0.701  -9.200  0.00  0.00    -0.341 OA
ATOM      8  C   LIG d   1       2.486  -0.510  -9.939  0.00  0.00     0.191 C 
ATOM      9  H   LIG d   1       3.103  -1.257  -9.441  0.00  0.00     0.094 H 
ATOM     10  C   LIG d   1       3.053  -0.137 -11.336  0.00  0.00     0.141 C 
ATOM     11  H   LIG d   1       2.513   0.727 -11.722  0.00  0.00     0.068 H 
ATOM     12  C   LIG d   1       4.500   0.228 -11.182  0.00  0.00     0.121 C 
ATOM     13  H   LIG d   1       4.923   0.514 -12.145  0.00  0.00     0.065 H 
ATOM     14  O   LIG d   1       5.284  -0.818 -10.582  0.00  0.00    -0.341 OA
ATOM     15  O   LIG d   1       2.721  -1.281 -12.111  0.00  0.00    -0.338 OA
ATOM     16  C   LIG d   1       1.532  -1.834 -11.502  0.00  0.00     0.168 C 
ATOM     17  O   LIG d   1       1.222  -1.061 -10.315  0.00  0.00    -0.318 OA
ENDROOT
BRANCH   5  18
ATOM     18  C   LIG d   1       4.482   0.082  -8.039  0.00  0.00     0.041 C 
ATOM     19  H   LIG d   1       4.040  -0.894  -8.240  0.00  0.00     0.049 H 
ATOM     20  H   LIG d   1       5.547   0.054  -8.274  0.00  0.00     0.049 H 
BRANCH  18  21
ATOM     21  N   LIG d   1       4.303   0.417  -6.624  0.00  0.00    -0.306 N 
ATOM     22  C   LIG d   1       4.378  -0.550  -5.688  0.00  0.00     0.279 C 
ATOM     23  O   LIG d   1       4.594  -1.701  -6.017  0.00  0.00    -0.267 OA
ATOM     24  H   LIG d   1       4.130   1.335  -6.361  0.00  0.00     0.149 HD
BRANCH  22  25
ATOM     25  C   LIG d   1       4.198  -0.214  -4.272  0.00  0.00     0.189 A 
ATOM     26  O   LIG d   1       3.781   0.974  -3.785  0.00  0.00    -0.458 OA
ATOM     27  C   LIG d   1       3.732   0.913  -2.448  0.00  0.00     0.093 A 
ATOM     28  C   LIG d   1       4.127  -0.317  -2.053  0.00  0.00    -0.023 A 
ATOM     29  H   LIG d   1       3.431   1.718  -1.793  0.00  0.00     0.103 H 
ATOM     30  C   LIG d   1       4.427  -1.047  -3.214  0.00  0.00    -0.011 A 
ATOM     31  H   LIG d   1       4.199  -0.672  -1.036  0.00  0.00     0.065 H 
ATOM     32  H   LIG d   1       4.773  -2.068  -3.261  0.00  0.00     0.066 H 
ENDBRANCH  22  25
ENDBRANCH  18  21
ENDBRANCH   5  18
BRANCH   1  33
ATOM     33  C   LIG d   1       6.801  -0.805  -8.685  0.00  0.00    -0.011 C 
ATOM     34  H   LIG d   1       7.450  -0.141  -8.114  0.00  0.00     0.028 H 
ATOM     35  H   LIG d   1       5.903  -1.022  -8.106  0.00  0.00     0.028 H 
ATOM     36  H   LIG d   1       7.329  -1.734  -8.898  0.00  0.00     0.028 H 
ENDBRANCH   1  33
BRANCH   1  37
ATOM     37  C   LIG d   1       7.590  -0.164 -10.969  0.00  0.00    -0.011 C 
ATOM     38  H   LIG d   1       8.523  -0.196 -10.404  0.00  0.00     0.028 H 
ATOM     39  H   LIG d   1       7.517  -1.049 -11.601  0.00  0.00     0.028 H 
ATOM     40  H   LIG d   1       7.576   0.730 -11.595  0.00  0.00     0.028 H 
ENDBRANCH   1  37
BRANCH  16  41
ATOM     41  C   LIG d   1       1.780  -3.293 -11.116  0.00  0.00    -0.011 C 
ATOM     42  H   LIG d   1       0.885  -3.880 -11.319  0.00  0.00     0.028 H 
ATOM     43  H   LIG d   1       2.612  -3.686 -11.701  0.00  0.00     0.028 H 
ATOM     44  H   LIG d   1       2.022  -3.352 -10.055  0.00  0.00     0.028 H 
ENDBRANCH  16  41
BRANCH  16  45
ATOM     45  C   LIG d   1       0.365  -1.753 -12.488  0.00  0.00    -0.011 C 
ATOM     46  H   LIG d   1      -0.312  -0.954 -12.185  0.00  0.00     0.028 H 
ATOM     47  H   LIG d   1       0.748  -1.545 -13.487  0.00  0.00     0.028 H 
ATOM     48  H   LIG d   1      -0.172  -2.701 -12.495  0.00  0.00     0.028 H 
ENDBRANCH  16  45
TORSDOF 7
ENDMDL
MODEL 7
REMARK VINA RESULT:      -5.5      4.256      6.308
REMARK  7 active torsions:
REMARK  status: ('A' for Active; 'I' for Inactive)
REMARK    1  A    between atoms: C_1  and  C_2 
REMARK    2  A    between atoms: C_2  and  C_30 
REMARK    3  A    between atoms: C_6  and  C_21 
REMARK    4  A    between atoms: C_17  and  C_19 
REMARK    5  A    between atoms: C_17  and  C_20 
REMARK    6  A    between atoms: C_21  and  N_22 
REMARK       I    between atoms: N_22  and  C_23 
REMARK    7  A    between atoms: C_23  and  C_25 
ROOT
ATOM      1  C   LIG d   1       8.501   1.724  -4.851  0.00  0.00     0.166 C 
ATOM      2  O   LIG d   1       9.126   0.443  -5.008  0.00  0.00    -0.341 OA
ATOM      3  C   LIG d   1       8.119  -0.561  -4.723  0.00  0.00     0.118 C 
ATOM      4  H   LIG d   1       8.529  -1.430  -4.208  0.00  0.00     0.065 H 
ATOM      5  C   LIG d   1       7.486  -0.948  -6.056  0.00  0.00     0.106 C 
ATOM      6  H   LIG d   1       8.115  -1.699  -6.536  0.00  0.00     0.064 H 
ATOM      7  O   LIG d   1       6.161  -1.475  -5.924  0.00  0.00    -0.341 OA
ATOM      8  C   LIG d   1       5.303  -0.533  -5.300  0.00  0.00     0.191 C 
ATOM      9  H   LIG d   1       5.352   0.430  -5.807  0.00  0.00     0.094 H 
ATOM     10  C   LIG d   1       5.791  -0.433  -3.829  0.00  0.00     0.141 C 
ATOM     11  H   LIG d   1       5.889  -1.436  -3.416  0.00  0.00     0.068 H 
ATOM     12  C   LIG d   1       7.138   0.228  -3.819  0.00  0.00     0.121 C 
ATOM     13  H   LIG d   1       7.517   0.296  -2.799  0.00  0.00     0.065 H 
ATOM     14  O   LIG d   1       7.135   1.526  -4.439  0.00  0.00    -0.341 OA
ATOM     15  O   LIG d   1       4.706   0.231  -3.197  0.00  0.00    -0.338 OA
ATOM     16  C   LIG d   1       3.530  -0.128  -3.958  0.00  0.00     0.168 C 
ATOM     17  O   LIG d   1       3.945  -0.930  -5.092  0.00  0.00    -0.318 OA
ENDROOT
BRANCH   5  18
ATOM     18  C   LIG d   1       7.434   0.292  -6.950  0.00  0.00     0.041 C 
ATOM     19  H   LIG d   1       6.796   1.046  -6.489  0.00  0.00     0.049 H 
ATOM     20  H   LIG d   1       8.440   0.693  -7.074  0.00  0.00     0.049 H 
BRANCH  18  21
ATOM     21  N   LIG d   1       6.890  -0.074  -8.261  0.00  0.00    -0.306 N 
ATOM     22  C   LIG d   1       5.981   0.722  -8.859  0.00  0.00     0.279 C 
ATOM     23  O   LIG d   1       5.613   1.745  -8.312  0.00  0.00    -0.267 OA
ATOM     24  H   LIG d   1       7.183  -0.889  -8.698  0.00  0.00     0.149 HD
BRANCH  22  25
ATOM     25  C   LIG d   1       5.437   0.356 -10.170  0.00  0.00     0.189 A 
ATOM     26  O   LIG d   1       5.989  -0.511 -11.045  0.00  0.00    -0.458 OA
ATOM     27  C   LIG d   1       5.213  -0.599 -12.133  0.00  0.00     0.093 A 
ATOM     28  C   LIG d   1       4.150   0.220 -11.977  0.00  0.00    -0.023 A 
ATOM     29  H   LIG d   1       5.408  -1.220 -12.995  0.00  0.00     0.103 H 
ATOM     30  C   LIG d   1       4.283   0.836 -10.723  0.00  0.00    -0.011 A 
ATOM     31  H   LIG d   1       3.348   0.373 -12.684  0.00  0.00     0.065 H 
ATOM     32  H   LIG d   1       3.607   1.552 -10.281  0.00  0.00     0.066 H 
ENDBRANCH  22  25
ENDBRANCH  18  21
ENDBRANCH   5  18
BRANCH   1  33
ATOM     33  C   LIG d   1       8.532   2.479  -6.182  0.00  0.00    -0.011 C 
ATOM     34  H   LIG d   1       8.810   1.794  -6.982  0.00  0.00     0.028 H 
ATOM     35  H   LIG d   1       7.545   2.895  -6.386  0.00  0.00     0.028 H 
ATOM     36  H   LIG d   1       9.261   3.286  -6.126  0.00  0.00     0.028 H 
ENDBRANCH   1  33
BRANCH   1  37
ATOM     37  C   LIG d   1       9.247   2.530  -3.787  0.00  0.00    -0.011 C 
ATOM     38  H   LIG d   1       8.542   3.171  -3.255  0.00  0.00     0.028 H 
ATOM     39  H   LIG d   1       9.723   1.849  -3.081  0.00  0.00     0.028 H 
ATOM     40  H   LIG d   1      10.009   3.147  -4.265  0.00  0.00     0.028 H 
ENDBRANCH   1  37
BRANCH  16  41
ATOM     41  C   LIG d   1       2.829   1.139  -4.453  0.00  0.00    -0.011 C 
ATOM     42  H   LIG d   1       3.137   1.348  -5.477  0.00  0.00     0.028 H 
ATOM     43  H   LIG d   1       1.749   0.991  -4.421  0.00  0.00     0.028 H 
ATOM     44  H   LIG d   1       3.100   1.977  -3.812  0.00  0.00     0.028 H 
ENDBRANCH  16  41
BRANCH  16  45
ATOM     45  C   LIG d   1       2.575  -0.936  -3.078  0.00  0.00    -0.011 C 
ATOM     46  H   LIG d   1       3.019  -1.074  -2.091  0.00  0.00     0.028 H 
ATOM     47  H   LIG d   1       1.631  -0.400  -2.980  0.00  0.00     0.028 H 
ATOM     48  H   LIG d   1       2.395  -1.909  -3.534  0.00  0.00     0.028 H 
ENDBRANCH  16  45
TORSDOF 7
ENDMDL
MODEL 8
REMARK VINA RESULT:      -5.5      6.088      8.144
REMARK  7 active torsions:
REMARK  status: ('A' for Active; 'I' for Inactive)
REMARK    1  A    between atoms: C_1  and  C_2 
REMARK    2  A    between atoms: C_2  and  C_30 
REMARK    3  A    between atoms: C_6  and  C_21 
REMARK    4  A    between atoms: C_17  and  C_19 
REMARK    5  A    between atoms: C_17  and  C_20 
REMARK    6  A    between atoms: C_21  and  N_22 
REMARK       I    between atoms: N_22  and  C_23 
REMARK    7  A    between atoms: C_23  and  C_25 
ROOT
ATOM      1  C   LIG d   1      10.478   2.126  -6.494  0.00  0.00     0.166 C 
ATOM      2  O   LIG d   1      10.818   1.434  -5.285  0.00  0.00    -0.341 OA
ATOM      3  C   LIG d   1      11.019   2.441  -4.260  0.00  0.00     0.118 C 
ATOM      4  H   LIG d   1      11.821   2.180  -3.569  0.00  0.00     0.065 H 
ATOM      5  C   LIG d   1       9.687   2.608  -3.533  0.00  0.00     0.106 C 
ATOM      6  H   LIG d   1       9.605   1.832  -2.772  0.00  0.00     0.064 H 
ATOM      7  O   LIG d   1       9.540   3.887  -2.905  0.00  0.00    -0.341 OA
ATOM      8  C   LIG d   1       9.642   4.932  -3.858  0.00  0.00     0.191 C 
ATOM      9  H   LIG d   1       8.962   4.764  -4.692  0.00  0.00     0.094 H 
ATOM     10  C   LIG d   1      11.125   4.935  -4.318  0.00  0.00     0.141 C 
ATOM     11  H   LIG d   1      11.772   4.932  -3.442  0.00  0.00     0.068 H 
ATOM     12  C   LIG d   1      11.380   3.685  -5.110  0.00  0.00     0.121 C 
ATOM     13  H   LIG d   1      12.421   3.648  -5.432  0.00  0.00     0.065 H 
ATOM     14  O   LIG d   1      10.501   3.544  -6.239  0.00  0.00    -0.341 OA
ATOM     15  O   LIG d   1      11.234   6.188  -4.978  0.00  0.00    -0.338 OA
ATOM     16  C   LIG d   1      10.264   7.051  -4.340  0.00  0.00     0.168 C 
ATOM     17  O   LIG d   1       9.525   6.270  -3.367  0.00  0.00    -0.318 OA
ENDROOT
BRANCH   5  18
ATOM     18  C   LIG d   1       8.554   2.425  -4.544  0.00  0.00     0.041 C 
ATOM     19  H   LIG d   1       8.362   3.371  -5.051  0.00  0.00     0.049 H 
ATOM     20  H   LIG d   1       8.839   1.671  -5.278  0.00  0.00     0.049 H 
BRANCH  18  21
ATOM     21  N   LIG d   1       7.342   1.991  -3.845  0.00  0.00    -0.306 N 
ATOM     22  C   LIG d   1       7.065   0.677  -3.729  0.00  0.00     0.279 C 
ATOM     23  O   LIG d   1       7.821  -0.150  -4.204  0.00  0.00    -0.267 OA
ATOM     24  H   LIG d   1       6.738   2.649  -3.465  0.00  0.00     0.149 HD
BRANCH  22  25
ATOM     25  C   LIG d   1       5.852   0.242  -3.030  0.00  0.00     0.189 A 
ATOM     26  O   LIG d   1       5.500  -1.035  -2.769  0.00  0.00    -0.458 OA
ATOM     27  C   LIG d   1       4.332  -1.049  -2.113  0.00  0.00     0.093 A 
ATOM     28  C   LIG d   1       3.910   0.223  -1.948  0.00  0.00    -0.023 A 
ATOM     29  H   LIG d   1       3.812  -1.934  -1.775  0.00  0.00     0.103 H 
ATOM     30  C   LIG d   1       4.876   1.058  -2.531  0.00  0.00    -0.011 A 
ATOM     31  H   LIG d   1       3.000   0.539  -1.460  0.00  0.00     0.065 H 
ATOM     32  H   LIG d   1       4.852   2.136  -2.579  0.00  0.00     0.066 H 
ENDBRANCH  22  25
ENDBRANCH  18  21
ENDBRANCH   5  18
BRANCH   1  33
ATOM     33  C   LIG d   1       9.079   1.708  -6.950  0.00  0.00    -0.011 C 
ATOM     34  H   LIG d   1       8.863   0.703  -6.590  0.00  0.00     0.028 H 
ATOM     35  H   LIG d   1       8.343   2.405  -6.547  0.00  0.00     0.028 H 
ATOM     36  H   LIG d   1       9.032   1.722  -8.039  0.00  0.00     0.028 H 
ENDBRANCH   1  33
BRANCH   1  37
ATOM     37  C   LIG d   1      11.496   1.783  -7.583  0.00  0.00    -0.011 C 
ATOM     38  H   LIG d   1      11.806   0.743  -7.477  0.00  0.00     0.028 H 
ATOM     39  H   LIG d   1      11.044   1.931  -8.563  0.00  0.00     0.028 H 
ATOM     40  H   LIG d   1      12.368   2.432  -7.484  0.00  0.00     0.028 H 
ENDBRANCH   1  37
BRANCH  16  41
ATOM     41  C   LIG d   1       9.301   7.610  -5.390  0.00  0.00    -0.011 C 
ATOM     42  H   LIG d   1       8.278   7.526  -5.026  0.00  0.00     0.028 H 
ATOM     43  H   LIG d   1       9.537   8.658  -5.575  0.00  0.00     0.028 H 
ATOM     44  H   LIG d   1       9.406   7.045  -6.316  0.00  0.00     0.028 H 
ENDBRANCH  16  41
BRANCH  16  45
ATOM     45  C   LIG d   1      10.984   8.202  -3.637  0.00  0.00    -0.011 C 
ATOM     46  H   LIG d   1      10.636   8.273  -2.606  0.00  0.00     0.028 H 
ATOM     47  H   LIG d   1      12.058   8.018  -3.645  0.00  0.00     0.028 H 
ATOM     48  H   LIG d   1      10.772   9.136  -4.157  0.00  0.00     0.028 H 
ENDBRANCH  16  45
TORSDOF 7
ENDMDL
MODEL 9
REMARK VINA RESULT:      -5.4      3.400      4.127
REMARK  7 active torsions:
REMARK  status: ('A' for Active; 'I' for Inactive)
REMARK    1  A    between atoms: C_1  and  C_2 
REMARK    2  A    between atoms: C_2  and  C_30 
REMARK    3  A    between atoms: C_6  and  C_21 
REMARK    4  A    between atoms: C_17  and  C_19 
REMARK    5  A    between atoms: C_17  and  C_20 
REMARK    6  A    between atoms: C_21  and  N_22 
REMARK       I    between atoms: N_22  and  C_23 
REMARK    7  A    between atoms: C_23  and  C_25 
ROOT
ATOM      1  C   LIG d   1       3.741   0.849  -8.832  0.00  0.00     0.166 C 
ATOM      2  O   LIG d   1       4.826   0.090  -9.382  0.00  0.00    -0.341 OA
ATOM      3  C   LIG d   1       5.467  -0.599  -8.279  0.00  0.00     0.118 C 
ATOM      4  H   LIG d   1       6.548  -0.664  -8.397  0.00  0.00     0.065 H 
ATOM      5  C   LIG d   1       4.831  -1.984  -8.190  0.00  0.00     0.106 C 
ATOM      6  H   LIG d   1       5.326  -2.642  -8.903  0.00  0.00     0.064 H 
ATOM      7  O   LIG d   1       4.923  -2.568  -6.885  0.00  0.00    -0.341 OA
ATOM      8  C   LIG d   1       4.293  -1.744  -5.917  0.00  0.00     0.191 C 
ATOM      9  H   LIG d   1       3.278  -1.494  -6.223  0.00  0.00     0.094 H 
ATOM     10  C   LIG d   1       5.186  -0.479  -5.801  0.00  0.00     0.141 C 
ATOM     11  H   LIG d   1       6.223  -0.784  -5.664  0.00  0.00     0.068 H 
ATOM     12  C   LIG d   1       5.077   0.300  -7.079  0.00  0.00     0.121 C 
ATOM     13  H   LIG d   1       5.709   1.187  -7.035  0.00  0.00     0.065 H 
ATOM     14  O   LIG d   1       3.724   0.665  -7.403  0.00  0.00    -0.341 OA
ATOM     15  O   LIG d   1       4.710   0.116  -4.602  0.00  0.00    -0.338 OA
ATOM     16  C   LIG d   1       4.214  -0.975  -3.793  0.00  0.00     0.168 C 
ATOM     17  O   LIG d   1       4.318  -2.200  -4.562  0.00  0.00    -0.318 OA
ENDROOT
BRANCH   5  18
ATOM     18  C   LIG d   1       3.354  -1.868  -8.571  0.00  0.00     0.041 C 
ATOM     19  H   LIG d   1       2.811  -1.358  -7.775  0.00  0.00     0.049 H 
ATOM     20  H   LIG d   1       3.262  -1.299  -9.497  0.00  0.00     0.049 H 
BRANCH  18  21
ATOM     21  N   LIG d   1       2.793  -3.208  -8.764  0.00  0.00    -0.306 N 
ATOM     22  C   LIG d   1       2.418  -3.610  -9.994  0.00  0.00     0.279 C 
ATOM     23  O   LIG d   1       2.545  -2.862 -10.945  0.00  0.00    -0.267 OA
ATOM     24  H   LIG d   1       2.691  -3.805  -8.006  0.00  0.00     0.149 HD
BRANCH  22  25
ATOM     25  C   LIG d   1       1.856  -4.951 -10.187  0.00  0.00     0.189 A 
ATOM     26  O   LIG d   1       0.628  -5.234 -10.669  0.00  0.00    -0.458 OA
ATOM     27  C   LIG d   1       0.462  -6.563 -10.708  0.00  0.00     0.093 A 
ATOM     28  C   LIG d   1       1.582  -7.156 -10.242  0.00  0.00    -0.023 A 
ATOM     29  H   LIG d   1      -0.425  -7.076 -11.052  0.00  0.00     0.103 H 
ATOM     30  C   LIG d   1       2.482  -6.132  -9.905  0.00  0.00    -0.011 A 
ATOM     31  H   LIG d   1       1.754  -8.217 -10.145  0.00  0.00     0.065 H 
ATOM     32  H   LIG d   1       3.475  -6.254  -9.501  0.00  0.00     0.066 H 
ENDBRANCH  22  25
ENDBRANCH  18  21
ENDBRANCH   5  18
BRANCH   1  33
ATOM     33  C   LIG d   1       2.418   0.361  -9.427  0.00  0.00    -0.011 C 
ATOM     34  H   LIG d   1       2.588  -0.010 -10.437  0.00  0.00     0.028 H 
ATOM     35  H   LIG d   1       2.014  -0.441  -8.808  0.00  0.00     0.028 H 
ATOM     36  H   LIG d   1       1.707   1.187  -9.460  0.00  0.00     0.028 H 
ENDBRANCH   1  33
BRANCH   1  37
ATOM     37  C   LIG d   1       3.935   2.330  -9.158  0.00  0.00    -0.011 C 
ATOM     38  H   LIG d   1       2.967   2.833  -9.156  0.00  0.00     0.028 H 
ATOM     39  H   LIG d   1       4.583   2.786  -8.409  0.00  0.00     0.028 H 
ATOM     40  H   LIG d   1       4.393   2.430 -10.142  0.00  0.00     0.028 H 
ENDBRANCH   1  37
BRANCH  16  41
ATOM     41  C   LIG d   1       2.751  -0.721  -3.426  0.00  0.00    -0.011 C 
ATOM     42  H   LIG d   1       2.132  -0.807  -4.318  0.00  0.00     0.028 H 
ATOM     43  H   LIG d   1       2.430  -1.458  -2.689  0.00  0.00     0.028 H 
ATOM     44  H   LIG d   1       2.650   0.280  -3.007  0.00  0.00     0.028 H 
ENDBRANCH  16  41
BRANCH  16  45
ATOM     45  C   LIG d   1       5.052  -1.093  -2.520  0.00  0.00    -0.011 C 
ATOM     46  H   LIG d   1       6.109  -1.147  -2.784  0.00  0.00     0.028 H 
ATOM     47  H   LIG d   1       4.880  -0.221  -1.889  0.00  0.00     0.028 H 
ATOM     48  H   LIG d   1       4.767  -1.995  -1.979  0.00  0.00     0.028 H 
ENDBRANCH  16  45
TORSDOF 7
ENDMDL
MODEL 10
REMARK VINA RESULT:      -5.3      1.757      6.599
REMARK  7 active torsions:
REMARK  status: ('A' for Active; 'I' for Inactive)
REMARK    1  A    between atoms: C_1  and  C_2 
REMARK    2  A    between atoms: C_2  and  C_30 
REMARK    3  A    between atoms: C_6  and  C_21 
REMARK    4  A    between atoms: C_17  and  C_19 
REMARK    5  A    between atoms: C_17  and  C_20 
REMARK    6  A    between atoms: C_21  and  N_22 
REMARK       I    between atoms: N_22  and  C_23 
REMARK    7  A    between atoms: C_23  and  C_25 
ROOT
ATOM      1  C   LIG d   1       6.248  -4.077  -8.624  0.00  0.00     0.166 C 
ATOM      2  O   LIG d   1       4.887  -3.627  -8.677  0.00  0.00    -0.341 OA
ATOM      3  C   LIG d   1       4.073  -4.657  -8.062  0.00  0.00     0.118 C 
ATOM      4  H   LIG d   1       3.107  -4.775  -8.553  0.00  0.00     0.065 H 
ATOM      5  C   LIG d   1       3.912  -4.279  -6.593  0.00  0.00     0.106 C 
ATOM      6  H   LIG d   1       3.094  -3.564  -6.504  0.00  0.00     0.064 H 
ATOM      7  O   LIG d   1       3.637  -5.400  -5.745  0.00  0.00    -0.341 OA
ATOM      8  C   LIG d   1       4.674  -6.363  -5.827  0.00  0.00     0.191 C 
ATOM      9  H   LIG d   1       5.646  -5.902  -5.655  0.00  0.00     0.094 H 
ATOM     10  C   LIG d   1       4.571  -6.967  -7.255  0.00  0.00     0.141 C 
ATOM     11  H   LIG d   1       3.540  -7.261  -7.445  0.00  0.00     0.068 H 
ATOM     12  C   LIG d   1       4.964  -5.912  -8.247  0.00  0.00     0.121 C 
ATOM     13  H   LIG d   1       4.883  -6.301  -9.263  0.00  0.00     0.065 H 
ATOM     14  O   LIG d   1       6.281  -5.383  -8.017  0.00  0.00    -0.341 OA
ATOM     15  O   LIG d   1       5.378  -8.131  -7.148  0.00  0.00    -0.338 OA
ATOM     16  C   LIG d   1       5.305  -8.532  -5.761  0.00  0.00     0.168 C 
ATOM     17  O   LIG d   1       4.526  -7.546  -5.038  0.00  0.00    -0.318 OA
ENDROOT
BRANCH   5  18
ATOM     18  C   LIG d   1       5.203  -3.610  -6.116  0.00  0.00     0.041 C 
ATOM     19  H   LIG d   1       5.929  -4.375  -5.842  0.00  0.00     0.049 H 
ATOM     20  H   LIG d   1       5.609  -2.993  -6.918  0.00  0.00     0.049 H 
BRANCH  18  21
ATOM     21  N   LIG d   1       4.916  -2.769  -4.951  0.00  0.00    -0.306 N 
ATOM     22  C   LIG d   1       4.743  -1.441  -5.105  0.00  0.00     0.279 C 
ATOM     23  O   LIG d   1       4.826  -0.940  -6.211  0.00  0.00    -0.267 OA
ATOM     24  H   LIG d   1       4.850  -3.168  -4.069  0.00  0.00     0.149 HD
BRANCH  22  25
ATOM     25  C   LIG d   1       4.457  -0.600  -3.939  0.00  0.00     0.189 A 
ATOM     26  O   LIG d   1       3.893   0.626  -3.964  0.00  0.00    -0.458 OA
ATOM     27  C   LIG d   1       3.783   1.091  -2.713  0.00  0.00     0.093 A 
ATOM     28  C   LIG d   1       4.284   0.170  -1.861  0.00  0.00    -0.023 A 
ATOM     29  H   LIG d   1       3.365   2.047  -2.432  0.00  0.00     0.103 H 
ATOM     30  C   LIG d   1       4.718  -0.917  -2.636  0.00  0.00    -0.011 A 
ATOM     31  H   LIG d   1       4.340   0.254  -0.786  0.00  0.00     0.065 H 
ATOM     32  H   LIG d   1       5.172  -1.827  -2.273  0.00  0.00     0.066 H 
ENDBRANCH  22  25
ENDBRANCH  18  21
ENDBRANCH   5  18
BRANCH   1  33
ATOM     33  C   LIG d   1       7.080  -3.101  -7.788  0.00  0.00    -0.011 C 
ATOM     34  H   LIG d   1       6.420  -2.506  -7.158  0.00  0.00     0.028 H 
ATOM     35  H   LIG d   1       7.774  -3.661  -7.160  0.00  0.00     0.028 H 
ATOM     36  H   LIG d   1       7.641  -2.442  -8.450  0.00  0.00     0.028 H 
ENDBRANCH   1  33
BRANCH   1  37
ATOM     37  C   LIG d   1       6.818  -4.154 -10.041  0.00  0.00    -0.011 C 
ATOM     38  H   LIG d   1       6.035  -4.470 -10.731  0.00  0.00     0.028 H 
ATOM     39  H   LIG d   1       7.190  -3.173 -10.338  0.00  0.00     0.028 H 
ATOM     40  H   LIG d   1       7.636  -4.874 -10.065  0.00  0.00     0.028 H 
ENDBRANCH   1  37
BRANCH  16  41
ATOM     41  C   LIG d   1       6.715  -8.608  -5.170  0.00  0.00    -0.011 C 
ATOM     42  H   LIG d   1       6.822  -7.855  -4.390  0.00  0.00     0.028 H 
ATOM     43  H   LIG d   1       6.876  -9.598  -4.744  0.00  0.00     0.028 H 
ATOM     44  H   LIG d   1       7.448  -8.426  -5.956  0.00  0.00     0.028 H 
ENDBRANCH  16  41
BRANCH  16  45
ATOM     45  C   LIG d   1       4.629  -9.900  -5.657  0.00  0.00    -0.011 C 
ATOM     46  H   LIG d   1       5.377 -10.658  -5.421  0.00  0.00     0.028 H 
ATOM     47  H   LIG d   1       3.877  -9.875  -4.870  0.00  0.00     0.028 H 
ATOM     48  H   LIG d   1       4.154 -10.144  -6.607  0.00  0.00     0.028 H 
ENDBRANCH  16  45
TORSDOF 7
ENDMDL
