MODEL 1
REMARK VINA RESULT:      -6.8      0.000      0.000
REMARK  4 active torsions:
REMARK  status: ('A' for Active; 'I' for Inactive)
REMARK    1  A    between atoms: C_3  and  C_9 
REMARK    2  A    between atoms: C_9  and  N_10 
REMARK    3  A    between atoms: C_19  and  C_21 
REMARK    4  A    between atoms: C_23  and  C_26 
ROOT
ATOM      1  C   LIG d   1       4.180  -2.944  -3.048  0.00  0.00    -0.060 A 
ATOM      2  C   LIG d   1       4.805  -2.907  -4.282  0.00  0.00    -0.057 A 
ATOM      3  C   LIG d   1       5.374  -1.733  -4.743  0.00  0.00    -0.032 A 
ATOM      4  C   LIG d   1       5.323  -0.590  -3.971  0.00  0.00    -0.040 A 
ATOM      5  C   LIG d   1       4.695  -0.620  -2.726  0.00  0.00     0.052 A 
ATOM      6  C   LIG d   1       4.122  -1.808  -2.268  0.00  0.00    -0.044 A 
ATOM      7  C   LIG d   1       4.639   0.563  -1.920  0.00  0.00     0.099 C 
ATOM      8  N   LIG d   1       4.594   1.501  -1.281  0.00  0.00    -0.191 NA
ATOM      9  H   LIG d   1       3.734  -3.863  -2.697  0.00  0.00     0.062 H 
ATOM     10  H   LIG d   1       4.848  -3.799  -4.890  0.00  0.00     0.062 H 
ATOM     11  H   LIG d   1       5.769   0.326  -4.332  0.00  0.00     0.063 H 
ATOM     12  H   LIG d   1       3.635  -1.838  -1.304  0.00  0.00     0.063 H 
ENDROOT
BRANCH   3  13
ATOM     13  C   LIG d   1       6.054  -1.703  -6.088  0.00  0.00     0.025 C 
ATOM     14  H   LIG d   1       7.033  -1.235  -5.990  0.00  0.00     0.048 H 
ATOM     15  H   LIG d   1       6.172  -2.722  -6.457  0.00  0.00     0.048 H 
BRANCH  13  16
ATOM     16  N   LIG d   1       5.234  -0.932  -7.032  0.00  0.00    -0.279 N 
ATOM     17  C   LIG d   1       6.063  -0.356  -8.100  0.00  0.00     0.098 C 
ATOM     18  C   LIG d   1       5.273   0.740  -8.830  0.00  0.00     0.037 C 
ATOM     19  H   LIG d   1       6.338  -1.138  -8.808  0.00  0.00     0.057 H 
ATOM     20  C   LIG d   1       3.918   0.180  -9.175  0.00  0.00     0.148 A 
ATOM     21  H   LIG d   1       5.796   1.027  -9.742  0.00  0.00     0.037 H 
ATOM     22  H   LIG d   1       5.159   1.608  -8.180  0.00  0.00     0.037 H 
ATOM     23  C   LIG d   1       3.410  -0.942  -8.617  0.00  0.00     0.159 A 
ATOM     24  N   LIG d   1       2.992   0.645 -10.054  0.00  0.00    -0.247 N 
ATOM     25  C   LIG d   1       4.144  -1.757  -7.581  0.00  0.00     0.066 C 
ATOM     26  N   LIG d   1       2.204  -1.156  -9.146  0.00  0.00    -0.246 N 
ATOM     27  H   LIG d   1       4.558  -2.653  -8.044  0.00  0.00     0.051 H 
ATOM     28  H   LIG d   1       3.458  -2.038  -6.781  0.00  0.00     0.051 H 
ATOM     29  C   LIG d   1       1.941  -0.208 -10.009  0.00  0.00     0.243 A 
ATOM     30  H   LIG d   1       1.616  -1.895  -8.925  0.00  0.00     0.310 HD
ATOM     31  H   LIG d   1       1.036  -0.122 -10.591  0.00  0.00     0.158 H 
ATOM     32  H   LIG d   1       3.068   1.438 -10.606  0.00  0.00     0.310 HD
BRANCH  17  33
ATOM     33  C   LIG d   1       7.311   0.240  -7.500  0.00  0.00     0.245 A 
ATOM     34  O   LIG d   1       8.564  -0.179  -7.720  0.00  0.00    -0.336 OA
ATOM     35  N   LIG d   1       9.410   0.669  -6.959  0.00  0.00    -0.056 NA
ATOM     36  C   LIG d   1       8.626   1.517  -6.340  0.00  0.00     0.202 A 
ATOM     37  N   LIG d   1       7.352   1.247  -6.675  0.00  0.00    -0.190 NA
BRANCH  36  38
ATOM     38  C   LIG d   1       9.071   2.595  -5.422  0.00  0.00     0.025 A 
ATOM     39  C   LIG d   1       9.074   2.405  -4.039  0.00  0.00    -0.033 A 
ATOM     40  C   LIG d   1       9.499   3.433  -3.221  0.00  0.00     0.028 A 
ATOM     41  H   LIG d   1       8.751   1.465  -3.614  0.00  0.00     0.064 H 
ATOM     42  N   LIG d   1       9.889   4.586  -3.731  0.00  0.00    -0.263 NA
ATOM     43  H   LIG d   1       9.509   3.293  -2.151  0.00  0.00     0.083 H 
ATOM     44  C   LIG d   1       9.896   4.808  -5.031  0.00  0.00     0.028 A 
ATOM     45  C   LIG d   1       9.491   3.832  -5.919  0.00  0.00    -0.033 A 
ATOM     46  H   LIG d   1      10.224   5.767  -5.405  0.00  0.00     0.083 H 
ATOM     47  H   LIG d   1       9.500   4.021  -6.982  0.00  0.00     0.064 H 
ENDBRANCH  36  38
ENDBRANCH  17  33
ENDBRANCH  13  16
ENDBRANCH   3  13
TORSDOF 4
ENDMDL
MODEL 2
REMARK VINA RESULT:      -6.8      2.903      4.980
REMARK  4 active torsions:
REMARK  status: ('A' for Active; 'I' for Inactive)
REMARK    1  A    between atoms: C_3  and  C_9 
REMARK    2  A    between atoms: C_9  and  N_10 
REMARK    3  A    between atoms: C_19  and  C_21 
REMARK    4  A    between atoms: C_23  and  C_26 
ROOT
ATOM      1  C   LIG d   1       3.814   0.801  -2.119  0.00  0.00    -0.060 A 
ATOM      2  C   LIG d   1       3.250   0.047  -3.133  0.00  0.00    -0.057 A 
ATOM      3  C   LIG d   1       3.987  -0.274  -4.259  0.00  0.00    -0.032 A 
ATOM      4  C   LIG d   1       5.293   0.156  -4.377  0.00  0.00    -0.040 A 
ATOM      5  C   LIG d   1       5.868   0.917  -3.358  0.00  0.00     0.052 A 
ATOM      6  C   LIG d   1       5.118   1.237  -2.225  0.00  0.00    -0.044 A 
ATOM      7  C   LIG d   1       7.224   1.366  -3.474  0.00  0.00     0.099 C 
ATOM      8  N   LIG d   1       8.299   1.723  -3.566  0.00  0.00    -0.191 NA
ATOM      9  H   LIG d   1       3.231   1.052  -1.246  0.00  0.00     0.062 H 
ATOM     10  H   LIG d   1       2.228  -0.292  -3.046  0.00  0.00     0.062 H 
ATOM     11  H   LIG d   1       5.868  -0.096  -5.256  0.00  0.00     0.063 H 
ATOM     12  H   LIG d   1       5.558   1.826  -1.433  0.00  0.00     0.063 H 
ENDROOT
BRANCH   3  13
ATOM     13  C   LIG d   1       3.364  -1.097  -5.357  0.00  0.00     0.025 C 
ATOM     14  H   LIG d   1       3.611  -2.148  -5.208  0.00  0.00     0.048 H 
ATOM     15  H   LIG d   1       2.282  -0.970  -5.337  0.00  0.00     0.048 H 
BRANCH  13  16
ATOM     16  N   LIG d   1       3.886  -0.652  -6.656  0.00  0.00    -0.279 N 
ATOM     17  C   LIG d   1       4.082  -1.792  -7.562  0.00  0.00     0.098 C 
ATOM     18  C   LIG d   1       4.973  -1.366  -8.739  0.00  0.00     0.037 C 
ATOM     19  H   LIG d   1       3.116  -2.126  -7.941  0.00  0.00     0.057 H 
ATOM     20  C   LIG d   1       4.424  -0.076  -9.291  0.00  0.00     0.148 A 
ATOM     21  H   LIG d   1       4.957  -2.134  -9.512  0.00  0.00     0.037 H 
ATOM     22  H   LIG d   1       5.995  -1.212  -8.391  0.00  0.00     0.037 H 
ATOM     23  C   LIG d   1       3.540   0.703  -8.627  0.00  0.00     0.159 A 
ATOM     24  N   LIG d   1       4.678   0.529 -10.481  0.00  0.00    -0.247 N 
ATOM     25  C   LIG d   1       3.008   0.369  -7.256  0.00  0.00     0.066 C 
ATOM     26  N   LIG d   1       3.260   1.756  -9.397  0.00  0.00    -0.246 N 
ATOM     27  H   LIG d   1       1.994  -0.023  -7.339  0.00  0.00     0.051 H 
ATOM     28  H   LIG d   1       3.008   1.263  -6.633  0.00  0.00     0.051 H 
ATOM     29  C   LIG d   1       3.938   1.663 -10.512  0.00  0.00     0.243 A 
ATOM     30  H   LIG d   1       2.652   2.475  -9.166  0.00  0.00     0.310 HD
ATOM     31  H   LIG d   1       3.912   2.375 -11.325  0.00  0.00     0.158 H 
ATOM     32  H   LIG d   1       5.275   0.210 -11.174  0.00  0.00     0.310 HD
BRANCH  17  33
ATOM     33  C   LIG d   1       4.746  -2.919  -6.814  0.00  0.00     0.245 A 
ATOM     34  O   LIG d   1       4.225  -4.135  -6.606  0.00  0.00    -0.336 OA
ATOM     35  N   LIG d   1       5.191  -4.864  -5.865  0.00  0.00    -0.056 NA
ATOM     36  C   LIG d   1       6.202  -4.053  -5.675  0.00  0.00     0.202 A 
ATOM     37  N   LIG d   1       5.922  -2.874  -6.255  0.00  0.00    -0.190 NA
BRANCH  36  38
ATOM     38  C   LIG d   1       7.450  -4.383  -4.941  0.00  0.00     0.025 A 
ATOM     39  C   LIG d   1       8.046  -5.640  -5.069  0.00  0.00    -0.033 A 
ATOM     40  C   LIG d   1       9.208  -5.904  -4.372  0.00  0.00     0.028 A 
ATOM     41  H   LIG d   1       7.606  -6.394  -5.706  0.00  0.00     0.064 H 
ATOM     42  N   LIG d   1       9.749  -4.992  -3.587  0.00  0.00    -0.263 NA
ATOM     43  H   LIG d   1       9.679  -6.871  -4.467  0.00  0.00     0.083 H 
ATOM     44  C   LIG d   1       9.215  -3.796  -3.434  0.00  0.00     0.028 A 
ATOM     45  C   LIG d   1       8.056  -3.448  -4.099  0.00  0.00    -0.033 A 
ATOM     46  H   LIG d   1       9.691  -3.079  -2.782  0.00  0.00     0.083 H 
ATOM     47  H   LIG d   1       7.624  -2.467  -3.970  0.00  0.00     0.064 H 
ENDBRANCH  36  38
ENDBRANCH  17  33
ENDBRANCH  13  16
ENDBRANCH   3  13
TORSDOF 4
ENDMDL
MODEL 3
REMARK VINA RESULT:      -6.7      2.928      5.739
REMARK  4 active torsions:
REMARK  status: ('A' for Active; 'I' for Inactive)
REMARK    1  A    between atoms: C_3  and  C_9 
REMARK    2  A    between atoms: C_9  and  N_10 
REMARK    3  A    between atoms: C_19  and  C_21 
REMARK    4  A    between atoms: C_23  and  C_26 
ROOT
ATOM      1  C   LIG d   1       3.717  -1.930  -2.400  0.00  0.00    -0.060 A 
ATOM      2  C   LIG d   1       5.086  -1.998  -2.591  0.00  0.00    -0.057 A 
ATOM      3  C   LIG d   1       5.721  -1.095  -3.424  0.00  0.00    -0.032 A 
ATOM      4  C   LIG d   1       4.991  -0.118  -4.071  0.00  0.00    -0.040 A 
ATOM      5  C   LIG d   1       3.611  -0.044  -3.883  0.00  0.00     0.052 A 
ATOM      6  C   LIG d   1       2.976  -0.959  -3.040  0.00  0.00    -0.044 A 
ATOM      7  C   LIG d   1       2.847   0.967  -4.551  0.00  0.00     0.099 C 
ATOM      8  N   LIG d   1       2.241   1.769  -5.081  0.00  0.00    -0.191 NA
ATOM      9  H   LIG d   1       3.227  -2.642  -1.751  0.00  0.00     0.062 H 
ATOM     10  H   LIG d   1       5.662  -2.760  -2.087  0.00  0.00     0.062 H 
ATOM     11  H   LIG d   1       5.488   0.587  -4.721  0.00  0.00     0.063 H 
ATOM     12  H   LIG d   1       1.908  -0.907  -2.891  0.00  0.00     0.063 H 
ENDROOT
BRANCH   3  13
ATOM     13  C   LIG d   1       7.213  -1.175  -3.624  0.00  0.00     0.025 C 
ATOM     14  H   LIG d   1       7.552  -0.302  -4.180  0.00  0.00     0.048 H 
ATOM     15  H   LIG d   1       7.708  -1.205  -2.654  0.00  0.00     0.048 H 
BRANCH  13  16
ATOM     16  N   LIG d   1       7.539  -2.393  -4.378  0.00  0.00    -0.279 N 
ATOM     17  C   LIG d   1       8.279  -2.070  -5.605  0.00  0.00     0.098 C 
ATOM     18  C   LIG d   1       8.265  -3.281  -6.549  0.00  0.00     0.037 C 
ATOM     19  H   LIG d   1       9.310  -1.818  -5.353  0.00  0.00     0.057 H 
ATOM     20  C   LIG d   1       8.665  -4.494  -5.749  0.00  0.00     0.148 A 
ATOM     21  H   LIG d   1       8.975  -3.125  -7.361  0.00  0.00     0.037 H 
ATOM     22  H   LIG d   1       7.263  -3.421  -6.955  0.00  0.00     0.037 H 
ATOM     23  C   LIG d   1       8.674  -4.527  -4.397  0.00  0.00     0.159 A 
ATOM     24  N   LIG d   1       9.073  -5.716  -6.183  0.00  0.00    -0.247 N 
ATOM     25  C   LIG d   1       8.279  -3.352  -3.538  0.00  0.00     0.066 C 
ATOM     26  N   LIG d   1       9.081  -5.739  -4.018  0.00  0.00    -0.246 N 
ATOM     27  H   LIG d   1       9.173  -2.873  -3.136  0.00  0.00     0.051 H 
ATOM     28  H   LIG d   1       7.643  -3.691  -2.721  0.00  0.00     0.051 H 
ATOM     29  C   LIG d   1       9.322  -6.463  -5.081  0.00  0.00     0.243 A 
ATOM     30  H   LIG d   1       9.181  -6.037  -3.100  0.00  0.00     0.310 HD
ATOM     31  H   LIG d   1       9.664  -7.487  -5.080  0.00  0.00     0.158 H 
ATOM     32  H   LIG d   1       9.166  -5.999  -7.105  0.00  0.00     0.310 HD
BRANCH  17  33
ATOM     33  C   LIG d   1       7.628  -0.895  -6.289  0.00  0.00     0.245 A 
ATOM     34  O   LIG d   1       8.081   0.366  -6.280  0.00  0.00    -0.336 OA
ATOM     35  N   LIG d   1       7.161   1.127  -7.047  0.00  0.00    -0.056 NA
ATOM     36  C   LIG d   1       6.234   0.293  -7.451  0.00  0.00     0.202 A 
ATOM     37  N   LIG d   1       6.528  -0.933  -6.984  0.00  0.00    -0.190 NA
BRANCH  36  38
ATOM     38  C   LIG d   1       5.058   0.645  -8.285  0.00  0.00     0.025 A 
ATOM     39  C   LIG d   1       3.796   0.114  -8.006  0.00  0.00    -0.033 A 
ATOM     40  C   LIG d   1       2.728   0.470  -8.805  0.00  0.00     0.028 A 
ATOM     41  H   LIG d   1       3.657  -0.563  -7.176  0.00  0.00     0.064 H 
ATOM     42  N   LIG d   1       2.889   1.291  -9.825  0.00  0.00    -0.263 NA
ATOM     43  H   LIG d   1       1.748   0.069  -8.595  0.00  0.00     0.083 H 
ATOM     44  C   LIG d   1       4.064   1.810 -10.125  0.00  0.00     0.028 A 
ATOM     45  C   LIG d   1       5.183   1.510  -9.374  0.00  0.00    -0.033 A 
ATOM     46  H   LIG d   1       4.152   2.478 -10.969  0.00  0.00     0.083 H 
ATOM     47  H   LIG d   1       6.143   1.938  -9.626  0.00  0.00     0.064 H 
ENDBRANCH  36  38
ENDBRANCH  17  33
ENDBRANCH  13  16
ENDBRANCH   3  13
TORSDOF 4
ENDMDL
MODEL 4
REMARK VINA RESULT:      -6.7      3.605      8.859
REMARK  4 active torsions:
REMARK  status: ('A' for Active; 'I' for Inactive)
REMARK    1  A    between atoms: C_3  and  C_9 
REMARK    2  A    between atoms: C_9  and  N_10 
REMARK    3  A    between atoms: C_19  and  C_21 
REMARK    4  A    between atoms: C_23  and  C_26 
ROOT
ATOM      1  C   LIG d   1      10.242   7.961  -2.630  0.00  0.00    -0.060 A 
ATOM      2  C   LIG d   1       9.975   6.844  -3.401  0.00  0.00    -0.057 A 
ATOM      3  C   LIG d   1      10.029   5.580  -2.842  0.00  0.00    -0.032 A 
ATOM      4  C   LIG d   1      10.350   5.426  -1.508  0.00  0.00    -0.040 A 
ATOM      5  C   LIG d   1      10.620   6.548  -0.725  0.00  0.00     0.052 A 
ATOM      6  C   LIG d   1      10.564   7.821  -1.296  0.00  0.00    -0.044 A 
ATOM      7  C   LIG d   1      10.953   6.395   0.660  0.00  0.00     0.099 C 
ATOM      8  N   LIG d   1      11.217   6.275   1.758  0.00  0.00    -0.191 NA
ATOM      9  H   LIG d   1      10.202   8.945  -3.074  0.00  0.00     0.062 H 
ATOM     10  H   LIG d   1       9.723   6.959  -4.445  0.00  0.00     0.062 H 
ATOM     11  H   LIG d   1      10.390   4.438  -1.072  0.00  0.00     0.063 H 
ATOM     12  H   LIG d   1      10.772   8.694  -0.695  0.00  0.00     0.063 H 
ENDROOT
BRANCH   3  13
ATOM     13  C   LIG d   1       9.734   4.368  -3.689  0.00  0.00     0.025 C 
ATOM     14  H   LIG d   1       8.793   3.923  -3.371  0.00  0.00     0.048 H 
ATOM     15  H   LIG d   1       9.662   4.666  -4.735  0.00  0.00     0.048 H 
BRANCH  13  16
ATOM     16  N   LIG d   1      10.817   3.388  -3.533  0.00  0.00    -0.279 N 
ATOM     17  C   LIG d   1      10.714   2.325  -4.541  0.00  0.00     0.098 C 
ATOM     18  C   LIG d   1      11.593   1.135  -4.127  0.00  0.00     0.037 C 
ATOM     19  H   LIG d   1      11.050   2.706  -5.506  0.00  0.00     0.057 H 
ATOM     20  C   LIG d   1      12.953   1.671  -3.762  0.00  0.00     0.148 A 
ATOM     21  H   LIG d   1      11.683   0.436  -4.958  0.00  0.00     0.037 H 
ATOM     22  H   LIG d   1      11.151   0.633  -3.266  0.00  0.00     0.037 H 
ATOM     23  C   LIG d   1      13.199   2.978  -3.516  0.00  0.00     0.159 A 
ATOM     24  N   LIG d   1      14.130   1.008  -3.618  0.00  0.00    -0.247 N 
ATOM     25  C   LIG d   1      12.135   4.046  -3.574  0.00  0.00     0.066 C 
ATOM     26  N   LIG d   1      14.496   3.107  -3.231  0.00  0.00    -0.246 N 
ATOM     27  H   LIG d   1      12.233   4.612  -4.501  0.00  0.00     0.051 H 
ATOM     28  H   LIG d   1      12.239   4.715  -2.720  0.00  0.00     0.051 H 
ATOM     29  C   LIG d   1      15.065   1.930  -3.288  0.00  0.00     0.243 A 
ATOM     30  H   LIG d   1      14.945   3.939  -3.016  0.00  0.00     0.310 HD
ATOM     31  H   LIG d   1      16.110   1.728  -3.103  0.00  0.00     0.158 H 
ATOM     32  H   LIG d   1      14.273   0.055  -3.728  0.00  0.00     0.310 HD
BRANCH  17  33
ATOM     33  C   LIG d   1       9.280   1.875  -4.651  0.00  0.00     0.245 A 
ATOM     34  O   LIG d   1       8.515   1.955  -5.747  0.00  0.00    -0.336 OA
ATOM     35  N   LIG d   1       7.251   1.416  -5.394  0.00  0.00    -0.056 NA
ATOM     36  C   LIG d   1       7.336   1.062  -4.136  0.00  0.00     0.202 A 
ATOM     37  N   LIG d   1       8.574   1.345  -3.693  0.00  0.00    -0.190 NA
BRANCH  36  38
ATOM     38  C   LIG d   1       6.248   0.449  -3.333  0.00  0.00     0.025 A 
ATOM     39  C   LIG d   1       5.379   1.242  -2.579  0.00  0.00    -0.033 A 
ATOM     40  C   LIG d   1       4.378   0.631  -1.850  0.00  0.00     0.028 A 
ATOM     41  H   LIG d   1       5.487   2.317  -2.569  0.00  0.00     0.064 H 
ATOM     42  N   LIG d   1       4.243  -0.681  -1.851  0.00  0.00    -0.263 NA
ATOM     43  H   LIG d   1       3.699   1.236  -1.268  0.00  0.00     0.083 H 
ATOM     44  C   LIG d   1       5.046  -1.465  -2.545  0.00  0.00     0.028 A 
ATOM     45  C   LIG d   1       6.069  -0.936  -3.306  0.00  0.00    -0.033 A 
ATOM     46  H   LIG d   1       4.899  -2.534  -2.519  0.00  0.00     0.083 H 
ATOM     47  H   LIG d   1       6.723  -1.583  -3.871  0.00  0.00     0.064 H 
ENDBRANCH  36  38
ENDBRANCH  17  33
ENDBRANCH  13  16
ENDBRANCH   3  13
TORSDOF 4
ENDMDL
MODEL 5
REMARK VINA RESULT:      -6.7      2.280      6.898
REMARK  4 active torsions:
REMARK  status: ('A' for Active; 'I' for Inactive)
REMARK    1  A    between atoms: C_3  and  C_9 
REMARK    2  A    between atoms: C_9  and  N_10 
REMARK    3  A    between atoms: C_19  and  C_21 
REMARK    4  A    between atoms: C_23  and  C_26 
ROOT
ATOM      1  C   LIG d   1       4.183   2.441  -9.482  0.00  0.00    -0.060 A 
ATOM      2  C   LIG d   1       5.421   2.192  -8.916  0.00  0.00    -0.057 A 
ATOM      3  C   LIG d   1       6.205   1.151  -9.379  0.00  0.00    -0.032 A 
ATOM      4  C   LIG d   1       5.757   0.353 -10.412  0.00  0.00    -0.040 A 
ATOM      5  C   LIG d   1       4.510   0.598 -10.987  0.00  0.00     0.052 A 
ATOM      6  C   LIG d   1       3.724   1.651 -10.515  0.00  0.00    -0.044 A 
ATOM      7  C   LIG d   1       4.040  -0.227 -12.060  0.00  0.00     0.099 C 
ATOM      8  N   LIG d   1       3.666  -0.880 -12.911  0.00  0.00    -0.191 NA
ATOM      9  H   LIG d   1       3.574   3.253  -9.113  0.00  0.00     0.062 H 
ATOM     10  H   LIG d   1       5.776   2.814  -8.107  0.00  0.00     0.062 H 
ATOM     11  H   LIG d   1       6.372  -0.459 -10.773  0.00  0.00     0.063 H 
ATOM     12  H   LIG d   1       2.758   1.845 -10.957  0.00  0.00     0.063 H 
ENDROOT
BRANCH   3  13
ATOM     13  C   LIG d   1       7.553   0.889  -8.756  0.00  0.00     0.025 C 
ATOM     14  H   LIG d   1       7.440   0.192  -7.926  0.00  0.00     0.048 H 
ATOM     15  H   LIG d   1       8.221   0.462  -9.504  0.00  0.00     0.048 H 
BRANCH  13  16
ATOM     16  N   LIG d   1       8.116   2.153  -8.261  0.00  0.00    -0.279 N 
ATOM     17  C   LIG d   1       9.048   1.914  -7.151  0.00  0.00     0.098 C 
ATOM     18  C   LIG d   1       9.314   3.232  -6.409  0.00  0.00     0.037 C 
ATOM     19  H   LIG d   1       9.987   1.522  -7.543  0.00  0.00     0.057 H 
ATOM     20  C   LIG d   1       9.651   4.280  -7.437  0.00  0.00     0.148 A 
ATOM     21  H   LIG d   1      10.151   3.107  -5.722  0.00  0.00     0.037 H 
ATOM     22  H   LIG d   1       8.423   3.531  -5.857  0.00  0.00     0.037 H 
ATOM     23  C   LIG d   1       9.404   4.136  -8.759  0.00  0.00     0.159 A 
ATOM     24  N   LIG d   1      10.233   5.497  -7.269  0.00  0.00    -0.247 N 
ATOM     25  C   LIG d   1       8.757   2.908  -9.351  0.00  0.00     0.066 C 
ATOM     26  N   LIG d   1       9.828   5.237  -9.380  0.00  0.00    -0.246 N 
ATOM     27  H   LIG d   1       9.515   2.288  -9.831  0.00  0.00     0.051 H 
ATOM     28  H   LIG d   1       8.006   3.205 -10.083  0.00  0.00     0.051 H 
ATOM     29  C   LIG d   1      10.327   6.063  -8.496  0.00  0.00     0.243 A 
ATOM     30  H   LIG d   1       9.775   5.401 -10.335  0.00  0.00     0.310 HD
ATOM     31  H   LIG d   1      10.745   7.035  -8.709  0.00  0.00     0.158 H 
ATOM     32  H   LIG d   1      10.524   5.886  -6.430  0.00  0.00     0.310 HD
BRANCH  17  33
ATOM     33  C   LIG d   1       8.446   0.914  -6.196  0.00  0.00     0.245 A 
ATOM     34  O   LIG d   1       8.805  -0.371  -6.078  0.00  0.00    -0.336 OA
ATOM     35  N   LIG d   1       7.980  -0.925  -5.065  0.00  0.00    -0.056 NA
ATOM     36  C   LIG d   1       7.194   0.040  -4.656  0.00  0.00     0.202 A 
ATOM     37  N   LIG d   1       7.486   1.154  -5.350  0.00  0.00    -0.190 NA
BRANCH  36  38
ATOM     38  C   LIG d   1       6.157  -0.077  -3.601  0.00  0.00     0.025 A 
ATOM     39  C   LIG d   1       5.624  -1.321  -3.253  0.00  0.00    -0.033 A 
ATOM     40  C   LIG d   1       4.663  -1.386  -2.264  0.00  0.00     0.028 A 
ATOM     41  H   LIG d   1       5.961  -2.220  -3.749  0.00  0.00     0.064 H 
ATOM     42  N   LIG d   1       4.241  -0.293  -1.658  0.00  0.00    -0.263 NA
ATOM     43  H   LIG d   1       4.249  -2.343  -1.984  0.00  0.00     0.083 H 
ATOM     44  C   LIG d   1       4.714   0.901  -1.960  0.00  0.00     0.028 A 
ATOM     45  C   LIG d   1       5.681   1.054  -2.934  0.00  0.00    -0.033 A 
ATOM     46  H   LIG d   1       4.340   1.769  -1.438  0.00  0.00     0.083 H 
ATOM     47  H   LIG d   1       6.063   2.034  -3.176  0.00  0.00     0.064 H 
ENDBRANCH  36  38
ENDBRANCH  17  33
ENDBRANCH  13  16
ENDBRANCH   3  13
TORSDOF 4
ENDMDL
MODEL 6
REMARK VINA RESULT:      -6.6      3.028      5.858
REMARK  4 active torsions:
REMARK  status: ('A' for Active; 'I' for Inactive)
REMARK    1  A    between atoms: C_3  and  C_9 
REMARK    2  A    between atoms: C_9  and  N_10 
REMARK    3  A    between atoms: C_19  and  C_21 
REMARK    4  A    between atoms: C_23  and  C_26 
ROOT
ATOM      1  C   LIG d   1       2.518   1.281  -8.938  0.00  0.00    -0.060 A 
ATOM      2  C   LIG d   1       2.495  -0.085  -8.717  0.00  0.00    -0.057 A 
ATOM      3  C   LIG d   1       3.677  -0.793  -8.595  0.00  0.00    -0.032 A 
ATOM      4  C   LIG d   1       4.889  -0.139  -8.692  0.00  0.00    -0.040 A 
ATOM      5  C   LIG d   1       4.919   1.237  -8.915  0.00  0.00     0.052 A 
ATOM      6  C   LIG d   1       3.722   1.946  -9.037  0.00  0.00    -0.044 A 
ATOM      7  C   LIG d   1       6.173   1.922  -9.016  0.00  0.00     0.099 C 
ATOM      8  N   LIG d   1       7.168   2.465  -9.096  0.00  0.00    -0.191 NA
ATOM      9  H   LIG d   1       1.591   1.826  -9.036  0.00  0.00     0.062 H 
ATOM     10  H   LIG d   1       1.549  -0.601  -8.640  0.00  0.00     0.062 H 
ATOM     11  H   LIG d   1       5.811  -0.693  -8.595  0.00  0.00     0.063 H 
ATOM     12  H   LIG d   1       3.739   3.012  -9.209  0.00  0.00     0.063 H 
ENDROOT
BRANCH   3  13
ATOM     13  C   LIG d   1       3.642  -2.280  -8.353  0.00  0.00     0.025 C 
ATOM     14  H   LIG d   1       3.374  -2.473  -7.315  0.00  0.00     0.048 H 
ATOM     15  H   LIG d   1       2.904  -2.738  -9.011  0.00  0.00     0.048 H 
BRANCH  13  16
ATOM     16  N   LIG d   1       4.967  -2.851  -8.631  0.00  0.00    -0.279 N 
ATOM     17  C   LIG d   1       5.317  -3.875  -7.637  0.00  0.00     0.098 C 
ATOM     18  C   LIG d   1       6.823  -4.169  -7.709  0.00  0.00     0.037 C 
ATOM     19  H   LIG d   1       4.759  -4.789  -7.844  0.00  0.00     0.057 H 
ATOM     20  C   LIG d   1       7.180  -4.398  -9.155  0.00  0.00     0.148 A 
ATOM     21  H   LIG d   1       7.054  -5.061  -7.127  0.00  0.00     0.037 H 
ATOM     22  H   LIG d   1       7.384  -3.318  -7.321  0.00  0.00     0.037 H 
ATOM     23  C   LIG d   1       6.377  -4.049 -10.186  0.00  0.00     0.159 A 
ATOM     24  N   LIG d   1       8.295  -4.962  -9.688  0.00  0.00    -0.247 N 
ATOM     25  C   LIG d   1       5.035  -3.385 -10.002  0.00  0.00     0.066 C 
ATOM     26  N   LIG d   1       6.989  -4.396 -11.319  0.00  0.00    -0.246 N 
ATOM     27  H   LIG d   1       4.240  -4.117 -10.151  0.00  0.00     0.051 H 
ATOM     28  H   LIG d   1       4.926  -2.571 -10.719  0.00  0.00     0.051 H 
ATOM     29  C   LIG d   1       8.142  -4.944 -11.033  0.00  0.00     0.243 A 
ATOM     30  H   LIG d   1       6.635  -4.262 -12.213  0.00  0.00     0.310 HD
ATOM     31  H   LIG d   1       8.854  -5.321 -11.752  0.00  0.00     0.158 H 
ATOM     32  H   LIG d   1       9.056  -5.310  -9.198  0.00  0.00     0.310 HD
BRANCH  17  33
ATOM     33  C   LIG d   1       4.970  -3.375  -6.258  0.00  0.00     0.245 A 
ATOM     34  O   LIG d   1       4.273  -4.049  -5.333  0.00  0.00    -0.336 OA
ATOM     35  N   LIG d   1       4.191  -3.201  -4.198  0.00  0.00    -0.056 NA
ATOM     36  C   LIG d   1       4.823  -2.097  -4.512  0.00  0.00     0.202 A 
ATOM     37  N   LIG d   1       5.292  -2.213  -5.766  0.00  0.00    -0.190 NA
BRANCH  36  38
ATOM     38  C   LIG d   1       4.992  -0.916  -3.629  0.00  0.00     0.025 A 
ATOM     39  C   LIG d   1       4.242  -0.781  -2.458  0.00  0.00    -0.033 A 
ATOM     40  C   LIG d   1       4.434   0.332  -1.664  0.00  0.00     0.028 A 
ATOM     41  H   LIG d   1       3.523  -1.538  -2.177  0.00  0.00     0.064 H 
ATOM     42  N   LIG d   1       5.304   1.263  -2.002  0.00  0.00    -0.263 NA
ATOM     43  H   LIG d   1       3.862   0.442  -0.755  0.00  0.00     0.083 H 
ATOM     44  C   LIG d   1       6.028   1.177  -3.101  0.00  0.00     0.028 A 
ATOM     45  C   LIG d   1       5.902   0.095  -3.949  0.00  0.00    -0.033 A 
ATOM     46  H   LIG d   1       6.730   1.962  -3.340  0.00  0.00     0.083 H 
ATOM     47  H   LIG d   1       6.498   0.030  -4.847  0.00  0.00     0.064 H 
ENDBRANCH  36  38
ENDBRANCH  17  33
ENDBRANCH  13  16
ENDBRANCH   3  13
TORSDOF 4
ENDMDL
MODEL 7
REMARK VINA RESULT:      -6.6      3.780      8.514
REMARK  4 active torsions:
REMARK  status: ('A' for Active; 'I' for Inactive)
REMARK    1  A    between atoms: C_3  and  C_9 
REMARK    2  A    between atoms: C_9  and  N_10 
REMARK    3  A    between atoms: C_19  and  C_21 
REMARK    4  A    between atoms: C_23  and  C_26 
ROOT
ATOM      1  C   LIG d   1       2.387  -0.187  -8.565  0.00  0.00    -0.060 A 
ATOM      2  C   LIG d   1       3.219  -0.790  -7.638  0.00  0.00    -0.057 A 
ATOM      3  C   LIG d   1       4.449  -1.291  -8.026  0.00  0.00    -0.032 A 
ATOM      4  C   LIG d   1       4.854  -1.192  -9.342  0.00  0.00    -0.040 A 
ATOM      5  C   LIG d   1       4.019  -0.586 -10.281  0.00  0.00     0.052 A 
ATOM      6  C   LIG d   1       2.779  -0.082  -9.883  0.00  0.00    -0.044 A 
ATOM      7  C   LIG d   1       4.434  -0.479 -11.648  0.00  0.00     0.099 C 
ATOM      8  N   LIG d   1       4.762  -0.394 -12.732  0.00  0.00    -0.191 NA
ATOM      9  H   LIG d   1       1.426   0.198  -8.256  0.00  0.00     0.062 H 
ATOM     10  H   LIG d   1       2.907  -0.870  -6.607  0.00  0.00     0.062 H 
ATOM     11  H   LIG d   1       5.815  -1.583  -9.642  0.00  0.00     0.063 H 
ATOM     12  H   LIG d   1       2.129   0.389 -10.605  0.00  0.00     0.063 H 
ENDROOT
BRANCH   3  13
ATOM     13  C   LIG d   1       5.350  -1.945  -7.009  0.00  0.00     0.025 C 
ATOM     14  H   LIG d   1       5.287  -3.028  -7.111  0.00  0.00     0.048 H 
ATOM     15  H   LIG d   1       6.378  -1.622  -7.174  0.00  0.00     0.048 H 
BRANCH  13  16
ATOM     16  N   LIG d   1       4.925  -1.556  -5.658  0.00  0.00    -0.279 N 
ATOM     17  C   LIG d   1       5.183  -2.634  -4.694  0.00  0.00     0.098 C 
ATOM     18  C   LIG d   1       4.394  -2.370  -3.403  0.00  0.00     0.037 C 
ATOM     19  H   LIG d   1       6.249  -2.670  -4.467  0.00  0.00     0.057 H 
ATOM     20  C   LIG d   1       4.645  -0.943  -2.992  0.00  0.00     0.148 A 
ATOM     21  H   LIG d   1       4.734  -3.045  -2.618  0.00  0.00     0.037 H 
ATOM     22  H   LIG d   1       3.329  -2.520  -3.585  0.00  0.00     0.037 H 
ATOM     23  C   LIG d   1       5.174  -0.010  -3.816  0.00  0.00     0.159 A 
ATOM     24  N   LIG d   1       4.414  -0.337  -1.798  0.00  0.00    -0.247 N 
ATOM     25  C   LIG d   1       5.568  -0.296  -5.244  0.00  0.00     0.066 C 
ATOM     26  N   LIG d   1       5.266   1.134  -3.138  0.00  0.00    -0.246 N 
ATOM     27  H   LIG d   1       6.651  -0.398  -5.314  0.00  0.00     0.051 H 
ATOM     28  H   LIG d   1       5.231   0.516  -5.888  0.00  0.00     0.051 H 
ATOM     29  C   LIG d   1       4.811   0.951  -1.925  0.00  0.00     0.243 A 
ATOM     30  H   LIG d   1       5.613   1.969  -3.489  0.00  0.00     0.310 HD
ATOM     31  H   LIG d   1       4.762   1.704  -1.152  0.00  0.00     0.158 H 
ATOM     32  H   LIG d   1       4.036  -0.749  -1.005  0.00  0.00     0.310 HD
BRANCH  17  33
ATOM     33  C   LIG d   1       4.750  -3.951  -5.286  0.00  0.00     0.245 A 
ATOM     34  O   LIG d   1       3.621  -4.168  -5.973  0.00  0.00    -0.336 OA
ATOM     35  N   LIG d   1       3.631  -5.540  -6.336  0.00  0.00    -0.056 NA
ATOM     36  C   LIG d   1       4.736  -6.046  -5.848  0.00  0.00     0.202 A 
ATOM     37  N   LIG d   1       5.410  -5.072  -5.211  0.00  0.00    -0.190 NA
BRANCH  36  38
ATOM     38  C   LIG d   1       5.172  -7.459  -5.978  0.00  0.00     0.025 A 
ATOM     39  C   LIG d   1       6.149  -7.989  -5.132  0.00  0.00    -0.033 A 
ATOM     40  C   LIG d   1       6.523  -9.309  -5.284  0.00  0.00     0.028 A 
ATOM     41  H   LIG d   1       6.603  -7.376  -4.367  0.00  0.00     0.064 H 
ATOM     42  N   LIG d   1       5.978 -10.063  -6.220  0.00  0.00    -0.263 NA
ATOM     43  H   LIG d   1       7.273  -9.730  -4.632  0.00  0.00     0.083 H 
ATOM     44  C   LIG d   1       5.057  -9.600  -7.042  0.00  0.00     0.028 A 
ATOM     45  C   LIG d   1       4.622  -8.292  -6.954  0.00  0.00    -0.033 A 
ATOM     46  H   LIG d   1       4.637 -10.252  -7.794  0.00  0.00     0.083 H 
ATOM     47  H   LIG d   1       3.868  -7.919  -7.631  0.00  0.00     0.064 H 
ENDBRANCH  36  38
ENDBRANCH  17  33
ENDBRANCH  13  16
ENDBRANCH   3  13
TORSDOF 4
ENDMDL
MODEL 8
REMARK VINA RESULT:      -6.6      2.940      6.020
REMARK  4 active torsions:
REMARK  status: ('A' for Active; 'I' for Inactive)
REMARK    1  A    between atoms: C_3  and  C_9 
REMARK    2  A    between atoms: C_9  and  N_10 
REMARK    3  A    between atoms: C_19  and  C_21 
REMARK    4  A    between atoms: C_23  and  C_26 
ROOT
ATOM      1  C   LIG d   1       7.850  -0.274  -7.975  0.00  0.00    -0.060 A 
ATOM      2  C   LIG d   1       6.542   0.099  -8.234  0.00  0.00    -0.057 A 
ATOM      3  C   LIG d   1       6.253   1.382  -8.660  0.00  0.00    -0.032 A 
ATOM      4  C   LIG d   1       7.269   2.301  -8.832  0.00  0.00    -0.040 A 
ATOM      5  C   LIG d   1       8.589   1.932  -8.573  0.00  0.00     0.052 A 
ATOM      6  C   LIG d   1       8.874   0.634  -8.143  0.00  0.00    -0.044 A 
ATOM      7  C   LIG d   1       9.648   2.880  -8.749  0.00  0.00     0.099 C 
ATOM      8  N   LIG d   1      10.488   3.632  -8.889  0.00  0.00    -0.191 NA
ATOM      9  H   LIG d   1       8.068  -1.276  -7.638  0.00  0.00     0.062 H 
ATOM     10  H   LIG d   1       5.744  -0.616  -8.102  0.00  0.00     0.062 H 
ATOM     11  H   LIG d   1       7.041   3.303  -9.166  0.00  0.00     0.063 H 
ATOM     12  H   LIG d   1       9.894   0.343  -7.941  0.00  0.00     0.063 H 
ENDROOT
BRANCH   3  13
ATOM     13  C   LIG d   1       4.826   1.778  -8.941  0.00  0.00     0.025 C 
ATOM     14  H   LIG d   1       4.348   2.095  -8.015  0.00  0.00     0.048 H 
ATOM     15  H   LIG d   1       4.811   2.599  -9.658  0.00  0.00     0.048 H 
BRANCH  13  16
ATOM     16  N   LIG d   1       4.100   0.629  -9.498  0.00  0.00    -0.279 N 
ATOM     17  C   LIG d   1       2.755   0.524  -8.916  0.00  0.00     0.098 C 
ATOM     18  C   LIG d   1       2.176  -0.869  -9.205  0.00  0.00     0.037 C 
ATOM     19  H   LIG d   1       2.109   1.284  -9.355  0.00  0.00     0.057 H 
ATOM     20  C   LIG d   1       2.365  -1.151 -10.674  0.00  0.00     0.148 A 
ATOM     21  H   LIG d   1       1.115  -0.887  -8.960  0.00  0.00     0.037 H 
ATOM     22  H   LIG d   1       2.705  -1.618  -8.615  0.00  0.00     0.037 H 
ATOM     23  C   LIG d   1       3.203  -0.446 -11.468  0.00  0.00     0.159 A 
ATOM     24  N   LIG d   1       1.776  -2.097 -11.452  0.00  0.00    -0.247 N 
ATOM     25  C   LIG d   1       4.048   0.699 -10.969  0.00  0.00     0.066 C 
ATOM     26  N   LIG d   1       3.123  -0.950 -12.700  0.00  0.00    -0.246 N 
ATOM     27  H   LIG d   1       3.602   1.646 -11.275  0.00  0.00     0.051 H 
ATOM     28  H   LIG d   1       5.055   0.618 -11.376  0.00  0.00     0.051 H 
ATOM     29  C   LIG d   1       2.271  -1.943 -12.703  0.00  0.00     0.243 A 
ATOM     30  H   LIG d   1       3.619  -0.632 -13.471  0.00  0.00     0.310 HD
ATOM     31  H   LIG d   1       2.004  -2.540 -13.562  0.00  0.00     0.158 H 
ATOM     32  H   LIG d   1       1.126  -2.757 -11.165  0.00  0.00     0.310 HD
BRANCH  17  33
ATOM     33  C   LIG d   1       2.836   0.733  -7.425  0.00  0.00     0.245 A 
ATOM     34  O   LIG d   1       2.452   1.834  -6.767  0.00  0.00    -0.336 OA
ATOM     35  N   LIG d   1       2.706   1.588  -5.392  0.00  0.00    -0.056 NA
ATOM     36  C   LIG d   1       3.219   0.385  -5.319  0.00  0.00     0.202 A 
ATOM     37  N   LIG d   1       3.294  -0.126  -6.560  0.00  0.00    -0.190 NA
BRANCH  36  38
ATOM     38  C   LIG d   1       3.646  -0.299  -4.073  0.00  0.00     0.025 A 
ATOM     39  C   LIG d   1       3.959   0.432  -2.924  0.00  0.00    -0.033 A 
ATOM     40  C   LIG d   1       4.349  -0.245  -1.785  0.00  0.00     0.028 A 
ATOM     41  H   LIG d   1       3.895   1.510  -2.926  0.00  0.00     0.064 H 
ATOM     42  N   LIG d   1       4.436  -1.561  -1.776  0.00  0.00    -0.263 NA
ATOM     43  H   LIG d   1       4.588   0.311  -0.891  0.00  0.00     0.083 H 
ATOM     44  C   LIG d   1       4.155  -2.287  -2.840  0.00  0.00     0.028 A 
ATOM     45  C   LIG d   1       3.753  -1.691  -4.019  0.00  0.00    -0.033 A 
ATOM     46  H   LIG d   1       4.239  -3.362  -2.789  0.00  0.00     0.083 H 
ATOM     47  H   LIG d   1       3.524  -2.291  -4.887  0.00  0.00     0.064 H 
ENDBRANCH  36  38
ENDBRANCH  17  33
ENDBRANCH  13  16
ENDBRANCH   3  13
TORSDOF 4
ENDMDL
MODEL 9
REMARK VINA RESULT:      -6.5      2.512      4.427
REMARK  4 active torsions:
REMARK  status: ('A' for Active; 'I' for Inactive)
REMARK    1  A    between atoms: C_3  and  C_9 
REMARK    2  A    between atoms: C_9  and  N_10 
REMARK    3  A    between atoms: C_19  and  C_21 
REMARK    4  A    between atoms: C_23  and  C_26 
ROOT
ATOM      1  C   LIG d   1       3.208   0.091  -2.715  0.00  0.00    -0.060 A 
ATOM      2  C   LIG d   1       4.537  -0.231  -2.507  0.00  0.00    -0.057 A 
ATOM      3  C   LIG d   1       5.371  -0.488  -3.582  0.00  0.00    -0.032 A 
ATOM      4  C   LIG d   1       4.879  -0.423  -4.870  0.00  0.00    -0.040 A 
ATOM      5  C   LIG d   1       3.540  -0.098  -5.086  0.00  0.00     0.052 A 
ATOM      6  C   LIG d   1       2.705   0.160  -3.997  0.00  0.00    -0.044 A 
ATOM      7  C   LIG d   1       3.024  -0.028  -6.421  0.00  0.00     0.099 C 
ATOM      8  N   LIG d   1       2.614   0.028  -7.479  0.00  0.00    -0.191 NA
ATOM      9  H   LIG d   1       2.563   0.286  -1.871  0.00  0.00     0.062 H 
ATOM     10  H   LIG d   1       4.927  -0.284  -1.501  0.00  0.00     0.062 H 
ATOM     11  H   LIG d   1       5.531  -0.622  -5.708  0.00  0.00     0.063 H 
ATOM     12  H   LIG d   1       1.667   0.412  -4.158  0.00  0.00     0.063 H 
ENDROOT
BRANCH   3  13
ATOM     13  C   LIG d   1       6.818  -0.837  -3.346  0.00  0.00     0.025 C 
ATOM     14  H   LIG d   1       7.410   0.076  -3.305  0.00  0.00     0.048 H 
ATOM     15  H   LIG d   1       6.912  -1.375  -2.402  0.00  0.00     0.048 H 
BRANCH  13  16
ATOM     16  N   LIG d   1       7.301  -1.686  -4.443  0.00  0.00    -0.279 N 
ATOM     17  C   LIG d   1       8.587  -1.197  -4.959  0.00  0.00     0.098 C 
ATOM     18  C   LIG d   1       8.872  -1.841  -6.324  0.00  0.00     0.037 C 
ATOM     19  H   LIG d   1       9.382  -1.459  -4.261  0.00  0.00     0.057 H 
ATOM     20  C   LIG d   1       8.652  -3.325  -6.189  0.00  0.00     0.148 A 
ATOM     21  H   LIG d   1       9.904  -1.646  -6.616  0.00  0.00     0.037 H 
ATOM     22  H   LIG d   1       8.192  -1.434  -7.073  0.00  0.00     0.037 H 
ATOM     23  C   LIG d   1       7.988  -3.891  -5.155  0.00  0.00     0.159 A 
ATOM     24  N   LIG d   1       9.046  -4.333  -7.011  0.00  0.00    -0.247 N 
ATOM     25  C   LIG d   1       7.388  -3.095  -4.022  0.00  0.00     0.066 C 
ATOM     26  N   LIG d   1       7.982  -5.211  -5.343  0.00  0.00    -0.246 N 
ATOM     27  H   LIG d   1       8.024  -3.175  -3.140  0.00  0.00     0.051 H 
ATOM     28  H   LIG d   1       6.392  -3.473  -3.795  0.00  0.00     0.051 H 
ATOM     29  C   LIG d   1       8.613  -5.489  -6.455  0.00  0.00     0.243 A 
ATOM     30  H   LIG d   1       7.573  -5.861  -4.750  0.00  0.00     0.310 HD
ATOM     31  H   LIG d   1       8.764  -6.478  -6.862  0.00  0.00     0.158 H 
ATOM     32  H   LIG d   1       9.542  -4.241  -7.839  0.00  0.00     0.310 HD
BRANCH  17  33
ATOM     33  C   LIG d   1       8.528   0.301  -5.114  0.00  0.00     0.245 A 
ATOM     34  O   LIG d   1       7.857   0.965  -6.064  0.00  0.00    -0.336 OA
ATOM     35  N   LIG d   1       8.081   2.346  -5.823  0.00  0.00    -0.056 NA
ATOM     36  C   LIG d   1       8.861   2.417  -4.773  0.00  0.00     0.202 A 
ATOM     37  N   LIG d   1       9.127   1.169  -4.350  0.00  0.00    -0.190 NA
BRANCH  36  38
ATOM     38  C   LIG d   1       9.365   3.668  -4.153  0.00  0.00     0.025 A 
ATOM     39  C   LIG d   1       9.263   4.891  -4.820  0.00  0.00    -0.033 A 
ATOM     40  C   LIG d   1       9.741   6.032  -4.206  0.00  0.00     0.028 A 
ATOM     41  H   LIG d   1       8.813   4.945  -5.801  0.00  0.00     0.064 H 
ATOM     42  N   LIG d   1      10.297   5.975  -3.011  0.00  0.00    -0.263 NA
ATOM     43  H   LIG d   1       9.662   6.983  -4.711  0.00  0.00     0.083 H 
ATOM     44  C   LIG d   1      10.418   4.840  -2.350  0.00  0.00     0.028 A 
ATOM     45  C   LIG d   1       9.961   3.654  -2.890  0.00  0.00    -0.033 A 
ATOM     46  H   LIG d   1      10.880   4.838  -1.374  0.00  0.00     0.083 H 
ATOM     47  H   LIG d   1      10.064   2.728  -2.343  0.00  0.00     0.064 H 
ENDBRANCH  36  38
ENDBRANCH  17  33
ENDBRANCH  13  16
ENDBRANCH   3  13
TORSDOF 4
ENDMDL
MODEL 10
REMARK VINA RESULT:      -6.5      4.601      7.771
REMARK  4 active torsions:
REMARK  status: ('A' for Active; 'I' for Inactive)
REMARK    1  A    between atoms: C_3  and  C_9 
REMARK    2  A    between atoms: C_9  and  N_10 
REMARK    3  A    between atoms: C_19  and  C_21 
REMARK    4  A    between atoms: C_23  and  C_26 
ROOT
ATOM      1  C   LIG d   1       3.944  -1.935  -2.460  0.00  0.00    -0.060 A 
ATOM      2  C   LIG d   1       4.366  -2.936  -3.318  0.00  0.00    -0.057 A 
ATOM      3  C   LIG d   1       5.420  -2.714  -4.186  0.00  0.00    -0.032 A 
ATOM      4  C   LIG d   1       6.058  -1.491  -4.202  0.00  0.00    -0.040 A 
ATOM      5  C   LIG d   1       5.638  -0.477  -3.340  0.00  0.00     0.052 A 
ATOM      6  C   LIG d   1       4.573  -0.708  -2.466  0.00  0.00    -0.044 A 
ATOM      7  C   LIG d   1       6.297   0.795  -3.351  0.00  0.00     0.099 C 
ATOM      8  N   LIG d   1       6.819   1.804  -3.359  0.00  0.00    -0.191 NA
ATOM      9  H   LIG d   1       3.118  -2.114  -1.788  0.00  0.00     0.062 H 
ATOM     10  H   LIG d   1       3.870  -3.896  -3.309  0.00  0.00     0.062 H 
ATOM     11  H   LIG d   1       6.882  -1.319  -4.879  0.00  0.00     0.063 H 
ATOM     12  H   LIG d   1       4.243   0.073  -1.797  0.00  0.00     0.063 H 
ENDROOT
BRANCH   3  13
ATOM     13  C   LIG d   1       5.873  -3.811  -5.115  0.00  0.00     0.025 C 
ATOM     14  H   LIG d   1       6.953  -3.754  -5.245  0.00  0.00     0.048 H 
ATOM     15  H   LIG d   1       5.608  -4.780  -4.690  0.00  0.00     0.048 H 
BRANCH  13  16
ATOM     16  N   LIG d   1       5.214  -3.651  -6.418  0.00  0.00    -0.279 N 
ATOM     17  C   LIG d   1       4.302  -4.771  -6.687  0.00  0.00     0.098 C 
ATOM     18  C   LIG d   1       3.934  -4.789  -8.178  0.00  0.00     0.037 C 
ATOM     19  H   LIG d   1       3.396  -4.653  -6.091  0.00  0.00     0.057 H 
ATOM     20  C   LIG d   1       3.518  -3.394  -8.568  0.00  0.00     0.148 A 
ATOM     21  H   LIG d   1       3.109  -5.480  -8.347  0.00  0.00     0.037 H 
ATOM     22  H   LIG d   1       4.799  -5.094  -8.767  0.00  0.00     0.037 H 
ATOM     23  C   LIG d   1       3.777  -2.300  -7.815  0.00  0.00     0.159 A 
ATOM     24  N   LIG d   1       2.845  -2.972  -9.670  0.00  0.00    -0.247 N 
ATOM     25  C   LIG d   1       4.518  -2.355  -6.502  0.00  0.00     0.066 C 
ATOM     26  N   LIG d   1       3.270  -1.239  -8.444  0.00  0.00    -0.246 N 
ATOM     27  H   LIG d   1       3.810  -2.265  -5.677  0.00  0.00     0.051 H 
ATOM     28  H   LIG d   1       5.244  -1.545  -6.455  0.00  0.00     0.051 H 
ATOM     29  C   LIG d   1       2.709  -1.629  -9.559  0.00  0.00     0.243 A 
ATOM     30  H   LIG d   1       3.312  -0.324  -8.125  0.00  0.00     0.310 HD
ATOM     31  H   LIG d   1       2.217  -0.986 -10.274  0.00  0.00     0.158 H 
ATOM     32  H   LIG d   1       2.523  -3.527 -10.397  0.00  0.00     0.310 HD
BRANCH  17  33
ATOM     33  C   LIG d   1       4.978  -6.068  -6.322  0.00  0.00     0.245 A 
ATOM     34  O   LIG d   1       6.053  -6.588  -6.927  0.00  0.00    -0.336 OA
ATOM     35  N   LIG d   1       6.341  -7.805  -6.256  0.00  0.00    -0.056 NA
ATOM     36  C   LIG d   1       5.435  -7.935  -5.318  0.00  0.00     0.202 A 
ATOM     37  N   LIG d   1       4.611  -6.874  -5.367  0.00  0.00    -0.190 NA
BRANCH  36  38
ATOM     38  C   LIG d   1       5.337  -9.066  -4.361  0.00  0.00     0.025 A 
ATOM     39  C   LIG d   1       4.112  -9.688  -4.109  0.00  0.00    -0.033 A 
ATOM     40  C   LIG d   1       4.066 -10.739  -3.214  0.00  0.00     0.028 A 
ATOM     41  H   LIG d   1       3.214  -9.354  -4.608  0.00  0.00     0.064 H 
ATOM     42  N   LIG d   1       5.156 -11.149  -2.594  0.00  0.00    -0.263 NA
ATOM     43  H   LIG d   1       3.124 -11.229  -3.016  0.00  0.00     0.083 H 
ATOM     44  C   LIG d   1       6.330 -10.585  -2.800  0.00  0.00     0.028 A 
ATOM     45  C   LIG d   1       6.466  -9.532  -3.683  0.00  0.00    -0.033 A 
ATOM     46  H   LIG d   1       7.198 -10.953  -2.272  0.00  0.00     0.083 H 
ATOM     47  H   LIG d   1       7.430  -9.075  -3.847  0.00  0.00     0.064 H 
ENDBRANCH  36  38
ENDBRANCH  17  33
ENDBRANCH  13  16
ENDBRANCH   3  13
TORSDOF 4
ENDMDL
