MODEL 1
REMARK VINA RESULT:      -5.9      0.000      0.000
REMARK  7 active torsions:
REMARK  status: ('A' for Active; 'I' for Inactive)
REMARK    1  A    between atoms: C_1  and  C_2 
REMARK    2  A    between atoms: C_2  and  O_3 
REMARK    3  A    between atoms: O_3  and  C_4 
REMARK    4  A    between atoms: C_4  and  C_6 
REMARK    5  A    between atoms: C_9  and  C_11 
REMARK    6  A    between atoms: C_16  and  O_23 
REMARK    7  A    between atoms: C_18  and  O_22 
ROOT
ATOM      1  C   LIG d   1       7.941   1.046  -4.176  0.00  0.00     0.099 A 
ATOM      2  C   LIG d   1       8.465   0.052  -4.946  0.00  0.00     0.107 A 
ATOM      3  O   LIG d   1       7.858  -1.126  -5.106  0.00  0.00    -0.462 OA
ATOM      4  C   LIG d   1       6.675  -1.434  -4.535  0.00  0.00     0.145 A 
ATOM      5  C   LIG d   1       6.094  -2.676  -4.747  0.00  0.00     0.023 A 
ATOM      6  C   LIG d   1       4.883  -2.987  -4.151  0.00  0.00     0.124 A 
ATOM      7  C   LIG d   1       4.233  -2.064  -3.338  0.00  0.00     0.022 A 
ATOM      8  C   LIG d   1       4.793  -0.821  -3.114  0.00  0.00     0.135 A 
ATOM      9  C   LIG d   1       6.020  -0.500  -3.713  0.00  0.00     0.106 A 
ATOM     10  C   LIG d   1       6.651   0.812  -3.500  0.00  0.00     0.207 A 
ATOM     11  O   LIG d   1       6.133   1.665  -2.799  0.00  0.00    -0.286 OA
ATOM     12  H   LIG d   1       9.409   0.220  -5.442  0.00  0.00     0.104 H 
ATOM     13  H   LIG d   1       6.588  -3.401  -5.377  0.00  0.00     0.069 H 
ATOM     14  H   LIG d   1       3.288  -2.320  -2.881  0.00  0.00     0.069 H 
ENDROOT
BRANCH   1  15
ATOM     15  C   LIG d   1       8.649   2.330  -4.022  0.00  0.00     0.143 A 
ATOM     16  C   LIG d   1       8.668   3.355  -4.943  0.00  0.00    -0.015 A 
ATOM     17  C   LIG d   1       9.451   4.376  -4.401  0.00  0.00    -0.009 A 
ATOM     18  H   LIG d   1       8.171   3.367  -5.902  0.00  0.00     0.066 H 
ATOM     19  C   LIG d   1       9.883   3.937  -3.166  0.00  0.00     0.212 A 
ATOM     20  H   LIG d   1       9.676   5.327  -4.860  0.00  0.00     0.066 H 
ATOM     21  O   LIG d   1       9.382   2.700  -2.958  0.00  0.00    -0.448 OA
BRANCH  19  22
ATOM     22  C   LIG d   1      10.708   4.661  -2.268  0.00  0.00     0.375 C 
ATOM     23  O   LIG d   1      11.918   4.611  -2.380  0.00  0.00    -0.241 OA
BRANCH  22  24
ATOM     24  O   LIG d   1      10.150   5.403  -1.289  0.00  0.00    -0.459 OA
BRANCH  24  25
ATOM     25  C   LIG d   1      11.009   6.308  -0.591  0.00  0.00     0.090 C 
ATOM     26  H   LIG d   1      11.991   6.314  -1.065  0.00  0.00     0.070 H 
ATOM     27  H   LIG d   1      10.584   7.311  -0.622  0.00  0.00     0.070 H 
BRANCH  25  28
ATOM     28  C   LIG d   1      11.148   5.857   0.865  0.00  0.00    -0.031 C 
ATOM     29  H   LIG d   1      11.280   4.775   0.898  0.00  0.00     0.026 H 
ATOM     30  H   LIG d   1      12.016   6.342   1.314  0.00  0.00     0.026 H 
ATOM     31  H   LIG d   1      10.251   6.131   1.417  0.00  0.00     0.026 H 
ENDBRANCH  25  28
ENDBRANCH  24  25
ENDBRANCH  22  24
ENDBRANCH  19  22
ENDBRANCH   1  15
BRANCH   8  32
ATOM     32  O   LIG d   1       4.162   0.081  -2.322  0.00  0.00    -0.506 OA
ATOM     33  H   LIG d   1       3.255   0.275  -2.592  0.00  0.00     0.292 HD
ENDBRANCH   8  32
BRANCH   6  34
ATOM     34  O   LIG d   1       4.323  -4.205  -4.364  0.00  0.00    -0.506 OA
ATOM     35  H   LIG d   1       3.380  -4.248  -4.149  0.00  0.00     0.292 HD
ENDBRANCH   6  34
TORSDOF 7
ENDMDL
MODEL 2
REMARK VINA RESULT:      -5.9      5.791      9.175
REMARK  7 active torsions:
REMARK  status: ('A' for Active; 'I' for Inactive)
REMARK    1  A    between atoms: C_1  and  C_2 
REMARK    2  A    between atoms: C_2  and  O_3 
REMARK    3  A    between atoms: O_3  and  C_4 
REMARK    4  A    between atoms: C_4  and  C_6 
REMARK    5  A    between atoms: C_9  and  C_11 
REMARK    6  A    between atoms: C_16  and  O_23 
REMARK    7  A    between atoms: C_18  and  O_22 
ROOT
ATOM      1  C   LIG d   1      11.112   8.467   0.426  0.00  0.00     0.099 A 
ATOM      2  C   LIG d   1      10.485   9.239  -0.506  0.00  0.00     0.107 A 
ATOM      3  O   LIG d   1      10.010   8.738  -1.648  0.00  0.00    -0.462 OA
ATOM      4  C   LIG d   1      10.095   7.433  -1.978  0.00  0.00     0.145 A 
ATOM      5  C   LIG d   1       9.575   6.976  -3.180  0.00  0.00     0.023 A 
ATOM      6  C   LIG d   1       9.672   5.635  -3.515  0.00  0.00     0.124 A 
ATOM      7  C   LIG d   1      10.287   4.732  -2.655  0.00  0.00     0.022 A 
ATOM      8  C   LIG d   1      10.812   5.165  -1.452  0.00  0.00     0.135 A 
ATOM      9  C   LIG d   1      10.718   6.521  -1.108  0.00  0.00     0.106 A 
ATOM     10  C   LIG d   1      11.264   7.024   0.162  0.00  0.00     0.207 A 
ATOM     11  O   LIG d   1      11.815   6.283   0.959  0.00  0.00    -0.286 OA
ATOM     12  H   LIG d   1      10.373  10.295  -0.316  0.00  0.00     0.104 H 
ATOM     13  H   LIG d   1       9.093   7.668  -3.856  0.00  0.00     0.069 H 
ATOM     14  H   LIG d   1      10.355   3.689  -2.929  0.00  0.00     0.069 H 
ENDROOT
BRANCH   1  15
ATOM     15  C   LIG d   1      11.627   9.064   1.672  0.00  0.00     0.143 A 
ATOM     16  C   LIG d   1      12.144  10.334   1.803  0.00  0.00    -0.015 A 
ATOM     17  C   LIG d   1      12.511  10.489   3.141  0.00  0.00    -0.009 A 
ATOM     18  H   LIG d   1      12.244  11.071   1.019  0.00  0.00     0.066 H 
ATOM     19  C   LIG d   1      12.205   9.305   3.780  0.00  0.00     0.212 A 
ATOM     20  H   LIG d   1      12.951  11.368   3.590  0.00  0.00     0.066 H 
ATOM     21  O   LIG d   1      11.668   8.461   2.872  0.00  0.00    -0.448 OA
BRANCH  19  22
ATOM     22  C   LIG d   1      12.414   9.024   5.154  0.00  0.00     0.375 C 
ATOM     23  O   LIG d   1      11.857   9.693   6.003  0.00  0.00    -0.241 OA
BRANCH  22  24
ATOM     24  O   LIG d   1      13.233   8.014   5.519  0.00  0.00    -0.459 OA
BRANCH  24  25
ATOM     25  C   LIG d   1      12.698   7.038   6.417  0.00  0.00     0.090 C 
ATOM     26  H   LIG d   1      13.510   6.432   6.819  0.00  0.00     0.070 H 
ATOM     27  H   LIG d   1      12.181   7.541   7.234  0.00  0.00     0.070 H 
BRANCH  25  28
ATOM     28  C   LIG d   1      11.714   6.140   5.665  0.00  0.00    -0.031 C 
ATOM     29  H   LIG d   1      12.027   6.051   4.624  0.00  0.00     0.026 H 
ATOM     30  H   LIG d   1      11.701   5.151   6.126  0.00  0.00     0.026 H 
ATOM     31  H   LIG d   1      10.718   6.575   5.709  0.00  0.00     0.026 H 
ENDBRANCH  25  28
ENDBRANCH  24  25
ENDBRANCH  22  24
ENDBRANCH  19  22
ENDBRANCH   1  15
BRANCH   8  32
ATOM     32  O   LIG d   1      11.412   4.287  -0.612  0.00  0.00    -0.506 OA
ATOM     33  H   LIG d   1      11.804   4.695   0.172  0.00  0.00     0.292 HD
ENDBRANCH   8  32
BRANCH   6  34
ATOM     34  O   LIG d   1       9.160   5.198  -4.694  0.00  0.00    -0.506 OA
ATOM     35  H   LIG d   1       9.795   4.721  -5.246  0.00  0.00     0.292 HD
ENDBRANCH   6  34
TORSDOF 7
ENDMDL
MODEL 3
REMARK VINA RESULT:      -5.6      2.350      8.855
REMARK  7 active torsions:
REMARK  status: ('A' for Active; 'I' for Inactive)
REMARK    1  A    between atoms: C_1  and  C_2 
REMARK    2  A    between atoms: C_2  and  O_3 
REMARK    3  A    between atoms: O_3  and  C_4 
REMARK    4  A    between atoms: C_4  and  C_6 
REMARK    5  A    between atoms: C_9  and  C_11 
REMARK    6  A    between atoms: C_16  and  O_23 
REMARK    7  A    between atoms: C_18  and  O_22 
ROOT
ATOM      1  C   LIG d   1      10.485   5.257  -2.007  0.00  0.00     0.099 A 
ATOM      2  C   LIG d   1      11.430   4.966  -1.069  0.00  0.00     0.107 A 
ATOM      3  O   LIG d   1      11.829   5.854  -0.156  0.00  0.00    -0.462 OA
ATOM      4  C   LIG d   1      11.331   7.104  -0.070  0.00  0.00     0.145 A 
ATOM      5  C   LIG d   1      11.786   7.977   0.908  0.00  0.00     0.023 A 
ATOM      6  C   LIG d   1      11.275   9.262   0.986  0.00  0.00     0.124 A 
ATOM      7  C   LIG d   1      10.302   9.694   0.091  0.00  0.00     0.022 A 
ATOM      8  C   LIG d   1       9.834   8.842  -0.891  0.00  0.00     0.135 A 
ATOM      9  C   LIG d   1      10.348   7.540  -0.976  0.00  0.00     0.106 A 
ATOM     10  C   LIG d   1       9.878   6.601  -2.007  0.00  0.00     0.207 A 
ATOM     11  O   LIG d   1       9.027   6.918  -2.820  0.00  0.00    -0.286 OA
ATOM     12  H   LIG d   1      11.877   3.983  -1.067  0.00  0.00     0.104 H 
ATOM     13  H   LIG d   1      12.541   7.653   1.610  0.00  0.00     0.069 H 
ATOM     14  H   LIG d   1       9.911  10.699   0.164  0.00  0.00     0.069 H 
ENDROOT
BRANCH   1  15
ATOM     15  C   LIG d   1      10.078   4.247  -3.002  0.00  0.00     0.143 A 
ATOM     16  C   LIG d   1      10.617   4.095  -4.260  0.00  0.00    -0.015 A 
ATOM     17  C   LIG d   1       9.947   3.029  -4.865  0.00  0.00    -0.009 A 
ATOM     18  H   LIG d   1      11.408   4.687  -4.698  0.00  0.00     0.066 H 
ATOM     19  C   LIG d   1       9.021   2.568  -3.951  0.00  0.00     0.212 A 
ATOM     20  H   LIG d   1      10.120   2.640  -5.858  0.00  0.00     0.066 H 
ATOM     21  O   LIG d   1       9.124   3.317  -2.831  0.00  0.00    -0.448 OA
BRANCH  19  22
ATOM     22  C   LIG d   1       8.121   1.491  -4.151  0.00  0.00     0.375 C 
ATOM     23  O   LIG d   1       8.530   0.429  -4.582  0.00  0.00    -0.241 OA
BRANCH  22  24
ATOM     24  O   LIG d   1       6.811   1.645  -3.864  0.00  0.00    -0.459 OA
BRANCH  24  25
ATOM     25  C   LIG d   1       6.152   0.544  -3.232  0.00  0.00     0.090 C 
ATOM     26  H   LIG d   1       5.741  -0.118  -3.994  0.00  0.00     0.070 H 
ATOM     27  H   LIG d   1       6.868  -0.006  -2.621  0.00  0.00     0.070 H 
BRANCH  25  28
ATOM     28  C   LIG d   1       5.020   1.068  -2.347  0.00  0.00    -0.031 C 
ATOM     29  H   LIG d   1       5.404   1.266  -1.346  0.00  0.00     0.026 H 
ATOM     30  H   LIG d   1       4.624   1.991  -2.773  0.00  0.00     0.026 H 
ATOM     31  H   LIG d   1       4.228   0.323  -2.292  0.00  0.00     0.026 H 
ENDBRANCH  25  28
ENDBRANCH  24  25
ENDBRANCH  22  24
ENDBRANCH  19  22
ENDBRANCH   1  15
BRANCH   8  32
ATOM     32  O   LIG d   1       8.885   9.260  -1.765  0.00  0.00    -0.506 OA
ATOM     33  H   LIG d   1       9.105  10.084  -2.221  0.00  0.00     0.292 HD
ENDBRANCH   8  32
BRANCH   6  34
ATOM     34  O   LIG d   1      11.727  10.108   1.946  0.00  0.00    -0.506 OA
ATOM     35  H   LIG d   1      12.131  10.916   1.601  0.00  0.00     0.292 HD
ENDBRANCH   6  34
TORSDOF 7
ENDMDL
MODEL 4
REMARK VINA RESULT:      -5.6      5.073      7.437
REMARK  7 active torsions:
REMARK  status: ('A' for Active; 'I' for Inactive)
REMARK    1  A    between atoms: C_1  and  C_2 
REMARK    2  A    between atoms: C_2  and  O_3 
REMARK    3  A    between atoms: O_3  and  C_4 
REMARK    4  A    between atoms: C_4  and  C_6 
REMARK    5  A    between atoms: C_9  and  C_11 
REMARK    6  A    between atoms: C_16  and  O_23 
REMARK    7  A    between atoms: C_18  and  O_22 
ROOT
ATOM      1  C   LIG d   1       3.279  -0.123  -7.356  0.00  0.00     0.099 A 
ATOM      2  C   LIG d   1       2.782   0.885  -8.127  0.00  0.00     0.107 A 
ATOM      3  O   LIG d   1       2.604   0.759  -9.443  0.00  0.00    -0.462 OA
ATOM      4  C   LIG d   1       2.886  -0.370 -10.125  0.00  0.00     0.145 A 
ATOM      5  C   LIG d   1       2.672  -0.437 -11.494  0.00  0.00     0.023 A 
ATOM      6  C   LIG d   1       2.970  -1.598 -12.188  0.00  0.00     0.124 A 
ATOM      7  C   LIG d   1       3.484  -2.709 -11.527  0.00  0.00     0.022 A 
ATOM      8  C   LIG d   1       3.704  -2.664 -10.164  0.00  0.00     0.135 A 
ATOM      9  C   LIG d   1       3.406  -1.492  -9.455  0.00  0.00     0.106 A 
ATOM     10  C   LIG d   1       3.626  -1.403  -8.003  0.00  0.00     0.207 A 
ATOM     11  O   LIG d   1       4.074  -2.341  -7.365  0.00  0.00    -0.286 OA
ATOM     12  H   LIG d   1       2.527   1.822  -7.656  0.00  0.00     0.104 H 
ATOM     13  H   LIG d   1       2.272   0.418 -12.019  0.00  0.00     0.069 H 
ATOM     14  H   LIG d   1       3.711  -3.608 -12.081  0.00  0.00     0.069 H 
ENDROOT
BRANCH   1  15
ATOM     15  C   LIG d   1       3.465   0.062  -5.905  0.00  0.00     0.143 A 
ATOM     16  C   LIG d   1       2.458   0.176  -4.972  0.00  0.00    -0.015 A 
ATOM     17  C   LIG d   1       3.071   0.336  -3.727  0.00  0.00    -0.009 A 
ATOM     18  H   LIG d   1       1.395   0.147  -5.166  0.00  0.00     0.066 H 
ATOM     19  C   LIG d   1       4.433   0.314  -3.947  0.00  0.00     0.212 A 
ATOM     20  H   LIG d   1       2.574   0.455  -2.776  0.00  0.00     0.066 H 
ATOM     21  O   LIG d   1       4.646   0.142  -5.270  0.00  0.00    -0.448 OA
BRANCH  19  22
ATOM     22  C   LIG d   1       5.437   0.444  -2.954  0.00  0.00     0.375 C 
ATOM     23  O   LIG d   1       5.309   1.263  -2.064  0.00  0.00    -0.241 OA
BRANCH  22  24
ATOM     24  O   LIG d   1       6.534  -0.341  -2.996  0.00  0.00    -0.459 OA
BRANCH  24  25
ATOM     25  C   LIG d   1       6.320  -1.753  -3.073  0.00  0.00     0.090 C 
ATOM     26  H   LIG d   1       6.436  -2.191  -2.081  0.00  0.00     0.070 H 
ATOM     27  H   LIG d   1       5.312  -1.948  -3.441  0.00  0.00     0.070 H 
BRANCH  25  28
ATOM     28  C   LIG d   1       7.342  -2.372  -4.027  0.00  0.00    -0.031 C 
ATOM     29  H   LIG d   1       7.006  -3.367  -4.322  0.00  0.00     0.026 H 
ATOM     30  H   LIG d   1       7.438  -1.744  -4.914  0.00  0.00     0.026 H 
ATOM     31  H   LIG d   1       8.307  -2.447  -3.528  0.00  0.00     0.026 H 
ENDBRANCH  25  28
ENDBRANCH  24  25
ENDBRANCH  22  24
ENDBRANCH  19  22
ENDBRANCH   1  15
BRANCH   8  32
ATOM     32  O   LIG d   1       4.205  -3.745  -9.516  0.00  0.00    -0.506 OA
ATOM     33  H   LIG d   1       3.676  -4.032  -8.759  0.00  0.00     0.292 HD
ENDBRANCH   8  32
BRANCH   6  34
ATOM     34  O   LIG d   1       2.757  -1.653 -13.528  0.00  0.00    -0.506 OA
ATOM     35  H   LIG d   1       2.065  -2.277 -13.792  0.00  0.00     0.292 HD
ENDBRANCH   6  34
TORSDOF 7
ENDMDL
MODEL 5
REMARK VINA RESULT:      -5.5      5.180      7.222
REMARK  7 active torsions:
REMARK  status: ('A' for Active; 'I' for Inactive)
REMARK    1  A    between atoms: C_1  and  C_2 
REMARK    2  A    between atoms: C_2  and  O_3 
REMARK    3  A    between atoms: O_3  and  C_4 
REMARK    4  A    between atoms: C_4  and  C_6 
REMARK    5  A    between atoms: C_9  and  C_11 
REMARK    6  A    between atoms: C_16  and  O_23 
REMARK    7  A    between atoms: C_18  and  O_22 
ROOT
ATOM      1  C   LIG d   1       4.006  -0.500  -7.857  0.00  0.00     0.099 A 
ATOM      2  C   LIG d   1       3.478   0.590  -8.483  0.00  0.00     0.107 A 
ATOM      3  O   LIG d   1       2.600   0.485  -9.483  0.00  0.00    -0.462 OA
ATOM      4  C   LIG d   1       2.151  -0.696  -9.955  0.00  0.00     0.145 A 
ATOM      5  C   LIG d   1       1.233  -0.735 -10.995  0.00  0.00     0.023 A 
ATOM      6  C   LIG d   1       0.781  -1.952 -11.478  0.00  0.00     0.124 A 
ATOM      7  C   LIG d   1       1.237  -3.147 -10.931  0.00  0.00     0.022 A 
ATOM      8  C   LIG d   1       2.151  -3.132  -9.894  0.00  0.00     0.135 A 
ATOM      9  C   LIG d   1       2.613  -1.904  -9.401  0.00  0.00     0.106 A 
ATOM     10  C   LIG d   1       3.586  -1.843  -8.299  0.00  0.00     0.207 A 
ATOM     11  O   LIG d   1       4.024  -2.853  -7.776  0.00  0.00    -0.286 OA
ATOM     12  H   LIG d   1       3.783   1.574  -8.162  0.00  0.00     0.104 H 
ATOM     13  H   LIG d   1       0.870   0.186 -11.427  0.00  0.00     0.069 H 
ATOM     14  H   LIG d   1       0.875  -4.089 -11.317  0.00  0.00     0.069 H 
ENDROOT
BRANCH   1  15
ATOM     15  C   LIG d   1       4.978  -0.338  -6.760  0.00  0.00     0.143 A 
ATOM     16  C   LIG d   1       6.308  -0.013  -6.905  0.00  0.00    -0.015 A 
ATOM     17  C   LIG d   1       6.858   0.038  -5.622  0.00  0.00    -0.009 A 
ATOM     18  H   LIG d   1       6.829   0.169  -7.834  0.00  0.00     0.066 H 
ATOM     19  C   LIG d   1       5.840  -0.258  -4.738  0.00  0.00     0.212 A 
ATOM     20  H   LIG d   1       7.883   0.265  -5.370  0.00  0.00     0.066 H 
ATOM     21  O   LIG d   1       4.713  -0.476  -5.450  0.00  0.00    -0.448 OA
BRANCH  19  22
ATOM     22  C   LIG d   1       5.957  -0.318  -3.327  0.00  0.00     0.375 C 
ATOM     23  O   LIG d   1       6.154  -1.386  -2.778  0.00  0.00    -0.241 OA
BRANCH  22  24
ATOM     24  O   LIG d   1       5.847   0.809  -2.592  0.00  0.00    -0.459 OA
BRANCH  24  25
ATOM     25  C   LIG d   1       4.731   0.898  -1.703  0.00  0.00     0.090 C 
ATOM     26  H   LIG d   1       4.551  -0.077  -1.249  0.00  0.00     0.070 H 
ATOM     27  H   LIG d   1       4.945   1.628  -0.923  0.00  0.00     0.070 H 
BRANCH  25  28
ATOM     28  C   LIG d   1       3.490   1.333  -2.484  0.00  0.00    -0.031 C 
ATOM     29  H   LIG d   1       2.603   1.180  -1.870  0.00  0.00     0.026 H 
ATOM     30  H   LIG d   1       3.576   2.390  -2.742  0.00  0.00     0.026 H 
ATOM     31  H   LIG d   1       3.409   0.743  -3.395  0.00  0.00     0.026 H 
ENDBRANCH  25  28
ENDBRANCH  24  25
ENDBRANCH  22  24
ENDBRANCH  19  22
ENDBRANCH   1  15
BRANCH   8  32
ATOM     32  O   LIG d   1       2.597  -4.295  -9.358  0.00  0.00    -0.506 OA
ATOM     33  H   LIG d   1       2.408  -4.392  -8.415  0.00  0.00     0.292 HD
ENDBRANCH   8  32
BRANCH   6  34
ATOM     34  O   LIG d   1      -0.116  -1.979 -12.496  0.00  0.00    -0.506 OA
ATOM     35  H   LIG d   1      -0.705  -2.747 -12.482  0.00  0.00     0.292 HD
ENDBRANCH   6  34
TORSDOF 7
ENDMDL
MODEL 6
REMARK VINA RESULT:      -5.3      3.869      6.257
REMARK  7 active torsions:
REMARK  status: ('A' for Active; 'I' for Inactive)
REMARK    1  A    between atoms: C_1  and  C_2 
REMARK    2  A    between atoms: C_2  and  O_3 
REMARK    3  A    between atoms: O_3  and  C_4 
REMARK    4  A    between atoms: C_4  and  C_6 
REMARK    5  A    between atoms: C_9  and  C_11 
REMARK    6  A    between atoms: C_16  and  O_23 
REMARK    7  A    between atoms: C_18  and  O_22 
ROOT
ATOM      1  C   LIG d   1       6.933  -3.593  -4.796  0.00  0.00     0.099 A 
ATOM      2  C   LIG d   1       8.039  -4.378  -4.662  0.00  0.00     0.107 A 
ATOM      3  O   LIG d   1       8.040  -5.675  -4.979  0.00  0.00    -0.462 OA
ATOM      4  C   LIG d   1       6.960  -6.319  -5.467  0.00  0.00     0.145 A 
ATOM      5  C   LIG d   1       7.030  -7.669  -5.783  0.00  0.00     0.023 A 
ATOM      6  C   LIG d   1       5.916  -8.325  -6.278  0.00  0.00     0.124 A 
ATOM      7  C   LIG d   1       4.716  -7.646  -6.467  0.00  0.00     0.022 A 
ATOM      8  C   LIG d   1       4.625  -6.302  -6.160  0.00  0.00     0.135 A 
ATOM      9  C   LIG d   1       5.749  -5.631  -5.658  0.00  0.00     0.106 A 
ATOM     10  C   LIG d   1       5.693  -4.200  -5.317  0.00  0.00     0.207 A 
ATOM     11  O   LIG d   1       4.673  -3.548  -5.460  0.00  0.00    -0.286 OA
ATOM     12  H   LIG d   1       8.947  -3.937  -4.280  0.00  0.00     0.104 H 
ATOM     13  H   LIG d   1       7.956  -8.207  -5.642  0.00  0.00     0.069 H 
ATOM     14  H   LIG d   1       3.856  -8.170  -6.855  0.00  0.00     0.069 H 
ENDROOT
BRANCH   1  15
ATOM     15  C   LIG d   1       6.975  -2.166  -4.427  0.00  0.00     0.143 A 
ATOM     16  C   LIG d   1       7.962  -1.273  -4.779  0.00  0.00    -0.015 A 
ATOM     17  C   LIG d   1       7.612  -0.039  -4.226  0.00  0.00    -0.009 A 
ATOM     18  H   LIG d   1       8.841  -1.485  -5.371  0.00  0.00     0.066 H 
ATOM     19  C   LIG d   1       6.420  -0.225  -3.555  0.00  0.00     0.212 A 
ATOM     20  H   LIG d   1       8.167   0.884  -4.308  0.00  0.00     0.066 H 
ATOM     21  O   LIG d   1       6.053  -1.518  -3.695  0.00  0.00    -0.448 OA
BRANCH  19  22
ATOM     22  C   LIG d   1       5.702   0.770  -2.845  0.00  0.00     0.375 C 
ATOM     23  O   LIG d   1       6.002   1.943  -2.971  0.00  0.00    -0.241 OA
BRANCH  22  24
ATOM     24  O   LIG d   1       4.687   0.416  -2.029  0.00  0.00    -0.459 OA
BRANCH  24  25
ATOM     25  C   LIG d   1       3.360   0.609  -2.523  0.00  0.00     0.090 C 
ATOM     26  H   LIG d   1       2.741   1.046  -1.740  0.00  0.00     0.070 H 
ATOM     27  H   LIG d   1       3.386   1.280  -3.382  0.00  0.00     0.070 H 
BRANCH  25  28
ATOM     28  C   LIG d   1       2.773  -0.739  -2.945  0.00  0.00    -0.031 C 
ATOM     29  H   LIG d   1       1.927  -0.984  -2.302  0.00  0.00     0.026 H 
ATOM     30  H   LIG d   1       2.436  -0.680  -3.981  0.00  0.00     0.026 H 
ATOM     31  H   LIG d   1       3.534  -1.511  -2.854  0.00  0.00     0.026 H 
ENDBRANCH  25  28
ENDBRANCH  24  25
ENDBRANCH  22  24
ENDBRANCH  19  22
ENDBRANCH   1  15
BRANCH   8  32
ATOM     32  O   LIG d   1       3.458  -5.636  -6.343  0.00  0.00    -0.506 OA
ATOM     33  H   LIG d   1       2.670  -6.163  -6.154  0.00  0.00     0.292 HD
ENDBRANCH   8  32
BRANCH   6  34
ATOM     34  O   LIG d   1       5.994  -9.646  -6.583  0.00  0.00    -0.506 OA
ATOM     35  H   LIG d   1       5.476  -9.902  -7.360  0.00  0.00     0.292 HD
ENDBRANCH   6  34
TORSDOF 7
ENDMDL
MODEL 7
REMARK VINA RESULT:      -5.3      2.228      8.136
REMARK  7 active torsions:
REMARK  status: ('A' for Active; 'I' for Inactive)
REMARK    1  A    between atoms: C_1  and  C_2 
REMARK    2  A    between atoms: C_2  and  O_3 
REMARK    3  A    between atoms: O_3  and  C_4 
REMARK    4  A    between atoms: C_4  and  C_6 
REMARK    5  A    between atoms: C_9  and  C_11 
REMARK    6  A    between atoms: C_16  and  O_23 
REMARK    7  A    between atoms: C_18  and  O_22 
ROOT
ATOM      1  C   LIG d   1       9.562   4.811  -4.126  0.00  0.00     0.099 A 
ATOM      2  C   LIG d   1       9.177   6.072  -4.470  0.00  0.00     0.107 A 
ATOM      3  O   LIG d   1       9.329   7.115  -3.651  0.00  0.00    -0.462 OA
ATOM      4  C   LIG d   1       9.880   7.020  -2.424  0.00  0.00     0.145 A 
ATOM      5  C   LIG d   1      10.014   8.146  -1.623  0.00  0.00     0.023 A 
ATOM      6  C   LIG d   1      10.576   8.039  -0.362  0.00  0.00     0.124 A 
ATOM      7  C   LIG d   1      11.014   6.809   0.119  0.00  0.00     0.022 A 
ATOM      8  C   LIG d   1      10.891   5.675  -0.662  0.00  0.00     0.135 A 
ATOM      9  C   LIG d   1      10.323   5.776  -1.939  0.00  0.00     0.106 A 
ATOM     10  C   LIG d   1      10.173   4.593  -2.801  0.00  0.00     0.207 A 
ATOM     11  O   LIG d   1      10.537   3.488  -2.439  0.00  0.00    -0.286 OA
ATOM     12  H   LIG d   1       8.730   6.234  -5.438  0.00  0.00     0.104 H 
ATOM     13  H   LIG d   1       9.679   9.106  -1.985  0.00  0.00     0.069 H 
ATOM     14  H   LIG d   1      11.451   6.741   1.104  0.00  0.00     0.069 H 
ENDROOT
BRANCH   1  15
ATOM     15  C   LIG d   1       9.370   3.686  -5.061  0.00  0.00     0.143 A 
ATOM     16  C   LIG d   1      10.149   3.413  -6.163  0.00  0.00    -0.015 A 
ATOM     17  C   LIG d   1       9.622   2.267  -6.762  0.00  0.00    -0.009 A 
ATOM     18  H   LIG d   1      11.007   3.978  -6.500  0.00  0.00     0.066 H 
ATOM     19  C   LIG d   1       8.537   1.882  -6.002  0.00  0.00     0.212 A 
ATOM     20  H   LIG d   1       9.993   1.777  -7.651  0.00  0.00     0.066 H 
ATOM     21  O   LIG d   1       8.408   2.752  -4.977  0.00  0.00    -0.448 OA
BRANCH  19  22
ATOM     22  C   LIG d   1       7.704   0.762  -6.252  0.00  0.00     0.375 C 
ATOM     23  O   LIG d   1       8.094  -0.138  -6.971  0.00  0.00    -0.241 OA
BRANCH  22  24
ATOM     24  O   LIG d   1       6.477   0.696  -5.692  0.00  0.00    -0.459 OA
BRANCH  24  25
ATOM     25  C   LIG d   1       6.211  -0.423  -4.843  0.00  0.00     0.090 C 
ATOM     26  H   LIG d   1       5.134  -0.580  -4.776  0.00  0.00     0.070 H 
ATOM     27  H   LIG d   1       6.683  -1.314  -5.257  0.00  0.00     0.070 H 
BRANCH  25  28
ATOM     28  C   LIG d   1       6.774  -0.149  -3.447  0.00  0.00    -0.031 C 
ATOM     29  H   LIG d   1       7.814  -0.473  -3.405  0.00  0.00     0.026 H 
ATOM     30  H   LIG d   1       6.718   0.920  -3.237  0.00  0.00     0.026 H 
ATOM     31  H   LIG d   1       6.192  -0.696  -2.707  0.00  0.00     0.026 H 
ENDBRANCH  25  28
ENDBRANCH  24  25
ENDBRANCH  22  24
ENDBRANCH  19  22
ENDBRANCH   1  15
BRANCH   8  32
ATOM     32  O   LIG d   1      11.318   4.475  -0.196  0.00  0.00    -0.506 OA
ATOM     33  H   LIG d   1      11.974   4.537   0.511  0.00  0.00     0.292 HD
ENDBRANCH   8  32
BRANCH   6  34
ATOM     34  O   LIG d   1      10.702   9.146   0.414  0.00  0.00    -0.506 OA
ATOM     35  H   LIG d   1       9.947   9.750   0.363  0.00  0.00     0.292 HD
ENDBRANCH   6  34
TORSDOF 7
ENDMDL
MODEL 8
REMARK VINA RESULT:      -5.3      3.990      9.793
REMARK  7 active torsions:
REMARK  status: ('A' for Active; 'I' for Inactive)
REMARK    1  A    between atoms: C_1  and  C_2 
REMARK    2  A    between atoms: C_2  and  O_3 
REMARK    3  A    between atoms: O_3  and  C_4 
REMARK    4  A    between atoms: C_4  and  C_6 
REMARK    5  A    between atoms: C_9  and  C_11 
REMARK    6  A    between atoms: C_16  and  O_23 
REMARK    7  A    between atoms: C_18  and  O_22 
ROOT
ATOM      1  C   LIG d   1       6.449  -4.221  -5.209  0.00  0.00     0.099 A 
ATOM      2  C   LIG d   1       7.674  -3.628  -5.122  0.00  0.00     0.107 A 
ATOM      3  O   LIG d   1       7.834  -2.376  -4.688  0.00  0.00    -0.462 OA
ATOM      4  C   LIG d   1       6.811  -1.593  -4.290  0.00  0.00     0.145 A 
ATOM      5  C   LIG d   1       7.047  -0.300  -3.844  0.00  0.00     0.023 A 
ATOM      6  C   LIG d   1       5.990   0.501  -3.443  0.00  0.00     0.124 A 
ATOM      7  C   LIG d   1       4.684   0.024  -3.479  0.00  0.00     0.022 A 
ATOM      8  C   LIG d   1       4.426  -1.261  -3.919  0.00  0.00     0.135 A 
ATOM      9  C   LIG d   1       5.491  -2.076  -4.327  0.00  0.00     0.106 A 
ATOM     10  C   LIG d   1       5.259  -3.449  -4.803  0.00  0.00     0.207 A 
ATOM     11  O   LIG d   1       4.139  -3.927  -4.859  0.00  0.00    -0.286 OA
ATOM     12  H   LIG d   1       8.546  -4.190  -5.418  0.00  0.00     0.104 H 
ATOM     13  H   LIG d   1       8.057   0.082  -3.810  0.00  0.00     0.069 H 
ATOM     14  H   LIG d   1       3.870   0.659  -3.162  0.00  0.00     0.069 H 
ENDROOT
BRANCH   1  15
ATOM     15  C   LIG d   1       6.318  -5.605  -5.700  0.00  0.00     0.143 A 
ATOM     16  C   LIG d   1       7.224  -6.264  -6.501  0.00  0.00    -0.015 A 
ATOM     17  C   LIG d   1       6.713  -7.545  -6.727  0.00  0.00    -0.009 A 
ATOM     18  H   LIG d   1       8.154  -5.868  -6.882  0.00  0.00     0.066 H 
ATOM     19  C   LIG d   1       5.511  -7.620  -6.053  0.00  0.00     0.212 A 
ATOM     20  H   LIG d   1       7.171  -8.326  -7.315  0.00  0.00     0.066 H 
ATOM     21  O   LIG d   1       5.296  -6.437  -5.437  0.00  0.00    -0.448 OA
BRANCH  19  22
ATOM     22  C   LIG d   1       4.651  -8.746  -6.012  0.00  0.00     0.375 C 
ATOM     23  O   LIG d   1       4.337  -9.310  -7.044  0.00  0.00    -0.241 OA
BRANCH  22  24
ATOM     24  O   LIG d   1       4.180  -9.193  -4.828  0.00  0.00    -0.459 OA
BRANCH  24  25
ATOM     25  C   LIG d   1       4.635 -10.475  -4.391  0.00  0.00     0.090 C 
ATOM     26  H   LIG d   1       4.020 -11.252  -4.845  0.00  0.00     0.070 H 
ATOM     27  H   LIG d   1       5.675 -10.613  -4.689  0.00  0.00     0.070 H 
BRANCH  25  28
ATOM     28  C   LIG d   1       4.525 -10.563  -2.867  0.00  0.00    -0.031 C 
ATOM     29  H   LIG d   1       5.500 -10.810  -2.447  0.00  0.00     0.026 H 
ATOM     30  H   LIG d   1       4.191  -9.602  -2.472  0.00  0.00     0.026 H 
ATOM     31  H   LIG d   1       3.807 -11.336  -2.599  0.00  0.00     0.026 H 
ENDBRANCH  25  28
ENDBRANCH  24  25
ENDBRANCH  22  24
ENDBRANCH  19  22
ENDBRANCH   1  15
BRANCH   8  32
ATOM     32  O   LIG d   1       3.154  -1.729  -3.955  0.00  0.00    -0.506 OA
ATOM     33  H   LIG d   1       2.736  -1.801  -3.086  0.00  0.00     0.292 HD
ENDBRANCH   8  32
BRANCH   6  34
ATOM     34  O   LIG d   1       6.232   1.764  -3.008  0.00  0.00    -0.506 OA
ATOM     35  H   LIG d   1       6.716   1.807  -2.172  0.00  0.00     0.292 HD
ENDBRANCH   6  34
TORSDOF 7
ENDMDL
MODEL 9
REMARK VINA RESULT:      -5.2      5.976      9.539
REMARK  7 active torsions:
REMARK  status: ('A' for Active; 'I' for Inactive)
REMARK    1  A    between atoms: C_1  and  C_2 
REMARK    2  A    between atoms: C_2  and  O_3 
REMARK    3  A    between atoms: O_3  and  C_4 
REMARK    4  A    between atoms: C_4  and  C_6 
REMARK    5  A    between atoms: C_9  and  C_11 
REMARK    6  A    between atoms: C_16  and  O_23 
REMARK    7  A    between atoms: C_18  and  O_22 
ROOT
ATOM      1  C   LIG d   1       3.980  -0.942  -7.767  0.00  0.00     0.099 A 
ATOM      2  C   LIG d   1       4.602  -2.082  -7.353  0.00  0.00     0.107 A 
ATOM      3  O   LIG d   1       4.793  -2.365  -6.063  0.00  0.00    -0.462 OA
ATOM      4  C   LIG d   1       4.382  -1.562  -5.059  0.00  0.00     0.145 A 
ATOM      5  C   LIG d   1       4.607  -1.919  -3.737  0.00  0.00     0.023 A 
ATOM      6  C   LIG d   1       4.189  -1.087  -2.712  0.00  0.00     0.124 A 
ATOM      7  C   LIG d   1       3.539   0.112  -2.990  0.00  0.00     0.022 A 
ATOM      8  C   LIG d   1       3.304   0.486  -4.300  0.00  0.00     0.135 A 
ATOM      9  C   LIG d   1       3.726  -0.352  -5.342  0.00  0.00     0.106 A 
ATOM     10  C   LIG d   1       3.496   0.010  -6.750  0.00  0.00     0.207 A 
ATOM     11  O   LIG d   1       2.932   1.045  -7.060  0.00  0.00    -0.286 OA
ATOM     12  H   LIG d   1       4.958  -2.780  -8.095  0.00  0.00     0.104 H 
ATOM     13  H   LIG d   1       5.110  -2.847  -3.508  0.00  0.00     0.069 H 
ATOM     14  H   LIG d   1       3.217   0.750  -2.181  0.00  0.00     0.069 H 
ENDROOT
BRANCH   1  15
ATOM     15  C   LIG d   1       3.796  -0.666  -9.204  0.00  0.00     0.143 A 
ATOM     16  C   LIG d   1       4.440   0.315  -9.924  0.00  0.00    -0.015 A 
ATOM     17  C   LIG d   1       3.977   0.228 -11.239  0.00  0.00    -0.009 A 
ATOM     18  H   LIG d   1       5.167   1.019  -9.545  0.00  0.00     0.066 H 
ATOM     19  C   LIG d   1       3.064  -0.806 -11.273  0.00  0.00     0.212 A 
ATOM     20  H   LIG d   1       4.275   0.851 -12.069  0.00  0.00     0.066 H 
ATOM     21  O   LIG d   1       2.976  -1.334 -10.033  0.00  0.00    -0.448 OA
BRANCH  19  22
ATOM     22  C   LIG d   1       2.346  -1.243 -12.415  0.00  0.00     0.375 C 
ATOM     23  O   LIG d   1       1.166  -1.524 -12.320  0.00  0.00    -0.241 OA
BRANCH  22  24
ATOM     24  O   LIG d   1       2.972  -1.349 -13.606  0.00  0.00    -0.459 OA
BRANCH  24  25
ATOM     25  C   LIG d   1       2.467  -2.326 -14.519  0.00  0.00     0.090 C 
ATOM     26  H   LIG d   1       3.097  -3.216 -14.482  0.00  0.00     0.070 H 
ATOM     27  H   LIG d   1       1.447  -2.591 -14.241  0.00  0.00     0.070 H 
BRANCH  25  28
ATOM     28  C   LIG d   1       2.479  -1.752 -15.937  0.00  0.00    -0.031 C 
ATOM     29  H   LIG d   1       2.221  -2.538 -16.648  0.00  0.00     0.026 H 
ATOM     30  H   LIG d   1       1.749  -0.945 -16.008  0.00  0.00     0.026 H 
ATOM     31  H   LIG d   1       3.471  -1.366 -16.165  0.00  0.00     0.026 H 
ENDBRANCH  25  28
ENDBRANCH  24  25
ENDBRANCH  22  24
ENDBRANCH  19  22
ENDBRANCH   1  15
BRANCH   8  32
ATOM     32  O   LIG d   1       2.671   1.653  -4.574  0.00  0.00    -0.506 OA
ATOM     33  H   LIG d   1       1.967   1.574  -5.233  0.00  0.00     0.292 HD
ENDBRANCH   8  32
BRANCH   6  34
ATOM     34  O   LIG d   1       4.414  -1.444  -1.422  0.00  0.00    -0.506 OA
ATOM     35  H   LIG d   1       4.495  -2.399  -1.286  0.00  0.00     0.292 HD
ENDBRANCH   6  34
TORSDOF 7
ENDMDL
MODEL 10
REMARK VINA RESULT:      -5.2      5.687      8.077
REMARK  7 active torsions:
REMARK  status: ('A' for Active; 'I' for Inactive)
REMARK    1  A    between atoms: C_1  and  C_2 
REMARK    2  A    between atoms: C_2  and  O_3 
REMARK    3  A    between atoms: O_3  and  C_4 
REMARK    4  A    between atoms: C_4  and  C_6 
REMARK    5  A    between atoms: C_9  and  C_11 
REMARK    6  A    between atoms: C_16  and  O_23 
REMARK    7  A    between atoms: C_18  and  O_22 
ROOT
ATOM      1  C   LIG d   1       4.404  -1.697  -8.548  0.00  0.00     0.099 A 
ATOM      2  C   LIG d   1       5.267  -2.321  -9.398  0.00  0.00     0.107 A 
ATOM      3  O   LIG d   1       4.957  -2.582 -10.669  0.00  0.00    -0.462 OA
ATOM      4  C   LIG d   1       3.777  -2.245 -11.228  0.00  0.00     0.145 A 
ATOM      5  C   LIG d   1       3.519  -2.541 -12.560  0.00  0.00     0.023 A 
ATOM      6  C   LIG d   1       2.302  -2.198 -13.125  0.00  0.00     0.124 A 
ATOM      7  C   LIG d   1       1.325  -1.555 -12.372  0.00  0.00     0.022 A 
ATOM      8  C   LIG d   1       1.561  -1.250 -11.045  0.00  0.00     0.135 A 
ATOM      9  C   LIG d   1       2.790  -1.595 -10.466  0.00  0.00     0.106 A 
ATOM     10  C   LIG d   1       3.080  -1.290  -9.056  0.00  0.00     0.207 A 
ATOM     11  O   LIG d   1       2.267  -0.728  -8.343  0.00  0.00    -0.286 OA
ATOM     12  H   LIG d   1       6.236  -2.620  -9.029  0.00  0.00     0.104 H 
ATOM     13  H   LIG d   1       4.270  -3.039 -13.155  0.00  0.00     0.069 H 
ATOM     14  H   LIG d   1       0.381  -1.292 -12.827  0.00  0.00     0.069 H 
ENDROOT
BRANCH   1  15
ATOM     15  C   LIG d   1       4.786  -1.434  -7.148  0.00  0.00     0.143 A 
ATOM     16  C   LIG d   1       5.606  -0.416  -6.715  0.00  0.00    -0.015 A 
ATOM     17  C   LIG d   1       5.703  -0.531  -5.327  0.00  0.00    -0.009 A 
ATOM     18  H   LIG d   1       6.084   0.332  -7.332  0.00  0.00     0.066 H 
ATOM     19  C   LIG d   1       4.936  -1.619  -4.962  0.00  0.00     0.212 A 
ATOM     20  H   LIG d   1       6.269   0.108  -4.666  0.00  0.00     0.066 H 
ATOM     21  O   LIG d   1       4.388  -2.144  -6.079  0.00  0.00    -0.448 OA
BRANCH  19  22
ATOM     22  C   LIG d   1       4.751  -2.099  -3.641  0.00  0.00     0.375 C 
ATOM     23  O   LIG d   1       4.182  -3.158  -3.453  0.00  0.00    -0.241 OA
BRANCH  22  24
ATOM     24  O   LIG d   1       5.205  -1.381  -2.592  0.00  0.00    -0.459 OA
BRANCH  24  25
ATOM     25  C   LIG d   1       4.235  -0.648  -1.839  0.00  0.00     0.090 C 
ATOM     26  H   LIG d   1       3.263  -0.725  -2.327  0.00  0.00     0.070 H 
ATOM     27  H   LIG d   1       4.169  -1.061  -0.832  0.00  0.00     0.070 H 
BRANCH  25  28
ATOM     28  C   LIG d   1       4.652   0.821  -1.763  0.00  0.00    -0.031 C 
ATOM     29  H   LIG d   1       3.877   1.442  -2.213  0.00  0.00     0.026 H 
ATOM     30  H   LIG d   1       4.786   1.107  -0.719  0.00  0.00     0.026 H 
ATOM     31  H   LIG d   1       5.589   0.961  -2.301  0.00  0.00     0.026 H 
ENDBRANCH  25  28
ENDBRANCH  24  25
ENDBRANCH  22  24
ENDBRANCH  19  22
ENDBRANCH   1  15
BRANCH   8  32
ATOM     32  O   LIG d   1       0.610  -0.623 -10.308  0.00  0.00    -0.506 OA
ATOM     33  H   LIG d   1       0.453  -1.025  -9.443  0.00  0.00     0.292 HD
ENDBRANCH   8  32
BRANCH   6  34
ATOM     34  O   LIG d   1       2.060  -2.492 -14.428  0.00  0.00    -0.506 OA
ATOM     35  H   LIG d   1       2.858  -2.664 -14.948  0.00  0.00     0.292 HD
ENDBRANCH   6  34
TORSDOF 7
ENDMDL
