MODEL 1
REMARK VINA RESULT:      -6.5      0.000      0.000
REMARK  8 active torsions:
REMARK  status: ('A' for Active; 'I' for Inactive)
REMARK    1  A    between atoms: C_1  and  N_2 
REMARK    2  A    between atoms: N_2  and  C_3 
REMARK    3  A    between atoms: N_2  and  C_4 
REMARK    4  A    between atoms: C_8  and  O_10 
REMARK    5  A    between atoms: O_10  and  C_11 
REMARK    6  A    between atoms: N_15  and  C_16 
REMARK    7  A    between atoms: C_26  and  N_28 
REMARK       I    between atoms: N_28  and  C_29 
REMARK    8  A    between atoms: C_29  and  C_31 
ROOT
ATOM      1  C   LIG d   1       4.668  -1.566  -6.468  0.00  0.00     0.111 C 
ATOM      2  H   LIG d   1       3.986  -1.960  -7.221  0.00  0.00     0.060 H 
ATOM      3  C   LIG d   1       5.982  -1.088  -7.116  0.00  0.00     0.073 C 
ATOM      4  O   LIG d   1       7.027  -1.352  -6.176  0.00  0.00    -0.370 OA
ATOM      5  C   LIG d   1       6.610  -2.321  -5.219  0.00  0.00     0.107 C 
ATOM      6  H   LIG d   1       6.722  -1.950  -4.201  0.00  0.00     0.064 H 
ATOM      7  C   LIG d   1       5.134  -2.689  -5.512  0.00  0.00     0.111 C 
ATOM      8  H   LIG d   1       4.515  -2.771  -4.618  0.00  0.00     0.065 H 
ATOM      9  O   LIG d   1       5.195  -3.916  -6.271  0.00  0.00    -0.370 OA
ATOM     10  C   LIG d   1       6.281  -4.680  -5.709  0.00  0.00     0.069 C 
ATOM     11  C   LIG d   1       7.383  -3.639  -5.410  0.00  0.00     0.075 C 
ATOM     12  H   LIG d   1       8.072  -3.562  -6.252  0.00  0.00     0.055 H 
ATOM     13  H   LIG d   1       6.164  -1.638  -8.039  0.00  0.00     0.058 H 
ATOM     14  H   LIG d   1       5.928  -0.019  -7.323  0.00  0.00     0.058 H 
ATOM     15  H   LIG d   1       5.963  -5.170  -4.788  0.00  0.00     0.058 H 
ATOM     16  H   LIG d   1       6.639  -5.417  -6.428  0.00  0.00     0.058 H 
ENDROOT
BRANCH   1  17
ATOM     17  N   LIG d   1       4.036  -0.478  -5.718  0.00  0.00    -0.187 N 
ATOM     18  C   LIG d   1       2.950   0.244  -6.077  0.00  0.00     0.342 A 
ATOM     19  N   LIG d   1       2.727   1.112  -5.118  0.00  0.00    -0.070 NA
ATOM     20  N   LIG d   1       3.598   0.984  -4.183  0.00  0.00    -0.020 NA
ATOM     21  N   LIG d   1       4.428   0.040  -4.472  0.00  0.00    -0.041 NA
BRANCH  18  22
ATOM     22  O   LIG d   1       2.228   0.099  -7.214  0.00  0.00    -0.423 OA
BRANCH  22  23
ATOM     23  C   LIG d   1       2.741   0.605  -8.365  0.00  0.00     0.134 A 
ATOM     24  C   LIG d   1       3.154   1.928  -8.418  0.00  0.00    -0.019 A 
ATOM     25  C   LIG d   1       3.682   2.444  -9.587  0.00  0.00    -0.057 A 
ATOM     26  H   LIG d   1       3.067   2.556  -7.543  0.00  0.00     0.065 H 
ATOM     27  C   LIG d   1       3.790   1.646 -10.709  0.00  0.00    -0.040 A 
ATOM     28  H   LIG d   1       4.007   3.474  -9.624  0.00  0.00     0.062 H 
ATOM     29  C   LIG d   1       3.373   0.322 -10.664  0.00  0.00     0.033 A 
ATOM     30  H   LIG d   1       4.198   2.052 -11.623  0.00  0.00     0.064 H 
ATOM     31  C   LIG d   1       2.848  -0.199  -9.490  0.00  0.00     0.002 A 
ATOM     32  H   LIG d   1       2.523  -1.229  -9.452  0.00  0.00     0.067 H 
BRANCH  29  33
ATOM     33  N   LIG d   1       3.481  -0.485 -11.799  0.00  0.00    -0.336 N 
BRANCH  33  34
ATOM     34  C   LIG d   1       2.326  -1.260 -12.261  0.00  0.00     0.000 C 
ATOM     35  H   LIG d   1       1.706  -1.532 -11.406  0.00  0.00     0.043 H 
ATOM     36  H   LIG d   1       1.740  -0.659 -12.957  0.00  0.00     0.043 H 
ATOM     37  H   LIG d   1       2.671  -2.163 -12.762  0.00  0.00     0.043 H 
ENDBRANCH  33  34
BRANCH  33  38
ATOM     38  C   LIG d   1       4.750  -0.557 -12.528  0.00  0.00     0.000 C 
ATOM     39  H   LIG d   1       5.576  -0.564 -11.818  0.00  0.00     0.043 H 
ATOM     40  H   LIG d   1       4.776  -1.470 -13.124  0.00  0.00     0.043 H 
ATOM     41  H   LIG d   1       4.842   0.308 -13.185  0.00  0.00     0.043 H 
ENDBRANCH  33  38
ENDBRANCH  29  33
ENDBRANCH  22  23
ENDBRANCH  18  22
ENDBRANCH   1  17
BRANCH  11  42
ATOM     42  N   LIG d   1       8.105  -3.993  -4.186  0.00  0.00    -0.307 N 
ATOM     43  C   LIG d   1       9.436  -3.794  -4.107  0.00  0.00     0.216 C 
ATOM     44  O   LIG d   1      10.036  -3.322  -5.049  0.00  0.00    -0.276 OA
ATOM     45  H   LIG d   1       7.626  -4.370  -3.432  0.00  0.00     0.149 HD
BRANCH  43  46
ATOM     46  C   LIG d   1      10.178  -4.157  -2.846  0.00  0.00     0.036 A 
ATOM     47  C   LIG d   1       9.366  -4.264  -1.555  0.00  0.00    -0.041 A 
ATOM     48  C   LIG d   1       9.897  -5.530  -2.231  0.00  0.00    -0.041 A 
ATOM     49  H   LIG d   1       9.848  -3.948  -0.629  0.00  0.00     0.027 H 
ATOM     50  H   LIG d   1       8.295  -4.072  -1.616  0.00  0.00     0.027 H 
ATOM     51  H   LIG d   1       9.175  -6.170  -2.738  0.00  0.00     0.027 H 
ATOM     52  H   LIG d   1      10.729  -6.046  -1.751  0.00  0.00     0.027 H 
ATOM     53  H   LIG d   1      11.194  -3.769  -2.771  0.00  0.00     0.039 H 
ENDBRANCH  43  46
ENDBRANCH  11  42
TORSDOF 8
ENDMDL
MODEL 2
REMARK VINA RESULT:      -6.4      5.760      7.521
REMARK  8 active torsions:
REMARK  status: ('A' for Active; 'I' for Inactive)
REMARK    1  A    between atoms: C_1  and  N_2 
REMARK    2  A    between atoms: N_2  and  C_3 
REMARK    3  A    between atoms: N_2  and  C_4 
REMARK    4  A    between atoms: C_8  and  O_10 
REMARK    5  A    between atoms: O_10  and  C_11 
REMARK    6  A    between atoms: N_15  and  C_16 
REMARK    7  A    between atoms: C_26  and  N_28 
REMARK       I    between atoms: N_28  and  C_29 
REMARK    8  A    between atoms: C_29  and  C_31 
ROOT
ATOM      1  C   LIG d   1       8.856   1.533  -6.531  0.00  0.00     0.111 C 
ATOM      2  H   LIG d   1       9.881   1.267  -6.790  0.00  0.00     0.060 H 
ATOM      3  C   LIG d   1       8.827   2.474  -5.311  0.00  0.00     0.073 C 
ATOM      4  O   LIG d   1       7.647   2.153  -4.569  0.00  0.00    -0.370 OA
ATOM      5  C   LIG d   1       7.170   0.857  -4.918  0.00  0.00     0.107 C 
ATOM      6  H   LIG d   1       6.130   0.889  -5.242  0.00  0.00     0.064 H 
ATOM      7  C   LIG d   1       8.079   0.290  -6.037  0.00  0.00     0.111 C 
ATOM      8  H   LIG d   1       7.533  -0.215  -6.834  0.00  0.00     0.065 H 
ATOM      9  O   LIG d   1       9.016  -0.575  -5.359  0.00  0.00    -0.370 OA
ATOM     10  C   LIG d   1       8.273  -1.221  -4.306  0.00  0.00     0.069 C 
ATOM     11  C   LIG d   1       7.348  -0.120  -3.742  0.00  0.00     0.075 C 
ATOM     12  H   LIG d   1       7.821   0.378  -2.895  0.00  0.00     0.055 H 
ATOM     13  H   LIG d   1       9.711   2.311  -4.693  0.00  0.00     0.058 H 
ATOM     14  H   LIG d   1       8.789   3.512  -5.641  0.00  0.00     0.058 H 
ATOM     15  H   LIG d   1       7.681  -2.044  -4.710  0.00  0.00     0.058 H 
ATOM     16  H   LIG d   1       8.949  -1.584  -3.531  0.00  0.00     0.058 H 
ENDROOT
BRANCH   1  17
ATOM     17  N   LIG d   1       8.178   2.147  -7.674  0.00  0.00    -0.187 N 
ATOM     18  C   LIG d   1       8.602   3.194  -8.416  0.00  0.00     0.342 A 
ATOM     19  N   LIG d   1       7.691   3.414  -9.335  0.00  0.00    -0.070 NA
ATOM     20  N   LIG d   1       6.724   2.577  -9.219  0.00  0.00    -0.020 NA
ATOM     21  N   LIG d   1       6.943   1.774  -8.235  0.00  0.00    -0.041 NA
BRANCH  18  22
ATOM     22  O   LIG d   1       9.754   3.887  -8.244  0.00  0.00    -0.423 OA
BRANCH  22  23
ATOM     23  C   LIG d   1       9.664   5.203  -7.921  0.00  0.00     0.134 A 
ATOM     24  C   LIG d   1       9.430   6.146  -8.912  0.00  0.00    -0.019 A 
ATOM     25  C   LIG d   1       9.333   7.486  -8.585  0.00  0.00    -0.057 A 
ATOM     26  H   LIG d   1       9.320   5.833  -9.939  0.00  0.00     0.065 H 
ATOM     27  C   LIG d   1       9.479   7.891  -7.272  0.00  0.00    -0.040 A 
ATOM     28  H   LIG d   1       9.146   8.218  -9.358  0.00  0.00     0.062 H 
ATOM     29  C   LIG d   1       9.719   6.952  -6.277  0.00  0.00     0.033 A 
ATOM     30  H   LIG d   1       9.407   8.939  -7.020  0.00  0.00     0.064 H 
ATOM     31  C   LIG d   1       9.811   5.606  -6.603  0.00  0.00     0.002 A 
ATOM     32  H   LIG d   1       9.998   4.874  -5.830  0.00  0.00     0.067 H 
BRANCH  29  33
ATOM     33  N   LIG d   1       9.867   7.361  -4.950  0.00  0.00    -0.336 N 
BRANCH  33  34
ATOM     34  C   LIG d   1       9.751   6.385  -3.864  0.00  0.00     0.000 C 
ATOM     35  H   LIG d   1       8.775   5.903  -3.912  0.00  0.00     0.043 H 
ATOM     36  H   LIG d   1      10.533   5.632  -3.967  0.00  0.00     0.043 H 
ATOM     37  H   LIG d   1       9.859   6.892  -2.906  0.00  0.00     0.043 H 
ENDBRANCH  33  34
BRANCH  33  38
ATOM     38  C   LIG d   1      10.139   8.768  -4.644  0.00  0.00     0.000 C 
ATOM     39  H   LIG d   1       9.201   9.323  -4.621  0.00  0.00     0.043 H 
ATOM     40  H   LIG d   1      10.628   8.842  -3.672  0.00  0.00     0.043 H 
ATOM     41  H   LIG d   1      10.791   9.188  -5.410  0.00  0.00     0.043 H 
ENDBRANCH  33  38
ENDBRANCH  29  33
ENDBRANCH  22  23
ENDBRANCH  18  22
ENDBRANCH   1  17
BRANCH  11  42
ATOM     42  N   LIG d   1       6.056  -0.688  -3.346  0.00  0.00    -0.307 N 
ATOM     43  C   LIG d   1       5.222   0.019  -2.558  0.00  0.00     0.216 C 
ATOM     44  O   LIG d   1       5.541   1.125  -2.175  0.00  0.00    -0.276 OA
ATOM     45  H   LIG d   1       5.801  -1.572  -3.652  0.00  0.00     0.149 HD
BRANCH  43  46
ATOM     46  C   LIG d   1       3.893  -0.564  -2.152  0.00  0.00     0.036 A 
ATOM     47  C   LIG d   1       2.945  -1.003  -3.269  0.00  0.00    -0.041 A 
ATOM     48  C   LIG d   1       3.664  -2.053  -2.419  0.00  0.00    -0.041 A 
ATOM     49  H   LIG d   1       1.875  -0.869  -3.104  0.00  0.00     0.027 H 
ATOM     50  H   LIG d   1       3.282  -0.871  -4.297  0.00  0.00     0.027 H 
ATOM     51  H   LIG d   1       4.475  -2.611  -2.888  0.00  0.00     0.027 H 
ATOM     52  H   LIG d   1       3.069  -2.609  -1.694  0.00  0.00     0.027 H 
ATOM     53  H   LIG d   1       3.448  -0.139  -1.252  0.00  0.00     0.039 H 
ENDBRANCH  43  46
ENDBRANCH  11  42
TORSDOF 8
ENDMDL
MODEL 3
REMARK VINA RESULT:      -6.4      4.317      8.905
REMARK  8 active torsions:
REMARK  status: ('A' for Active; 'I' for Inactive)
REMARK    1  A    between atoms: C_1  and  N_2 
REMARK    2  A    between atoms: N_2  and  C_3 
REMARK    3  A    between atoms: N_2  and  C_4 
REMARK    4  A    between atoms: C_8  and  O_10 
REMARK    5  A    between atoms: O_10  and  C_11 
REMARK    6  A    between atoms: N_15  and  C_16 
REMARK    7  A    between atoms: C_26  and  N_28 
REMARK       I    between atoms: N_28  and  C_29 
REMARK    8  A    between atoms: C_29  and  C_31 
ROOT
ATOM      1  C   LIG d   1       5.608  -6.593  -6.487  0.00  0.00     0.111 C 
ATOM      2  H   LIG d   1       6.434  -6.638  -7.196  0.00  0.00     0.060 H 
ATOM      3  C   LIG d   1       4.320  -6.105  -7.177  0.00  0.00     0.073 C 
ATOM      4  O   LIG d   1       3.599  -5.336  -6.210  0.00  0.00    -0.370 OA
ATOM      5  C   LIG d   1       4.461  -4.914  -5.158  0.00  0.00     0.107 C 
ATOM      6  H   LIG d   1       4.082  -5.224  -4.184  0.00  0.00     0.064 H 
ATOM      7  C   LIG d   1       5.868  -5.508  -5.415  0.00  0.00     0.111 C 
ATOM      8  H   LIG d   1       6.351  -5.900  -4.520  0.00  0.00     0.065 H 
ATOM      9  O   LIG d   1       6.617  -4.442  -6.040  0.00  0.00    -0.370 OA
ATOM     10  C   LIG d   1       6.193  -3.225  -5.396  0.00  0.00     0.069 C 
ATOM     11  C   LIG d   1       4.668  -3.389  -5.206  0.00  0.00     0.075 C 
ATOM     12  H   LIG d   1       4.130  -2.953  -6.048  0.00  0.00     0.055 H 
ATOM     13  H   LIG d   1       4.571  -5.482  -8.036  0.00  0.00     0.058 H 
ATOM     14  H   LIG d   1       3.722  -6.958  -7.496  0.00  0.00     0.058 H 
ATOM     15  H   LIG d   1       6.686  -3.114  -4.430  0.00  0.00     0.058 H 
ATOM     16  H   LIG d   1       6.406  -2.365  -6.032  0.00  0.00     0.058 H 
ENDROOT
BRANCH   1  17
ATOM     17  N   LIG d   1       5.396  -7.898  -5.859  0.00  0.00    -0.187 N 
ATOM     18  C   LIG d   1       6.339  -8.758  -5.412  0.00  0.00     0.342 A 
ATOM     19  N   LIG d   1       5.712  -9.803  -4.924  0.00  0.00    -0.070 NA
ATOM     20  N   LIG d   1       4.440  -9.657  -5.035  0.00  0.00    -0.020 NA
ATOM     21  N   LIG d   1       4.167  -8.528  -5.592  0.00  0.00    -0.041 NA
BRANCH  18  22
ATOM     22  O   LIG d   1       7.680  -8.575  -5.459  0.00  0.00    -0.423 OA
BRANCH  22  23
ATOM     23  C   LIG d   1       8.295  -8.073  -4.356  0.00  0.00     0.134 A 
ATOM     24  C   LIG d   1       8.373  -8.832  -3.198  0.00  0.00    -0.019 A 
ATOM     25  C   LIG d   1       9.003  -8.325  -2.077  0.00  0.00    -0.057 A 
ATOM     26  H   LIG d   1       7.945  -9.824  -3.173  0.00  0.00     0.065 H 
ATOM     27  C   LIG d   1       9.547  -7.055  -2.103  0.00  0.00    -0.040 A 
ATOM     28  H   LIG d   1       9.066  -8.920  -1.177  0.00  0.00     0.062 H 
ATOM     29  C   LIG d   1       9.467  -6.288  -3.258  0.00  0.00     0.033 A 
ATOM     30  H   LIG d   1      10.034  -6.659  -1.224  0.00  0.00     0.064 H 
ATOM     31  C   LIG d   1       8.840  -6.798  -4.386  0.00  0.00     0.002 A 
ATOM     32  H   LIG d   1       8.776  -6.203  -5.286  0.00  0.00     0.067 H 
BRANCH  29  33
ATOM     33  N   LIG d   1      10.016  -5.003  -3.285  0.00  0.00    -0.336 N 
BRANCH  33  34
ATOM     34  C   LIG d   1       9.137  -3.831  -3.305  0.00  0.00     0.000 C 
ATOM     35  H   LIG d   1       9.432  -3.143  -2.514  0.00  0.00     0.043 H 
ATOM     36  H   LIG d   1       9.220  -3.332  -4.270  0.00  0.00     0.043 H 
ATOM     37  H   LIG d   1       8.106  -4.147  -3.147  0.00  0.00     0.043 H 
ENDBRANCH  33  34
BRANCH  33  38
ATOM     38  C   LIG d   1      11.470  -4.830  -3.293  0.00  0.00     0.000 C 
ATOM     39  H   LIG d   1      11.776  -4.371  -4.232  0.00  0.00     0.043 H 
ATOM     40  H   LIG d   1      11.765  -4.187  -2.462  0.00  0.00     0.043 H 
ATOM     41  H   LIG d   1      11.953  -5.801  -3.188  0.00  0.00     0.043 H 
ENDBRANCH  33  38
ENDBRANCH  29  33
ENDBRANCH  22  23
ENDBRANCH  18  22
ENDBRANCH   1  17
BRANCH  11  42
ATOM     42  N   LIG d   1       4.239  -2.772  -3.948  0.00  0.00    -0.307 N 
ATOM     43  C   LIG d   1       3.835  -1.486  -3.932  0.00  0.00     0.216 C 
ATOM     44  O   LIG d   1       3.828  -0.839  -4.957  0.00  0.00    -0.276 OA
ATOM     45  H   LIG d   1       4.244  -3.289  -3.128  0.00  0.00     0.149 HD
BRANCH  43  46
ATOM     46  C   LIG d   1       3.392  -0.853  -2.638  0.00  0.00     0.036 A 
ATOM     47  C   LIG d   1       4.462  -0.171  -1.783  0.00  0.00    -0.041 A 
ATOM     48  C   LIG d   1       3.439   0.674  -2.546  0.00  0.00    -0.041 A 
ATOM     49  H   LIG d   1       4.356  -0.232  -0.700  0.00  0.00     0.027 H 
ATOM     50  H   LIG d   1       5.486  -0.180  -2.156  0.00  0.00     0.027 H 
ATOM     51  H   LIG d   1       3.791   1.220  -3.422  0.00  0.00     0.027 H 
ATOM     52  H   LIG d   1       2.660   1.167  -1.965  0.00  0.00     0.027 H 
ATOM     53  H   LIG d   1       2.583  -1.365  -2.117  0.00  0.00     0.039 H 
ENDBRANCH  43  46
ENDBRANCH  11  42
TORSDOF 8
ENDMDL
MODEL 4
REMARK VINA RESULT:      -6.3      6.921      8.208
REMARK  8 active torsions:
REMARK  status: ('A' for Active; 'I' for Inactive)
REMARK    1  A    between atoms: C_1  and  N_2 
REMARK    2  A    between atoms: N_2  and  C_3 
REMARK    3  A    between atoms: N_2  and  C_4 
REMARK    4  A    between atoms: C_8  and  O_10 
REMARK    5  A    between atoms: O_10  and  C_11 
REMARK    6  A    between atoms: N_15  and  C_16 
REMARK    7  A    between atoms: C_26  and  N_28 
REMARK       I    between atoms: N_28  and  C_29 
REMARK    8  A    between atoms: C_29  and  C_31 
ROOT
ATOM      1  C   LIG d   1      10.723   3.936  -4.589  0.00  0.00     0.111 C 
ATOM      2  H   LIG d   1      11.388   3.956  -5.453  0.00  0.00     0.060 H 
ATOM      3  C   LIG d   1      11.088   2.774  -3.645  0.00  0.00     0.073 C 
ATOM      4  O   LIG d   1       9.863   2.305  -3.074  0.00  0.00    -0.370 OA
ATOM      5  C   LIG d   1       8.750   2.721  -3.859  0.00  0.00     0.107 C 
ATOM      6  H   LIG d   1       8.022   3.268  -3.260  0.00  0.00     0.064 H 
ATOM      7  C   LIG d   1       9.277   3.598  -5.022  0.00  0.00     0.111 C 
ATOM      8  H   LIG d   1       8.672   4.485  -5.214  0.00  0.00     0.065 H 
ATOM      9  O   LIG d   1       9.353   2.711  -6.159  0.00  0.00    -0.370 OA
ATOM     10  C   LIG d   1       8.213   1.834  -6.059  0.00  0.00     0.069 C 
ATOM     11  C   LIG d   1       8.093   1.513  -4.552  0.00  0.00     0.075 C 
ATOM     12  H   LIG d   1       8.630   0.594  -4.315  0.00  0.00     0.055 H 
ATOM     13  H   LIG d   1      11.568   1.973  -4.208  0.00  0.00     0.058 H 
ATOM     14  H   LIG d   1      11.754   3.128  -2.859  0.00  0.00     0.058 H 
ATOM     15  H   LIG d   1       7.314   2.340  -6.411  0.00  0.00     0.058 H 
ATOM     16  H   LIG d   1       8.384   0.921  -6.629  0.00  0.00     0.058 H 
ENDROOT
BRANCH   1  17
ATOM     17  N   LIG d   1      10.764   5.214  -3.876  0.00  0.00    -0.187 N 
ATOM     18  C   LIG d   1      11.179   6.409  -4.355  0.00  0.00     0.342 A 
ATOM     19  N   LIG d   1      11.049   7.283  -3.384  0.00  0.00    -0.070 NA
ATOM     20  N   LIG d   1      10.581   6.718  -2.330  0.00  0.00    -0.020 NA
ATOM     21  N   LIG d   1      10.382   5.463  -2.546  0.00  0.00    -0.041 NA
BRANCH  18  22
ATOM     22  O   LIG d   1      11.642   6.657  -5.603  0.00  0.00    -0.423 OA
BRANCH  22  23
ATOM     23  C   LIG d   1      10.748   7.044  -6.550  0.00  0.00     0.134 A 
ATOM     24  C   LIG d   1      10.196   8.316  -6.506  0.00  0.00    -0.019 A 
ATOM     25  C   LIG d   1       9.290   8.714  -7.471  0.00  0.00    -0.057 A 
ATOM     26  H   LIG d   1      10.477   8.998  -5.717  0.00  0.00     0.065 H 
ATOM     27  C   LIG d   1       8.924   7.842  -8.479  0.00  0.00    -0.040 A 
ATOM     28  H   LIG d   1       8.865   9.706  -7.437  0.00  0.00     0.062 H 
ATOM     29  C   LIG d   1       9.470   6.565  -8.526  0.00  0.00     0.033 A 
ATOM     30  H   LIG d   1       8.213   8.152  -9.229  0.00  0.00     0.064 H 
ATOM     31  C   LIG d   1      10.383   6.167  -7.560  0.00  0.00     0.002 A 
ATOM     32  H   LIG d   1      10.809   5.174  -7.594  0.00  0.00     0.067 H 
BRANCH  29  33
ATOM     33  N   LIG d   1       9.099   5.682  -9.543  0.00  0.00    -0.336 N 
BRANCH  33  34
ATOM     34  C   LIG d   1       8.849   4.272  -9.236  0.00  0.00     0.000 C 
ATOM     35  H   LIG d   1       9.772   3.705  -9.355  0.00  0.00     0.043 H 
ATOM     36  H   LIG d   1       8.498   4.182  -8.208  0.00  0.00     0.043 H 
ATOM     37  H   LIG d   1       8.091   3.881  -9.914  0.00  0.00     0.043 H 
ENDBRANCH  33  34
BRANCH  33  38
ATOM     38  C   LIG d   1       8.962   6.168 -10.919  0.00  0.00     0.000 C 
ATOM     39  H   LIG d   1       8.672   7.218 -10.906  0.00  0.00     0.043 H 
ATOM     40  H   LIG d   1       9.915   6.061 -11.439  0.00  0.00     0.043 H 
ATOM     41  H   LIG d   1       8.199   5.586 -11.436  0.00  0.00     0.043 H 
ENDBRANCH  33  38
ENDBRANCH  29  33
ENDBRANCH  22  23
ENDBRANCH  18  22
ENDBRANCH   1  17
BRANCH  11  42
ATOM     42  N   LIG d   1       6.685   1.400  -4.162  0.00  0.00    -0.307 N 
ATOM     43  C   LIG d   1       6.263   0.326  -3.464  0.00  0.00     0.216 C 
ATOM     44  O   LIG d   1       7.049  -0.546  -3.160  0.00  0.00    -0.276 OA
ATOM     45  H   LIG d   1       6.057   2.098  -4.405  0.00  0.00     0.149 HD
BRANCH  43  46
ATOM     46  C   LIG d   1       4.816   0.211  -3.062  0.00  0.00     0.036 A 
ATOM     47  C   LIG d   1       4.488  -0.655  -1.844  0.00  0.00    -0.041 A 
ATOM     48  C   LIG d   1       4.393   0.870  -1.747  0.00  0.00    -0.041 A 
ATOM     49  H   LIG d   1       3.554  -1.217  -1.862  0.00  0.00     0.027 H 
ATOM     50  H   LIG d   1       5.320  -1.141  -1.333  0.00  0.00     0.027 H 
ATOM     51  H   LIG d   1       5.162   1.386  -1.173  0.00  0.00     0.027 H 
ATOM     52  H   LIG d   1       3.397   1.310  -1.703  0.00  0.00     0.027 H 
ATOM     53  H   LIG d   1       4.098   0.217  -3.883  0.00  0.00     0.039 H 
ENDBRANCH  43  46
ENDBRANCH  11  42
TORSDOF 8
ENDMDL
MODEL 5
REMARK VINA RESULT:      -6.3      4.176      9.391
REMARK  8 active torsions:
REMARK  status: ('A' for Active; 'I' for Inactive)
REMARK    1  A    between atoms: C_1  and  N_2 
REMARK    2  A    between atoms: N_2  and  C_3 
REMARK    3  A    between atoms: N_2  and  C_4 
REMARK    4  A    between atoms: C_8  and  O_10 
REMARK    5  A    between atoms: O_10  and  C_11 
REMARK    6  A    between atoms: N_15  and  C_16 
REMARK    7  A    between atoms: C_26  and  N_28 
REMARK       I    between atoms: N_28  and  C_29 
REMARK    8  A    between atoms: C_29  and  C_31 
ROOT
ATOM      1  C   LIG d   1       5.786  -5.931  -6.366  0.00  0.00     0.111 C 
ATOM      2  H   LIG d   1       6.617  -6.003  -7.067  0.00  0.00     0.060 H 
ATOM      3  C   LIG d   1       4.520  -5.403  -7.069  0.00  0.00     0.073 C 
ATOM      4  O   LIG d   1       3.814  -4.611  -6.111  0.00  0.00    -0.370 OA
ATOM      5  C   LIG d   1       4.679  -4.214  -5.051  0.00  0.00     0.107 C 
ATOM      6  H   LIG d   1       4.281  -4.510  -4.080  0.00  0.00     0.064 H 
ATOM      7  C   LIG d   1       6.069  -4.852  -5.294  0.00  0.00     0.111 C 
ATOM      8  H   LIG d   1       6.531  -5.258  -4.394  0.00  0.00     0.065 H 
ATOM      9  O   LIG d   1       6.858  -3.812  -5.913  0.00  0.00    -0.370 OA
ATOM     10  C   LIG d   1       6.466  -2.581  -5.275  0.00  0.00     0.069 C 
ATOM     11  C   LIG d   1       4.935  -2.697  -5.099  0.00  0.00     0.075 C 
ATOM     12  H   LIG d   1       4.418  -2.246  -5.947  0.00  0.00     0.055 H 
ATOM     13  H   LIG d   1       4.798  -4.791  -7.927  0.00  0.00     0.058 H 
ATOM     14  H   LIG d   1       3.899  -6.238  -7.393  0.00  0.00     0.058 H 
ATOM     15  H   LIG d   1       6.953  -2.484  -4.304  0.00  0.00     0.058 H 
ATOM     16  H   LIG d   1       6.711  -1.729  -5.910  0.00  0.00     0.058 H 
ENDROOT
BRANCH   1  17
ATOM     17  N   LIG d   1       5.526  -7.228  -5.738  0.00  0.00    -0.187 N 
ATOM     18  C   LIG d   1       6.438  -8.125  -5.300  0.00  0.00     0.342 A 
ATOM     19  N   LIG d   1       5.773  -9.145  -4.808  0.00  0.00    -0.070 NA
ATOM     20  N   LIG d   1       4.508  -8.949  -4.909  0.00  0.00    -0.020 NA
ATOM     21  N   LIG d   1       4.276  -7.808  -5.463  0.00  0.00    -0.041 NA
BRANCH  18  22
ATOM     22  O   LIG d   1       7.785  -7.996  -5.357  0.00  0.00    -0.423 OA
BRANCH  22  23
ATOM     23  C   LIG d   1       8.445  -7.686  -4.211  0.00  0.00     0.134 A 
ATOM     24  C   LIG d   1       8.967  -6.413  -4.032  0.00  0.00    -0.019 A 
ATOM     25  C   LIG d   1       9.634  -6.094  -2.864  0.00  0.00    -0.057 A 
ATOM     26  H   LIG d   1       8.847  -5.668  -4.805  0.00  0.00     0.065 H 
ATOM     27  C   LIG d   1       9.794  -7.046  -1.876  0.00  0.00    -0.040 A 
ATOM     28  H   LIG d   1      10.035  -5.101  -2.726  0.00  0.00     0.062 H 
ATOM     29  C   LIG d   1       9.279  -8.324  -2.051  0.00  0.00     0.033 A 
ATOM     30  H   LIG d   1      10.320  -6.796  -0.966  0.00  0.00     0.064 H 
ATOM     31  C   LIG d   1       8.604  -8.644  -3.221  0.00  0.00     0.002 A 
ATOM     32  H   LIG d   1       8.202  -9.638  -3.360  0.00  0.00     0.067 H 
BRANCH  29  33
ATOM     33  N   LIG d   1       9.441  -9.287  -1.052  0.00  0.00    -0.336 N 
BRANCH  33  34
ATOM     34  C   LIG d   1      10.634  -9.267  -0.202  0.00  0.00     0.000 C 
ATOM     35  H   LIG d   1      10.608  -8.387   0.440  0.00  0.00     0.043 H 
ATOM     36  H   LIG d   1      10.656 -10.166   0.414  0.00  0.00     0.043 H 
ATOM     37  H   LIG d   1      11.526  -9.234  -0.827  0.00  0.00     0.043 H 
ENDBRANCH  33  34
BRANCH  33  38
ATOM     38  C   LIG d   1       8.418 -10.317  -0.856  0.00  0.00     0.000 C 
ATOM     39  H   LIG d   1       7.780 -10.368  -1.737  0.00  0.00     0.043 H 
ATOM     40  H   LIG d   1       8.900 -11.283  -0.700  0.00  0.00     0.043 H 
ATOM     41  H   LIG d   1       7.814 -10.068   0.016  0.00  0.00     0.043 H 
ENDBRANCH  33  38
ENDBRANCH  29  33
ENDBRANCH  22  23
ENDBRANCH  18  22
ENDBRANCH   1  17
BRANCH  11  42
ATOM     42  N   LIG d   1       4.513  -2.065  -3.846  0.00  0.00    -0.307 N 
ATOM     43  C   LIG d   1       3.964  -0.834  -3.864  0.00  0.00     0.216 C 
ATOM     44  O   LIG d   1       3.819  -0.249  -4.917  0.00  0.00    -0.276 OA
ATOM     45  H   LIG d   1       4.629  -2.532  -3.004  0.00  0.00     0.149 HD
BRANCH  43  46
ATOM     46  C   LIG d   1       3.529  -0.184  -2.576  0.00  0.00     0.036 A 
ATOM     47  C   LIG d   1       4.604   0.509  -1.737  0.00  0.00    -0.041 A 
ATOM     48  C   LIG d   1       3.575   1.343  -2.503  0.00  0.00    -0.041 A 
ATOM     49  H   LIG d   1       4.505   0.461  -0.652  0.00  0.00     0.027 H 
ATOM     50  H   LIG d   1       5.625   0.496  -2.117  0.00  0.00     0.027 H 
ATOM     51  H   LIG d   1       3.920   1.878  -3.388  0.00  0.00     0.027 H 
ATOM     52  H   LIG d   1       2.799   1.843  -1.923  0.00  0.00     0.027 H 
ATOM     53  H   LIG d   1       2.723  -0.691  -2.043  0.00  0.00     0.039 H 
ENDBRANCH  43  46
ENDBRANCH  11  42
TORSDOF 8
ENDMDL
MODEL 6
REMARK VINA RESULT:      -6.3      2.399      2.964
REMARK  8 active torsions:
REMARK  status: ('A' for Active; 'I' for Inactive)
REMARK    1  A    between atoms: C_1  and  N_2 
REMARK    2  A    between atoms: N_2  and  C_3 
REMARK    3  A    between atoms: N_2  and  C_4 
REMARK    4  A    between atoms: C_8  and  O_10 
REMARK    5  A    between atoms: O_10  and  C_11 
REMARK    6  A    between atoms: N_15  and  C_16 
REMARK    7  A    between atoms: C_26  and  N_28 
REMARK       I    between atoms: N_28  and  C_29 
REMARK    8  A    between atoms: C_29  and  C_31 
ROOT
ATOM      1  C   LIG d   1       5.088  -1.220  -6.681  0.00  0.00     0.111 C 
ATOM      2  H   LIG d   1       5.257  -0.756  -7.652  0.00  0.00     0.060 H 
ATOM      3  C   LIG d   1       6.425  -1.558  -5.995  0.00  0.00     0.073 C 
ATOM      4  O   LIG d   1       6.216  -2.762  -5.252  0.00  0.00    -0.370 OA
ATOM      5  C   LIG d   1       5.066  -3.454  -5.728  0.00  0.00     0.107 C 
ATOM      6  H   LIG d   1       4.355  -3.645  -4.924  0.00  0.00     0.064 H 
ATOM      7  C   LIG d   1       4.416  -2.603  -6.847  0.00  0.00     0.111 C 
ATOM      8  H   LIG d   1       3.329  -2.558  -6.790  0.00  0.00     0.065 H 
ATOM      9  O   LIG d   1       4.894  -3.179  -8.083  0.00  0.00    -0.370 OA
ATOM     10  C   LIG d   1       4.943  -4.603  -7.867  0.00  0.00     0.069 C 
ATOM     11  C   LIG d   1       5.472  -4.766  -6.424  0.00  0.00     0.075 C 
ATOM     12  H   LIG d   1       6.557  -4.880  -6.426  0.00  0.00     0.055 H 
ATOM     13  H   LIG d   1       7.200  -1.714  -6.746  0.00  0.00     0.058 H 
ATOM     14  H   LIG d   1       6.714  -0.750  -5.323  0.00  0.00     0.058 H 
ATOM     15  H   LIG d   1       3.947  -5.036  -7.956  0.00  0.00     0.058 H 
ATOM     16  H   LIG d   1       5.626  -5.072  -8.576  0.00  0.00     0.058 H 
ENDROOT
BRANCH   1  17
ATOM     17  N   LIG d   1       4.275  -0.350  -5.829  0.00  0.00    -0.187 N 
ATOM     18  C   LIG d   1       3.052   0.158  -6.102  0.00  0.00     0.342 A 
ATOM     19  N   LIG d   1       2.692   0.882  -5.068  0.00  0.00    -0.070 NA
ATOM     20  N   LIG d   1       3.605   0.863  -4.165  0.00  0.00    -0.020 NA
ATOM     21  N   LIG d   1       4.599   0.138  -4.551  0.00  0.00    -0.041 NA
BRANCH  18  22
ATOM     22  O   LIG d   1       2.332  -0.044  -7.232  0.00  0.00    -0.423 OA
BRANCH  22  23
ATOM     23  C   LIG d   1       2.796   0.496  -8.389  0.00  0.00     0.134 A 
ATOM     24  C   LIG d   1       3.201   1.823  -8.423  0.00  0.00    -0.019 A 
ATOM     25  C   LIG d   1       3.679   2.372  -9.598  0.00  0.00    -0.057 A 
ATOM     26  H   LIG d   1       3.145   2.427  -7.529  0.00  0.00     0.065 H 
ATOM     27  C   LIG d   1       3.746   1.605 -10.745  0.00  0.00    -0.040 A 
ATOM     28  H   LIG d   1       3.997   3.404  -9.621  0.00  0.00     0.062 H 
ATOM     29  C   LIG d   1       3.338   0.277 -10.718  0.00  0.00     0.033 A 
ATOM     30  H   LIG d   1       4.115   2.037 -11.663  0.00  0.00     0.064 H 
ATOM     31  C   LIG d   1       2.863  -0.277  -9.538  0.00  0.00     0.002 A 
ATOM     32  H   LIG d   1       2.544  -1.310  -9.514  0.00  0.00     0.067 H 
BRANCH  29  33
ATOM     33  N   LIG d   1       3.404  -0.499 -11.877  0.00  0.00    -0.336 N 
BRANCH  33  34
ATOM     34  C   LIG d   1       2.279  -1.361 -12.248  0.00  0.00     0.000 C 
ATOM     35  H   LIG d   1       1.798  -1.739 -11.347  0.00  0.00     0.043 H 
ATOM     36  H   LIG d   1       1.558  -0.787 -12.830  0.00  0.00     0.043 H 
ATOM     37  H   LIG d   1       2.643  -2.197 -12.844  0.00  0.00     0.043 H 
ENDBRANCH  33  34
BRANCH  33  38
ATOM     38  C   LIG d   1       4.600  -0.452 -12.722  0.00  0.00     0.000 C 
ATOM     39  H   LIG d   1       4.483   0.327 -13.475  0.00  0.00     0.043 H 
ATOM     40  H   LIG d   1       5.473  -0.231 -12.105  0.00  0.00     0.043 H 
ATOM     41  H   LIG d   1       4.738  -1.415 -13.213  0.00  0.00     0.043 H 
ENDBRANCH  33  38
ENDBRANCH  29  33
ENDBRANCH  22  23
ENDBRANCH  18  22
ENDBRANCH   1  17
BRANCH  11  42
ATOM     42  N   LIG d   1       4.837  -5.913  -5.771  0.00  0.00    -0.307 N 
ATOM     43  C   LIG d   1       5.490  -7.089  -5.689  0.00  0.00     0.216 C 
ATOM     44  O   LIG d   1       6.603  -7.199  -6.158  0.00  0.00    -0.276 OA
ATOM     45  H   LIG d   1       3.947  -5.826  -5.396  0.00  0.00     0.149 HD
BRANCH  43  46
ATOM     46  C   LIG d   1       4.836  -8.268  -5.016  0.00  0.00     0.036 A 
ATOM     47  C   LIG d   1       4.940  -9.626  -5.713  0.00  0.00    -0.041 A 
ATOM     48  C   LIG d   1       5.752  -9.353  -4.445  0.00  0.00    -0.041 A 
ATOM     49  H   LIG d   1       4.088 -10.302  -5.630  0.00  0.00     0.027 H 
ATOM     50  H   LIG d   1       5.481  -9.667  -6.658  0.00  0.00     0.027 H 
ATOM     51  H   LIG d   1       6.827  -9.213  -4.556  0.00  0.00     0.027 H 
ATOM     52  H   LIG d   1       5.434  -9.848  -3.527  0.00  0.00     0.027 H 
ATOM     53  H   LIG d   1       3.915  -8.049  -4.475  0.00  0.00     0.039 H 
ENDBRANCH  43  46
ENDBRANCH  11  42
TORSDOF 8
ENDMDL
MODEL 7
REMARK VINA RESULT:      -6.0      3.102      4.370
REMARK  8 active torsions:
REMARK  status: ('A' for Active; 'I' for Inactive)
REMARK    1  A    between atoms: C_1  and  N_2 
REMARK    2  A    between atoms: N_2  and  C_3 
REMARK    3  A    between atoms: N_2  and  C_4 
REMARK    4  A    between atoms: C_8  and  O_10 
REMARK    5  A    between atoms: O_10  and  C_11 
REMARK    6  A    between atoms: N_15  and  C_16 
REMARK    7  A    between atoms: C_26  and  N_28 
REMARK       I    between atoms: N_28  and  C_29 
REMARK    8  A    between atoms: C_29  and  C_31 
ROOT
ATOM      1  C   LIG d   1       6.566   0.355  -8.903  0.00  0.00     0.111 C 
ATOM      2  H   LIG d   1       7.155  -0.096  -9.701  0.00  0.00     0.060 H 
ATOM      3  C   LIG d   1       7.464   1.170  -7.953  0.00  0.00     0.073 C 
ATOM      4  O   LIG d   1       6.906   1.040  -6.643  0.00  0.00    -0.370 OA
ATOM      5  C   LIG d   1       6.044  -0.092  -6.573  0.00  0.00     0.107 C 
ATOM      6  H   LIG d   1       5.050   0.186  -6.224  0.00  0.00     0.064 H 
ATOM      7  C   LIG d   1       5.974  -0.736  -7.980  0.00  0.00     0.111 C 
ATOM      8  H   LIG d   1       4.970  -1.043  -8.274  0.00  0.00     0.065 H 
ATOM      9  O   LIG d   1       6.911  -1.834  -7.938  0.00  0.00    -0.370 OA
ATOM     10  C   LIG d   1       6.804  -2.401  -6.617  0.00  0.00     0.069 C 
ATOM     11  C   LIG d   1       6.655  -1.184  -5.677  0.00  0.00     0.075 C 
ATOM     12  H   LIG d   1       7.630  -0.872  -5.300  0.00  0.00     0.055 H 
ATOM     13  H   LIG d   1       8.479   0.773  -7.966  0.00  0.00     0.058 H 
ATOM     14  H   LIG d   1       7.470   2.218  -8.253  0.00  0.00     0.058 H 
ATOM     15  H   LIG d   1       5.925  -3.042  -6.550  0.00  0.00     0.058 H 
ATOM     16  H   LIG d   1       7.705  -2.963  -6.371  0.00  0.00     0.058 H 
ENDROOT
BRANCH   1  17
ATOM     17  N   LIG d   1       5.503   1.195  -9.458  0.00  0.00    -0.187 N 
ATOM     18  C   LIG d   1       4.662   0.893 -10.473  0.00  0.00     0.342 A 
ATOM     19  N   LIG d   1       3.872   1.926 -10.643  0.00  0.00    -0.070 NA
ATOM     20  N   LIG d   1       4.159   2.856  -9.806  0.00  0.00    -0.020 NA
ATOM     21  N   LIG d   1       5.139   2.491  -9.051  0.00  0.00    -0.041 NA
BRANCH  18  22
ATOM     22  O   LIG d   1       4.640  -0.262 -11.181  0.00  0.00    -0.423 OA
BRANCH  22  23
ATOM     23  C   LIG d   1       3.488  -0.981 -11.193  0.00  0.00     0.134 A 
ATOM     24  C   LIG d   1       2.961  -1.467 -10.006  0.00  0.00    -0.019 A 
ATOM     25  C   LIG d   1       1.785  -2.195 -10.015  0.00  0.00    -0.057 A 
ATOM     26  H   LIG d   1       3.467  -1.274  -9.072  0.00  0.00     0.065 H 
ATOM     27  C   LIG d   1       1.137  -2.449 -11.208  0.00  0.00    -0.040 A 
ATOM     28  H   LIG d   1       1.375  -2.569  -9.088  0.00  0.00     0.062 H 
ATOM     29  C   LIG d   1       1.663  -1.969 -12.401  0.00  0.00     0.033 A 
ATOM     30  H   LIG d   1       0.222  -3.022 -11.213  0.00  0.00     0.064 H 
ATOM     31  C   LIG d   1       2.840  -1.234 -12.393  0.00  0.00     0.002 A 
ATOM     32  H   LIG d   1       3.251  -0.860 -13.320  0.00  0.00     0.067 H 
BRANCH  29  33
ATOM     33  N   LIG d   1       1.009  -2.227 -13.608  0.00  0.00    -0.336 N 
BRANCH  33  34
ATOM     34  C   LIG d   1      -0.450  -2.356 -13.637  0.00  0.00     0.000 C 
ATOM     35  H   LIG d   1      -0.897  -1.387 -13.856  0.00  0.00     0.043 H 
ATOM     36  H   LIG d   1      -0.736  -3.070 -14.410  0.00  0.00     0.043 H 
ATOM     37  H   LIG d   1      -0.804  -2.708 -12.668  0.00  0.00     0.043 H 
ENDBRANCH  33  34
BRANCH  33  38
ATOM     38  C   LIG d   1       1.782  -2.368 -14.844  0.00  0.00     0.000 C 
ATOM     39  H   LIG d   1       2.286  -3.334 -14.849  0.00  0.00     0.043 H 
ATOM     40  H   LIG d   1       1.112  -2.304 -15.702  0.00  0.00     0.043 H 
ATOM     41  H   LIG d   1       2.523  -1.571 -14.903  0.00  0.00     0.043 H 
ENDBRANCH  33  38
ENDBRANCH  29  33
ENDBRANCH  22  23
ENDBRANCH  18  22
ENDBRANCH   1  17
BRANCH  11  42
ATOM     42  N   LIG d   1       5.753  -1.502  -4.567  0.00  0.00    -0.307 N 
ATOM     43  C   LIG d   1       5.870  -0.846  -3.395  0.00  0.00     0.216 C 
ATOM     44  O   LIG d   1       6.722   0.006  -3.259  0.00  0.00    -0.276 OA
ATOM     45  H   LIG d   1       5.071  -2.183  -4.675  0.00  0.00     0.149 HD
BRANCH  43  46
ATOM     46  C   LIG d   1       4.941  -1.171  -2.253  0.00  0.00     0.036 A 
ATOM     47  C   LIG d   1       3.483  -0.726  -2.381  0.00  0.00    -0.041 A 
ATOM     48  C   LIG d   1       3.844  -2.207  -2.508  0.00  0.00    -0.041 A 
ATOM     49  H   LIG d   1       2.971  -0.409  -1.471  0.00  0.00     0.027 H 
ATOM     50  H   LIG d   1       3.196  -0.198  -3.290  0.00  0.00     0.027 H 
ATOM     51  H   LIG d   1       3.795  -2.654  -3.502  0.00  0.00     0.027 H 
ATOM     52  H   LIG d   1       3.572  -2.865  -1.683  0.00  0.00     0.027 H 
ATOM     53  H   LIG d   1       5.390  -1.146  -1.260  0.00  0.00     0.039 H 
ENDBRANCH  43  46
ENDBRANCH  11  42
TORSDOF 8
ENDMDL
MODEL 8
REMARK VINA RESULT:      -6.0      4.906      9.027
REMARK  8 active torsions:
REMARK  status: ('A' for Active; 'I' for Inactive)
REMARK    1  A    between atoms: C_1  and  N_2 
REMARK    2  A    between atoms: N_2  and  C_3 
REMARK    3  A    between atoms: N_2  and  C_4 
REMARK    4  A    between atoms: C_8  and  O_10 
REMARK    5  A    between atoms: O_10  and  C_11 
REMARK    6  A    between atoms: N_15  and  C_16 
REMARK    7  A    between atoms: C_26  and  N_28 
REMARK       I    between atoms: N_28  and  C_29 
REMARK    8  A    between atoms: C_29  and  C_31 
ROOT
ATOM      1  C   LIG d   1       5.879  -5.557  -6.555  0.00  0.00     0.111 C 
ATOM      2  H   LIG d   1       5.919  -5.642  -7.641  0.00  0.00     0.060 H 
ATOM      3  C   LIG d   1       4.435  -5.726  -6.045  0.00  0.00     0.073 C 
ATOM      4  O   LIG d   1       4.297  -4.874  -4.905  0.00  0.00    -0.370 OA
ATOM      5  C   LIG d   1       5.312  -3.875  -4.897  0.00  0.00     0.107 C 
ATOM      6  H   LIG d   1       5.875  -3.887  -3.963  0.00  0.00     0.064 H 
ATOM      7  C   LIG d   1       6.247  -4.123  -6.106  0.00  0.00     0.111 C 
ATOM      8  H   LIG d   1       7.306  -4.007  -5.876  0.00  0.00     0.065 H 
ATOM      9  O   LIG d   1       5.789  -3.211  -7.129  0.00  0.00    -0.370 OA
ATOM     10  C   LIG d   1       5.407  -2.002  -6.443  0.00  0.00     0.069 C 
ATOM     11  C   LIG d   1       4.706  -2.484  -5.154  0.00  0.00     0.075 C 
ATOM     12  H   LIG d   1       3.629  -2.556  -5.310  0.00  0.00     0.055 H 
ATOM     13  H   LIG d   1       3.729  -5.428  -6.821  0.00  0.00     0.058 H 
ATOM     14  H   LIG d   1       4.259  -6.763  -5.759  0.00  0.00     0.058 H 
ATOM     15  H   LIG d   1       6.290  -1.411  -6.197  0.00  0.00     0.058 H 
ATOM     16  H   LIG d   1       4.719  -1.419  -7.056  0.00  0.00     0.058 H 
ENDROOT
BRANCH   1  17
ATOM     17  N   LIG d   1       6.767  -6.538  -5.928  0.00  0.00    -0.187 N 
ATOM     18  C   LIG d   1       6.672  -7.886  -5.983  0.00  0.00     0.342 A 
ATOM     19  N   LIG d   1       7.669  -8.375  -5.283  0.00  0.00    -0.070 NA
ATOM     20  N   LIG d   1       8.383  -7.426  -4.793  0.00  0.00    -0.020 NA
ATOM     21  N   LIG d   1       7.902  -6.281  -5.138  0.00  0.00    -0.041 NA
BRANCH  18  22
ATOM     22  O   LIG d   1       5.724  -8.598  -6.638  0.00  0.00    -0.423 OA
BRANCH  22  23
ATOM     23  C   LIG d   1       4.998  -9.500  -5.927  0.00  0.00     0.134 A 
ATOM     24  C   LIG d   1       4.598  -9.203  -4.632  0.00  0.00    -0.019 A 
ATOM     25  C   LIG d   1       3.855 -10.116  -3.909  0.00  0.00    -0.057 A 
ATOM     26  H   LIG d   1       4.864  -8.254  -4.190  0.00  0.00     0.065 H 
ATOM     27  C   LIG d   1       3.517 -11.333  -4.469  0.00  0.00    -0.040 A 
ATOM     28  H   LIG d   1       3.541  -9.880  -2.902  0.00  0.00     0.062 H 
ATOM     29  C   LIG d   1       3.920 -11.639  -5.763  0.00  0.00     0.033 A 
ATOM     30  H   LIG d   1       2.940 -12.048  -3.900  0.00  0.00     0.064 H 
ATOM     31  C   LIG d   1       4.661 -10.720  -6.492  0.00  0.00     0.002 A 
ATOM     32  H   LIG d   1       4.976 -10.956  -7.499  0.00  0.00     0.067 H 
BRANCH  29  33
ATOM     33  N   LIG d   1       3.579 -12.870  -6.330  0.00  0.00    -0.336 N 
BRANCH  33  34
ATOM     34  C   LIG d   1       2.173 -13.271  -6.419  0.00  0.00     0.000 C 
ATOM     35  H   LIG d   1       2.112 -14.348  -6.574  0.00  0.00     0.043 H 
ATOM     36  H   LIG d   1       1.660 -13.007  -5.495  0.00  0.00     0.043 H 
ATOM     37  H   LIG d   1       1.701 -12.757  -7.256  0.00  0.00     0.043 H 
ENDBRANCH  33  34
BRANCH  33  38
ATOM     38  C   LIG d   1       4.629 -13.759  -6.833  0.00  0.00     0.000 C 
ATOM     39  H   LIG d   1       5.429 -13.164  -7.274  0.00  0.00     0.043 H 
ATOM     40  H   LIG d   1       5.030 -14.352  -6.010  0.00  0.00     0.043 H 
ATOM     41  H   LIG d   1       4.212 -14.424  -7.589  0.00  0.00     0.043 H 
ENDBRANCH  33  38
ENDBRANCH  29  33
ENDBRANCH  22  23
ENDBRANCH  18  22
ENDBRANCH   1  17
BRANCH  11  42
ATOM     42  N   LIG d   1       5.003  -1.580  -4.040  0.00  0.00    -0.307 N 
ATOM     43  C   LIG d   1       4.008  -1.145  -3.241  0.00  0.00     0.216 C 
ATOM     44  O   LIG d   1       2.867  -1.501  -3.445  0.00  0.00    -0.276 OA
ATOM     45  H   LIG d   1       5.915  -1.295  -3.876  0.00  0.00     0.149 HD
BRANCH  43  46
ATOM     46  C   LIG d   1       4.314  -0.216  -2.094  0.00  0.00     0.036 A 
ATOM     47  C   LIG d   1       5.208   0.991  -2.383  0.00  0.00    -0.041 A 
ATOM     48  C   LIG d   1       3.710   1.189  -2.142  0.00  0.00    -0.041 A 
ATOM     49  H   LIG d   1       5.892   1.312  -1.596  0.00  0.00     0.027 H 
ATOM     50  H   LIG d   1       5.575   1.114  -3.402  0.00  0.00     0.027 H 
ATOM     51  H   LIG d   1       3.091   1.441  -3.002  0.00  0.00     0.027 H 
ATOM     52  H   LIG d   1       3.407   1.638  -1.196  0.00  0.00     0.027 H 
ATOM     53  H   LIG d   1       4.410  -0.691  -1.118  0.00  0.00     0.039 H 
ENDBRANCH  43  46
ENDBRANCH  11  42
TORSDOF 8
ENDMDL
MODEL 9
REMARK VINA RESULT:      -6.0      7.533      9.041
REMARK  8 active torsions:
REMARK  status: ('A' for Active; 'I' for Inactive)
REMARK    1  A    between atoms: C_1  and  N_2 
REMARK    2  A    between atoms: N_2  and  C_3 
REMARK    3  A    between atoms: N_2  and  C_4 
REMARK    4  A    between atoms: C_8  and  O_10 
REMARK    5  A    between atoms: O_10  and  C_11 
REMARK    6  A    between atoms: N_15  and  C_16 
REMARK    7  A    between atoms: C_26  and  N_28 
REMARK       I    between atoms: N_28  and  C_29 
REMARK    8  A    between atoms: C_29  and  C_31 
ROOT
ATOM      1  C   LIG d   1      10.229   3.795  -4.306  0.00  0.00     0.111 C 
ATOM      2  H   LIG d   1      10.908   4.032  -5.124  0.00  0.00     0.060 H 
ATOM      3  C   LIG d   1      10.707   2.544  -3.543  0.00  0.00     0.073 C 
ATOM      4  O   LIG d   1       9.533   1.851  -3.110  0.00  0.00    -0.370 OA
ATOM      5  C   LIG d   1       8.399   2.259  -3.867  0.00  0.00     0.107 C 
ATOM      6  H   LIG d   1       7.595   2.613  -3.222  0.00  0.00     0.064 H 
ATOM      7  C   LIG d   1       8.846   3.369  -4.851  0.00  0.00     0.111 C 
ATOM      8  H   LIG d   1       8.144   4.199  -4.926  0.00  0.00     0.065 H 
ATOM      9  O   LIG d   1       9.058   2.693  -6.110  0.00  0.00    -0.370 OA
ATOM     10  C   LIG d   1       8.029   1.687  -6.202  0.00  0.00     0.069 C 
ATOM     11  C   LIG d   1       7.911   1.113  -4.772  0.00  0.00     0.075 C 
ATOM     12  H   LIG d   1       8.548   0.235  -4.660  0.00  0.00     0.055 H 
ATOM     13  H   LIG d   1      11.294   1.906  -4.204  0.00  0.00     0.058 H 
ATOM     14  H   LIG d   1      11.305   2.839  -2.681  0.00  0.00     0.058 H 
ATOM     15  H   LIG d   1       7.085   2.137  -6.509  0.00  0.00     0.058 H 
ATOM     16  H   LIG d   1       8.324   0.905  -6.902  0.00  0.00     0.058 H 
ENDROOT
BRANCH   1  17
ATOM     17  N   LIG d   1      10.098   4.936  -3.397  0.00  0.00    -0.187 N 
ATOM     18  C   LIG d   1       9.496   6.120  -3.648  0.00  0.00     0.342 A 
ATOM     19  N   LIG d   1       9.608   6.851  -2.563  0.00  0.00    -0.070 NA
ATOM     20  N   LIG d   1      10.239   6.205  -1.650  0.00  0.00    -0.020 NA
ATOM     21  N   LIG d   1      10.571   5.035  -2.077  0.00  0.00    -0.041 NA
BRANCH  18  22
ATOM     22  O   LIG d   1       8.890   6.485  -4.803  0.00  0.00    -0.423 OA
BRANCH  22  23
ATOM     23  C   LIG d   1       9.544   7.349  -5.622  0.00  0.00     0.134 A 
ATOM     24  C   LIG d   1      10.420   6.866  -6.584  0.00  0.00    -0.019 A 
ATOM     25  C   LIG d   1      11.083   7.744  -7.421  0.00  0.00    -0.057 A 
ATOM     26  H   LIG d   1      10.581   5.803  -6.681  0.00  0.00     0.065 H 
ATOM     27  C   LIG d   1      10.884   9.105  -7.297  0.00  0.00    -0.040 A 
ATOM     28  H   LIG d   1      11.761   7.365  -8.172  0.00  0.00     0.062 H 
ATOM     29  C   LIG d   1      10.013   9.595  -6.332  0.00  0.00     0.033 A 
ATOM     30  H   LIG d   1      11.407   9.789  -7.949  0.00  0.00     0.064 H 
ATOM     31  C   LIG d   1       9.342   8.715  -5.494  0.00  0.00     0.002 A 
ATOM     32  H   LIG d   1       8.664   9.094  -4.742  0.00  0.00     0.067 H 
BRANCH  29  33
ATOM     33  N   LIG d   1       9.812  10.972  -6.204  0.00  0.00    -0.336 N 
BRANCH  33  34
ATOM     34  C   LIG d   1       9.350  11.530  -4.931  0.00  0.00     0.000 C 
ATOM     35  H   LIG d   1       9.472  12.613  -4.944  0.00  0.00     0.043 H 
ATOM     36  H   LIG d   1       8.298  11.285  -4.787  0.00  0.00     0.043 H 
ATOM     37  H   LIG d   1       9.936  11.108  -4.115  0.00  0.00     0.043 H 
ENDBRANCH  33  34
BRANCH  33  38
ATOM     38  C   LIG d   1      10.063  11.856  -7.345  0.00  0.00     0.000 C 
ATOM     39  H   LIG d   1      10.868  11.445  -7.953  0.00  0.00     0.043 H 
ATOM     40  H   LIG d   1       9.158  11.937  -7.948  0.00  0.00     0.043 H 
ATOM     41  H   LIG d   1      10.348  12.844  -6.984  0.00  0.00     0.043 H 
ENDBRANCH  33  38
ENDBRANCH  29  33
ENDBRANCH  22  23
ENDBRANCH  18  22
ENDBRANCH   1  17
BRANCH  11  42
ATOM     42  N   LIG d   1       6.517   0.777  -4.469  0.00  0.00    -0.307 N 
ATOM     43  C   LIG d   1       6.236  -0.246  -3.637  0.00  0.00     0.216 C 
ATOM     44  O   LIG d   1       7.137  -0.889  -3.140  0.00  0.00    -0.276 OA
ATOM     45  H   LIG d   1       5.797   1.290  -4.865  0.00  0.00     0.149 HD
BRANCH  43  46
ATOM     46  C   LIG d   1       4.803  -0.591  -3.323  0.00  0.00     0.036 A 
ATOM     47  C   LIG d   1       4.548  -1.583  -2.187  0.00  0.00    -0.041 A 
ATOM     48  C   LIG d   1       4.232  -0.098  -1.992  0.00  0.00    -0.041 A 
ATOM     49  H   LIG d   1       3.705  -2.266  -2.295  0.00  0.00     0.027 H 
ATOM     50  H   LIG d   1       5.416  -1.986  -1.666  0.00  0.00     0.027 H 
ATOM     51  H   LIG d   1       4.894   0.475  -1.342  0.00  0.00     0.027 H 
ATOM     52  H   LIG d   1       3.183   0.196  -1.972  0.00  0.00     0.027 H 
ATOM     53  H   LIG d   1       4.129  -0.622  -4.180  0.00  0.00     0.039 H 
ENDBRANCH  43  46
ENDBRANCH  11  42
TORSDOF 8
ENDMDL
MODEL 10
REMARK VINA RESULT:      -5.9      3.788      5.358
REMARK  8 active torsions:
REMARK  status: ('A' for Active; 'I' for Inactive)
REMARK    1  A    between atoms: C_1  and  N_2 
REMARK    2  A    between atoms: N_2  and  C_3 
REMARK    3  A    between atoms: N_2  and  C_4 
REMARK    4  A    between atoms: C_8  and  O_10 
REMARK    5  A    between atoms: O_10  and  C_11 
REMARK    6  A    between atoms: N_15  and  C_16 
REMARK    7  A    between atoms: C_26  and  N_28 
REMARK       I    between atoms: N_28  and  C_29 
REMARK    8  A    between atoms: C_29  and  C_31 
ROOT
ATOM      1  C   LIG d   1       9.300   1.760  -6.533  0.00  0.00     0.111 C 
ATOM      2  H   LIG d   1      10.246   1.239  -6.673  0.00  0.00     0.060 H 
ATOM      3  C   LIG d   1       9.317   2.585  -5.231  0.00  0.00     0.073 C 
ATOM      4  O   LIG d   1       7.988   2.554  -4.705  0.00  0.00    -0.370 OA
ATOM      5  C   LIG d   1       7.251   1.470  -5.261  0.00  0.00     0.107 C 
ATOM      6  H   LIG d   1       6.325   1.812  -5.723  0.00  0.00     0.064 H 
ATOM      7  C   LIG d   1       8.151   0.752  -6.297  0.00  0.00     0.111 C 
ATOM      8  H   LIG d   1       7.632   0.475  -7.214  0.00  0.00     0.065 H 
ATOM      9  O   LIG d   1       8.701  -0.385  -5.594  0.00  0.00    -0.370 OA
ATOM     10  C   LIG d   1       7.649  -0.871  -4.737  0.00  0.00     0.069 C 
ATOM     11  C   LIG d   1       6.966   0.402  -4.189  0.00  0.00     0.075 C 
ATOM     12  H   LIG d   1       7.406   0.689  -3.233  0.00  0.00     0.055 H 
ATOM     13  H   LIG d   1      10.011   2.140  -4.517  0.00  0.00     0.058 H 
ATOM     14  H   LIG d   1       9.610   3.613  -5.445  0.00  0.00     0.058 H 
ATOM     15  H   LIG d   1       6.937  -1.466  -5.310  0.00  0.00     0.058 H 
ATOM     16  H   LIG d   1       8.066  -1.460  -3.920  0.00  0.00     0.058 H 
ENDROOT
BRANCH   1  17
ATOM     17  N   LIG d   1       9.007   2.616  -7.684  0.00  0.00    -0.187 N 
ATOM     18  C   LIG d   1       8.243   2.316  -8.758  0.00  0.00     0.342 A 
ATOM     19  N   LIG d   1       8.250   3.366  -9.546  0.00  0.00    -0.070 NA
ATOM     20  N   LIG d   1       8.967   4.304  -9.040  0.00  0.00    -0.020 NA
ATOM     21  N   LIG d   1       9.462   3.928  -7.911  0.00  0.00    -0.041 NA
BRANCH  18  22
ATOM     22  O   LIG d   1       7.592   1.149  -8.980  0.00  0.00    -0.423 OA
BRANCH  22  23
ATOM     23  C   LIG d   1       6.337   1.207  -9.498  0.00  0.00     0.134 A 
ATOM     24  C   LIG d   1       5.426   2.133  -9.009  0.00  0.00    -0.019 A 
ATOM     25  C   LIG d   1       4.151   2.198  -9.538  0.00  0.00    -0.057 A 
ATOM     26  H   LIG d   1       5.716   2.808  -8.217  0.00  0.00     0.065 H 
ATOM     27  C   LIG d   1       3.775   1.333 -10.548  0.00  0.00    -0.040 A 
ATOM     28  H   LIG d   1       3.446   2.923  -9.159  0.00  0.00     0.062 H 
ATOM     29  C   LIG d   1       4.681   0.400 -11.038  0.00  0.00     0.033 A 
ATOM     30  H   LIG d   1       2.777   1.383 -10.957  0.00  0.00     0.064 H 
ATOM     31  C   LIG d   1       5.963   0.338 -10.511  0.00  0.00     0.002 A 
ATOM     32  H   LIG d   1       6.670  -0.387 -10.890  0.00  0.00     0.067 H 
BRANCH  29  33
ATOM     33  N   LIG d   1       4.301  -0.475 -12.059  0.00  0.00    -0.336 N 
BRANCH  33  34
ATOM     34  C   LIG d   1       5.267  -0.860 -13.091  0.00  0.00     0.000 C 
ATOM     35  H   LIG d   1       4.927  -1.769 -13.585  0.00  0.00     0.043 H 
ATOM     36  H   LIG d   1       5.354  -0.059 -13.824  0.00  0.00     0.043 H 
ATOM     37  H   LIG d   1       6.239  -1.038 -12.631  0.00  0.00     0.043 H 
ENDBRANCH  33  34
BRANCH  33  38
ATOM     38  C   LIG d   1       2.937  -1.006 -12.097  0.00  0.00     0.000 C 
ATOM     39  H   LIG d   1       2.911  -1.976 -11.601  0.00  0.00     0.043 H 
ATOM     40  H   LIG d   1       2.264  -0.318 -11.583  0.00  0.00     0.043 H 
ATOM     41  H   LIG d   1       2.619  -1.118 -13.133  0.00  0.00     0.043 H 
ENDBRANCH  33  38
ENDBRANCH  29  33
ENDBRANCH  22  23
ENDBRANCH  18  22
ENDBRANCH   1  17
BRANCH  11  42
ATOM     42  N   LIG d   1       5.524   0.189  -4.046  0.00  0.00    -0.307 N 
ATOM     43  C   LIG d   1       4.863   0.729  -3.002  0.00  0.00     0.216 C 
ATOM     44  O   LIG d   1       5.463   1.390  -2.181  0.00  0.00    -0.276 OA
ATOM     45  H   LIG d   1       5.044  -0.339  -4.703  0.00  0.00     0.149 HD
BRANCH  43  46
ATOM     46  C   LIG d   1       3.379   0.512  -2.856  0.00  0.00     0.036 A 
ATOM     47  C   LIG d   1       2.611   0.035  -4.090  0.00  0.00    -0.041 A 
ATOM     48  C   LIG d   1       2.865  -0.928  -2.928  0.00  0.00    -0.041 A 
ATOM     49  H   LIG d   1       1.593   0.404  -4.225  0.00  0.00     0.027 H 
ATOM     50  H   LIG d   1       3.178  -0.122  -5.007  0.00  0.00     0.027 H 
ATOM     51  H   LIG d   1       3.601  -1.717  -3.081  0.00  0.00     0.027 H 
ATOM     52  H   LIG d   1       2.016  -1.191  -2.297  0.00  0.00     0.027 H 
ATOM     53  H   LIG d   1       2.868   1.196  -2.179  0.00  0.00     0.039 H 
ENDBRANCH  43  46
ENDBRANCH  11  42
TORSDOF 8
ENDMDL
