MODEL 1
REMARK VINA RESULT:      -5.6      0.000      0.000
REMARK  9 active torsions:
REMARK  status: ('A' for Active; 'I' for Inactive)
REMARK    1  A    between atoms: C_1  and  C_2 
REMARK    2  A    between atoms: C_2  and  C_8 
REMARK    3  A    between atoms: N_3  and  N_4 
REMARK       I    between atoms: N_4  and  C_5 
REMARK       I    between atoms: C_5  and  N_7 
REMARK    4  A    between atoms: C_8  and  C_20 
REMARK    5  A    between atoms: C_11  and  C_16 
REMARK    6  A    between atoms: C_13  and  C_14 
REMARK    7  A    between atoms: C_13  and  C_15 
REMARK    8  A    between atoms: C_16  and  O_18 
REMARK    9  A    between atoms: O_18  and  C_19 
ROOT
ATOM      1  C   LIG d   1       5.177  -2.206  -3.707  0.00  0.00     0.013 C 
ATOM      2  C   LIG d   1       4.042  -2.363  -2.673  0.00  0.00    -0.041 C 
ATOM      3  C   LIG d   1       3.327  -0.990  -2.682  0.00  0.00    -0.039 C 
ATOM      4  C   LIG d   1       3.363  -0.596  -4.179  0.00  0.00     0.062 C 
ATOM      5  H   LIG d   1       2.565  -1.099  -4.726  0.00  0.00     0.042 H 
ATOM      6  C   LIG d   1       4.744  -1.082  -4.665  0.00  0.00    -0.011 C 
ATOM      7  H   LIG d   1       3.357  -3.153  -2.976  0.00  0.00     0.027 H 
ATOM      8  H   LIG d   1       4.453  -2.574  -1.686  0.00  0.00     0.027 H 
ATOM      9  H   LIG d   1       2.299  -1.088  -2.333  0.00  0.00     0.027 H 
ATOM     10  H   LIG d   1       3.871  -0.266  -2.076  0.00  0.00     0.027 H 
ENDROOT
BRANCH   1  11
ATOM     11  C   LIG d   1       5.361  -3.492  -4.471  0.00  0.00     0.040 C 
ATOM     12  N   LIG d   1       4.356  -4.253  -4.694  0.00  0.00    -0.188 NA
BRANCH  11  13
ATOM     13  C   LIG d   1       6.729  -3.883  -4.968  0.00  0.00    -0.024 C 
ATOM     14  H   LIG d   1       6.634  -4.696  -5.688  0.00  0.00     0.029 H 
ATOM     15  H   LIG d   1       7.341  -4.211  -4.128  0.00  0.00     0.029 H 
ATOM     16  H   LIG d   1       7.199  -3.026  -5.448  0.00  0.00     0.029 H 
ENDBRANCH  11  13
BRANCH  12  17
ATOM     17  N   LIG d   1       4.529  -5.449  -5.404  0.00  0.00    -0.191 N 
ATOM     18  C   LIG d   1       3.999  -5.583  -6.637  0.00  0.00     0.317 C 
ATOM     19  O   LIG d   1       4.149  -6.620  -7.253  0.00  0.00    -0.251 OA
ATOM     20  N   LIG d   1       3.305  -4.567  -7.187  0.00  0.00    -0.312 N 
ATOM     21  H   LIG d   1       3.187  -3.739  -6.695  0.00  0.00     0.146 HD
ATOM     22  H   LIG d   1       2.925  -4.663  -8.073  0.00  0.00     0.146 HD
ATOM     23  H   LIG d   1       5.028  -6.180  -5.008  0.00  0.00     0.179 HD
ENDBRANCH  12  17
ENDBRANCH   1  11
BRANCH   1  24
ATOM     24  C   LIG d   1       6.479  -1.823  -3.003  0.00  0.00    -0.054 C 
ATOM     25  H   LIG d   1       7.326  -2.179  -3.587  0.00  0.00     0.024 H 
ATOM     26  H   LIG d   1       6.535  -0.739  -2.905  0.00  0.00     0.024 H 
ATOM     27  H   LIG d   1       6.504  -2.278  -2.013  0.00  0.00     0.024 H 
ENDBRANCH   1  24
BRANCH   6  28
ATOM     28  C   LIG d   1       5.752   0.067  -4.613  0.00  0.00    -0.058 C 
ATOM     29  H   LIG d   1       5.875   0.397  -3.582  0.00  0.00     0.024 H 
ATOM     30  H   LIG d   1       6.713  -0.274  -5.000  0.00  0.00     0.024 H 
ATOM     31  H   LIG d   1       5.390   0.897  -5.221  0.00  0.00     0.024 H 
ENDBRANCH   6  28
BRANCH   6  32
ATOM     32  C   LIG d   1       4.637  -1.622  -6.093  0.00  0.00    -0.058 C 
ATOM     33  H   LIG d   1       3.952  -2.470  -6.110  0.00  0.00     0.024 H 
ATOM     34  H   LIG d   1       4.262  -0.838  -6.751  0.00  0.00     0.024 H 
ATOM     35  H   LIG d   1       5.621  -1.943  -6.434  0.00  0.00     0.024 H 
ENDBRANCH   6  32
BRANCH   4  36
ATOM     36  C   LIG d   1       3.245   0.898  -4.335  0.00  0.00     0.310 C 
ATOM     37  O   LIG d   1       3.703   1.632  -3.489  0.00  0.00    -0.251 OA
BRANCH  36  38
ATOM     38  O   LIG d   1       2.634   1.416  -5.412  0.00  0.00    -0.468 OA
BRANCH  38  39
ATOM     39  C   LIG d   1       2.514   0.559  -6.578  0.00  0.00     0.082 C 
ATOM     40  H   LIG d   1       1.611   0.821  -7.129  0.00  0.00     0.066 H 
ATOM     41  H   LIG d   1       3.384   0.696  -7.221  0.00  0.00     0.066 H 
ATOM     42  H   LIG d   1       2.456  -0.482  -6.260  0.00  0.00     0.066 H 
ENDBRANCH  38  39
ENDBRANCH  36  38
ENDBRANCH   4  36
TORSDOF 9
ENDMDL
MODEL 2
REMARK VINA RESULT:      -5.3      1.789      2.597
REMARK  9 active torsions:
REMARK  status: ('A' for Active; 'I' for Inactive)
REMARK    1  A    between atoms: C_1  and  C_2 
REMARK    2  A    between atoms: C_2  and  C_8 
REMARK    3  A    between atoms: N_3  and  N_4 
REMARK       I    between atoms: N_4  and  C_5 
REMARK       I    between atoms: C_5  and  N_7 
REMARK    4  A    between atoms: C_8  and  C_20 
REMARK    5  A    between atoms: C_11  and  C_16 
REMARK    6  A    between atoms: C_13  and  C_14 
REMARK    7  A    between atoms: C_13  and  C_15 
REMARK    8  A    between atoms: C_16  and  O_18 
REMARK    9  A    between atoms: O_18  and  C_19 
ROOT
ATOM      1  C   LIG d   1       4.903  -0.873  -5.480  0.00  0.00     0.013 C 
ATOM      2  C   LIG d   1       3.640  -0.503  -4.673  0.00  0.00    -0.041 C 
ATOM      3  C   LIG d   1       2.869   0.469  -5.601  0.00  0.00    -0.039 C 
ATOM      4  C   LIG d   1       3.102  -0.142  -7.005  0.00  0.00     0.062 C 
ATOM      5  H   LIG d   1       2.416  -0.971  -7.179  0.00  0.00     0.042 H 
ATOM      6  C   LIG d   1       4.560  -0.643  -6.962  0.00  0.00    -0.011 C 
ATOM      7  H   LIG d   1       3.044  -1.391  -4.470  0.00  0.00     0.027 H 
ATOM      8  H   LIG d   1       3.915  -0.007  -3.742  0.00  0.00     0.027 H 
ATOM      9  H   LIG d   1       1.807   0.476  -5.354  0.00  0.00     0.027 H 
ATOM     10  H   LIG d   1       3.285   1.474  -5.540  0.00  0.00     0.027 H 
ENDROOT
BRANCH   1  11
ATOM     11  C   LIG d   1       5.257  -2.319  -5.250  0.00  0.00     0.040 C 
ATOM     12  N   LIG d   1       4.333  -3.175  -5.018  0.00  0.00    -0.188 NA
BRANCH  11  13
ATOM     13  C   LIG d   1       6.698  -2.758  -5.293  0.00  0.00    -0.024 C 
ATOM     14  H   LIG d   1       6.785  -3.657  -5.905  0.00  0.00     0.029 H 
ATOM     15  H   LIG d   1       7.042  -2.973  -4.281  0.00  0.00     0.029 H 
ATOM     16  H   LIG d   1       7.307  -1.964  -5.724  0.00  0.00     0.029 H 
ENDBRANCH  11  13
BRANCH  12  17
ATOM     17  N   LIG d   1       4.663  -4.520  -4.804  0.00  0.00    -0.191 N 
ATOM     18  C   LIG d   1       4.188  -5.470  -5.634  0.00  0.00     0.317 C 
ATOM     19  O   LIG d   1       4.474  -6.637  -5.449  0.00  0.00    -0.251 OA
ATOM     20  N   LIG d   1       3.397  -5.126  -6.670  0.00  0.00    -0.312 N 
ATOM     21  H   LIG d   1       3.170  -4.194  -6.818  0.00  0.00     0.146 HD
ATOM     22  H   LIG d   1       3.056  -5.809  -7.267  0.00  0.00     0.146 HD
ATOM     23  H   LIG d   1       5.232  -4.767  -4.059  0.00  0.00     0.179 HD
ENDBRANCH  12  17
ENDBRANCH   1  11
BRANCH   1  24
ATOM     24  C   LIG d   1       6.071   0.025  -5.066  0.00  0.00    -0.054 C 
ATOM     25  H   LIG d   1       5.774   0.637  -4.215  0.00  0.00     0.024 H 
ATOM     26  H   LIG d   1       6.924  -0.593  -4.790  0.00  0.00     0.024 H 
ATOM     27  H   LIG d   1       6.345   0.672  -5.900  0.00  0.00     0.024 H 
ENDBRANCH   1  24
BRANCH   6  28
ATOM     28  C   LIG d   1       5.494   0.411  -7.559  0.00  0.00    -0.058 C 
ATOM     29  H   LIG d   1       6.493   0.290  -7.140  0.00  0.00     0.024 H 
ATOM     30  H   LIG d   1       5.538   0.288  -8.641  0.00  0.00     0.024 H 
ATOM     31  H   LIG d   1       5.119   1.407  -7.321  0.00  0.00     0.024 H 
ENDBRANCH   6  28
BRANCH   6  32
ATOM     32  C   LIG d   1       4.686  -1.955  -7.739  0.00  0.00    -0.058 C 
ATOM     33  H   LIG d   1       5.605  -1.944  -8.324  0.00  0.00     0.024 H 
ATOM     34  H   LIG d   1       4.711  -2.790  -7.038  0.00  0.00     0.024 H 
ATOM     35  H   LIG d   1       3.831  -2.066  -8.406  0.00  0.00     0.024 H 
ENDBRANCH   6  32
BRANCH   4  36
ATOM     36  C   LIG d   1       2.937   0.910  -8.071  0.00  0.00     0.310 C 
ATOM     37  O   LIG d   1       2.936   2.081  -7.770  0.00  0.00    -0.251 OA
BRANCH  36  38
ATOM     38  O   LIG d   1       2.791   0.548  -9.355  0.00  0.00    -0.468 OA
BRANCH  38  39
ATOM     39  C   LIG d   1       1.789  -0.462  -9.646  0.00  0.00     0.082 C 
ATOM     40  H   LIG d   1       2.123  -1.426  -9.261  0.00  0.00     0.066 H 
ATOM     41  H   LIG d   1       0.847  -0.189  -9.169  0.00  0.00     0.066 H 
ATOM     42  H   LIG d   1       1.645  -0.532 -10.724  0.00  0.00     0.066 H 
ENDBRANCH  38  39
ENDBRANCH  36  38
ENDBRANCH   4  36
TORSDOF 9
ENDMDL
MODEL 3
REMARK VINA RESULT:      -5.1      3.534      6.024
REMARK  9 active torsions:
REMARK  status: ('A' for Active; 'I' for Inactive)
REMARK    1  A    between atoms: C_1  and  C_2 
REMARK    2  A    between atoms: C_2  and  C_8 
REMARK    3  A    between atoms: N_3  and  N_4 
REMARK       I    between atoms: N_4  and  C_5 
REMARK       I    between atoms: C_5  and  N_7 
REMARK    4  A    between atoms: C_8  and  C_20 
REMARK    5  A    between atoms: C_11  and  C_16 
REMARK    6  A    between atoms: C_13  and  C_14 
REMARK    7  A    between atoms: C_13  and  C_15 
REMARK    8  A    between atoms: C_16  and  O_18 
REMARK    9  A    between atoms: O_18  and  C_19 
ROOT
ATOM      1  C   LIG d   1       5.804  -1.083  -3.317  0.00  0.00     0.013 C 
ATOM      2  C   LIG d   1       7.083  -1.944  -3.389  0.00  0.00    -0.041 C 
ATOM      3  C   LIG d   1       6.658  -3.189  -4.206  0.00  0.00    -0.039 C 
ATOM      4  C   LIG d   1       5.709  -2.589  -5.273  0.00  0.00     0.062 C 
ATOM      5  H   LIG d   1       6.282  -2.155  -6.093  0.00  0.00     0.042 H 
ATOM      6  C   LIG d   1       4.931  -1.495  -4.516  0.00  0.00    -0.011 C 
ATOM      7  H   LIG d   1       7.878  -1.404  -3.903  0.00  0.00     0.027 H 
ATOM      8  H   LIG d   1       7.405  -2.234  -2.389  0.00  0.00     0.027 H 
ATOM      9  H   LIG d   1       7.523  -3.656  -4.677  0.00  0.00     0.027 H 
ATOM     10  H   LIG d   1       6.131  -3.904  -3.575  0.00  0.00     0.027 H 
ENDROOT
BRANCH   1  11
ATOM     11  C   LIG d   1       6.159   0.378  -3.414  0.00  0.00     0.040 C 
ATOM     12  N   LIG d   1       7.201   0.742  -4.063  0.00  0.00    -0.188 NA
BRANCH  11  13
ATOM     13  C   LIG d   1       5.289   1.410  -2.745  0.00  0.00    -0.024 C 
ATOM     14  H   LIG d   1       4.572   1.803  -3.467  0.00  0.00     0.029 H 
ATOM     15  H   LIG d   1       5.911   2.223  -2.371  0.00  0.00     0.029 H 
ATOM     16  H   LIG d   1       4.753   0.951  -1.915  0.00  0.00     0.029 H 
ENDBRANCH  11  13
BRANCH  12  17
ATOM     17  N   LIG d   1       7.530   2.101  -4.153  0.00  0.00    -0.191 N 
ATOM     18  C   LIG d   1       8.808   2.496  -3.986  0.00  0.00     0.317 C 
ATOM     19  O   LIG d   1       9.095   3.675  -4.064  0.00  0.00    -0.251 OA
ATOM     20  N   LIG d   1       9.769   1.584  -3.734  0.00  0.00    -0.312 N 
ATOM     21  H   LIG d   1       9.540   0.644  -3.673  0.00  0.00     0.146 HD
ATOM     22  H   LIG d   1      10.688   1.869  -3.615  0.00  0.00     0.146 HD
ATOM     23  H   LIG d   1       6.839   2.757  -4.334  0.00  0.00     0.179 HD
ENDBRANCH  12  17
ENDBRANCH   1  11
BRANCH   1  24
ATOM     24  C   LIG d   1       5.062  -1.358  -2.008  0.00  0.00    -0.054 C 
ATOM     25  H   LIG d   1       5.735  -1.845  -1.304  0.00  0.00     0.024 H 
ATOM     26  H   LIG d   1       4.712  -0.417  -1.584  0.00  0.00     0.024 H 
ATOM     27  H   LIG d   1       4.209  -2.007  -2.204  0.00  0.00     0.024 H 
ENDBRANCH   1  24
BRANCH   6  28
ATOM     28  C   LIG d   1       3.593  -2.048  -4.023  0.00  0.00    -0.058 C 
ATOM     29  H   LIG d   1       3.386  -2.996  -4.520  0.00  0.00     0.024 H 
ATOM     30  H   LIG d   1       3.640  -2.207  -2.945  0.00  0.00     0.024 H 
ATOM     31  H   LIG d   1       2.799  -1.337  -4.251  0.00  0.00     0.024 H 
ENDBRANCH   6  28
BRANCH   6  32
ATOM     32  C   LIG d   1       4.696  -0.290  -5.430  0.00  0.00    -0.058 C 
ATOM     33  H   LIG d   1       3.874  -0.506  -6.112  0.00  0.00     0.024 H 
ATOM     34  H   LIG d   1       4.446   0.582  -4.825  0.00  0.00     0.024 H 
ATOM     35  H   LIG d   1       5.600  -0.088  -6.003  0.00  0.00     0.024 H 
ENDBRANCH   6  32
BRANCH   4  36
ATOM     36  C   LIG d   1       4.766  -3.643  -5.792  0.00  0.00     0.310 C 
ATOM     37  O   LIG d   1       4.261  -3.518  -6.884  0.00  0.00    -0.251 OA
BRANCH  36  38
ATOM     38  O   LIG d   1       4.485  -4.722  -5.044  0.00  0.00    -0.468 OA
BRANCH  38  39
ATOM     39  C   LIG d   1       4.661  -6.021  -5.668  0.00  0.00     0.082 C 
ATOM     40  H   LIG d   1       4.030  -6.086  -6.555  0.00  0.00     0.066 H 
ATOM     41  H   LIG d   1       5.705  -6.149  -5.955  0.00  0.00     0.066 H 
ATOM     42  H   LIG d   1       4.379  -6.804  -4.964  0.00  0.00     0.066 H 
ENDBRANCH  38  39
ENDBRANCH  36  38
ENDBRANCH   4  36
TORSDOF 9
ENDMDL
MODEL 4
REMARK VINA RESULT:      -5.1      3.172      5.309
REMARK  9 active torsions:
REMARK  status: ('A' for Active; 'I' for Inactive)
REMARK    1  A    between atoms: C_1  and  C_2 
REMARK    2  A    between atoms: C_2  and  C_8 
REMARK    3  A    between atoms: N_3  and  N_4 
REMARK       I    between atoms: N_4  and  C_5 
REMARK       I    between atoms: C_5  and  N_7 
REMARK    4  A    between atoms: C_8  and  C_20 
REMARK    5  A    between atoms: C_11  and  C_16 
REMARK    6  A    between atoms: C_13  and  C_14 
REMARK    7  A    between atoms: C_13  and  C_15 
REMARK    8  A    between atoms: C_16  and  O_18 
REMARK    9  A    between atoms: O_18  and  C_19 
ROOT
ATOM      1  C   LIG d   1       4.336  -0.680  -3.957  0.00  0.00     0.013 C 
ATOM      2  C   LIG d   1       5.405   0.355  -3.549  0.00  0.00    -0.041 C 
ATOM      3  C   LIG d   1       6.711  -0.471  -3.436  0.00  0.00    -0.039 C 
ATOM      4  C   LIG d   1       6.583  -1.472  -4.611  0.00  0.00     0.062 C 
ATOM      5  H   LIG d   1       6.875  -1.000  -5.549  0.00  0.00     0.042 H 
ATOM      6  C   LIG d   1       5.086  -1.842  -4.632  0.00  0.00    -0.011 C 
ATOM      7  H   LIG d   1       5.504   1.123  -4.315  0.00  0.00     0.027 H 
ATOM      8  H   LIG d   1       5.154   0.805  -2.589  0.00  0.00     0.027 H 
ATOM      9  H   LIG d   1       7.584   0.168  -3.567  0.00  0.00     0.027 H 
ATOM     10  H   LIG d   1       6.756  -0.995  -2.482  0.00  0.00     0.027 H 
ENDROOT
BRANCH   1  11
ATOM     11  C   LIG d   1       3.362  -0.061  -4.926  0.00  0.00     0.040 C 
ATOM     12  N   LIG d   1       3.788   0.471  -6.009  0.00  0.00    -0.188 NA
BRANCH  11  13
ATOM     13  C   LIG d   1       1.887  -0.069  -4.618  0.00  0.00    -0.024 C 
ATOM     14  H   LIG d   1       1.737   0.135  -3.557  0.00  0.00     0.029 H 
ATOM     15  H   LIG d   1       1.469  -1.046  -4.863  0.00  0.00     0.029 H 
ATOM     16  H   LIG d   1       1.388   0.699  -5.209  0.00  0.00     0.029 H 
ENDBRANCH  11  13
BRANCH  12  17
ATOM     17  N   LIG d   1       2.881   1.047  -6.910  0.00  0.00    -0.191 N 
ATOM     18  C   LIG d   1       3.311   1.481  -8.112  0.00  0.00     0.317 C 
ATOM     19  O   LIG d   1       2.524   1.979  -8.893  0.00  0.00    -0.251 OA
ATOM     20  N   LIG d   1       4.610   1.360  -8.448  0.00  0.00    -0.312 N 
ATOM     21  H   LIG d   1       5.237   0.962  -7.824  0.00  0.00     0.146 HD
ATOM     22  H   LIG d   1       4.918   1.672  -9.312  0.00  0.00     0.146 HD
ATOM     23  H   LIG d   1       1.946   1.133  -6.668  0.00  0.00     0.179 HD
ENDBRANCH  12  17
ENDBRANCH   1  11
BRANCH   1  24
ATOM     24  C   LIG d   1       3.595  -1.184  -2.717  0.00  0.00    -0.054 C 
ATOM     25  H   LIG d   1       2.521  -1.092  -2.874  0.00  0.00     0.024 H 
ATOM     26  H   LIG d   1       3.848  -2.229  -2.542  0.00  0.00     0.024 H 
ATOM     27  H   LIG d   1       3.888  -0.589  -1.852  0.00  0.00     0.024 H 
ENDBRANCH   1  24
BRANCH   6  28
ATOM     28  C   LIG d   1       4.855  -3.138  -3.853  0.00  0.00    -0.058 C 
ATOM     29  H   LIG d   1       5.582  -3.887  -4.168  0.00  0.00     0.024 H 
ATOM     30  H   LIG d   1       4.972  -2.946  -2.786  0.00  0.00     0.024 H 
ATOM     31  H   LIG d   1       3.847  -3.504  -4.048  0.00  0.00     0.024 H 
ENDBRANCH   6  28
BRANCH   6  32
ATOM     32  C   LIG d   1       4.607  -2.005  -6.076  0.00  0.00    -0.058 C 
ATOM     33  H   LIG d   1       4.760  -1.072  -6.618  0.00  0.00     0.024 H 
ATOM     34  H   LIG d   1       5.172  -2.803  -6.558  0.00  0.00     0.024 H 
ATOM     35  H   LIG d   1       3.546  -2.258  -6.080  0.00  0.00     0.024 H 
ENDBRANCH   6  32
BRANCH   4  36
ATOM     36  C   LIG d   1       7.425  -2.696  -4.355  0.00  0.00     0.310 C 
ATOM     37  O   LIG d   1       7.917  -2.873  -3.265  0.00  0.00    -0.251 OA
BRANCH  36  38
ATOM     38  O   LIG d   1       7.628  -3.589  -5.336  0.00  0.00    -0.468 OA
BRANCH  38  39
ATOM     39  C   LIG d   1       8.034  -4.925  -4.938  0.00  0.00     0.082 C 
ATOM     40  H   LIG d   1       8.965  -5.186  -5.442  0.00  0.00     0.066 H 
ATOM     41  H   LIG d   1       8.186  -4.953  -3.858  0.00  0.00     0.066 H 
ATOM     42  H   LIG d   1       7.259  -5.639  -5.216  0.00  0.00     0.066 H 
ENDBRANCH  38  39
ENDBRANCH  36  38
ENDBRANCH   4  36
TORSDOF 9
ENDMDL
MODEL 5
REMARK VINA RESULT:      -5.1      2.595      5.579
REMARK  9 active torsions:
REMARK  status: ('A' for Active; 'I' for Inactive)
REMARK    1  A    between atoms: C_1  and  C_2 
REMARK    2  A    between atoms: C_2  and  C_8 
REMARK    3  A    between atoms: N_3  and  N_4 
REMARK       I    between atoms: N_4  and  C_5 
REMARK       I    between atoms: C_5  and  N_7 
REMARK    4  A    between atoms: C_8  and  C_20 
REMARK    5  A    between atoms: C_11  and  C_16 
REMARK    6  A    between atoms: C_13  and  C_14 
REMARK    7  A    between atoms: C_13  and  C_15 
REMARK    8  A    between atoms: C_16  and  O_18 
REMARK    9  A    between atoms: O_18  and  C_19 
ROOT
ATOM      1  C   LIG d   1       6.101  -1.846  -5.737  0.00  0.00     0.013 C 
ATOM      2  C   LIG d   1       5.480  -1.333  -7.054  0.00  0.00    -0.041 C 
ATOM      3  C   LIG d   1       4.887  -2.602  -7.714  0.00  0.00    -0.039 C 
ATOM      4  C   LIG d   1       4.329  -3.389  -6.502  0.00  0.00     0.062 C 
ATOM      5  H   LIG d   1       3.356  -2.997  -6.208  0.00  0.00     0.042 H 
ATOM      6  C   LIG d   1       5.368  -3.153  -5.387  0.00  0.00    -0.011 C 
ATOM      7  H   LIG d   1       4.694  -0.607  -6.847  0.00  0.00     0.027 H 
ATOM      8  H   LIG d   1       6.247  -0.893  -7.691  0.00  0.00     0.027 H 
ATOM      9  H   LIG d   1       4.086  -2.339  -8.406  0.00  0.00     0.027 H 
ATOM     10  H   LIG d   1       5.664  -3.172  -8.223  0.00  0.00     0.027 H 
ENDROOT
BRANCH   1  11
ATOM     11  C   LIG d   1       5.899  -0.831  -4.642  0.00  0.00     0.040 C 
ATOM     12  N   LIG d   1       4.877  -0.061  -4.664  0.00  0.00    -0.188 NA
BRANCH  11  13
ATOM     13  C   LIG d   1       6.901  -0.724  -3.522  0.00  0.00    -0.024 C 
ATOM     14  H   LIG d   1       7.521  -1.621  -3.503  0.00  0.00     0.029 H 
ATOM     15  H   LIG d   1       6.375  -0.626  -2.571  0.00  0.00     0.029 H 
ATOM     16  H   LIG d   1       7.531   0.151  -3.680  0.00  0.00     0.029 H 
ENDBRANCH  11  13
BRANCH  12  17
ATOM     17  N   LIG d   1       4.690   0.883  -3.644  0.00  0.00    -0.191 N 
ATOM     18  C   LIG d   1       3.635   0.775  -2.812  0.00  0.00     0.317 C 
ATOM     19  O   LIG d   1       3.473   1.593  -1.928  0.00  0.00    -0.251 OA
ATOM     20  N   LIG d   1       2.760  -0.240  -2.960  0.00  0.00    -0.312 N 
ATOM     21  H   LIG d   1       2.891  -0.893  -3.666  0.00  0.00     0.146 HD
ATOM     22  H   LIG d   1       2.002  -0.318  -2.362  0.00  0.00     0.146 HD
ATOM     23  H   LIG d   1       5.319   1.613  -3.538  0.00  0.00     0.179 HD
ENDBRANCH  12  17
ENDBRANCH   1  11
BRANCH   1  24
ATOM     24  C   LIG d   1       7.594  -2.117  -5.933  0.00  0.00    -0.054 C 
ATOM     25  H   LIG d   1       7.846  -2.014  -6.988  0.00  0.00     0.024 H 
ATOM     26  H   LIG d   1       8.173  -1.402  -5.350  0.00  0.00     0.024 H 
ATOM     27  H   LIG d   1       7.826  -3.129  -5.601  0.00  0.00     0.024 H 
ENDBRANCH   1  24
BRANCH   6  28
ATOM     28  C   LIG d   1       6.363  -4.315  -5.344  0.00  0.00    -0.058 C 
ATOM     29  H   LIG d   1       7.296  -4.013  -5.820  0.00  0.00     0.024 H 
ATOM     30  H   LIG d   1       6.558  -4.587  -4.306  0.00  0.00     0.024 H 
ATOM     31  H   LIG d   1       5.945  -5.172  -5.872  0.00  0.00     0.024 H 
ENDBRANCH   6  28
BRANCH   6  32
ATOM     32  C   LIG d   1       4.665  -3.014  -4.036  0.00  0.00    -0.058 C 
ATOM     33  H   LIG d   1       3.595  -3.176  -4.164  0.00  0.00     0.024 H 
ATOM     34  H   LIG d   1       5.064  -3.753  -3.341  0.00  0.00     0.024 H 
ATOM     35  H   LIG d   1       4.837  -2.013  -3.639  0.00  0.00     0.024 H 
ENDBRANCH   6  32
BRANCH   4  36
ATOM     36  C   LIG d   1       4.228  -4.857  -6.827  0.00  0.00     0.310 C 
ATOM     37  O   LIG d   1       3.555  -5.584  -6.134  0.00  0.00    -0.251 OA
BRANCH  36  38
ATOM     38  O   LIG d   1       4.884  -5.357  -7.885  0.00  0.00    -0.468 OA
BRANCH  38  39
ATOM     39  C   LIG d   1       4.114  -6.159  -8.820  0.00  0.00     0.082 C 
ATOM     40  H   LIG d   1       4.793  -6.681  -9.495  0.00  0.00     0.066 H 
ATOM     41  H   LIG d   1       3.519  -6.889  -8.269  0.00  0.00     0.066 H 
ATOM     42  H   LIG d   1       3.454  -5.513  -9.397  0.00  0.00     0.066 H 
ENDBRANCH  38  39
ENDBRANCH  36  38
ENDBRANCH   4  36
TORSDOF 9
ENDMDL
MODEL 6
REMARK VINA RESULT:      -5.0      4.734      7.202
REMARK  9 active torsions:
REMARK  status: ('A' for Active; 'I' for Inactive)
REMARK    1  A    between atoms: C_1  and  C_2 
REMARK    2  A    between atoms: C_2  and  C_8 
REMARK    3  A    between atoms: N_3  and  N_4 
REMARK       I    between atoms: N_4  and  C_5 
REMARK       I    between atoms: C_5  and  N_7 
REMARK    4  A    between atoms: C_8  and  C_20 
REMARK    5  A    between atoms: C_11  and  C_16 
REMARK    6  A    between atoms: C_13  and  C_14 
REMARK    7  A    between atoms: C_13  and  C_15 
REMARK    8  A    between atoms: C_16  and  O_18 
REMARK    9  A    between atoms: O_18  and  C_19 
ROOT
ATOM      1  C   LIG d   1       4.104  -0.088  -9.649  0.00  0.00     0.013 C 
ATOM      2  C   LIG d   1       4.399   0.942 -10.759  0.00  0.00    -0.041 C 
ATOM      3  C   LIG d   1       4.002   0.214 -12.068  0.00  0.00    -0.039 C 
ATOM      4  C   LIG d   1       2.738  -0.577 -11.648  0.00  0.00     0.062 C 
ATOM      5  H   LIG d   1       1.862   0.072 -11.656  0.00  0.00     0.042 H 
ATOM      6  C   LIG d   1       3.048  -1.054 -10.215  0.00  0.00    -0.011 C 
ATOM      7  H   LIG d   1       3.793   1.836 -10.621  0.00  0.00     0.027 H 
ATOM      8  H   LIG d   1       5.458   1.198 -10.770  0.00  0.00     0.027 H 
ATOM      9  H   LIG d   1       3.766   0.932 -12.853  0.00  0.00     0.027 H 
ATOM     10  H   LIG d   1       4.794  -0.462 -12.389  0.00  0.00     0.027 H 
ENDROOT
BRANCH   1  11
ATOM     11  C   LIG d   1       3.563   0.610  -8.428  0.00  0.00     0.040 C 
ATOM     12  N   LIG d   1       3.653   0.052  -7.279  0.00  0.00    -0.188 NA
BRANCH  11  13
ATOM     13  C   LIG d   1       2.916   1.964  -8.560  0.00  0.00    -0.024 C 
ATOM     14  H   LIG d   1       3.601   2.730  -8.193  0.00  0.00     0.029 H 
ATOM     15  H   LIG d   1       1.998   1.987  -7.973  0.00  0.00     0.029 H 
ATOM     16  H   LIG d   1       2.684   2.156  -9.607  0.00  0.00     0.029 H 
ENDBRANCH  11  13
BRANCH  12  17
ATOM     17  N   LIG d   1       3.150   0.702  -6.144  0.00  0.00    -0.191 N 
ATOM     18  C   LIG d   1       3.143   0.069  -4.954  0.00  0.00     0.317 C 
ATOM     19  O   LIG d   1       2.707   0.633  -3.969  0.00  0.00    -0.251 OA
ATOM     20  N   LIG d   1       3.620  -1.188  -4.855  0.00  0.00    -0.312 N 
ATOM     21  H   LIG d   1       3.968  -1.637  -5.641  0.00  0.00     0.146 HD
ATOM     22  H   LIG d   1       3.615  -1.642  -3.999  0.00  0.00     0.146 HD
ATOM     23  H   LIG d   1       2.807   1.606  -6.215  0.00  0.00     0.179 HD
ENDBRANCH  12  17
ENDBRANCH   1  11
BRANCH   1  24
ATOM     24  C   LIG d   1       5.379  -0.855  -9.293  0.00  0.00    -0.054 C 
ATOM     25  H   LIG d   1       6.231  -0.178  -9.327  0.00  0.00     0.024 H 
ATOM     26  H   LIG d   1       5.286  -1.272  -8.291  0.00  0.00     0.024 H 
ATOM     27  H   LIG d   1       5.528  -1.663 -10.010  0.00  0.00     0.024 H 
ENDBRANCH   1  24
BRANCH   6  28
ATOM     28  C   LIG d   1       3.603  -2.479 -10.245  0.00  0.00    -0.058 C 
ATOM     29  H   LIG d   1       2.799  -3.178 -10.473  0.00  0.00     0.024 H 
ATOM     30  H   LIG d   1       4.375  -2.552 -11.011  0.00  0.00     0.024 H 
ATOM     31  H   LIG d   1       4.032  -2.722  -9.273  0.00  0.00     0.024 H 
ENDBRANCH   6  28
BRANCH   6  32
ATOM     32  C   LIG d   1       1.780  -1.003  -9.360  0.00  0.00    -0.058 C 
ATOM     33  H   LIG d   1       1.315  -1.988  -9.340  0.00  0.00     0.024 H 
ATOM     34  H   LIG d   1       2.038  -0.702  -8.345  0.00  0.00     0.024 H 
ATOM     35  H   LIG d   1       1.083  -0.281  -9.787  0.00  0.00     0.024 H 
ENDBRANCH   6  32
BRANCH   4  36
ATOM     36  C   LIG d   1       2.526  -1.756 -12.562  0.00  0.00     0.310 C 
ATOM     37  O   LIG d   1       3.341  -2.010 -13.419  0.00  0.00    -0.251 OA
BRANCH  36  38
ATOM     38  O   LIG d   1       1.435  -2.525 -12.425  0.00  0.00    -0.468 OA
BRANCH  38  39
ATOM     39  C   LIG d   1       0.157  -1.922 -12.759  0.00  0.00     0.082 C 
ATOM     40  H   LIG d   1       0.224  -1.448 -13.738  0.00  0.00     0.066 H 
ATOM     41  H   LIG d   1      -0.614  -2.693 -12.781  0.00  0.00     0.066 H 
ATOM     42  H   LIG d   1      -0.098  -1.173 -12.010  0.00  0.00     0.066 H 
ENDBRANCH  38  39
ENDBRANCH  36  38
ENDBRANCH   4  36
TORSDOF 9
ENDMDL
MODEL 7
REMARK VINA RESULT:      -4.9      3.503      5.524
REMARK  9 active torsions:
REMARK  status: ('A' for Active; 'I' for Inactive)
REMARK    1  A    between atoms: C_1  and  C_2 
REMARK    2  A    between atoms: C_2  and  C_8 
REMARK    3  A    between atoms: N_3  and  N_4 
REMARK       I    between atoms: N_4  and  C_5 
REMARK       I    between atoms: C_5  and  N_7 
REMARK    4  A    between atoms: C_8  and  C_20 
REMARK    5  A    between atoms: C_11  and  C_16 
REMARK    6  A    between atoms: C_13  and  C_14 
REMARK    7  A    between atoms: C_13  and  C_15 
REMARK    8  A    between atoms: C_16  and  O_18 
REMARK    9  A    between atoms: O_18  and  C_19 
ROOT
ATOM      1  C   LIG d   1       5.430  -0.867  -6.737  0.00  0.00     0.013 C 
ATOM      2  C   LIG d   1       6.623   0.057  -7.062  0.00  0.00    -0.041 C 
ATOM      3  C   LIG d   1       6.247   0.699  -8.420  0.00  0.00    -0.039 C 
ATOM      4  C   LIG d   1       4.722   0.929  -8.279  0.00  0.00     0.062 C 
ATOM      5  H   LIG d   1       4.524   1.838  -7.711  0.00  0.00     0.042 H 
ATOM      6  C   LIG d   1       4.222  -0.311  -7.512  0.00  0.00    -0.011 C 
ATOM      7  H   LIG d   1       6.731   0.823  -6.295  0.00  0.00     0.027 H 
ATOM      8  H   LIG d   1       7.541  -0.523  -7.153  0.00  0.00     0.027 H 
ATOM      9  H   LIG d   1       6.770   1.646  -8.557  0.00  0.00     0.027 H 
ATOM     10  H   LIG d   1       6.463   0.019  -9.243  0.00  0.00     0.027 H 
ENDROOT
BRANCH   1  11
ATOM     11  C   LIG d   1       5.148  -0.845  -5.257  0.00  0.00     0.040 C 
ATOM     12  N   LIG d   1       5.390   0.210  -4.575  0.00  0.00    -0.188 NA
BRANCH  11  13
ATOM     13  C   LIG d   1       4.583  -2.068  -4.581  0.00  0.00    -0.024 C 
ATOM     14  H   LIG d   1       3.497  -1.981  -4.524  0.00  0.00     0.029 H 
ATOM     15  H   LIG d   1       4.994  -2.149  -3.574  0.00  0.00     0.029 H 
ATOM     16  H   LIG d   1       4.847  -2.955  -5.155  0.00  0.00     0.029 H 
ENDBRANCH  11  13
BRANCH  12  17
ATOM     17  N   LIG d   1       5.128   0.229  -3.198  0.00  0.00    -0.191 N 
ATOM     18  C   LIG d   1       4.261   1.128  -2.690  0.00  0.00     0.317 C 
ATOM     19  O   LIG d   1       4.034   1.144  -1.496  0.00  0.00    -0.251 OA
ATOM     20  N   LIG d   1       3.647   2.007  -3.505  0.00  0.00    -0.312 N 
ATOM     21  H   LIG d   1       3.828   1.994  -4.458  0.00  0.00     0.146 HD
ATOM     22  H   LIG d   1       3.023   2.653  -3.140  0.00  0.00     0.146 HD
ATOM     23  H   LIG d   1       5.571  -0.404  -2.612  0.00  0.00     0.179 HD
ENDBRANCH  12  17
ENDBRANCH   1  11
BRANCH   1  24
ATOM     24  C   LIG d   1       5.734  -2.295  -7.193  0.00  0.00    -0.054 C 
ATOM     25  H   LIG d   1       6.409  -2.767  -6.480  0.00  0.00     0.024 H 
ATOM     26  H   LIG d   1       4.807  -2.864  -7.249  0.00  0.00     0.024 H 
ATOM     27  H   LIG d   1       6.205  -2.269  -8.176  0.00  0.00     0.024 H 
ENDBRANCH   1  24
BRANCH   6  28
ATOM     28  C   LIG d   1       3.703  -1.362  -8.496  0.00  0.00    -0.058 C 
ATOM     29  H   LIG d   1       4.213  -1.248  -9.452  0.00  0.00     0.024 H 
ATOM     30  H   LIG d   1       3.896  -2.359  -8.098  0.00  0.00     0.024 H 
ATOM     31  H   LIG d   1       2.630  -1.229  -8.637  0.00  0.00     0.024 H 
ENDBRANCH   6  28
BRANCH   6  32
ATOM     32  C   LIG d   1       3.112   0.087  -6.537  0.00  0.00    -0.058 C 
ATOM     33  H   LIG d   1       2.346   0.652  -7.068  0.00  0.00     0.024 H 
ATOM     34  H   LIG d   1       2.669  -0.810  -6.105  0.00  0.00     0.024 H 
ATOM     35  H   LIG d   1       3.532   0.704  -5.742  0.00  0.00     0.024 H 
ENDBRANCH   6  32
BRANCH   4  36
ATOM     36  C   LIG d   1       4.073   1.007  -9.637  0.00  0.00     0.310 C 
ATOM     37  O   LIG d   1       2.928   1.385  -9.738  0.00  0.00    -0.251 OA
BRANCH  36  38
ATOM     38  O   LIG d   1       4.764   0.659 -10.733  0.00  0.00    -0.468 OA
BRANCH  38  39
ATOM     39  C   LIG d   1       3.999   0.190 -11.875  0.00  0.00     0.082 C 
ATOM     40  H   LIG d   1       4.637  -0.420 -12.514  0.00  0.00     0.066 H 
ATOM     41  H   LIG d   1       3.156  -0.408 -11.527  0.00  0.00     0.066 H 
ATOM     42  H   LIG d   1       3.630   1.045 -12.441  0.00  0.00     0.066 H 
ENDBRANCH  38  39
ENDBRANCH  36  38
ENDBRANCH   4  36
TORSDOF 9
ENDMDL
MODEL 8
REMARK VINA RESULT:      -4.9      4.019      5.698
REMARK  9 active torsions:
REMARK  status: ('A' for Active; 'I' for Inactive)
REMARK    1  A    between atoms: C_1  and  C_2 
REMARK    2  A    between atoms: C_2  and  C_8 
REMARK    3  A    between atoms: N_3  and  N_4 
REMARK       I    between atoms: N_4  and  C_5 
REMARK       I    between atoms: C_5  and  N_7 
REMARK    4  A    between atoms: C_8  and  C_20 
REMARK    5  A    between atoms: C_11  and  C_16 
REMARK    6  A    between atoms: C_13  and  C_14 
REMARK    7  A    between atoms: C_13  and  C_15 
REMARK    8  A    between atoms: C_16  and  O_18 
REMARK    9  A    between atoms: O_18  and  C_19 
ROOT
ATOM      1  C   LIG d   1       3.017  -0.983 -10.167  0.00  0.00     0.013 C 
ATOM      2  C   LIG d   1       3.326  -0.363 -11.547  0.00  0.00    -0.041 C 
ATOM      3  C   LIG d   1       4.034   0.973 -11.212  0.00  0.00    -0.039 C 
ATOM      4  C   LIG d   1       4.904   0.601  -9.987  0.00  0.00     0.062 C 
ATOM      5  H   LIG d   1       5.823   0.108 -10.305  0.00  0.00     0.042 H 
ATOM      6  C   LIG d   1       4.022  -0.369  -9.176  0.00  0.00    -0.011 C 
ATOM      7  H   LIG d   1       3.988  -1.014 -12.117  0.00  0.00     0.027 H 
ATOM      8  H   LIG d   1       2.404  -0.180 -12.098  0.00  0.00     0.027 H 
ATOM      9  H   LIG d   1       4.659   1.298 -12.045  0.00  0.00     0.027 H 
ATOM     10  H   LIG d   1       3.307   1.742 -10.954  0.00  0.00     0.027 H 
ENDROOT
BRANCH   1  11
ATOM     11  C   LIG d   1       3.194  -2.478 -10.222  0.00  0.00     0.040 C 
ATOM     12  N   LIG d   1       2.607  -3.224  -9.363  0.00  0.00    -0.188 NA
BRANCH  11  13
ATOM     13  C   LIG d   1       4.063  -3.095 -11.288  0.00  0.00    -0.024 C 
ATOM     14  H   LIG d   1       3.476  -3.812 -11.864  0.00  0.00     0.029 H 
ATOM     15  H   LIG d   1       4.904  -3.607 -10.820  0.00  0.00     0.029 H 
ATOM     16  H   LIG d   1       4.434  -2.314 -11.951  0.00  0.00     0.029 H 
ENDBRANCH  11  13
BRANCH  12  17
ATOM     17  N   LIG d   1       2.773  -4.615  -9.414  0.00  0.00    -0.191 N 
ATOM     18  C   LIG d   1       3.229  -5.279  -8.333  0.00  0.00     0.317 C 
ATOM     19  O   LIG d   1       3.372  -6.485  -8.378  0.00  0.00    -0.251 OA
ATOM     20  N   LIG d   1       3.526  -4.606  -7.204  0.00  0.00    -0.312 N 
ATOM     21  H   LIG d   1       3.411  -3.643  -7.169  0.00  0.00     0.146 HD
ATOM     22  H   LIG d   1       3.853  -5.084  -6.427  0.00  0.00     0.146 HD
ATOM     23  H   LIG d   1       2.559  -5.099 -10.227  0.00  0.00     0.179 HD
ENDBRANCH  12  17
ENDBRANCH   1  11
BRANCH   1  24
ATOM     24  C   LIG d   1       1.587  -0.638  -9.747  0.00  0.00    -0.054 C 
ATOM     25  H   LIG d   1       1.478   0.444  -9.685  0.00  0.00     0.024 H 
ATOM     26  H   LIG d   1       0.887  -1.034 -10.482  0.00  0.00     0.024 H 
ATOM     27  H   LIG d   1       1.379  -1.080  -8.772  0.00  0.00     0.024 H 
ENDBRANCH   1  24
BRANCH   6  28
ATOM     28  C   LIG d   1       3.275   0.393  -8.079  0.00  0.00    -0.058 C 
ATOM     29  H   LIG d   1       2.309   0.724  -8.460  0.00  0.00     0.024 H 
ATOM     30  H   LIG d   1       3.122  -0.262  -7.221  0.00  0.00     0.024 H 
ATOM     31  H   LIG d   1       3.862   1.259  -7.774  0.00  0.00     0.024 H 
ENDBRANCH   6  28
BRANCH   6  32
ATOM     32  C   LIG d   1       4.884  -1.470  -8.556  0.00  0.00    -0.058 C 
ATOM     33  H   LIG d   1       5.027  -2.272  -9.280  0.00  0.00     0.024 H 
ATOM     34  H   LIG d   1       5.854  -1.057  -8.275  0.00  0.00     0.024 H 
ATOM     35  H   LIG d   1       4.388  -1.865  -7.669  0.00  0.00     0.024 H 
ENDBRANCH   6  32
BRANCH   4  36
ATOM     36  C   LIG d   1       5.223   1.829  -9.173  0.00  0.00     0.310 C 
ATOM     37  O   LIG d   1       4.648   2.869  -9.399  0.00  0.00    -0.251 OA
BRANCH  36  38
ATOM     38  O   LIG d   1       6.143   1.770  -8.199  0.00  0.00    -0.468 OA
BRANCH  38  39
ATOM     39  C   LIG d   1       7.535   1.884  -8.597  0.00  0.00     0.082 C 
ATOM     40  H   LIG d   1       7.917   0.898  -8.866  0.00  0.00     0.066 H 
ATOM     41  H   LIG d   1       7.614   2.550  -9.457  0.00  0.00     0.066 H 
ATOM     42  H   LIG d   1       8.118   2.286  -7.770  0.00  0.00     0.066 H 
ENDBRANCH  38  39
ENDBRANCH  36  38
ENDBRANCH   4  36
TORSDOF 9
ENDMDL
MODEL 9
REMARK VINA RESULT:      -4.9      2.364      3.687
REMARK  9 active torsions:
REMARK  status: ('A' for Active; 'I' for Inactive)
REMARK    1  A    between atoms: C_1  and  C_2 
REMARK    2  A    between atoms: C_2  and  C_8 
REMARK    3  A    between atoms: N_3  and  N_4 
REMARK       I    between atoms: N_4  and  C_5 
REMARK       I    between atoms: C_5  and  N_7 
REMARK    4  A    between atoms: C_8  and  C_20 
REMARK    5  A    between atoms: C_11  and  C_16 
REMARK    6  A    between atoms: C_13  and  C_14 
REMARK    7  A    between atoms: C_13  and  C_15 
REMARK    8  A    between atoms: C_16  and  O_18 
REMARK    9  A    between atoms: O_18  and  C_19 
ROOT
ATOM      1  C   LIG d   1       4.991  -0.835  -4.715  0.00  0.00     0.013 C 
ATOM      2  C   LIG d   1       5.051  -0.731  -6.253  0.00  0.00    -0.041 C 
ATOM      3  C   LIG d   1       6.259   0.199  -6.524  0.00  0.00    -0.039 C 
ATOM      4  C   LIG d   1       7.276  -0.236  -5.440  0.00  0.00     0.062 C 
ATOM      5  H   LIG d   1       7.805  -1.137  -5.752  0.00  0.00     0.042 H 
ATOM      6  C   LIG d   1       6.406  -0.520  -4.198  0.00  0.00    -0.011 C 
ATOM      7  H   LIG d   1       5.218  -1.712  -6.695  0.00  0.00     0.027 H 
ATOM      8  H   LIG d   1       4.134  -0.290  -6.642  0.00  0.00     0.027 H 
ATOM      9  H   LIG d   1       6.662   0.028  -7.523  0.00  0.00     0.027 H 
ATOM     10  H   LIG d   1       5.979   1.244  -6.397  0.00  0.00     0.027 H 
ENDROOT
BRANCH   1  11
ATOM     11  C   LIG d   1       4.591  -2.229  -4.307  0.00  0.00     0.040 C 
ATOM     12  N   LIG d   1       4.734  -3.201  -5.127  0.00  0.00    -0.188 NA
BRANCH  11  13
ATOM     13  C   LIG d   1       4.021  -2.477  -2.934  0.00  0.00    -0.024 C 
ATOM     14  H   LIG d   1       3.936  -3.551  -2.765  0.00  0.00     0.029 H 
ATOM     15  H   LIG d   1       3.034  -2.019  -2.862  0.00  0.00     0.029 H 
ATOM     16  H   LIG d   1       4.679  -2.042  -2.183  0.00  0.00     0.029 H 
ENDBRANCH  11  13
BRANCH  12  17
ATOM     17  N   LIG d   1       4.361  -4.498  -4.746  0.00  0.00    -0.191 N 
ATOM     18  C   LIG d   1       4.683  -5.548  -5.529  0.00  0.00     0.317 C 
ATOM     19  O   LIG d   1       4.360  -6.672  -5.199  0.00  0.00    -0.251 OA
ATOM     20  N   LIG d   1       5.363  -5.351  -6.675  0.00  0.00    -0.312 N 
ATOM     21  H   LIG d   1       5.621  -4.453  -6.938  0.00  0.00     0.146 HD
ATOM     22  H   LIG d   1       5.595  -6.106  -7.237  0.00  0.00     0.146 HD
ATOM     23  H   LIG d   1       3.872  -4.639  -3.921  0.00  0.00     0.179 HD
ENDBRANCH  12  17
ENDBRANCH   1  11
BRANCH   1  24
ATOM     24  C   LIG d   1       3.992   0.182  -4.160  0.00  0.00    -0.054 C 
ATOM     25  H   LIG d   1       3.078  -0.332  -3.864  0.00  0.00     0.024 H 
ATOM     26  H   LIG d   1       4.424   0.682  -3.294  0.00  0.00     0.024 H 
ATOM     27  H   LIG d   1       3.760   0.920  -4.928  0.00  0.00     0.024 H 
ENDBRANCH   1  24
BRANCH   6  28
ATOM     28  C   LIG d   1       6.371   0.711  -3.291  0.00  0.00    -0.058 C 
ATOM     29  H   LIG d   1       5.335   0.962  -3.059  0.00  0.00     0.024 H 
ATOM     30  H   LIG d   1       6.907   0.497  -2.366  0.00  0.00     0.024 H 
ATOM     31  H   LIG d   1       6.844   1.552  -3.799  0.00  0.00     0.024 H 
ENDBRANCH   6  28
BRANCH   6  32
ATOM     32  C   LIG d   1       6.963  -1.721  -3.432  0.00  0.00    -0.058 C 
ATOM     33  H   LIG d   1       6.460  -1.802  -2.468  0.00  0.00     0.024 H 
ATOM     34  H   LIG d   1       6.792  -2.630  -4.008  0.00  0.00     0.024 H 
ATOM     35  H   LIG d   1       8.033  -1.587  -3.273  0.00  0.00     0.024 H 
ENDBRANCH   6  32
BRANCH   4  36
ATOM     36  C   LIG d   1       8.253   0.875  -5.157  0.00  0.00     0.310 C 
ATOM     37  O   LIG d   1       9.319   0.626  -4.642  0.00  0.00    -0.251 OA
BRANCH  36  38
ATOM     38  O   LIG d   1       7.943   2.141  -5.475  0.00  0.00    -0.468 OA
BRANCH  38  39
ATOM     39  C   LIG d   1       8.822   3.183  -4.975  0.00  0.00     0.082 C 
ATOM     40  H   LIG d   1       8.977   3.043  -3.905  0.00  0.00     0.066 H 
ATOM     41  H   LIG d   1       9.781   3.128  -5.491  0.00  0.00     0.066 H 
ATOM     42  H   LIG d   1       8.369   4.157  -5.152  0.00  0.00     0.066 H 
ENDBRANCH  38  39
ENDBRANCH  36  38
ENDBRANCH   4  36
TORSDOF 9
ENDMDL
MODEL 10
REMARK VINA RESULT:      -4.8      3.791      5.771
REMARK  9 active torsions:
REMARK  status: ('A' for Active; 'I' for Inactive)
REMARK    1  A    between atoms: C_1  and  C_2 
REMARK    2  A    between atoms: C_2  and  C_8 
REMARK    3  A    between atoms: N_3  and  N_4 
REMARK       I    between atoms: N_4  and  C_5 
REMARK       I    between atoms: C_5  and  N_7 
REMARK    4  A    between atoms: C_8  and  C_20 
REMARK    5  A    between atoms: C_11  and  C_16 
REMARK    6  A    between atoms: C_13  and  C_14 
REMARK    7  A    between atoms: C_13  and  C_15 
REMARK    8  A    between atoms: C_16  and  O_18 
REMARK    9  A    between atoms: O_18  and  C_19 
ROOT
ATOM      1  C   LIG d   1       4.402   0.113  -8.430  0.00  0.00     0.013 C 
ATOM      2  C   LIG d   1       3.248   1.132  -8.324  0.00  0.00    -0.041 C 
ATOM      3  C   LIG d   1       2.160   0.573  -9.275  0.00  0.00    -0.039 C 
ATOM      4  C   LIG d   1       2.263  -0.956  -9.050  0.00  0.00     0.062 C 
ATOM      5  H   LIG d   1       1.727  -1.246  -8.147  0.00  0.00     0.042 H 
ATOM      6  C   LIG d   1       3.775  -1.215  -8.892  0.00  0.00    -0.011 C 
ATOM      7  H   LIG d   1       2.874   1.179  -7.302  0.00  0.00     0.027 H 
ATOM      8  H   LIG d   1       3.577   2.116  -8.656  0.00  0.00     0.027 H 
ATOM      9  H   LIG d   1       1.174   0.940  -8.991  0.00  0.00     0.027 H 
ATOM     10  H   LIG d   1       2.383   0.830 -10.310  0.00  0.00     0.027 H 
ENDROOT
BRANCH   1  11
ATOM     11  C   LIG d   1       5.057  -0.066  -7.084  0.00  0.00     0.040 C 
ATOM     12  N   LIG d   1       4.362   0.042  -6.015  0.00  0.00    -0.188 NA
BRANCH  11  13
ATOM     13  C   LIG d   1       6.530  -0.371  -6.999  0.00  0.00    -0.024 C 
ATOM     14  H   LIG d   1       6.793  -1.106  -7.762  0.00  0.00     0.029 H 
ATOM     15  H   LIG d   1       6.762  -0.774  -6.013  0.00  0.00     0.029 H 
ATOM     16  H   LIG d   1       7.101   0.542  -7.163  0.00  0.00     0.029 H 
ENDBRANCH  11  13
BRANCH  12  17
ATOM     17  N   LIG d   1       4.972  -0.124  -4.764  0.00  0.00    -0.191 N 
ATOM     18  C   LIG d   1       4.462  -1.002  -3.878  0.00  0.00     0.317 C 
ATOM     19  O   LIG d   1       4.992  -1.147  -2.793  0.00  0.00    -0.251 OA
ATOM     20  N   LIG d   1       3.366  -1.720  -4.194  0.00  0.00    -0.312 N 
ATOM     21  H   LIG d   1       2.945  -1.605  -5.060  0.00  0.00     0.146 HD
ATOM     22  H   LIG d   1       3.000  -2.352  -3.557  0.00  0.00     0.146 HD
ATOM     23  H   LIG d   1       5.761   0.393  -4.537  0.00  0.00     0.179 HD
ENDBRANCH  12  17
ENDBRANCH   1  11
BRANCH   1  24
ATOM     24  C   LIG d   1       5.431   0.591  -9.455  0.00  0.00    -0.054 C 
ATOM     25  H   LIG d   1       5.341  -0.002 -10.364  0.00  0.00     0.024 H 
ATOM     26  H   LIG d   1       5.253   1.641  -9.687  0.00  0.00     0.024 H 
ATOM     27  H   LIG d   1       6.434   0.476  -9.044  0.00  0.00     0.024 H 
ENDBRANCH   1  24
BRANCH   6  28
ATOM     28  C   LIG d   1       4.378  -1.640 -10.232  0.00  0.00    -0.058 C 
ATOM     29  H   LIG d   1       4.849  -0.781 -10.707  0.00  0.00     0.024 H 
ATOM     30  H   LIG d   1       5.124  -2.416 -10.064  0.00  0.00     0.024 H 
ATOM     31  H   LIG d   1       3.590  -2.027 -10.878  0.00  0.00     0.024 H 
ENDBRANCH   6  28
BRANCH   6  32
ATOM     32  C   LIG d   1       4.014  -2.300  -7.840  0.00  0.00    -0.058 C 
ATOM     33  H   LIG d   1       4.988  -2.149  -7.377  0.00  0.00     0.024 H 
ATOM     34  H   LIG d   1       3.236  -2.245  -7.078  0.00  0.00     0.024 H 
ATOM     35  H   LIG d   1       3.986  -3.280  -8.317  0.00  0.00     0.024 H 
ENDBRANCH   6  32
BRANCH   4  36
ATOM     36  C   LIG d   1       1.723  -1.702 -10.243  0.00  0.00     0.310 C 
ATOM     37  O   LIG d   1       1.463  -2.879 -10.152  0.00  0.00    -0.251 OA
BRANCH  36  38
ATOM     38  O   LIG d   1       1.529  -1.060 -11.406  0.00  0.00    -0.468 OA
BRANCH  38  39
ATOM     39  C   LIG d   1       0.627  -1.680 -12.359  0.00  0.00     0.082 C 
ATOM     40  H   LIG d   1       1.132  -2.512 -12.850  0.00  0.00     0.066 H 
ATOM     41  H   LIG d   1      -0.257  -2.049 -11.837  0.00  0.00     0.066 H 
ATOM     42  H   LIG d   1       0.327  -0.946 -13.107  0.00  0.00     0.066 H 
ENDBRANCH  38  39
ENDBRANCH  36  38
ENDBRANCH   4  36
TORSDOF 9
ENDMDL
