MODEL 1
REMARK VINA RESULT:      -7.2      0.000      0.000
REMARK  10 active torsions:
REMARK  status: ('A' for Active; 'I' for Inactive)
REMARK    1  A    between atoms: C_1  and  C_2 
REMARK    2  A    between atoms: C_2  and  N_3 
REMARK    3  A    between atoms: C_5  and  C_14 
REMARK    4  A    between atoms: C_10  and  O_12 
REMARK    5  A    between atoms: O_12  and  C_13 
REMARK    6  A    between atoms: C_21  and  O_26 
REMARK    7  A    between atoms: C_22  and  C_25 
REMARK    8  A    between atoms: O_26  and  C_27 
REMARK    9  A    between atoms: C_27  and  C_29 
REMARK   10  A    between atoms: C_30  and  C_31 
ROOT
ATOM      1  C   LIG d   1       0.645  -6.151 -10.620  0.00  0.00    -0.006 C 
ATOM      2  C   LIG d   1       1.103  -4.873 -10.502  0.00  0.00     0.176 A 
ATOM      3  C   LIG d   1       0.607  -3.745 -11.206  0.00  0.00     0.232 A 
ATOM      4  O   LIG d   1      -0.299  -3.721 -12.024  0.00  0.00    -0.283 OA
ATOM      5  C   LIG d   1       1.419  -2.609 -10.738  0.00  0.00     0.068 A 
ATOM      6  C   LIG d   1       1.431  -1.247 -11.040  0.00  0.00    -0.044 A 
ATOM      7  C   LIG d   1       2.326  -0.421 -10.420  0.00  0.00    -0.018 A 
ATOM      8  C   LIG d   1       3.233  -0.936  -9.498  0.00  0.00     0.138 A 
ATOM      9  C   LIG d   1       3.232  -2.286  -9.188  0.00  0.00     0.035 A 
ATOM     10  C   LIG d   1       2.326  -3.137  -9.804  0.00  0.00     0.146 A 
ATOM     11  O   LIG d   1       2.110  -4.466  -9.693  0.00  0.00    -0.451 OA
ATOM     12  H   LIG d   1       1.171  -6.961 -10.137  0.00  0.00     0.066 H 
ATOM     13  H   LIG d   1       0.733  -0.846 -11.759  0.00  0.00     0.063 H 
ATOM     14  H   LIG d   1       2.333   0.634 -10.650  0.00  0.00     0.066 H 
ENDROOT
BRANCH   1  15
ATOM     15  C   LIG d   1      -0.560  -6.425 -11.400  0.00  0.00     0.004 A 
ATOM     16  C   LIG d   1      -0.631  -7.084 -12.608  0.00  0.00     0.013 A 
ATOM     17  N   LIG d   1      -1.923  -7.144 -13.017  0.00  0.00    -0.346 N 
ATOM     18  H   LIG d   1       0.211  -7.493 -13.146  0.00  0.00     0.082 H 
ATOM     19  C   LIG d   1      -2.749  -6.521 -12.101  0.00  0.00     0.050 A 
ATOM     20  C   LIG d   1      -1.944  -6.045 -11.054  0.00  0.00     0.011 A 
ATOM     21  C   LIG d   1      -4.123  -6.310 -12.056  0.00  0.00    -0.034 A 
ATOM     22  C   LIG d   1      -2.519  -5.368  -9.982  0.00  0.00    -0.010 A 
ATOM     23  C   LIG d   1      -3.886  -5.167  -9.954  0.00  0.00     0.121 A 
ATOM     24  H   LIG d   1      -1.899  -5.001  -9.176  0.00  0.00     0.066 H 
ATOM     25  C   LIG d   1      -4.684  -5.638 -10.992  0.00  0.00    -0.018 A 
ATOM     26  H   LIG d   1      -5.751  -5.477 -10.962  0.00  0.00     0.066 H 
ATOM     27  H   LIG d   1      -4.752  -6.673 -12.856  0.00  0.00     0.064 H 
BRANCH  17  28
ATOM     28  C   LIG d   1      -2.377  -7.775 -14.258  0.00  0.00     0.021 C 
ATOM     29  H   LIG d   1      -2.170  -8.845 -14.218  0.00  0.00     0.049 H 
ATOM     30  H   LIG d   1      -3.450  -7.616 -14.374  0.00  0.00     0.049 H 
BRANCH  28  31
ATOM     31  C   LIG d   1      -1.639  -7.155 -15.446  0.00  0.00    -0.047 C 
ATOM     32  H   LIG d   1      -1.907  -6.101 -15.529  0.00  0.00     0.025 H 
ATOM     33  H   LIG d   1      -0.564  -7.246 -15.291  0.00  0.00     0.025 H 
ATOM     34  H   LIG d   1      -1.920  -7.675 -16.360  0.00  0.00     0.025 H 
ENDBRANCH  28  31
ENDBRANCH  17  28
BRANCH  23  35
ATOM     35  O   LIG d   1      -4.453  -4.506  -8.908  0.00  0.00    -0.495 OA
BRANCH  35  36
ATOM     36  C   LIG d   1      -5.440  -3.521  -9.223  0.00  0.00     0.079 C 
ATOM     37  H   LIG d   1      -4.994  -2.747  -9.847  0.00  0.00     0.066 H 
ATOM     38  H   LIG d   1      -6.263  -3.991  -9.760  0.00  0.00     0.066 H 
ATOM     39  H   LIG d   1      -5.813  -3.075  -8.302  0.00  0.00     0.066 H 
ENDBRANCH  35  36
ENDBRANCH  23  35
ENDBRANCH   1  15
BRANCH   9  40
ATOM     40  C   LIG d   1       4.215  -2.830  -8.183  0.00  0.00    -0.033 C 
ATOM     41  H   LIG d   1       3.992  -2.419  -7.198  0.00  0.00     0.028 H 
ATOM     42  H   LIG d   1       4.136  -3.916  -8.149  0.00  0.00     0.028 H 
ATOM     43  H   LIG d   1       5.227  -2.547  -8.473  0.00  0.00     0.028 H 
ENDBRANCH   9  40
BRANCH   8  44
ATOM     44  O   LIG d   1       4.121  -0.106  -8.892  0.00  0.00    -0.422 OA
BRANCH  44  45
ATOM     45  C   LIG d   1       3.709   0.576  -7.803  0.00  0.00     0.337 C 
ATOM     46  O   LIG d   1       2.993   1.551  -7.930  0.00  0.00    -0.245 OA
BRANCH  45  47
ATOM     47  C   LIG d   1       4.120   0.142  -6.469  0.00  0.00     0.024 C 
ATOM     48  C   LIG d   1       3.236   0.161  -5.450  0.00  0.00    -0.048 C 
ATOM     49  H   LIG d   1       2.224   0.497  -5.619  0.00  0.00     0.063 H 
ATOM     50  H   LIG d   1       5.133  -0.194  -6.299  0.00  0.00     0.069 H 
BRANCH  48  51
ATOM     51  C   LIG d   1       3.651  -0.276  -4.108  0.00  0.00    -0.025 A 
ATOM     52  C   LIG d   1       3.644  -1.635  -3.778  0.00  0.00    -0.055 A 
ATOM     53  C   LIG d   1       4.034  -2.037  -2.517  0.00  0.00    -0.061 A 
ATOM     54  H   LIG d   1       3.334  -2.368  -4.508  0.00  0.00     0.062 H 
ATOM     55  C   LIG d   1       4.433  -1.099  -1.581  0.00  0.00    -0.062 A 
ATOM     56  H   LIG d   1       4.029  -3.086  -2.260  0.00  0.00     0.062 H 
ATOM     57  C   LIG d   1       4.444   0.247  -1.900  0.00  0.00    -0.061 A 
ATOM     58  H   LIG d   1       4.738  -1.420  -0.595  0.00  0.00     0.062 H 
ATOM     59  C   LIG d   1       4.056   0.665  -3.156  0.00  0.00    -0.055 A 
ATOM     60  H   LIG d   1       4.756   0.973  -1.164  0.00  0.00     0.062 H 
ATOM     61  H   LIG d   1       4.060   1.717  -3.402  0.00  0.00     0.062 H 
ENDBRANCH  48  51
ENDBRANCH  45  47
ENDBRANCH  44  45
ENDBRANCH   8  44
TORSDOF 10
ENDMDL
MODEL 2
REMARK VINA RESULT:      -6.9      9.621     15.676
REMARK  10 active torsions:
REMARK  status: ('A' for Active; 'I' for Inactive)
REMARK    1  A    between atoms: C_1  and  C_2 
REMARK    2  A    between atoms: C_2  and  N_3 
REMARK    3  A    between atoms: C_5  and  C_14 
REMARK    4  A    between atoms: C_10  and  O_12 
REMARK    5  A    between atoms: O_12  and  C_13 
REMARK    6  A    between atoms: C_21  and  O_26 
REMARK    7  A    between atoms: C_22  and  C_25 
REMARK    8  A    between atoms: O_26  and  C_27 
REMARK    9  A    between atoms: C_27  and  C_29 
REMARK   10  A    between atoms: C_30  and  C_31 
ROOT
ATOM      1  C   LIG d   1      12.576   5.362  -2.999  0.00  0.00    -0.006 C 
ATOM      2  C   LIG d   1      11.710   4.455  -3.533  0.00  0.00     0.176 A 
ATOM      3  C   LIG d   1      10.315   4.645  -3.712  0.00  0.00     0.232 A 
ATOM      4  O   LIG d   1       9.658   5.633  -3.424  0.00  0.00    -0.283 OA
ATOM      5  C   LIG d   1       9.828   3.393  -4.318  0.00  0.00     0.068 A 
ATOM      6  C   LIG d   1       8.572   2.950  -4.731  0.00  0.00    -0.044 A 
ATOM      7  C   LIG d   1       8.436   1.705  -5.277  0.00  0.00    -0.018 A 
ATOM      8  C   LIG d   1       9.544   0.872  -5.410  0.00  0.00     0.138 A 
ATOM      9  C   LIG d   1      10.798   1.299  -5.004  0.00  0.00     0.035 A 
ATOM     10  C   LIG d   1      10.954   2.564  -4.454  0.00  0.00     0.146 A 
ATOM     11  O   LIG d   1      12.037   3.220  -3.983  0.00  0.00    -0.451 OA
ATOM     12  H   LIG d   1      13.595   5.078  -2.789  0.00  0.00     0.066 H 
ATOM     13  H   LIG d   1       7.710   3.591  -4.625  0.00  0.00     0.063 H 
ATOM     14  H   LIG d   1       7.464   1.363  -5.601  0.00  0.00     0.066 H 
ENDROOT
BRANCH   1  15
ATOM     15  C   LIG d   1      12.123   6.722  -2.712  0.00  0.00     0.004 A 
ATOM     16  C   LIG d   1      11.960   7.748  -3.618  0.00  0.00     0.013 A 
ATOM     17  N   LIG d   1      11.523   8.857  -2.972  0.00  0.00    -0.346 N 
ATOM     18  H   LIG d   1      12.149   7.679  -4.679  0.00  0.00     0.082 H 
ATOM     19  C   LIG d   1      11.389   8.609  -1.619  0.00  0.00     0.050 A 
ATOM     20  C   LIG d   1      11.755   7.272  -1.393  0.00  0.00     0.011 A 
ATOM     21  C   LIG d   1      10.988   9.398  -0.547  0.00  0.00    -0.034 A 
ATOM     22  C   LIG d   1      11.716   6.745  -0.105  0.00  0.00    -0.010 A 
ATOM     23  C   LIG d   1      11.314   7.543   0.949  0.00  0.00     0.121 A 
ATOM     24  H   LIG d   1      11.998   5.716   0.069  0.00  0.00     0.066 H 
ATOM     25  C   LIG d   1      10.952   8.868   0.725  0.00  0.00    -0.018 A 
ATOM     26  H   LIG d   1      10.640   9.486   1.554  0.00  0.00     0.066 H 
ATOM     27  H   LIG d   1      10.703  10.427  -0.710  0.00  0.00     0.064 H 
BRANCH  17  28
ATOM     28  C   LIG d   1      11.237  10.141  -3.617  0.00  0.00     0.021 C 
ATOM     29  H   LIG d   1      10.885  10.853  -2.871  0.00  0.00     0.049 H 
ATOM     30  H   LIG d   1      12.146  10.523  -4.083  0.00  0.00     0.049 H 
BRANCH  28  31
ATOM     31  C   LIG d   1      10.160   9.945  -4.686  0.00  0.00    -0.047 C 
ATOM     32  H   LIG d   1       9.431  10.753  -4.619  0.00  0.00     0.025 H 
ATOM     33  H   LIG d   1      10.623   9.955  -5.673  0.00  0.00     0.025 H 
ATOM     34  H   LIG d   1       9.661   8.990  -4.529  0.00  0.00     0.025 H 
ENDBRANCH  28  31
ENDBRANCH  17  28
BRANCH  23  35
ATOM     35  O   LIG d   1      11.273   7.033   2.209  0.00  0.00    -0.495 OA
BRANCH  35  36
ATOM     36  C   LIG d   1      10.875   5.667   2.343  0.00  0.00     0.079 C 
ATOM     37  H   LIG d   1      10.751   5.426   3.398  0.00  0.00     0.066 H 
ATOM     38  H   LIG d   1       9.930   5.512   1.822  0.00  0.00     0.066 H 
ATOM     39  H   LIG d   1      11.639   5.022   1.910  0.00  0.00     0.066 H 
ENDBRANCH  35  36
ENDBRANCH  23  35
ENDBRANCH   1  15
BRANCH   9  40
ATOM     40  C   LIG d   1      11.991   0.392  -5.160  0.00  0.00    -0.033 C 
ATOM     41  H   LIG d   1      12.906   0.966  -5.012  0.00  0.00     0.028 H 
ATOM     42  H   LIG d   1      11.940  -0.406  -4.418  0.00  0.00     0.028 H 
ATOM     43  H   LIG d   1      11.991  -0.041  -6.160  0.00  0.00     0.028 H 
ENDBRANCH   9  40
BRANCH   8  44
ATOM     44  O   LIG d   1       9.396  -0.365  -5.949  0.00  0.00    -0.422 OA
BRANCH  44  45
ATOM     45  C   LIG d   1       8.853  -1.330  -5.177  0.00  0.00     0.337 C 
ATOM     46  O   LIG d   1       9.532  -2.269  -4.808  0.00  0.00    -0.245 OA
BRANCH  45  47
ATOM     47  C   LIG d   1       7.447  -1.247  -4.784  0.00  0.00     0.024 C 
ATOM     48  C   LIG d   1       7.118  -0.883  -3.527  0.00  0.00    -0.048 C 
ATOM     49  H   LIG d   1       7.893  -0.653  -2.811  0.00  0.00     0.063 H 
ATOM     50  H   LIG d   1       6.671  -1.477  -5.500  0.00  0.00     0.069 H 
BRANCH  48  51
ATOM     51  C   LIG d   1       5.703  -0.799  -3.132  0.00  0.00    -0.025 A 
ATOM     52  C   LIG d   1       4.905  -1.947  -3.128  0.00  0.00    -0.055 A 
ATOM     53  C   LIG d   1       3.579  -1.859  -2.757  0.00  0.00    -0.061 A 
ATOM     54  H   LIG d   1       5.325  -2.899  -3.415  0.00  0.00     0.062 H 
ATOM     55  C   LIG d   1       3.040  -0.639  -2.389  0.00  0.00    -0.062 A 
ATOM     56  H   LIG d   1       2.961  -2.744  -2.754  0.00  0.00     0.062 H 
ATOM     57  C   LIG d   1       3.824   0.501  -2.388  0.00  0.00    -0.061 A 
ATOM     58  H   LIG d   1       2.001  -0.576  -2.099  0.00  0.00     0.062 H 
ATOM     59  C   LIG d   1       5.150   0.431  -2.757  0.00  0.00    -0.055 A 
ATOM     60  H   LIG d   1       3.395   1.450  -2.099  0.00  0.00     0.062 H 
ATOM     61  H   LIG d   1       5.760   1.322  -2.761  0.00  0.00     0.062 H 
ENDBRANCH  48  51
ENDBRANCH  45  47
ENDBRANCH  44  45
ENDBRANCH   8  44
TORSDOF 10
ENDMDL
MODEL 3
REMARK VINA RESULT:      -6.9      3.335     10.298
REMARK  10 active torsions:
REMARK  status: ('A' for Active; 'I' for Inactive)
REMARK    1  A    between atoms: C_1  and  C_2 
REMARK    2  A    between atoms: C_2  and  N_3 
REMARK    3  A    between atoms: C_5  and  C_14 
REMARK    4  A    between atoms: C_10  and  O_12 
REMARK    5  A    between atoms: O_12  and  C_13 
REMARK    6  A    between atoms: C_21  and  O_26 
REMARK    7  A    between atoms: C_22  and  C_25 
REMARK    8  A    between atoms: O_26  and  C_27 
REMARK    9  A    between atoms: C_27  and  C_29 
REMARK   10  A    between atoms: C_30  and  C_31 
ROOT
ATOM      1  C   LIG d   1       5.143  -2.479  -6.098  0.00  0.00    -0.006 C 
ATOM      2  C   LIG d   1       4.372  -2.191  -7.184  0.00  0.00     0.176 A 
ATOM      3  C   LIG d   1       3.628  -0.998  -7.381  0.00  0.00     0.232 A 
ATOM      4  O   LIG d   1       3.549  -0.041  -6.628  0.00  0.00    -0.283 OA
ATOM      5  C   LIG d   1       2.970  -1.164  -8.689  0.00  0.00     0.068 A 
ATOM      6  C   LIG d   1       2.114  -0.361  -9.443  0.00  0.00    -0.044 A 
ATOM      7  C   LIG d   1       1.663  -0.800 -10.656  0.00  0.00    -0.018 A 
ATOM      8  C   LIG d   1       2.044  -2.050 -11.135  0.00  0.00     0.138 A 
ATOM      9  C   LIG d   1       2.893  -2.858 -10.397  0.00  0.00     0.035 A 
ATOM     10  C   LIG d   1       3.366  -2.425  -9.166  0.00  0.00     0.146 A 
ATOM     11  O   LIG d   1       4.186  -2.996  -8.258  0.00  0.00    -0.451 OA
ATOM     12  H   LIG d   1       5.568  -3.464  -5.983  0.00  0.00     0.066 H 
ATOM     13  H   LIG d   1       1.813   0.607  -9.071  0.00  0.00     0.063 H 
ATOM     14  H   LIG d   1       1.004  -0.177 -11.241  0.00  0.00     0.066 H 
ENDROOT
BRANCH   1  15
ATOM     15  C   LIG d   1       5.395  -1.452  -5.089  0.00  0.00     0.004 A 
ATOM     16  C   LIG d   1       4.708  -1.267  -3.908  0.00  0.00     0.013 A 
ATOM     17  N   LIG d   1       5.237  -0.214  -3.238  0.00  0.00    -0.346 N 
ATOM     18  H   LIG d   1       3.879  -1.869  -3.568  0.00  0.00     0.082 H 
ATOM     19  C   LIG d   1       6.282   0.339  -3.951  0.00  0.00     0.050 A 
ATOM     20  C   LIG d   1       6.431  -0.402  -5.134  0.00  0.00     0.011 A 
ATOM     21  C   LIG d   1       7.132   1.413  -3.707  0.00  0.00    -0.034 A 
ATOM     22  C   LIG d   1       7.421  -0.063  -6.053  0.00  0.00    -0.010 A 
ATOM     23  C   LIG d   1       8.256   1.008  -5.793  0.00  0.00     0.121 A 
ATOM     24  H   LIG d   1       7.535  -0.633  -6.963  0.00  0.00     0.066 H 
ATOM     25  C   LIG d   1       8.108   1.742  -4.621  0.00  0.00    -0.018 A 
ATOM     26  H   LIG d   1       8.765   2.577  -4.426  0.00  0.00     0.066 H 
ATOM     27  H   LIG d   1       7.027   1.989  -2.799  0.00  0.00     0.064 H 
BRANCH  17  28
ATOM     28  C   LIG d   1       4.761   0.272  -1.940  0.00  0.00     0.021 C 
ATOM     29  H   LIG d   1       4.352  -0.561  -1.367  0.00  0.00     0.049 H 
ATOM     30  H   LIG d   1       5.593   0.716  -1.392  0.00  0.00     0.049 H 
BRANCH  28  31
ATOM     31  C   LIG d   1       3.674   1.326  -2.158  0.00  0.00    -0.047 C 
ATOM     32  H   LIG d   1       4.138   2.277  -2.421  0.00  0.00     0.025 H 
ATOM     33  H   LIG d   1       3.016   1.007  -2.967  0.00  0.00     0.025 H 
ATOM     34  H   LIG d   1       3.094   1.445  -1.244  0.00  0.00     0.025 H 
ENDBRANCH  28  31
ENDBRANCH  17  28
BRANCH  23  35
ATOM     35  O   LIG d   1       9.225   1.344  -6.687  0.00  0.00    -0.495 OA
BRANCH  35  36
ATOM     36  C   LIG d   1       9.075   2.592  -7.367  0.00  0.00     0.079 C 
ATOM     37  H   LIG d   1       8.247   2.525  -8.072  0.00  0.00     0.066 H 
ATOM     38  H   LIG d   1       8.870   3.378  -6.640  0.00  0.00     0.066 H 
ATOM     39  H   LIG d   1       9.993   2.825  -7.906  0.00  0.00     0.066 H 
ENDBRANCH  35  36
ENDBRANCH  23  35
ENDBRANCH   1  15
BRANCH   9  40
ATOM     40  C   LIG d   1       3.304  -4.207 -10.930  0.00  0.00    -0.033 C 
ATOM     41  H   LIG d   1       3.041  -4.275 -11.986  0.00  0.00     0.028 H 
ATOM     42  H   LIG d   1       4.381  -4.330 -10.816  0.00  0.00     0.028 H 
ATOM     43  H   LIG d   1       2.787  -4.990 -10.377  0.00  0.00     0.028 H 
ENDBRANCH   9  40
BRANCH   8  44
ATOM     44  O   LIG d   1       1.584  -2.478 -12.340  0.00  0.00    -0.422 OA
BRANCH  44  45
ATOM     45  C   LIG d   1       0.255  -2.663 -12.480  0.00  0.00     0.337 C 
ATOM     46  O   LIG d   1      -0.431  -1.795 -12.984  0.00  0.00    -0.245 OA
BRANCH  45  47
ATOM     47  C   LIG d   1      -0.361  -3.909 -12.026  0.00  0.00     0.024 C 
ATOM     48  C   LIG d   1      -0.502  -4.151 -10.706  0.00  0.00    -0.048 C 
ATOM     49  H   LIG d   1      -0.160  -3.425  -9.985  0.00  0.00     0.063 H 
ATOM     50  H   LIG d   1      -0.703  -4.636 -12.749  0.00  0.00     0.069 H 
BRANCH  48  51
ATOM     51  C   LIG d   1      -1.123  -5.405 -10.251  0.00  0.00    -0.025 A 
ATOM     52  C   LIG d   1      -0.414  -6.608 -10.325  0.00  0.00    -0.055 A 
ATOM     53  C   LIG d   1      -1.003  -7.779  -9.896  0.00  0.00    -0.061 A 
ATOM     54  H   LIG d   1       0.593  -6.620 -10.716  0.00  0.00     0.062 H 
ATOM     55  C   LIG d   1      -2.292  -7.765  -9.393  0.00  0.00    -0.062 A 
ATOM     56  H   LIG d   1      -0.457  -8.710  -9.953  0.00  0.00     0.062 H 
ATOM     57  C   LIG d   1      -3.000  -6.579  -9.315  0.00  0.00    -0.061 A 
ATOM     58  H   LIG d   1      -2.748  -8.686  -9.058  0.00  0.00     0.062 H 
ATOM     59  C   LIG d   1      -2.425  -5.399  -9.740  0.00  0.00    -0.055 A 
ATOM     60  H   LIG d   1      -4.005  -6.576  -8.921  0.00  0.00     0.062 H 
ATOM     61  H   LIG d   1      -2.980  -4.475  -9.683  0.00  0.00     0.062 H 
ENDBRANCH  48  51
ENDBRANCH  45  47
ENDBRANCH  44  45
ENDBRANCH   8  44
TORSDOF 10
ENDMDL
MODEL 4
REMARK VINA RESULT:      -6.9      8.998     13.045
REMARK  10 active torsions:
REMARK  status: ('A' for Active; 'I' for Inactive)
REMARK    1  A    between atoms: C_1  and  C_2 
REMARK    2  A    between atoms: C_2  and  N_3 
REMARK    3  A    between atoms: C_5  and  C_14 
REMARK    4  A    between atoms: C_10  and  O_12 
REMARK    5  A    between atoms: O_12  and  C_13 
REMARK    6  A    between atoms: C_21  and  O_26 
REMARK    7  A    between atoms: C_22  and  C_25 
REMARK    8  A    between atoms: O_26  and  C_27 
REMARK    9  A    between atoms: C_27  and  C_29 
REMARK   10  A    between atoms: C_30  and  C_31 
ROOT
ATOM      1  C   LIG d   1      10.834  -8.922  -2.754  0.00  0.00    -0.006 C 
ATOM      2  C   LIG d   1       9.681  -8.553  -3.379  0.00  0.00     0.176 A 
ATOM      3  C   LIG d   1       8.471  -9.296  -3.396  0.00  0.00     0.232 A 
ATOM      4  O   LIG d   1       8.256 -10.374  -2.866  0.00  0.00    -0.283 OA
ATOM      5  C   LIG d   1       7.531  -8.487  -4.191  0.00  0.00     0.068 A 
ATOM      6  C   LIG d   1       6.201  -8.659  -4.575  0.00  0.00    -0.044 A 
ATOM      7  C   LIG d   1       5.582  -7.704  -5.331  0.00  0.00    -0.018 A 
ATOM      8  C   LIG d   1       6.278  -6.565  -5.729  0.00  0.00     0.138 A 
ATOM      9  C   LIG d   1       7.599  -6.382  -5.356  0.00  0.00     0.035 A 
ATOM     10  C   LIG d   1       8.240  -7.340  -4.583  0.00  0.00     0.146 A 
ATOM     11  O   LIG d   1       9.495  -7.414  -4.089  0.00  0.00    -0.451 OA
ATOM     12  H   LIG d   1      11.737  -8.351  -2.905  0.00  0.00     0.066 H 
ATOM     13  H   LIG d   1       5.660  -9.544  -4.272  0.00  0.00     0.063 H 
ATOM     14  H   LIG d   1       4.551  -7.835  -5.624  0.00  0.00     0.066 H 
ENDROOT
BRANCH   1  15
ATOM     15  C   LIG d   1      10.848 -10.093  -1.880  0.00  0.00     0.004 A 
ATOM     16  C   LIG d   1      10.866 -11.415  -2.268  0.00  0.00     0.013 A 
ATOM     17  N   LIG d   1      10.876 -12.210  -1.169  0.00  0.00    -0.346 N 
ATOM     18  H   LIG d   1      10.874 -11.765  -3.290  0.00  0.00     0.082 H 
ATOM     19  C   LIG d   1      10.856 -11.445  -0.019  0.00  0.00     0.050 A 
ATOM     20  C   LIG d   1      10.837 -10.095  -0.404  0.00  0.00     0.011 A 
ATOM     21  C   LIG d   1      10.851 -11.770   1.334  0.00  0.00    -0.034 A 
ATOM     22  C   LIG d   1      10.813  -9.093   0.562  0.00  0.00    -0.010 A 
ATOM     23  C   LIG d   1      10.810  -9.433   1.902  0.00  0.00     0.121 A 
ATOM     24  H   LIG d   1      10.798  -8.054   0.266  0.00  0.00     0.066 H 
ATOM     25  C   LIG d   1      10.828 -10.771   2.283  0.00  0.00    -0.018 A 
ATOM     26  H   LIG d   1      10.824 -11.029   3.332  0.00  0.00     0.066 H 
ATOM     27  H   LIG d   1      10.867 -12.805   1.641  0.00  0.00     0.064 H 
BRANCH  17  28
ATOM     28  C   LIG d   1      10.900 -13.674  -1.199  0.00  0.00     0.021 C 
ATOM     29  H   LIG d   1      11.813 -14.013  -1.689  0.00  0.00     0.049 H 
ATOM     30  H   LIG d   1      10.871 -14.058  -0.178  0.00  0.00     0.049 H 
BRANCH  28  31
ATOM     31  C   LIG d   1       9.683 -14.188  -1.971  0.00  0.00    -0.047 C 
ATOM     32  H   LIG d   1       9.990 -14.997  -2.635  0.00  0.00     0.025 H 
ATOM     33  H   LIG d   1       8.938 -14.559  -1.267  0.00  0.00     0.025 H 
ATOM     34  H   LIG d   1       9.257 -13.378  -2.559  0.00  0.00     0.025 H 
ENDBRANCH  28  31
ENDBRANCH  17  28
BRANCH  23  35
ATOM     35  O   LIG d   1      10.787  -8.458   2.849  0.00  0.00    -0.495 OA
BRANCH  35  36
ATOM     36  C   LIG d   1      11.969  -8.288   3.634  0.00  0.00     0.079 C 
ATOM     37  H   LIG d   1      12.148  -9.189   4.221  0.00  0.00     0.066 H 
ATOM     38  H   LIG d   1      12.819  -8.109   2.976  0.00  0.00     0.066 H 
ATOM     39  H   LIG d   1      11.842  -7.438   4.303  0.00  0.00     0.066 H 
ENDBRANCH  35  36
ENDBRANCH  23  35
ENDBRANCH   1  15
BRANCH   9  40
ATOM     40  C   LIG d   1       8.340  -5.142  -5.788  0.00  0.00    -0.033 C 
ATOM     41  H   LIG d   1       8.915  -5.357  -6.689  0.00  0.00     0.028 H 
ATOM     42  H   LIG d   1       7.625  -4.346  -5.996  0.00  0.00     0.028 H 
ATOM     43  H   LIG d   1       9.015  -4.826  -4.993  0.00  0.00     0.028 H 
ENDBRANCH   9  40
BRANCH   8  44
ATOM     44  O   LIG d   1       5.654  -5.625  -6.485  0.00  0.00    -0.422 OA
BRANCH  44  45
ATOM     45  C   LIG d   1       4.634  -4.940  -5.926  0.00  0.00     0.337 C 
ATOM     46  O   LIG d   1       3.516  -5.417  -5.911  0.00  0.00    -0.245 OA
BRANCH  45  47
ATOM     47  C   LIG d   1       4.874  -3.622  -5.339  0.00  0.00     0.024 C 
ATOM     48  C   LIG d   1       4.589  -3.402  -4.038  0.00  0.00    -0.048 C 
ATOM     49  H   LIG d   1       4.185  -4.198  -3.431  0.00  0.00     0.063 H 
ATOM     50  H   LIG d   1       5.279  -2.826  -5.946  0.00  0.00     0.069 H 
BRANCH  48  51
ATOM     51  C   LIG d   1       4.831  -2.076  -3.447  0.00  0.00    -0.025 A 
ATOM     52  C   LIG d   1       4.064  -1.639  -2.363  0.00  0.00    -0.055 A 
ATOM     53  C   LIG d   1       4.297  -0.395  -1.815  0.00  0.00    -0.061 A 
ATOM     54  H   LIG d   1       3.292  -2.274  -1.955  0.00  0.00     0.062 H 
ATOM     55  C   LIG d   1       5.288   0.420  -2.336  0.00  0.00    -0.062 A 
ATOM     56  H   LIG d   1       3.706  -0.055  -0.978  0.00  0.00     0.062 H 
ATOM     57  C   LIG d   1       6.052  -0.006  -3.408  0.00  0.00    -0.061 A 
ATOM     58  H   LIG d   1       5.466   1.393  -1.902  0.00  0.00     0.062 H 
ATOM     59  C   LIG d   1       5.831  -1.247  -3.967  0.00  0.00    -0.055 A 
ATOM     60  H   LIG d   1       6.823   0.635  -3.809  0.00  0.00     0.062 H 
ATOM     61  H   LIG d   1       6.425  -1.577  -4.807  0.00  0.00     0.062 H 
ENDBRANCH  48  51
ENDBRANCH  45  47
ENDBRANCH  44  45
ENDBRANCH   8  44
TORSDOF 10
ENDMDL
MODEL 5
REMARK VINA RESULT:      -6.8      3.677      6.550
REMARK  10 active torsions:
REMARK  status: ('A' for Active; 'I' for Inactive)
REMARK    1  A    between atoms: C_1  and  C_2 
REMARK    2  A    between atoms: C_2  and  N_3 
REMARK    3  A    between atoms: C_5  and  C_14 
REMARK    4  A    between atoms: C_10  and  O_12 
REMARK    5  A    between atoms: O_12  and  C_13 
REMARK    6  A    between atoms: C_21  and  O_26 
REMARK    7  A    between atoms: C_22  and  C_25 
REMARK    8  A    between atoms: O_26  and  C_27 
REMARK    9  A    between atoms: C_27  and  C_29 
REMARK   10  A    between atoms: C_30  and  C_31 
ROOT
ATOM      1  C   LIG d   1       2.638   0.528  -9.875  0.00  0.00    -0.006 C 
ATOM      2  C   LIG d   1       3.037   0.009  -8.680  0.00  0.00     0.176 A 
ATOM      3  C   LIG d   1       3.756  -1.201  -8.499  0.00  0.00     0.232 A 
ATOM      4  O   LIG d   1       4.135  -1.975  -9.364  0.00  0.00    -0.283 OA
ATOM      5  C   LIG d   1       3.946  -1.325  -7.043  0.00  0.00     0.068 A 
ATOM      6  C   LIG d   1       4.564  -2.277  -6.232  0.00  0.00    -0.044 A 
ATOM      7  C   LIG d   1       4.581  -2.106  -4.876  0.00  0.00    -0.018 A 
ATOM      8  C   LIG d   1       3.972  -0.994  -4.301  0.00  0.00     0.138 A 
ATOM      9  C   LIG d   1       3.355  -0.041  -5.095  0.00  0.00     0.035 A 
ATOM     10  C   LIG d   1       3.334  -0.196  -6.474  0.00  0.00     0.146 A 
ATOM     11  O   LIG d   1       2.813   0.562  -7.464  0.00  0.00    -0.451 OA
ATOM     12  H   LIG d   1       1.987   1.389  -9.900  0.00  0.00     0.066 H 
ATOM     13  H   LIG d   1       5.032  -3.143  -6.674  0.00  0.00     0.063 H 
ATOM     14  H   LIG d   1       5.063  -2.840  -4.248  0.00  0.00     0.066 H 
ENDROOT
BRANCH   1  15
ATOM     15  C   LIG d   1       3.093  -0.080 -11.123  0.00  0.00     0.004 A 
ATOM     16  C   LIG d   1       4.317   0.098 -11.732  0.00  0.00     0.013 A 
ATOM     17  N   LIG d   1       4.366  -0.634 -12.873  0.00  0.00    -0.346 N 
ATOM     18  H   LIG d   1       5.114   0.723 -11.359  0.00  0.00     0.082 H 
ATOM     19  C   LIG d   1       3.179  -1.314 -13.063  0.00  0.00     0.050 A 
ATOM     20  C   LIG d   1       2.332  -1.003 -11.987  0.00  0.00     0.011 A 
ATOM     21  C   LIG d   1       2.731  -2.177 -14.057  0.00  0.00    -0.034 A 
ATOM     22  C   LIG d   1       1.055  -1.555 -11.919  0.00  0.00    -0.010 A 
ATOM     23  C   LIG d   1       0.626  -2.411 -12.917  0.00  0.00     0.121 A 
ATOM     24  H   LIG d   1       0.403  -1.316 -11.092  0.00  0.00     0.066 H 
ATOM     25  C   LIG d   1       1.466  -2.718 -13.983  0.00  0.00    -0.018 A 
ATOM     26  H   LIG d   1       1.123  -3.387 -14.759  0.00  0.00     0.066 H 
ATOM     27  H   LIG d   1       3.375  -2.423 -14.889  0.00  0.00     0.064 H 
BRANCH  17  28
ATOM     28  C   LIG d   1       5.516  -0.691 -13.778  0.00  0.00     0.021 C 
ATOM     29  H   LIG d   1       5.168  -0.865 -14.797  0.00  0.00     0.049 H 
ATOM     30  H   LIG d   1       6.059   0.253 -13.735  0.00  0.00     0.049 H 
BRANCH  28  31
ATOM     31  C   LIG d   1       6.443  -1.832 -13.353  0.00  0.00    -0.047 C 
ATOM     32  H   LIG d   1       7.412  -1.712 -13.839  0.00  0.00     0.025 H 
ATOM     33  H   LIG d   1       6.573  -1.809 -12.271  0.00  0.00     0.025 H 
ATOM     34  H   LIG d   1       6.005  -2.785 -13.646  0.00  0.00     0.025 H 
ENDBRANCH  28  31
ENDBRANCH  17  28
BRANCH  23  35
ATOM     35  O   LIG d   1      -0.620  -2.953 -12.856  0.00  0.00    -0.495 OA
BRANCH  35  36
ATOM     36  C   LIG d   1      -1.662  -2.261 -13.547  0.00  0.00     0.079 C 
ATOM     37  H   LIG d   1      -2.016  -2.872 -14.377  0.00  0.00     0.066 H 
ATOM     38  H   LIG d   1      -2.486  -2.068 -12.861  0.00  0.00     0.066 H 
ATOM     39  H   LIG d   1      -1.278  -1.315 -13.930  0.00  0.00     0.066 H 
ENDBRANCH  35  36
ENDBRANCH  23  35
ENDBRANCH   1  15
BRANCH   9  40
ATOM     40  C   LIG d   1       2.706   1.163  -4.461  0.00  0.00    -0.033 C 
ATOM     41  H   LIG d   1       3.177   1.365  -3.499  0.00  0.00     0.028 H 
ATOM     42  H   LIG d   1       2.828   2.027  -5.113  0.00  0.00     0.028 H 
ATOM     43  H   LIG d   1       1.644   0.968  -4.311  0.00  0.00     0.028 H 
ENDBRANCH   9  40
BRANCH   8  44
ATOM     44  O   LIG d   1       3.991  -0.838  -2.952  0.00  0.00    -0.422 OA
BRANCH  44  45
ATOM     45  C   LIG d   1       4.905   0.003  -2.425  0.00  0.00     0.337 C 
ATOM     46  O   LIG d   1       4.606   0.718  -1.487  0.00  0.00    -0.245 OA
BRANCH  45  47
ATOM     47  C   LIG d   1       6.256   0.056  -2.982  0.00  0.00     0.024 C 
ATOM     48  C   LIG d   1       6.753   1.226  -3.437  0.00  0.00    -0.048 C 
ATOM     49  H   LIG d   1       6.154   2.122  -3.389  0.00  0.00     0.063 H 
ATOM     50  H   LIG d   1       6.856  -0.841  -3.030  0.00  0.00     0.069 H 
BRANCH  48  51
ATOM     51  C   LIG d   1       8.113   1.278  -3.996  0.00  0.00    -0.025 A 
ATOM     52  C   LIG d   1       8.990   2.300  -3.619  0.00  0.00    -0.055 A 
ATOM     53  C   LIG d   1      10.263   2.342  -4.148  0.00  0.00    -0.061 A 
ATOM     54  H   LIG d   1       8.672   3.054  -2.914  0.00  0.00     0.062 H 
ATOM     55  C   LIG d   1      10.673   1.376  -5.050  0.00  0.00    -0.062 A 
ATOM     56  H   LIG d   1      10.942   3.131  -3.858  0.00  0.00     0.062 H 
ATOM     57  C   LIG d   1       9.812   0.360  -5.427  0.00  0.00    -0.061 A 
ATOM     58  H   LIG d   1      11.672   1.414  -5.461  0.00  0.00     0.062 H 
ATOM     59  C   LIG d   1       8.536   0.305  -4.908  0.00  0.00    -0.055 A 
ATOM     60  H   LIG d   1      10.139  -0.390  -6.132  0.00  0.00     0.062 H 
ATOM     61  H   LIG d   1       7.863  -0.485  -5.207  0.00  0.00     0.062 H 
ENDBRANCH  48  51
ENDBRANCH  45  47
ENDBRANCH  44  45
ENDBRANCH   8  44
TORSDOF 10
ENDMDL
MODEL 6
REMARK VINA RESULT:      -6.8      6.735     10.074
REMARK  10 active torsions:
REMARK  status: ('A' for Active; 'I' for Inactive)
REMARK    1  A    between atoms: C_1  and  C_2 
REMARK    2  A    between atoms: C_2  and  N_3 
REMARK    3  A    between atoms: C_5  and  C_14 
REMARK    4  A    between atoms: C_10  and  O_12 
REMARK    5  A    between atoms: O_12  and  C_13 
REMARK    6  A    between atoms: C_21  and  O_26 
REMARK    7  A    between atoms: C_22  and  C_25 
REMARK    8  A    between atoms: O_26  and  C_27 
REMARK    9  A    between atoms: C_27  and  C_29 
REMARK   10  A    between atoms: C_30  and  C_31 
ROOT
ATOM      1  C   LIG d   1       8.652  -1.816  -4.906  0.00  0.00    -0.006 C 
ATOM      2  C   LIG d   1       8.757  -0.706  -5.689  0.00  0.00     0.176 A 
ATOM      3  C   LIG d   1       7.741  -0.186  -6.533  0.00  0.00     0.232 A 
ATOM      4  O   LIG d   1       6.617  -0.633  -6.702  0.00  0.00    -0.283 OA
ATOM      5  C   LIG d   1       8.332   1.008  -7.161  0.00  0.00     0.068 A 
ATOM      6  C   LIG d   1       7.858   1.947  -8.077  0.00  0.00    -0.044 A 
ATOM      7  C   LIG d   1       8.665   2.974  -8.477  0.00  0.00    -0.018 A 
ATOM      8  C   LIG d   1       9.963   3.080  -7.983  0.00  0.00     0.138 A 
ATOM      9  C   LIG d   1      10.447   2.154  -7.074  0.00  0.00     0.035 A 
ATOM     10  C   LIG d   1       9.638   1.108  -6.652  0.00  0.00     0.146 A 
ATOM     11  O   LIG d   1       9.850   0.087  -5.794  0.00  0.00    -0.451 OA
ATOM     12  H   LIG d   1       9.522  -2.203  -4.397  0.00  0.00     0.066 H 
ATOM     13  H   LIG d   1       6.854   1.865  -8.465  0.00  0.00     0.063 H 
ATOM     14  H   LIG d   1       8.297   3.704  -9.182  0.00  0.00     0.066 H 
ENDROOT
BRANCH   1  15
ATOM     15  C   LIG d   1       7.360  -2.483  -4.754  0.00  0.00     0.004 A 
ATOM     16  C   LIG d   1       6.952  -3.645  -5.373  0.00  0.00     0.013 A 
ATOM     17  N   LIG d   1       5.690  -3.948  -4.979  0.00  0.00    -0.346 N 
ATOM     18  H   LIG d   1       7.545  -4.226  -6.064  0.00  0.00     0.082 H 
ATOM     19  C   LIG d   1       5.217  -2.997  -4.095  0.00  0.00     0.050 A 
ATOM     20  C   LIG d   1       6.230  -2.042  -3.913  0.00  0.00     0.011 A 
ATOM     21  C   LIG d   1       4.010  -2.850  -3.420  0.00  0.00    -0.034 A 
ATOM     22  C   LIG d   1       6.025  -0.958  -3.065  0.00  0.00    -0.010 A 
ATOM     23  C   LIG d   1       4.819  -0.827  -2.401  0.00  0.00     0.121 A 
ATOM     24  H   LIG d   1       6.805  -0.223  -2.925  0.00  0.00     0.066 H 
ATOM     25  C   LIG d   1       3.815  -1.773  -2.582  0.00  0.00    -0.018 A 
ATOM     26  H   LIG d   1       2.876  -1.663  -2.061  0.00  0.00     0.066 H 
ATOM     27  H   LIG d   1       3.224  -3.579  -3.552  0.00  0.00     0.064 H 
BRANCH  17  28
ATOM     28  C   LIG d   1       4.933  -5.118  -5.431  0.00  0.00     0.021 C 
ATOM     29  H   LIG d   1       5.625  -5.903  -5.738  0.00  0.00     0.049 H 
ATOM     30  H   LIG d   1       4.308  -5.483  -4.616  0.00  0.00     0.049 H 
BRANCH  28  31
ATOM     31  C   LIG d   1       4.048  -4.725  -6.616  0.00  0.00    -0.047 C 
ATOM     32  H   LIG d   1       3.690  -5.626  -7.116  0.00  0.00     0.025 H 
ATOM     33  H   LIG d   1       3.197  -4.147  -6.256  0.00  0.00     0.025 H 
ATOM     34  H   LIG d   1       4.624  -4.125  -7.317  0.00  0.00     0.025 H 
ENDBRANCH  28  31
ENDBRANCH  17  28
BRANCH  23  35
ATOM     35  O   LIG d   1       4.614   0.231  -1.571  0.00  0.00    -0.495 OA
BRANCH  35  36
ATOM     36  C   LIG d   1       3.916   1.354  -2.113  0.00  0.00     0.079 C 
ATOM     37  H   LIG d   1       2.866   1.304  -1.826  0.00  0.00     0.066 H 
ATOM     38  H   LIG d   1       4.355   2.274  -1.727  0.00  0.00     0.066 H 
ATOM     39  H   LIG d   1       3.997   1.342  -3.200  0.00  0.00     0.066 H 
ENDBRANCH  35  36
ENDBRANCH  23  35
ENDBRANCH   1  15
BRANCH   9  40
ATOM     40  C   LIG d   1      11.852   2.283  -6.541  0.00  0.00    -0.033 C 
ATOM     41  H   LIG d   1      12.489   2.732  -7.304  0.00  0.00     0.028 H 
ATOM     42  H   LIG d   1      11.847   2.915  -5.654  0.00  0.00     0.028 H 
ATOM     43  H   LIG d   1      12.235   1.296  -6.283  0.00  0.00     0.028 H 
ENDBRANCH   9  40
BRANCH   8  44
ATOM     44  O   LIG d   1      10.758   4.102  -8.392  0.00  0.00    -0.422 OA
BRANCH  44  45
ATOM     45  C   LIG d   1      10.473   5.343  -7.944  0.00  0.00     0.337 C 
ATOM     46  O   LIG d   1      10.066   6.190  -8.716  0.00  0.00    -0.245 OA
BRANCH  45  47
ATOM     47  C   LIG d   1      10.654   5.669  -6.530  0.00  0.00     0.024 C 
ATOM     48  C   LIG d   1       9.612   5.574  -5.678  0.00  0.00    -0.048 C 
ATOM     49  H   LIG d   1       8.645   5.258  -6.039  0.00  0.00     0.063 H 
ATOM     50  H   LIG d   1      11.621   5.986  -6.169  0.00  0.00     0.069 H 
BRANCH  48  51
ATOM     51  C   LIG d   1       9.794   5.902  -4.255  0.00  0.00    -0.025 A 
ATOM     52  C   LIG d   1       9.970   4.881  -3.315  0.00  0.00    -0.055 A 
ATOM     53  C   LIG d   1      10.139   5.196  -1.983  0.00  0.00    -0.061 A 
ATOM     54  H   LIG d   1       9.972   3.848  -3.631  0.00  0.00     0.062 H 
ATOM     55  C   LIG d   1      10.138   6.519  -1.577  0.00  0.00    -0.062 A 
ATOM     56  H   LIG d   1      10.274   4.410  -1.256  0.00  0.00     0.062 H 
ATOM     57  C   LIG d   1       9.967   7.535  -2.500  0.00  0.00    -0.061 A 
ATOM     58  H   LIG d   1      10.272   6.760  -0.532  0.00  0.00     0.062 H 
ATOM     59  C   LIG d   1       9.795   7.236  -3.835  0.00  0.00    -0.055 A 
ATOM     60  H   LIG d   1       9.967   8.565  -2.175  0.00  0.00     0.062 H 
ATOM     61  H   LIG d   1       9.656   8.030  -4.555  0.00  0.00     0.062 H 
ENDBRANCH  48  51
ENDBRANCH  45  47
ENDBRANCH  44  45
ENDBRANCH   8  44
TORSDOF 10
ENDMDL
MODEL 7
REMARK VINA RESULT:      -6.8      6.811     13.052
REMARK  10 active torsions:
REMARK  status: ('A' for Active; 'I' for Inactive)
REMARK    1  A    between atoms: C_1  and  C_2 
REMARK    2  A    between atoms: C_2  and  N_3 
REMARK    3  A    between atoms: C_5  and  C_14 
REMARK    4  A    between atoms: C_10  and  O_12 
REMARK    5  A    between atoms: O_12  and  C_13 
REMARK    6  A    between atoms: C_21  and  O_26 
REMARK    7  A    between atoms: C_22  and  C_25 
REMARK    8  A    between atoms: O_26  and  C_27 
REMARK    9  A    between atoms: C_27  and  C_29 
REMARK   10  A    between atoms: C_30  and  C_31 
ROOT
ATOM      1  C   LIG d   1      10.722   2.658  -6.297  0.00  0.00    -0.006 C 
ATOM      2  C   LIG d   1       9.728   1.992  -5.645  0.00  0.00     0.176 A 
ATOM      3  C   LIG d   1       8.751   2.579  -4.799  0.00  0.00     0.232 A 
ATOM      4  O   LIG d   1       8.633   3.759  -4.511  0.00  0.00    -0.283 OA
ATOM      5  C   LIG d   1       7.911   1.458  -4.342  0.00  0.00     0.068 A 
ATOM      6  C   LIG d   1       6.800   1.369  -3.503  0.00  0.00    -0.044 A 
ATOM      7  C   LIG d   1       6.220   0.154  -3.269  0.00  0.00    -0.018 A 
ATOM      8  C   LIG d   1       6.743  -0.996  -3.853  0.00  0.00     0.138 A 
ATOM      9  C   LIG d   1       7.846  -0.923  -4.688  0.00  0.00     0.035 A 
ATOM     10  C   LIG d   1       8.443   0.304  -4.941  0.00  0.00     0.146 A 
ATOM     11  O   LIG d   1       9.505   0.657  -5.697  0.00  0.00    -0.451 OA
ATOM     12  H   LIG d   1      11.492   2.108  -6.816  0.00  0.00     0.066 H 
ATOM     13  H   LIG d   1       6.396   2.259  -3.044  0.00  0.00     0.063 H 
ATOM     14  H   LIG d   1       5.358   0.086  -2.624  0.00  0.00     0.066 H 
ENDROOT
BRANCH   1  15
ATOM     15  C   LIG d   1      10.746   4.120  -6.292  0.00  0.00     0.004 A 
ATOM     16  C   LIG d   1      11.314   4.935  -5.337  0.00  0.00     0.013 A 
ATOM     17  N   LIG d   1      11.133   6.233  -5.683  0.00  0.00    -0.346 N 
ATOM     18  H   LIG d   1      11.827   4.593  -4.450  0.00  0.00     0.082 H 
ATOM     19  C   LIG d   1      10.434   6.324  -6.871  0.00  0.00     0.050 A 
ATOM     20  C   LIG d   1      10.159   5.017  -7.306  0.00  0.00     0.011 A 
ATOM     21  C   LIG d   1       9.999   7.403  -7.634  0.00  0.00    -0.034 A 
ATOM     22  C   LIG d   1       9.458   4.807  -8.490  0.00  0.00    -0.010 A 
ATOM     23  C   LIG d   1       9.033   5.891  -9.235  0.00  0.00     0.121 A 
ATOM     24  H   LIG d   1       9.246   3.802  -8.825  0.00  0.00     0.066 H 
ATOM     25  C   LIG d   1       9.304   7.186  -8.804  0.00  0.00    -0.018 A 
ATOM     26  H   LIG d   1       8.969   8.027  -9.392  0.00  0.00     0.066 H 
ATOM     27  H   LIG d   1      10.205   8.412  -7.309  0.00  0.00     0.064 H 
BRANCH  17  28
ATOM     28  C   LIG d   1      11.608   7.379  -4.904  0.00  0.00     0.021 C 
ATOM     29  H   LIG d   1      12.511   7.099  -4.360  0.00  0.00     0.049 H 
ATOM     30  H   LIG d   1      11.831   8.207  -5.577  0.00  0.00     0.049 H 
BRANCH  28  31
ATOM     31  C   LIG d   1      10.524   7.806  -3.912  0.00  0.00    -0.047 C 
ATOM     32  H   LIG d   1       9.723   8.316  -4.448  0.00  0.00     0.025 H 
ATOM     33  H   LIG d   1      10.123   6.924  -3.413  0.00  0.00     0.025 H 
ATOM     34  H   LIG d   1      10.954   8.479  -3.172  0.00  0.00     0.025 H 
ENDBRANCH  28  31
ENDBRANCH  17  28
BRANCH  23  35
ATOM     35  O   LIG d   1       8.347   5.691 -10.393  0.00  0.00    -0.495 OA
BRANCH  35  36
ATOM     36  C   LIG d   1       8.910   6.245 -11.584  0.00  0.00     0.079 C 
ATOM     37  H   LIG d   1       9.128   5.444 -12.290  0.00  0.00     0.066 H 
ATOM     38  H   LIG d   1       8.200   6.940 -12.032  0.00  0.00     0.066 H 
ATOM     39  H   LIG d   1       9.831   6.773 -11.338  0.00  0.00     0.066 H 
ENDBRANCH  35  36
ENDBRANCH  23  35
ENDBRANCH   1  15
BRANCH   9  40
ATOM     40  C   LIG d   1       8.398  -2.175  -5.320  0.00  0.00    -0.033 C 
ATOM     41  H   LIG d   1       8.477  -2.959  -4.566  0.00  0.00     0.028 H 
ATOM     42  H   LIG d   1       7.731  -2.505  -6.116  0.00  0.00     0.028 H 
ATOM     43  H   LIG d   1       9.385  -1.969  -5.734  0.00  0.00     0.028 H 
ENDBRANCH   9  40
BRANCH   8  44
ATOM     44  O   LIG d   1       6.162  -2.199  -3.609  0.00  0.00    -0.422 OA
BRANCH  44  45
ATOM     45  C   LIG d   1       4.912  -2.404  -4.075  0.00  0.00     0.337 C 
ATOM     46  O   LIG d   1       4.066  -2.897  -3.354  0.00  0.00    -0.245 OA
BRANCH  45  47
ATOM     47  C   LIG d   1       4.575  -2.033  -5.449  0.00  0.00     0.024 C 
ATOM     48  C   LIG d   1       3.858  -0.915  -5.689  0.00  0.00    -0.048 C 
ATOM     49  H   LIG d   1       3.535  -0.294  -4.867  0.00  0.00     0.063 H 
ATOM     50  H   LIG d   1       4.898  -2.655  -6.271  0.00  0.00     0.069 H 
BRANCH  48  51
ATOM     51  C   LIG d   1       3.519  -0.542  -7.071  0.00  0.00    -0.025 A 
ATOM     52  C   LIG d   1       3.073   0.751  -7.361  0.00  0.00    -0.055 A 
ATOM     53  C   LIG d   1       2.757   1.093  -8.659  0.00  0.00    -0.061 A 
ATOM     54  H   LIG d   1       2.976   1.481  -6.571  0.00  0.00     0.062 H 
ATOM     55  C   LIG d   1       2.882   0.160  -9.674  0.00  0.00    -0.062 A 
ATOM     56  H   LIG d   1       2.412   2.091  -8.885  0.00  0.00     0.062 H 
ATOM     57  C   LIG d   1       3.324  -1.121  -9.396  0.00  0.00    -0.061 A 
ATOM     58  H   LIG d   1       2.633   0.433 -10.689  0.00  0.00     0.062 H 
ATOM     59  C   LIG d   1       3.643  -1.479  -8.102  0.00  0.00    -0.055 A 
ATOM     60  H   LIG d   1       3.419  -1.844 -10.192  0.00  0.00     0.062 H 
ATOM     61  H   LIG d   1       3.984  -2.481  -7.885  0.00  0.00     0.062 H 
ENDBRANCH  48  51
ENDBRANCH  45  47
ENDBRANCH  44  45
ENDBRANCH   8  44
TORSDOF 10
ENDMDL
MODEL 8
REMARK VINA RESULT:      -6.8      1.867      3.325
REMARK  10 active torsions:
REMARK  status: ('A' for Active; 'I' for Inactive)
REMARK    1  A    between atoms: C_1  and  C_2 
REMARK    2  A    between atoms: C_2  and  N_3 
REMARK    3  A    between atoms: C_5  and  C_14 
REMARK    4  A    between atoms: C_10  and  O_12 
REMARK    5  A    between atoms: O_12  and  C_13 
REMARK    6  A    between atoms: C_21  and  O_26 
REMARK    7  A    between atoms: C_22  and  C_25 
REMARK    8  A    between atoms: O_26  and  C_27 
REMARK    9  A    between atoms: C_27  and  C_29 
REMARK   10  A    between atoms: C_30  and  C_31 
ROOT
ATOM      1  C   LIG d   1       1.455  -6.529 -10.515  0.00  0.00    -0.006 C 
ATOM      2  C   LIG d   1       1.596  -5.181 -10.372  0.00  0.00     0.176 A 
ATOM      3  C   LIG d   1       0.639  -4.201 -10.747  0.00  0.00     0.232 A 
ATOM      4  O   LIG d   1      -0.455  -4.390 -11.255  0.00  0.00    -0.283 OA
ATOM      5  C   LIG d   1       1.250  -2.908 -10.393  0.00  0.00     0.068 A 
ATOM      6  C   LIG d   1       0.829  -1.583 -10.506  0.00  0.00    -0.044 A 
ATOM      7  C   LIG d   1       1.640  -0.573 -10.073  0.00  0.00    -0.018 A 
ATOM      8  C   LIG d   1       2.890  -0.860  -9.530  0.00  0.00     0.138 A 
ATOM      9  C   LIG d   1       3.320  -2.171  -9.412  0.00  0.00     0.035 A 
ATOM     10  C   LIG d   1       2.506  -3.210  -9.842  0.00  0.00     0.146 A 
ATOM     11  O   LIG d   1       2.673  -4.550  -9.846  0.00  0.00    -0.451 OA
ATOM     12  H   LIG d   1       2.289  -7.184 -10.317  0.00  0.00     0.066 H 
ATOM     13  H   LIG d   1      -0.138  -1.357 -10.932  0.00  0.00     0.063 H 
ATOM     14  H   LIG d   1       1.312   0.453 -10.156  0.00  0.00     0.066 H 
ENDROOT
BRANCH   1  15
ATOM     15  C   LIG d   1       0.172  -7.087 -10.938  0.00  0.00     0.004 A 
ATOM     16  C   LIG d   1      -0.863  -7.491 -10.123  0.00  0.00     0.013 A 
ATOM     17  N   LIG d   1      -1.886  -7.952 -10.885  0.00  0.00    -0.346 N 
ATOM     18  H   LIG d   1      -0.862  -7.445  -9.044  0.00  0.00     0.082 H 
ATOM     19  C   LIG d   1      -1.562  -7.879 -12.226  0.00  0.00     0.050 A 
ATOM     20  C   LIG d   1      -0.269  -7.339 -12.324  0.00  0.00     0.011 A 
ATOM     21  C   LIG d   1      -2.248  -8.222 -13.386  0.00  0.00    -0.034 A 
ATOM     22  C   LIG d   1       0.317  -7.151 -13.572  0.00  0.00    -0.010 A 
ATOM     23  C   LIG d   1      -0.379  -7.498 -14.715  0.00  0.00     0.121 A 
ATOM     24  H   LIG d   1       1.312  -6.736 -13.648  0.00  0.00     0.066 H 
ATOM     25  C   LIG d   1      -1.660  -8.034 -14.617  0.00  0.00    -0.018 A 
ATOM     26  H   LIG d   1      -2.197  -8.302 -15.515  0.00  0.00     0.066 H 
ATOM     27  H   LIG d   1      -3.244  -8.638 -13.322  0.00  0.00     0.064 H 
BRANCH  17  28
ATOM     28  C   LIG d   1      -3.155  -8.461 -10.359  0.00  0.00     0.021 C 
ATOM     29  H   LIG d   1      -3.382  -7.965  -9.415  0.00  0.00     0.049 H 
ATOM     30  H   LIG d   1      -3.951  -8.262 -11.076  0.00  0.00     0.049 H 
BRANCH  28  31
ATOM     31  C   LIG d   1      -3.042  -9.970 -10.129  0.00  0.00    -0.047 C 
ATOM     32  H   LIG d   1      -2.126 -10.186  -9.579  0.00  0.00     0.025 H 
ATOM     33  H   LIG d   1      -3.902 -10.314  -9.554  0.00  0.00     0.025 H 
ATOM     34  H   LIG d   1      -3.019 -10.483 -11.089  0.00  0.00     0.025 H 
ENDBRANCH  28  31
ENDBRANCH  17  28
BRANCH  23  35
ATOM     35  O   LIG d   1       0.189  -7.317 -15.937  0.00  0.00    -0.495 OA
BRANCH  35  36
ATOM     36  C   LIG d   1      -0.504  -7.862 -17.062  0.00  0.00     0.079 C 
ATOM     37  H   LIG d   1      -1.577  -7.840 -16.873  0.00  0.00     0.066 H 
ATOM     38  H   LIG d   1      -0.279  -7.269 -17.949  0.00  0.00     0.066 H 
ATOM     39  H   LIG d   1      -0.184  -8.891 -17.221  0.00  0.00     0.066 H 
ENDBRANCH  35  36
ENDBRANCH  23  35
ENDBRANCH   1  15
BRANCH   9  40
ATOM     40  C   LIG d   1       4.673  -2.470  -8.816  0.00  0.00    -0.033 C 
ATOM     41  H   LIG d   1       4.550  -3.095  -7.932  0.00  0.00     0.028 H 
ATOM     42  H   LIG d   1       5.285  -2.995  -9.549  0.00  0.00     0.028 H 
ATOM     43  H   LIG d   1       5.161  -1.537  -8.536  0.00  0.00     0.028 H 
ENDBRANCH   9  40
BRANCH   8  44
ATOM     44  O   LIG d   1       3.689   0.153  -9.107  0.00  0.00    -0.422 OA
BRANCH  44  45
ATOM     45  C   LIG d   1       3.268   0.898  -8.064  0.00  0.00     0.337 C 
ATOM     46  O   LIG d   1       3.024   2.079  -8.218  0.00  0.00    -0.245 OA
BRANCH  45  47
ATOM     47  C   LIG d   1       3.103   0.284  -6.747  0.00  0.00     0.024 C 
ATOM     48  C   LIG d   1       4.161  -0.283  -6.130  0.00  0.00    -0.048 C 
ATOM     49  H   LIG d   1       5.129  -0.283  -6.608  0.00  0.00     0.063 H 
ATOM     50  H   LIG d   1       2.135   0.283  -6.269  0.00  0.00     0.069 H 
BRANCH  48  51
ATOM     51  C   LIG d   1       3.995  -0.900  -4.805  0.00  0.00    -0.025 A 
ATOM     52  C   LIG d   1       3.150  -0.314  -3.857  0.00  0.00    -0.055 A 
ATOM     53  C   LIG d   1       3.001  -0.899  -2.617  0.00  0.00    -0.061 A 
ATOM     54  H   LIG d   1       2.616   0.594  -4.095  0.00  0.00     0.062 H 
ATOM     55  C   LIG d   1       3.683  -2.063  -2.310  0.00  0.00    -0.062 A 
ATOM     56  H   LIG d   1       2.349  -0.447  -1.883  0.00  0.00     0.062 H 
ATOM     57  C   LIG d   1       4.520  -2.650  -3.243  0.00  0.00    -0.061 A 
ATOM     58  H   LIG d   1       3.561  -2.517  -1.337  0.00  0.00     0.062 H 
ATOM     59  C   LIG d   1       4.681  -2.077  -4.487  0.00  0.00    -0.055 A 
ATOM     60  H   LIG d   1       5.049  -3.558  -2.996  0.00  0.00     0.062 H 
ATOM     61  H   LIG d   1       5.338  -2.534  -5.212  0.00  0.00     0.062 H 
ENDBRANCH  48  51
ENDBRANCH  45  47
ENDBRANCH  44  45
ENDBRANCH   8  44
TORSDOF 10
ENDMDL
MODEL 9
REMARK VINA RESULT:      -6.7      6.785     13.148
REMARK  10 active torsions:
REMARK  status: ('A' for Active; 'I' for Inactive)
REMARK    1  A    between atoms: C_1  and  C_2 
REMARK    2  A    between atoms: C_2  and  N_3 
REMARK    3  A    between atoms: C_5  and  C_14 
REMARK    4  A    between atoms: C_10  and  O_12 
REMARK    5  A    between atoms: O_12  and  C_13 
REMARK    6  A    between atoms: C_21  and  O_26 
REMARK    7  A    between atoms: C_22  and  C_25 
REMARK    8  A    between atoms: O_26  and  C_27 
REMARK    9  A    between atoms: C_27  and  C_29 
REMARK   10  A    between atoms: C_30  and  C_31 
ROOT
ATOM      1  C   LIG d   1      10.391   1.501  -4.522  0.00  0.00    -0.006 C 
ATOM      2  C   LIG d   1       9.229   0.795  -4.610  0.00  0.00     0.176 A 
ATOM      3  C   LIG d   1       7.975   1.191  -4.077  0.00  0.00     0.232 A 
ATOM      4  O   LIG d   1       7.722   2.212  -3.457  0.00  0.00    -0.283 OA
ATOM      5  C   LIG d   1       7.043   0.106  -4.431  0.00  0.00     0.068 A 
ATOM      6  C   LIG d   1       5.684  -0.108  -4.201  0.00  0.00    -0.044 A 
ATOM      7  C   LIG d   1       5.085  -1.242  -4.672  0.00  0.00    -0.018 A 
ATOM      8  C   LIG d   1       5.829  -2.190  -5.369  0.00  0.00     0.138 A 
ATOM      9  C   LIG d   1       7.179  -1.991  -5.605  0.00  0.00     0.035 A 
ATOM     10  C   LIG d   1       7.802  -0.842  -5.139  0.00  0.00     0.146 A 
ATOM     11  O   LIG d   1       9.076  -0.403  -5.223  0.00  0.00    -0.451 OA
ATOM     12  H   LIG d   1      11.319   1.058  -4.849  0.00  0.00     0.066 H 
ATOM     13  H   LIG d   1       5.106   0.623  -3.656  0.00  0.00     0.063 H 
ATOM     14  H   LIG d   1       4.032  -1.405  -4.498  0.00  0.00     0.066 H 
ENDROOT
BRANCH   1  15
ATOM     15  C   LIG d   1      10.381   2.860  -3.983  0.00  0.00     0.004 A 
ATOM     16  C   LIG d   1      10.567   3.229  -2.668  0.00  0.00     0.013 A 
ATOM     17  N   LIG d   1      10.489   4.579  -2.562  0.00  0.00    -0.346 N 
ATOM     18  H   LIG d   1      10.749   2.550  -1.849  0.00  0.00     0.082 H 
ATOM     19  C   LIG d   1      10.241   5.148  -3.796  0.00  0.00     0.050 A 
ATOM     20  C   LIG d   1      10.162   4.109  -4.737  0.00  0.00     0.011 A 
ATOM     21  C   LIG d   1      10.073   6.464  -4.216  0.00  0.00    -0.034 A 
ATOM     22  C   LIG d   1       9.917   4.396  -6.077  0.00  0.00    -0.010 A 
ATOM     23  C   LIG d   1       9.753   5.710  -6.477  0.00  0.00     0.121 A 
ATOM     24  H   LIG d   1       9.855   3.597  -6.802  0.00  0.00     0.066 H 
ATOM     25  C   LIG d   1       9.831   6.739  -5.544  0.00  0.00    -0.018 A 
ATOM     26  H   LIG d   1       9.701   7.762  -5.863  0.00  0.00     0.066 H 
ATOM     27  H   LIG d   1      10.133   7.271  -3.500  0.00  0.00     0.064 H 
BRANCH  17  28
ATOM     28  C   LIG d   1      10.642   5.328  -1.312  0.00  0.00     0.021 C 
ATOM     29  H   LIG d   1      10.235   6.332  -1.438  0.00  0.00     0.049 H 
ATOM     30  H   LIG d   1      10.105   4.815  -0.514  0.00  0.00     0.049 H 
BRANCH  28  31
ATOM     31  C   LIG d   1      12.126   5.419  -0.951  0.00  0.00    -0.047 C 
ATOM     32  H   LIG d   1      12.625   4.491  -1.232  0.00  0.00     0.025 H 
ATOM     33  H   LIG d   1      12.579   6.253  -1.487  0.00  0.00     0.025 H 
ATOM     34  H   LIG d   1      12.230   5.577   0.122  0.00  0.00     0.025 H 
ENDBRANCH  28  31
ENDBRANCH  17  28
BRANCH  23  35
ATOM     35  O   LIG d   1       9.513   5.996  -7.785  0.00  0.00    -0.495 OA
BRANCH  35  36
ATOM     36  C   LIG d   1      10.505   6.761  -8.473  0.00  0.00     0.079 C 
ATOM     37  H   LIG d   1      11.292   7.047  -7.776  0.00  0.00     0.066 H 
ATOM     38  H   LIG d   1      10.931   6.163  -9.277  0.00  0.00     0.066 H 
ATOM     39  H   LIG d   1      10.046   7.658  -8.890  0.00  0.00     0.066 H 
ENDBRANCH  35  36
ENDBRANCH  23  35
ENDBRANCH   1  15
BRANCH   9  40
ATOM     40  C   LIG d   1       7.972  -3.022  -6.367  0.00  0.00    -0.033 C 
ATOM     41  H   LIG d   1       7.781  -4.010  -5.948  0.00  0.00     0.028 H 
ATOM     42  H   LIG d   1       7.672  -3.008  -7.415  0.00  0.00     0.028 H 
ATOM     43  H   LIG d   1       9.035  -2.794  -6.289  0.00  0.00     0.028 H 
ENDBRANCH   9  40
BRANCH   8  44
ATOM     44  O   LIG d   1       5.223  -3.316  -5.828  0.00  0.00    -0.422 OA
BRANCH  44  45
ATOM     45  C   LIG d   1       4.530  -3.235  -6.983  0.00  0.00     0.337 C 
ATOM     46  O   LIG d   1       3.875  -4.185  -7.368  0.00  0.00    -0.245 OA
BRANCH  45  47
ATOM     47  C   LIG d   1       4.564  -2.004  -7.772  0.00  0.00     0.024 C 
ATOM     48  C   LIG d   1       3.454  -1.245  -7.886  0.00  0.00    -0.048 C 
ATOM     49  H   LIG d   1       2.541  -1.546  -7.395  0.00  0.00     0.063 H 
ATOM     50  H   LIG d   1       5.478  -1.704  -8.263  0.00  0.00     0.069 H 
BRANCH  48  51
ATOM     51  C   LIG d   1       3.490  -0.006  -8.680  0.00  0.00    -0.025 A 
ATOM     52  C   LIG d   1       3.139   1.214  -8.094  0.00  0.00    -0.055 A 
ATOM     53  C   LIG d   1       3.174   2.371  -8.845  0.00  0.00    -0.061 A 
ATOM     54  H   LIG d   1       2.841   1.251  -7.057  0.00  0.00     0.062 H 
ATOM     55  C   LIG d   1       3.558   2.325 -10.174  0.00  0.00    -0.062 A 
ATOM     56  H   LIG d   1       2.903   3.314  -8.395  0.00  0.00     0.062 H 
ATOM     57  C   LIG d   1       3.908   1.122 -10.761  0.00  0.00    -0.061 A 
ATOM     58  H   LIG d   1       3.584   3.234 -10.757  0.00  0.00     0.062 H 
ATOM     59  C   LIG d   1       3.877  -0.044 -10.024  0.00  0.00    -0.055 A 
ATOM     60  H   LIG d   1       4.206   1.094 -11.798  0.00  0.00     0.062 H 
ATOM     61  H   LIG d   1       4.146  -0.983 -10.483  0.00  0.00     0.062 H 
ENDBRANCH  48  51
ENDBRANCH  45  47
ENDBRANCH  44  45
ENDBRANCH   8  44
TORSDOF 10
ENDMDL
MODEL 10
REMARK VINA RESULT:      -6.6     10.171     15.481
REMARK  10 active torsions:
REMARK  status: ('A' for Active; 'I' for Inactive)
REMARK    1  A    between atoms: C_1  and  C_2 
REMARK    2  A    between atoms: C_2  and  N_3 
REMARK    3  A    between atoms: C_5  and  C_14 
REMARK    4  A    between atoms: C_10  and  O_12 
REMARK    5  A    between atoms: O_12  and  C_13 
REMARK    6  A    between atoms: C_21  and  O_26 
REMARK    7  A    between atoms: C_22  and  C_25 
REMARK    8  A    between atoms: O_26  and  C_27 
REMARK    9  A    between atoms: C_27  and  C_29 
REMARK   10  A    between atoms: C_30  and  C_31 
ROOT
ATOM      1  C   LIG d   1       9.271   5.002  -4.524  0.00  0.00    -0.006 C 
ATOM      2  C   LIG d   1       9.729   5.468  -3.328  0.00  0.00     0.176 A 
ATOM      3  C   LIG d   1      10.408   4.702  -2.344  0.00  0.00     0.232 A 
ATOM      4  O   LIG d   1      10.693   3.516  -2.395  0.00  0.00    -0.283 OA
ATOM      5  C   LIG d   1      10.693   5.644  -1.248  0.00  0.00     0.068 A 
ATOM      6  C   LIG d   1      11.325   5.518  -0.011  0.00  0.00    -0.044 A 
ATOM      7  C   LIG d   1      11.443   6.606   0.806  0.00  0.00    -0.018 A 
ATOM      8  C   LIG d   1      10.923   7.837   0.415  0.00  0.00     0.138 A 
ATOM      9  C   LIG d   1      10.293   7.977  -0.810  0.00  0.00     0.035 A 
ATOM     10  C   LIG d   1      10.170   6.883  -1.656  0.00  0.00     0.146 A 
ATOM     11  O   LIG d   1       9.614   6.740  -2.878  0.00  0.00    -0.451 OA
ATOM     12  H   LIG d   1       8.657   5.632  -5.150  0.00  0.00     0.066 H 
ATOM     13  H   LIG d   1      11.724   4.563   0.297  0.00  0.00     0.063 H 
ATOM     14  H   LIG d   1      11.936   6.509   1.762  0.00  0.00     0.066 H 
ENDROOT
BRANCH   1  15
ATOM     15  C   LIG d   1       9.613   3.650  -4.960  0.00  0.00     0.004 A 
ATOM     16  C   LIG d   1      10.684   3.280  -5.746  0.00  0.00     0.013 A 
ATOM     17  N   LIG d   1      10.665   1.937  -5.933  0.00  0.00    -0.346 N 
ATOM     18  H   LIG d   1      11.425   3.955  -6.148  0.00  0.00     0.082 H 
ATOM     19  C   LIG d   1       9.581   1.373  -5.288  0.00  0.00     0.050 A 
ATOM     20  C   LIG d   1       8.876   2.409  -4.654  0.00  0.00     0.011 A 
ATOM     21  C   LIG d   1       9.120   0.065  -5.177  0.00  0.00    -0.034 A 
ATOM     22  C   LIG d   1       7.726   2.126  -3.922  0.00  0.00    -0.010 A 
ATOM     23  C   LIG d   1       7.283   0.820  -3.822  0.00  0.00     0.121 A 
ATOM     24  H   LIG d   1       7.183   2.922  -3.434  0.00  0.00     0.066 H 
ATOM     25  C   LIG d   1       7.981  -0.206  -4.451  0.00  0.00    -0.018 A 
ATOM     26  H   LIG d   1       7.628  -1.223  -4.369  0.00  0.00     0.066 H 
ATOM     27  H   LIG d   1       9.656  -0.739  -5.661  0.00  0.00     0.064 H 
BRANCH  17  28
ATOM     28  C   LIG d   1      11.654   1.190  -6.714  0.00  0.00     0.021 C 
ATOM     29  H   LIG d   1      12.615   1.702  -6.669  0.00  0.00     0.049 H 
ATOM     30  H   LIG d   1      11.757   0.185  -6.303  0.00  0.00     0.049 H 
BRANCH  28  31
ATOM     31  C   LIG d   1      11.190   1.099  -8.170  0.00  0.00    -0.047 C 
ATOM     32  H   LIG d   1      10.785   2.062  -8.482  0.00  0.00     0.025 H 
ATOM     33  H   LIG d   1      12.037   0.838  -8.804  0.00  0.00     0.025 H 
ATOM     34  H   LIG d   1      10.420   0.334  -8.259  0.00  0.00     0.025 H 
ENDBRANCH  28  31
ENDBRANCH  17  28
BRANCH  23  35
ATOM     35  O   LIG d   1       6.160   0.538  -3.108  0.00  0.00    -0.495 OA
BRANCH  35  36
ATOM     36  C   LIG d   1       5.745  -0.829  -3.066  0.00  0.00     0.079 C 
ATOM     37  H   LIG d   1       5.962  -1.245  -2.082  0.00  0.00     0.066 H 
ATOM     38  H   LIG d   1       4.674  -0.890  -3.257  0.00  0.00     0.066 H 
ATOM     39  H   LIG d   1       6.283  -1.396  -3.826  0.00  0.00     0.066 H 
ENDBRANCH  35  36
ENDBRANCH  23  35
ENDBRANCH   1  15
BRANCH   9  40
ATOM     40  C   LIG d   1       9.740   9.317  -1.226  0.00  0.00    -0.033 C 
ATOM     41  H   LIG d   1       8.886   9.569  -0.597  0.00  0.00     0.028 H 
ATOM     42  H   LIG d   1      10.511  10.079  -1.111  0.00  0.00     0.028 H 
ATOM     43  H   LIG d   1       9.424   9.273  -2.267  0.00  0.00     0.028 H 
ENDBRANCH   9  40
BRANCH   8  44
ATOM     44  O   LIG d   1      11.042   8.910   1.239  0.00  0.00    -0.422 OA
BRANCH  44  45
ATOM     45  C   LIG d   1      11.972   8.859   2.215  0.00  0.00     0.337 C 
ATOM     46  O   LIG d   1      13.094   9.280   2.010  0.00  0.00    -0.245 OA
BRANCH  45  47
ATOM     47  C   LIG d   1      11.630   8.296   3.521  0.00  0.00     0.024 C 
ATOM     48  C   LIG d   1      12.038   8.914   4.649  0.00  0.00    -0.048 C 
ATOM     49  H   LIG d   1      12.615   9.825   4.588  0.00  0.00     0.063 H 
ATOM     50  H   LIG d   1      11.053   7.385   3.582  0.00  0.00     0.069 H 
BRANCH  48  51
ATOM     51  C   LIG d   1      11.693   8.348   5.963  0.00  0.00    -0.025 A 
ATOM     52  C   LIG d   1      11.045   7.112   6.048  0.00  0.00    -0.055 A 
ATOM     53  C   LIG d   1      10.725   6.588   7.283  0.00  0.00    -0.061 A 
ATOM     54  H   LIG d   1      10.795   6.569   5.148  0.00  0.00     0.062 H 
ATOM     55  C   LIG d   1      11.045   7.283   8.436  0.00  0.00    -0.062 A 
ATOM     56  H   LIG d   1      10.224   5.634   7.350  0.00  0.00     0.062 H 
ATOM     57  C   LIG d   1      11.689   8.505   8.361  0.00  0.00    -0.061 A 
ATOM     58  H   LIG d   1      10.793   6.867   9.401  0.00  0.00     0.062 H 
ATOM     59  C   LIG d   1      12.014   9.043   7.134  0.00  0.00    -0.055 A 
ATOM     60  H   LIG d   1      11.935   9.041   9.266  0.00  0.00     0.062 H 
ATOM     61  H   LIG d   1      12.512  10.000   7.076  0.00  0.00     0.062 H 
ENDBRANCH  48  51
ENDBRANCH  45  47
ENDBRANCH  44  45
ENDBRANCH   8  44
TORSDOF 10
ENDMDL
