MODEL 1
REMARK VINA RESULT:      -5.9      0.000      0.000
REMARK  12 active torsions:
REMARK  status: ('A' for Active; 'I' for Inactive)
REMARK    1  A    between atoms: C_1  and  C_2 
REMARK    2  A    between atoms: C_5  and  C_8 
REMARK    3  A    between atoms: C_8  and  C_10 
REMARK    4  A    between atoms: C_8  and  C_18 
REMARK    5  A    between atoms: C_10  and  C_11 
REMARK    6  A    between atoms: C_11  and  N_55 
REMARK    7  A    between atoms: C_12  and  C_13 
REMARK    8  A    between atoms: C_12  and  N_55 
REMARK    9  A    between atoms: C_21  and  O_24 
REMARK   10  A    between atoms: O_24  and  C_25 
REMARK   11  A    between atoms: C_25  and  C_26 
REMARK   12  A    between atoms: C_25  and  C_27 
ROOT
ATOM      1  C   LIG d   1       5.077  -1.100  -5.625  0.00  0.00     0.014 C 
ATOM      2  H   LIG d   1       4.525  -0.880  -4.712  0.00  0.00     0.040 H 
ENDROOT
BRANCH   1   3
ATOM      3  C   LIG d   1       4.156  -0.971  -6.811  0.00  0.00    -0.040 A 
ATOM      4  C   LIG d   1       4.129  -1.959  -7.777  0.00  0.00    -0.058 A 
ATOM      5  C   LIG d   1       3.283  -1.840  -8.864  0.00  0.00    -0.059 A 
ATOM      6  H   LIG d   1       4.767  -2.825  -7.681  0.00  0.00     0.062 H 
ATOM      7  C   LIG d   1       2.465  -0.733  -8.986  0.00  0.00    -0.050 A 
ATOM      8  H   LIG d   1       3.261  -2.612  -9.619  0.00  0.00     0.062 H 
ATOM      9  C   LIG d   1       2.493   0.257  -8.020  0.00  0.00    -0.059 A 
ATOM     10  C   LIG d   1       3.334   0.135  -6.930  0.00  0.00    -0.058 A 
ATOM     11  H   LIG d   1       1.854   1.122  -8.115  0.00  0.00     0.062 H 
ATOM     12  H   LIG d   1       3.352   0.905  -6.174  0.00  0.00     0.062 H 
BRANCH   7  13
ATOM     13  C   LIG d   1       1.543  -0.602 -10.171  0.00  0.00    -0.040 C 
ATOM     14  H   LIG d   1       0.719   0.063  -9.918  0.00  0.00     0.028 H 
ATOM     15  H   LIG d   1       2.094  -0.194 -11.017  0.00  0.00     0.028 H 
ATOM     16  H   LIG d   1       1.149  -1.584 -10.434  0.00  0.00     0.028 H 
ENDBRANCH   7  13
ENDBRANCH   1   3
BRANCH   1  17
ATOM     17  C   LIG d   1       5.627  -2.526  -5.558  0.00  0.00    -0.002 C 
ATOM     18  H   LIG d   1       6.715  -2.499  -5.609  0.00  0.00     0.033 H 
ATOM     19  H   LIG d   1       5.238  -3.104  -6.396  0.00  0.00     0.033 H 
BRANCH  17  20
ATOM     20  C   LIG d   1       5.194  -3.179  -4.243  0.00  0.00    -0.032 C 
ATOM     21  H   LIG d   1       5.893  -2.903  -3.453  0.00  0.00     0.081 H 
ATOM     22  H   LIG d   1       5.187  -4.262  -4.361  0.00  0.00     0.081 H 
BRANCH  20  23
ATOM     23  N   LIG d   1       3.840  -2.708  -3.894  0.00  0.00     0.233 N 
ATOM     24  H   LIG d   1       3.163  -3.459  -4.078  0.00  0.00     0.202 HD
ATOM     25  H   LIG d   1       3.608  -1.889  -4.468  0.00  0.00     0.202 HD
BRANCH  23  26
ATOM     26  C   LIG d   1       3.780  -2.336  -2.468  0.00  0.00     0.026 C 
ATOM     27  H   LIG d   1       4.608  -2.800  -1.933  0.00  0.00     0.090 H 
ATOM     28  H   LIG d   1       2.837  -2.675  -2.040  0.00  0.00     0.090 H 
BRANCH  26  29
ATOM     29  C   LIG d   1       3.878  -0.837  -2.344  0.00  0.00     0.149 A 
ATOM     30  O   LIG d   1       4.775  -0.167  -1.604  0.00  0.00    -0.463 OA
ATOM     31  C   LIG d   1       4.569   1.153  -1.736  0.00  0.00     0.092 A 
ATOM     32  C   LIG d   1       3.523   1.339  -2.561  0.00  0.00    -0.024 A 
ATOM     33  H   LIG d   1       5.142   1.933  -1.256  0.00  0.00     0.103 H 
ATOM     34  C   LIG d   1       3.078   0.056  -2.954  0.00  0.00    -0.015 A 
ATOM     35  H   LIG d   1       3.104   2.288  -2.866  0.00  0.00     0.065 H 
ATOM     36  H   LIG d   1       2.253  -0.164  -3.615  0.00  0.00     0.065 H 
ENDBRANCH  26  29
ENDBRANCH  23  26
ENDBRANCH  20  23
ENDBRANCH  17  20
ENDBRANCH   1  17
BRANCH   1  37
ATOM     37  C   LIG d   1       6.219  -0.127  -5.768  0.00  0.00    -0.040 A 
ATOM     38  C   LIG d   1       6.802   0.423  -4.642  0.00  0.00    -0.054 A 
ATOM     39  C   LIG d   1       7.849   1.315  -4.771  0.00  0.00    -0.020 A 
ATOM     40  H   LIG d   1       6.439   0.156  -3.660  0.00  0.00     0.062 H 
ATOM     41  C   LIG d   1       8.316   1.658  -6.031  0.00  0.00     0.121 A 
ATOM     42  H   LIG d   1       8.305   1.745  -3.890  0.00  0.00     0.065 H 
ATOM     43  C   LIG d   1       7.729   1.105  -7.160  0.00  0.00    -0.020 A 
ATOM     44  C   LIG d   1       6.686   0.210  -7.026  0.00  0.00    -0.054 A 
ATOM     45  H   LIG d   1       8.090   1.371  -8.142  0.00  0.00     0.065 H 
ATOM     46  H   LIG d   1       6.231  -0.225  -7.904  0.00  0.00     0.062 H 
BRANCH  41  47
ATOM     47  O   LIG d   1       9.346   2.535  -6.160  0.00  0.00    -0.489 OA
BRANCH  47  48
ATOM     48  C   LIG d   1       9.771   3.215  -4.976  0.00  0.00     0.095 C 
ATOM     49  H   LIG d   1       9.227   2.823  -4.117  0.00  0.00     0.073 H 
BRANCH  48  50
ATOM     50  C   LIG d   1      11.272   2.994  -4.774  0.00  0.00    -0.028 C 
ATOM     51  H   LIG d   1      11.617   3.593  -3.930  0.00  0.00     0.026 H 
ATOM     52  H   LIG d   1      11.460   1.940  -4.573  0.00  0.00     0.026 H 
ATOM     53  H   LIG d   1      11.807   3.293  -5.675  0.00  0.00     0.026 H 
ENDBRANCH  48  50
BRANCH  48  54
ATOM     54  C   LIG d   1       9.491   4.712  -5.119  0.00  0.00    -0.028 C 
ATOM     55  H   LIG d   1       8.414   4.880  -5.132  0.00  0.00     0.026 H 
ATOM     56  H   LIG d   1       9.932   5.246  -4.278  0.00  0.00     0.026 H 
ATOM     57  H   LIG d   1       9.926   5.076  -6.049  0.00  0.00     0.026 H 
ENDBRANCH  48  54
ENDBRANCH  47  48
ENDBRANCH  41  47
ENDBRANCH   1  37
TORSDOF 12
ENDMDL
MODEL 2
REMARK VINA RESULT:      -5.9      2.765      5.329
REMARK  12 active torsions:
REMARK  status: ('A' for Active; 'I' for Inactive)
REMARK    1  A    between atoms: C_1  and  C_2 
REMARK    2  A    between atoms: C_5  and  C_8 
REMARK    3  A    between atoms: C_8  and  C_10 
REMARK    4  A    between atoms: C_8  and  C_18 
REMARK    5  A    between atoms: C_10  and  C_11 
REMARK    6  A    between atoms: C_11  and  N_55 
REMARK    7  A    between atoms: C_12  and  C_13 
REMARK    8  A    between atoms: C_12  and  N_55 
REMARK    9  A    between atoms: C_21  and  O_24 
REMARK   10  A    between atoms: O_24  and  C_25 
REMARK   11  A    between atoms: C_25  and  C_26 
REMARK   12  A    between atoms: C_25  and  C_27 
ROOT
ATOM      1  C   LIG d   1       6.340  -2.592  -5.086  0.00  0.00     0.014 C 
ATOM      2  H   LIG d   1       6.002  -2.282  -4.097  0.00  0.00     0.040 H 
ENDROOT
BRANCH   1   3
ATOM      3  C   LIG d   1       6.096  -4.069  -5.259  0.00  0.00    -0.040 A 
ATOM      4  C   LIG d   1       4.804  -4.560  -5.267  0.00  0.00    -0.058 A 
ATOM      5  C   LIG d   1       4.581  -5.915  -5.425  0.00  0.00    -0.059 A 
ATOM      6  H   LIG d   1       3.969  -3.885  -5.151  0.00  0.00     0.062 H 
ATOM      7  C   LIG d   1       5.649  -6.779  -5.575  0.00  0.00    -0.050 A 
ATOM      8  H   LIG d   1       3.572  -6.299  -5.432  0.00  0.00     0.062 H 
ATOM      9  C   LIG d   1       6.942  -6.287  -5.566  0.00  0.00    -0.059 A 
ATOM     10  C   LIG d   1       7.165  -4.931  -5.414  0.00  0.00    -0.058 A 
ATOM     11  H   LIG d   1       7.778  -6.962  -5.684  0.00  0.00     0.062 H 
ATOM     12  H   LIG d   1       8.174  -4.548  -5.411  0.00  0.00     0.062 H 
BRANCH   7  13
ATOM     13  C   LIG d   1       5.407  -8.257  -5.748  0.00  0.00    -0.040 C 
ATOM     14  H   LIG d   1       6.256  -8.706  -6.263  0.00  0.00     0.028 H 
ATOM     15  H   LIG d   1       5.286  -8.722  -4.771  0.00  0.00     0.028 H 
ATOM     16  H   LIG d   1       4.503  -8.409  -6.338  0.00  0.00     0.028 H 
ENDBRANCH   7  13
ENDBRANCH   1   3
BRANCH   1  17
ATOM     17  C   LIG d   1       7.835  -2.301  -5.229  0.00  0.00    -0.002 C 
ATOM     18  H   LIG d   1       8.156  -2.536  -6.243  0.00  0.00     0.033 H 
ATOM     19  H   LIG d   1       8.392  -2.913  -4.520  0.00  0.00     0.033 H 
BRANCH  17  20
ATOM     20  C   LIG d   1       8.097  -0.820  -4.941  0.00  0.00    -0.032 C 
ATOM     21  H   LIG d   1       7.550  -0.209  -5.659  0.00  0.00     0.081 H 
ATOM     22  H   LIG d   1       9.164  -0.617  -5.028  0.00  0.00     0.081 H 
BRANCH  20  23
ATOM     23  N   LIG d   1       7.641  -0.506  -3.574  0.00  0.00     0.233 N 
ATOM     24  H   LIG d   1       8.427  -0.614  -2.922  0.00  0.00     0.202 HD
ATOM     25  H   LIG d   1       6.887  -1.153  -3.312  0.00  0.00     0.202 HD
BRANCH  23  26
ATOM     26  C   LIG d   1       7.139   0.879  -3.507  0.00  0.00     0.026 C 
ATOM     27  H   LIG d   1       7.186   1.334  -4.497  0.00  0.00     0.090 H 
ATOM     28  H   LIG d   1       7.749   1.457  -2.813  0.00  0.00     0.090 H 
BRANCH  26  29
ATOM     29  C   LIG d   1       5.710   0.865  -3.028  0.00  0.00     0.149 A 
ATOM     30  O   LIG d   1       4.806   1.836  -3.227  0.00  0.00    -0.463 OA
ATOM     31  C   LIG d   1       3.638   1.483  -2.666  0.00  0.00     0.092 A 
ATOM     32  C   LIG d   1       3.791   0.276  -2.091  0.00  0.00    -0.024 A 
ATOM     33  H   LIG d   1       2.731   2.070  -2.670  0.00  0.00     0.103 H 
ATOM     34  C   LIG d   1       5.127  -0.122  -2.324  0.00  0.00    -0.015 A 
ATOM     35  H   LIG d   1       3.037  -0.281  -1.553  0.00  0.00     0.065 H 
ATOM     36  H   LIG d   1       5.590  -1.042  -1.999  0.00  0.00     0.065 H 
ENDBRANCH  26  29
ENDBRANCH  23  26
ENDBRANCH  20  23
ENDBRANCH  17  20
ENDBRANCH   1  17
BRANCH   1  37
ATOM     37  C   LIG d   1       5.577  -1.830  -6.139  0.00  0.00    -0.040 A 
ATOM     38  C   LIG d   1       5.930  -1.949  -7.469  0.00  0.00    -0.054 A 
ATOM     39  C   LIG d   1       5.232  -1.252  -8.436  0.00  0.00    -0.020 A 
ATOM     40  H   LIG d   1       6.754  -2.588  -7.755  0.00  0.00     0.062 H 
ATOM     41  C   LIG d   1       4.174  -0.432  -8.070  0.00  0.00     0.121 A 
ATOM     42  H   LIG d   1       5.508  -1.345  -9.476  0.00  0.00     0.065 H 
ATOM     43  C   LIG d   1       3.821  -0.314  -6.734  0.00  0.00    -0.020 A 
ATOM     44  C   LIG d   1       4.519  -1.017  -5.772  0.00  0.00    -0.054 A 
ATOM     45  H   LIG d   1       2.999   0.324  -6.446  0.00  0.00     0.065 H 
ATOM     46  H   LIG d   1       4.242  -0.930  -4.732  0.00  0.00     0.062 H 
BRANCH  41  47
ATOM     47  O   LIG d   1       3.485   0.255  -9.020  0.00  0.00    -0.489 OA
BRANCH  47  48
ATOM     48  C   LIG d   1       4.227   1.180  -9.817  0.00  0.00     0.095 C 
ATOM     49  H   LIG d   1       5.292   1.056  -9.622  0.00  0.00     0.073 H 
BRANCH  48  50
ATOM     50  C   LIG d   1       3.947   0.915 -11.298  0.00  0.00    -0.028 C 
ATOM     51  H   LIG d   1       4.586   0.105 -11.650  0.00  0.00     0.026 H 
ATOM     52  H   LIG d   1       2.901   0.635 -11.425  0.00  0.00     0.026 H 
ATOM     53  H   LIG d   1       4.153   1.817 -11.874  0.00  0.00     0.026 H 
ENDBRANCH  48  50
BRANCH  48  54
ATOM     54  C   LIG d   1       3.806   2.608  -9.467  0.00  0.00    -0.028 C 
ATOM     55  H   LIG d   1       4.604   3.299  -9.739  0.00  0.00     0.026 H 
ATOM     56  H   LIG d   1       2.900   2.865 -10.015  0.00  0.00     0.026 H 
ATOM     57  H   LIG d   1       3.615   2.679  -8.396  0.00  0.00     0.026 H 
ENDBRANCH  48  54
ENDBRANCH  47  48
ENDBRANCH  41  47
ENDBRANCH   1  37
TORSDOF 12
ENDMDL
MODEL 3
REMARK VINA RESULT:      -5.8      2.907      5.725
REMARK  12 active torsions:
REMARK  status: ('A' for Active; 'I' for Inactive)
REMARK    1  A    between atoms: C_1  and  C_2 
REMARK    2  A    between atoms: C_5  and  C_8 
REMARK    3  A    between atoms: C_8  and  C_10 
REMARK    4  A    between atoms: C_8  and  C_18 
REMARK    5  A    between atoms: C_10  and  C_11 
REMARK    6  A    between atoms: C_11  and  N_55 
REMARK    7  A    between atoms: C_12  and  C_13 
REMARK    8  A    between atoms: C_12  and  N_55 
REMARK    9  A    between atoms: C_21  and  O_24 
REMARK   10  A    between atoms: O_24  and  C_25 
REMARK   11  A    between atoms: C_25  and  C_26 
REMARK   12  A    between atoms: C_25  and  C_27 
ROOT
ATOM      1  C   LIG d   1       6.343  -0.206  -5.222  0.00  0.00     0.014 C 
ATOM      2  H   LIG d   1       5.598   0.038  -4.465  0.00  0.00     0.040 H 
ENDROOT
BRANCH   1   3
ATOM      3  C   LIG d   1       7.333   0.925  -5.334  0.00  0.00    -0.040 A 
ATOM      4  C   LIG d   1       7.704   1.633  -4.207  0.00  0.00    -0.058 A 
ATOM      5  C   LIG d   1       8.613   2.670  -4.310  0.00  0.00    -0.059 A 
ATOM      6  H   LIG d   1       7.286   1.375  -3.245  0.00  0.00     0.062 H 
ATOM      7  C   LIG d   1       9.149   3.000  -5.540  0.00  0.00    -0.050 A 
ATOM      8  H   LIG d   1       8.904   3.223  -3.429  0.00  0.00     0.062 H 
ATOM      9  C   LIG d   1       8.776   2.292  -6.668  0.00  0.00    -0.059 A 
ATOM     10  C   LIG d   1       7.872   1.251  -6.564  0.00  0.00    -0.058 A 
ATOM     11  H   LIG d   1       9.195   2.549  -7.630  0.00  0.00     0.062 H 
ATOM     12  H   LIG d   1       7.586   0.696  -7.445  0.00  0.00     0.062 H 
BRANCH   7  13
ATOM     13  C   LIG d   1      10.139   4.130  -5.653  0.00  0.00    -0.040 C 
ATOM     14  H   LIG d   1      10.341   4.536  -4.662  0.00  0.00     0.028 H 
ATOM     15  H   LIG d   1      11.066   3.759  -6.090  0.00  0.00     0.028 H 
ATOM     16  H   LIG d   1       9.726   4.913  -6.289  0.00  0.00     0.028 H 
ENDBRANCH   7  13
ENDBRANCH   1   3
BRANCH   1  17
ATOM     17  C   LIG d   1       5.650  -0.414  -6.570  0.00  0.00    -0.002 C 
ATOM     18  H   LIG d   1       6.119  -1.245  -7.095  0.00  0.00     0.033 H 
ATOM     19  H   LIG d   1       5.743   0.493  -7.169  0.00  0.00     0.033 H 
BRANCH  17  20
ATOM     20  C   LIG d   1       4.169  -0.724  -6.341  0.00  0.00    -0.032 C 
ATOM     21  H   LIG d   1       4.065  -1.381  -5.477  0.00  0.00     0.081 H 
ATOM     22  H   LIG d   1       3.760  -1.216  -7.223  0.00  0.00     0.081 H 
BRANCH  20  23
ATOM     23  N   LIG d   1       3.444   0.537  -6.094  0.00  0.00     0.233 N 
ATOM     24  H   LIG d   1       2.890   0.777  -6.925  0.00  0.00     0.202 HD
ATOM     25  H   LIG d   1       4.122   1.285  -5.906  0.00  0.00     0.202 HD
BRANCH  23  26
ATOM     26  C   LIG d   1       2.545   0.392  -4.935  0.00  0.00     0.026 C 
ATOM     27  H   LIG d   1       2.017  -0.561  -4.997  0.00  0.00     0.090 H 
ATOM     28  H   LIG d   1       1.821   1.207  -4.927  0.00  0.00     0.090 H 
BRANCH  26  29
ATOM     29  C   LIG d   1       3.361   0.433  -3.668  0.00  0.00     0.149 A 
ATOM     30  O   LIG d   1       4.066   1.484  -3.222  0.00  0.00    -0.463 OA
ATOM     31  C   LIG d   1       4.663   1.163  -2.063  0.00  0.00     0.092 A 
ATOM     32  C   LIG d   1       4.350  -0.109  -1.761  0.00  0.00    -0.024 A 
ATOM     33  H   LIG d   1       5.294   1.815  -1.475  0.00  0.00     0.103 H 
ATOM     34  C   LIG d   1       3.510  -0.581  -2.796  0.00  0.00    -0.015 A 
ATOM     35  H   LIG d   1       4.677  -0.665  -0.894  0.00  0.00     0.065 H 
ATOM     36  H   LIG d   1       3.072  -1.565  -2.871  0.00  0.00     0.065 H 
ENDBRANCH  26  29
ENDBRANCH  23  26
ENDBRANCH  20  23
ENDBRANCH  17  20
ENDBRANCH   1  17
BRANCH   1  37
ATOM     37  C   LIG d   1       7.065  -1.468  -4.828  0.00  0.00    -0.040 A 
ATOM     38  C   LIG d   1       7.586  -2.299  -5.802  0.00  0.00    -0.054 A 
ATOM     39  C   LIG d   1       8.248  -3.456  -5.443  0.00  0.00    -0.020 A 
ATOM     40  H   LIG d   1       7.475  -2.042  -6.846  0.00  0.00     0.062 H 
ATOM     41  C   LIG d   1       8.391  -3.785  -4.103  0.00  0.00     0.121 A 
ATOM     42  H   LIG d   1       8.656  -4.105  -6.205  0.00  0.00     0.065 H 
ATOM     43  C   LIG d   1       7.867  -2.951  -3.127  0.00  0.00    -0.020 A 
ATOM     44  C   LIG d   1       7.210  -1.792  -3.491  0.00  0.00    -0.054 A 
ATOM     45  H   LIG d   1       7.976  -3.205  -2.083  0.00  0.00     0.065 H 
ATOM     46  H   LIG d   1       6.805  -1.139  -2.731  0.00  0.00     0.062 H 
BRANCH  41  47
ATOM     47  O   LIG d   1       9.042  -4.924  -3.747  0.00  0.00    -0.489 OA
BRANCH  47  48
ATOM     48  C   LIG d   1      10.005  -4.819  -2.696  0.00  0.00     0.095 C 
ATOM     49  H   LIG d   1       9.912  -3.846  -2.214  0.00  0.00     0.073 H 
BRANCH  48  50
ATOM     50  C   LIG d   1       9.755  -5.923  -1.665  0.00  0.00    -0.028 C 
ATOM     51  H   LIG d   1       8.786  -6.385  -1.855  0.00  0.00     0.026 H 
ATOM     52  H   LIG d   1      10.539  -6.677  -1.744  0.00  0.00     0.026 H 
ATOM     53  H   LIG d   1       9.764  -5.494  -0.664  0.00  0.00     0.026 H 
ENDBRANCH  48  50
BRANCH  48  54
ATOM     54  C   LIG d   1      11.412  -4.971  -3.274  0.00  0.00    -0.028 C 
ATOM     55  H   LIG d   1      12.146  -4.868  -2.476  0.00  0.00     0.026 H 
ATOM     56  H   LIG d   1      11.512  -5.954  -3.734  0.00  0.00     0.026 H 
ATOM     57  H   LIG d   1      11.582  -4.200  -4.025  0.00  0.00     0.026 H 
ENDBRANCH  48  54
ENDBRANCH  47  48
ENDBRANCH  41  47
ENDBRANCH   1  37
TORSDOF 12
ENDMDL
MODEL 4
REMARK VINA RESULT:      -5.8      2.309      5.562
REMARK  12 active torsions:
REMARK  status: ('A' for Active; 'I' for Inactive)
REMARK    1  A    between atoms: C_1  and  C_2 
REMARK    2  A    between atoms: C_5  and  C_8 
REMARK    3  A    between atoms: C_8  and  C_10 
REMARK    4  A    between atoms: C_8  and  C_18 
REMARK    5  A    between atoms: C_10  and  C_11 
REMARK    6  A    between atoms: C_11  and  N_55 
REMARK    7  A    between atoms: C_12  and  C_13 
REMARK    8  A    between atoms: C_12  and  N_55 
REMARK    9  A    between atoms: C_21  and  O_24 
REMARK   10  A    between atoms: O_24  and  C_25 
REMARK   11  A    between atoms: C_25  and  C_26 
REMARK   12  A    between atoms: C_25  and  C_27 
ROOT
ATOM      1  C   LIG d   1       3.967  -0.041  -8.984  0.00  0.00     0.014 C 
ATOM      2  H   LIG d   1       4.991  -0.324  -9.229  0.00  0.00     0.040 H 
ENDROOT
BRANCH   1   3
ATOM      3  C   LIG d   1       3.011  -1.005  -9.637  0.00  0.00    -0.040 A 
ATOM      4  C   LIG d   1       3.098  -2.357  -9.365  0.00  0.00    -0.058 A 
ATOM      5  C   LIG d   1       2.220  -3.241  -9.964  0.00  0.00    -0.059 A 
ATOM      6  H   LIG d   1       3.852  -2.723  -8.684  0.00  0.00     0.062 H 
ATOM      7  C   LIG d   1       1.255  -2.773 -10.835  0.00  0.00    -0.050 A 
ATOM      8  H   LIG d   1       2.288  -4.298  -9.752  0.00  0.00     0.062 H 
ATOM      9  C   LIG d   1       1.167  -1.420 -11.108  0.00  0.00    -0.059 A 
ATOM     10  C   LIG d   1       2.042  -0.536 -10.504  0.00  0.00    -0.058 A 
ATOM     11  H   LIG d   1       0.413  -1.054 -11.789  0.00  0.00     0.062 H 
ATOM     12  H   LIG d   1       1.970   0.521 -10.714  0.00  0.00     0.062 H 
BRANCH   7  13
ATOM     13  C   LIG d   1       0.297  -3.737 -11.489  0.00  0.00    -0.040 C 
ATOM     14  H   LIG d   1      -0.581  -3.861 -10.856  0.00  0.00     0.028 H 
ATOM     15  H   LIG d   1      -0.007  -3.345 -12.459  0.00  0.00     0.028 H 
ATOM     16  H   LIG d   1       0.788  -4.701 -11.624  0.00  0.00     0.028 H 
ENDBRANCH   7  13
ENDBRANCH   1   3
BRANCH   1  17
ATOM     17  C   LIG d   1       3.693   1.375  -9.495  0.00  0.00    -0.002 C 
ATOM     18  H   LIG d   1       2.828   1.787  -8.978  0.00  0.00     0.033 H 
ATOM     19  H   LIG d   1       3.495   1.341 -10.566  0.00  0.00     0.033 H 
BRANCH  17  20
ATOM     20  C   LIG d   1       4.915   2.258  -9.230  0.00  0.00    -0.032 C 
ATOM     21  H   LIG d   1       4.887   2.619  -8.202  0.00  0.00     0.081 H 
ATOM     22  H   LIG d   1       4.904   3.107  -9.914  0.00  0.00     0.081 H 
BRANCH  20  23
ATOM     23  N   LIG d   1       6.140   1.464  -9.444  0.00  0.00     0.233 N 
ATOM     24  H   LIG d   1       6.325   1.391 -10.451  0.00  0.00     0.202 HD
ATOM     25  H   LIG d   1       6.007   0.525  -9.051  0.00  0.00     0.202 HD
BRANCH  23  26
ATOM     26  C   LIG d   1       7.289   2.110  -8.783  0.00  0.00     0.026 C 
ATOM     27  H   LIG d   1       7.015   3.117  -8.471  0.00  0.00     0.090 H 
ATOM     28  H   LIG d   1       8.129   2.161  -9.475  0.00  0.00     0.090 H 
BRANCH  26  29
ATOM     29  C   LIG d   1       7.683   1.299  -7.574  0.00  0.00     0.149 A 
ATOM     30  O   LIG d   1       7.543   1.679  -6.294  0.00  0.00    -0.463 OA
ATOM     31  C   LIG d   1       7.996   0.707  -5.487  0.00  0.00     0.092 A 
ATOM     32  C   LIG d   1       8.442  -0.307  -6.250  0.00  0.00    -0.024 A 
ATOM     33  H   LIG d   1       8.005   0.735  -4.407  0.00  0.00     0.103 H 
ATOM     34  C   LIG d   1       8.241   0.075  -7.596  0.00  0.00    -0.015 A 
ATOM     35  H   LIG d   1       8.872  -1.235  -5.901  0.00  0.00     0.065 H 
ATOM     36  H   LIG d   1       8.488  -0.505  -8.474  0.00  0.00     0.065 H 
ENDBRANCH  26  29
ENDBRANCH  23  26
ENDBRANCH  20  23
ENDBRANCH  17  20
ENDBRANCH   1  17
BRANCH   1  37
ATOM     37  C   LIG d   1       3.779  -0.081  -7.490  0.00  0.00    -0.040 A 
ATOM     38  C   LIG d   1       4.726  -0.692  -6.691  0.00  0.00    -0.054 A 
ATOM     39  C   LIG d   1       4.556  -0.730  -5.320  0.00  0.00    -0.020 A 
ATOM     40  H   LIG d   1       5.602  -1.142  -7.138  0.00  0.00     0.062 H 
ATOM     41  C   LIG d   1       3.433  -0.153  -4.746  0.00  0.00     0.121 A 
ATOM     42  H   LIG d   1       5.297  -1.208  -4.696  0.00  0.00     0.065 H 
ATOM     43  C   LIG d   1       2.483   0.459  -5.549  0.00  0.00    -0.020 A 
ATOM     44  C   LIG d   1       2.660   0.500  -6.919  0.00  0.00    -0.054 A 
ATOM     45  H   LIG d   1       1.607   0.909  -5.105  0.00  0.00     0.065 H 
ATOM     46  H   LIG d   1       1.923   0.980  -7.545  0.00  0.00     0.062 H 
BRANCH  41  47
ATOM     47  O   LIG d   1       3.263  -0.189  -3.398  0.00  0.00    -0.489 OA
BRANCH  47  48
ATOM     48  C   LIG d   1       4.443  -0.299  -2.598  0.00  0.00     0.095 C 
ATOM     49  H   LIG d   1       5.320  -0.318  -3.245  0.00  0.00     0.073 H 
BRANCH  48  50
ATOM     50  C   LIG d   1       4.532   0.902  -1.654  0.00  0.00    -0.028 C 
ATOM     51  H   LIG d   1       3.593   1.457  -1.681  0.00  0.00     0.026 H 
ATOM     52  H   LIG d   1       4.719   0.553  -0.639  0.00  0.00     0.026 H 
ATOM     53  H   LIG d   1       5.347   1.553  -1.970  0.00  0.00     0.026 H 
ENDBRANCH  48  50
BRANCH  48  54
ATOM     54  C   LIG d   1       4.385  -1.588  -1.778  0.00  0.00    -0.028 C 
ATOM     55  H   LIG d   1       3.347  -1.900  -1.664  0.00  0.00     0.026 H 
ATOM     56  H   LIG d   1       4.945  -2.370  -2.290  0.00  0.00     0.026 H 
ATOM     57  H   LIG d   1       4.822  -1.414  -0.795  0.00  0.00     0.026 H 
ENDBRANCH  48  54
ENDBRANCH  47  48
ENDBRANCH  41  47
ENDBRANCH   1  37
TORSDOF 12
ENDMDL
MODEL 5
REMARK VINA RESULT:      -5.8      2.914      5.821
REMARK  12 active torsions:
REMARK  status: ('A' for Active; 'I' for Inactive)
REMARK    1  A    between atoms: C_1  and  C_2 
REMARK    2  A    between atoms: C_5  and  C_8 
REMARK    3  A    between atoms: C_8  and  C_10 
REMARK    4  A    between atoms: C_8  and  C_18 
REMARK    5  A    between atoms: C_10  and  C_11 
REMARK    6  A    between atoms: C_11  and  N_55 
REMARK    7  A    between atoms: C_12  and  C_13 
REMARK    8  A    between atoms: C_12  and  N_55 
REMARK    9  A    between atoms: C_21  and  O_24 
REMARK   10  A    between atoms: O_24  and  C_25 
REMARK   11  A    between atoms: C_25  and  C_26 
REMARK   12  A    between atoms: C_25  and  C_27 
ROOT
ATOM      1  C   LIG d   1       8.638   1.254  -5.121  0.00  0.00     0.014 C 
ATOM      2  H   LIG d   1       9.409   0.508  -5.312  0.00  0.00     0.040 H 
ENDROOT
BRANCH   1   3
ATOM      3  C   LIG d   1       7.549   0.645  -4.277  0.00  0.00    -0.040 A 
ATOM      4  C   LIG d   1       7.459  -0.728  -4.148  0.00  0.00    -0.058 A 
ATOM      5  C   LIG d   1       6.460  -1.286  -3.373  0.00  0.00    -0.059 A 
ATOM      6  H   LIG d   1       8.171  -1.364  -4.652  0.00  0.00     0.062 H 
ATOM      7  C   LIG d   1       5.550  -0.472  -2.727  0.00  0.00    -0.050 A 
ATOM      8  H   LIG d   1       6.390  -2.359  -3.272  0.00  0.00     0.062 H 
ATOM      9  C   LIG d   1       5.638   0.902  -2.857  0.00  0.00    -0.059 A 
ATOM     10  C   LIG d   1       6.641   1.461  -3.627  0.00  0.00    -0.058 A 
ATOM     11  H   LIG d   1       4.927   1.540  -2.352  0.00  0.00     0.062 H 
ATOM     12  H   LIG d   1       6.712   2.534  -3.724  0.00  0.00     0.062 H 
BRANCH   7  13
ATOM     13  C   LIG d   1       4.460  -1.080  -1.882  0.00  0.00    -0.040 C 
ATOM     14  H   LIG d   1       4.758  -2.080  -1.570  0.00  0.00     0.028 H 
ATOM     15  H   LIG d   1       4.293  -0.459  -1.002  0.00  0.00     0.028 H 
ATOM     16  H   LIG d   1       3.540  -1.139  -2.464  0.00  0.00     0.028 H 
ENDBRANCH   7  13
ENDBRANCH   1   3
BRANCH   1  17
ATOM     17  C   LIG d   1       8.048   1.730  -6.451  0.00  0.00    -0.002 C 
ATOM     18  H   LIG d   1       8.485   2.691  -6.719  0.00  0.00     0.033 H 
ATOM     19  H   LIG d   1       6.968   1.837  -6.351  0.00  0.00     0.033 H 
BRANCH  17  20
ATOM     20  C   LIG d   1       8.360   0.704  -7.543  0.00  0.00    -0.032 C 
ATOM     21  H   LIG d   1       8.762  -0.201  -7.087  0.00  0.00     0.081 H 
ATOM     22  H   LIG d   1       9.094   1.120  -8.233  0.00  0.00     0.081 H 
BRANCH  20  23
ATOM     23  N   LIG d   1       7.119   0.384  -8.273  0.00  0.00     0.233 N 
ATOM     24  H   LIG d   1       6.420   0.025  -7.612  0.00  0.00     0.202 HD
ATOM     25  H   LIG d   1       7.319  -0.332  -8.982  0.00  0.00     0.202 HD
BRANCH  23  26
ATOM     26  C   LIG d   1       6.589   1.590  -8.935  0.00  0.00     0.026 C 
ATOM     27  H   LIG d   1       6.829   1.560  -9.998  0.00  0.00     0.090 H 
ATOM     28  H   LIG d   1       7.034   2.479  -8.488  0.00  0.00     0.090 H 
BRANCH  26  29
ATOM     29  C   LIG d   1       5.093   1.633  -8.759  0.00  0.00     0.149 A 
ATOM     30  O   LIG d   1       4.374   0.837  -7.951  0.00  0.00    -0.463 OA
ATOM     31  C   LIG d   1       3.074   1.161  -8.045  0.00  0.00     0.092 A 
ATOM     32  C   LIG d   1       2.949   2.168  -8.927  0.00  0.00    -0.024 A 
ATOM     33  H   LIG d   1       2.265   0.688  -7.508  0.00  0.00     0.103 H 
ATOM     34  C   LIG d   1       4.251   2.473  -9.388  0.00  0.00    -0.015 A 
ATOM     35  H   LIG d   1       2.030   2.652  -9.227  0.00  0.00     0.065 H 
ATOM     36  H   LIG d   1       4.518   3.234 -10.106  0.00  0.00     0.065 H 
ENDBRANCH  26  29
ENDBRANCH  23  26
ENDBRANCH  20  23
ENDBRANCH  17  20
ENDBRANCH   1  17
BRANCH   1  37
ATOM     37  C   LIG d   1       9.243   2.426  -4.392  0.00  0.00    -0.040 A 
ATOM     38  C   LIG d   1       8.986   3.714  -4.822  0.00  0.00    -0.054 A 
ATOM     39  C   LIG d   1       9.539   4.790  -4.155  0.00  0.00    -0.020 A 
ATOM     40  H   LIG d   1       8.351   3.881  -5.681  0.00  0.00     0.062 H 
ATOM     41  C   LIG d   1      10.353   4.576  -3.052  0.00  0.00     0.121 A 
ATOM     42  H   LIG d   1       9.338   5.796  -4.490  0.00  0.00     0.065 H 
ATOM     43  C   LIG d   1      10.610   3.282  -2.622  0.00  0.00    -0.020 A 
ATOM     44  C   LIG d   1      10.050   2.210  -3.290  0.00  0.00    -0.054 A 
ATOM     45  H   LIG d   1      11.244   3.113  -1.765  0.00  0.00     0.065 H 
ATOM     46  H   LIG d   1      10.246   1.203  -2.953  0.00  0.00     0.062 H 
BRANCH  41  47
ATOM     47  O   LIG d   1      10.899   5.633  -2.394  0.00  0.00    -0.489 OA
BRANCH  47  48
ATOM     48  C   LIG d   1      10.278   6.024  -1.167  0.00  0.00     0.095 C 
ATOM     49  H   LIG d   1       9.538   5.276  -0.879  0.00  0.00     0.073 H 
BRANCH  48  50
ATOM     50  C   LIG d   1      11.340   6.137  -0.072  0.00  0.00    -0.028 C 
ATOM     51  H   LIG d   1      11.079   5.479   0.758  0.00  0.00     0.026 H 
ATOM     52  H   LIG d   1      12.310   5.846  -0.475  0.00  0.00     0.026 H 
ATOM     53  H   LIG d   1      11.389   7.167   0.282  0.00  0.00     0.026 H 
ENDBRANCH  48  50
BRANCH  48  54
ATOM     54  C   LIG d   1       9.591   7.377  -1.352  0.00  0.00    -0.028 C 
ATOM     55  H   LIG d   1      10.299   8.177  -1.135  0.00  0.00     0.026 H 
ATOM     56  H   LIG d   1       9.241   7.470  -2.380  0.00  0.00     0.026 H 
ATOM     57  H   LIG d   1       8.742   7.451  -0.672  0.00  0.00     0.026 H 
ENDBRANCH  48  54
ENDBRANCH  47  48
ENDBRANCH  41  47
ENDBRANCH   1  37
TORSDOF 12
ENDMDL
MODEL 6
REMARK VINA RESULT:      -5.7      2.770      4.963
REMARK  12 active torsions:
REMARK  status: ('A' for Active; 'I' for Inactive)
REMARK    1  A    between atoms: C_1  and  C_2 
REMARK    2  A    between atoms: C_5  and  C_8 
REMARK    3  A    between atoms: C_8  and  C_10 
REMARK    4  A    between atoms: C_8  and  C_18 
REMARK    5  A    between atoms: C_10  and  C_11 
REMARK    6  A    between atoms: C_11  and  N_55 
REMARK    7  A    between atoms: C_12  and  C_13 
REMARK    8  A    between atoms: C_12  and  N_55 
REMARK    9  A    between atoms: C_21  and  O_24 
REMARK   10  A    between atoms: O_24  and  C_25 
REMARK   11  A    between atoms: C_25  and  C_26 
REMARK   12  A    between atoms: C_25  and  C_27 
ROOT
ATOM      1  C   LIG d   1       7.301  -2.633  -4.756  0.00  0.00     0.014 C 
ATOM      2  H   LIG d   1       7.024  -2.902  -5.775  0.00  0.00     0.040 H 
ENDROOT
BRANCH   1   3
ATOM      3  C   LIG d   1       8.371  -3.573  -4.263  0.00  0.00    -0.040 A 
ATOM      4  C   LIG d   1       8.871  -3.441  -2.982  0.00  0.00    -0.058 A 
ATOM      5  C   LIG d   1       9.852  -4.304  -2.531  0.00  0.00    -0.059 A 
ATOM      6  H   LIG d   1       8.494  -2.666  -2.332  0.00  0.00     0.062 H 
ATOM      7  C   LIG d   1      10.334  -5.298  -3.361  0.00  0.00    -0.050 A 
ATOM      8  H   LIG d   1      10.242  -4.203  -1.529  0.00  0.00     0.062 H 
ATOM      9  C   LIG d   1       9.834  -5.430  -4.644  0.00  0.00    -0.059 A 
ATOM     10  C   LIG d   1       8.849  -4.570  -5.093  0.00  0.00    -0.058 A 
ATOM     11  H   LIG d   1      10.210  -6.206  -5.294  0.00  0.00     0.062 H 
ATOM     12  H   LIG d   1       8.456  -4.676  -6.093  0.00  0.00     0.062 H 
BRANCH   7  13
ATOM     13  C   LIG d   1      11.404  -6.240  -2.870  0.00  0.00    -0.040 C 
ATOM     14  H   LIG d   1      12.306  -6.107  -3.467  0.00  0.00     0.028 H 
ATOM     15  H   LIG d   1      11.624  -6.026  -1.825  0.00  0.00     0.028 H 
ATOM     16  H   LIG d   1      11.054  -7.268  -2.965  0.00  0.00     0.028 H 
ENDBRANCH   7  13
ENDBRANCH   1   3
BRANCH   1  17
ATOM     17  C   LIG d   1       6.072  -2.737  -3.850  0.00  0.00    -0.002 C 
ATOM     18  H   LIG d   1       5.881  -1.771  -3.384  0.00  0.00     0.033 H 
ATOM     19  H   LIG d   1       6.255  -3.483  -3.077  0.00  0.00     0.033 H 
BRANCH  17  20
ATOM     20  C   LIG d   1       4.857  -3.152  -4.683  0.00  0.00    -0.032 C 
ATOM     21  H   LIG d   1       4.687  -4.223  -4.569  0.00  0.00     0.081 H 
ATOM     22  H   LIG d   1       5.042  -2.922  -5.732  0.00  0.00     0.081 H 
BRANCH  20  23
ATOM     23  N   LIG d   1       3.673  -2.409  -4.213  0.00  0.00     0.233 N 
ATOM     24  H   LIG d   1       2.828  -2.956  -4.415  0.00  0.00     0.202 HD
ATOM     25  H   LIG d   1       3.623  -1.507  -4.702  0.00  0.00     0.202 HD
BRANCH  23  26
ATOM     26  C   LIG d   1       3.763  -2.169  -2.760  0.00  0.00     0.026 C 
ATOM     27  H   LIG d   1       4.641  -2.675  -2.359  0.00  0.00     0.090 H 
ATOM     28  H   LIG d   1       2.868  -2.553  -2.270  0.00  0.00     0.090 H 
BRANCH  26  29
ATOM     29  C   LIG d   1       3.878  -0.688  -2.510  0.00  0.00     0.149 A 
ATOM     30  O   LIG d   1       4.616  -0.108  -1.549  0.00  0.00    -0.463 OA
ATOM     31  C   LIG d   1       4.482   1.225  -1.626  0.00  0.00     0.092 A 
ATOM     32  C   LIG d   1       3.644   1.512  -2.638  0.00  0.00    -0.024 A 
ATOM     33  H   LIG d   1       4.962   1.947  -0.980  0.00  0.00     0.103 H 
ATOM     34  C   LIG d   1       3.254   0.278  -3.208  0.00  0.00    -0.015 A 
ATOM     35  H   LIG d   1       3.329   2.496  -2.954  0.00  0.00     0.065 H 
ATOM     36  H   LIG d   1       2.584   0.139  -4.044  0.00  0.00     0.065 H 
ENDBRANCH  26  29
ENDBRANCH  23  26
ENDBRANCH  20  23
ENDBRANCH  17  20
ENDBRANCH   1  17
BRANCH   1  37
ATOM     37  C   LIG d   1       7.824  -1.220  -4.733  0.00  0.00    -0.040 A 
ATOM     38  C   LIG d   1       7.208  -0.268  -3.942  0.00  0.00    -0.054 A 
ATOM     39  C   LIG d   1       7.686   1.027  -3.920  0.00  0.00    -0.020 A 
ATOM     40  H   LIG d   1       6.352  -0.538  -3.341  0.00  0.00     0.062 H 
ATOM     41  C   LIG d   1       8.786   1.373  -4.691  0.00  0.00     0.121 A 
ATOM     42  H   LIG d   1       7.205   1.771  -3.301  0.00  0.00     0.065 H 
ATOM     43  C   LIG d   1       9.402   0.417  -5.485  0.00  0.00    -0.020 A 
ATOM     44  C   LIG d   1       8.924  -0.879  -5.499  0.00  0.00    -0.054 A 
ATOM     45  H   LIG d   1      10.258   0.683  -6.087  0.00  0.00     0.065 H 
ATOM     46  H   LIG d   1       9.406  -1.626  -6.113  0.00  0.00     0.062 H 
BRANCH  41  47
ATOM     47  O   LIG d   1       9.258   2.648  -4.671  0.00  0.00    -0.489 OA
BRANCH  47  48
ATOM     48  C   LIG d   1       9.569   3.204  -3.391  0.00  0.00     0.095 C 
ATOM     49  H   LIG d   1       8.780   2.949  -2.683  0.00  0.00     0.073 H 
BRANCH  48  50
ATOM     50  C   LIG d   1      10.900   2.633  -2.897  0.00  0.00    -0.028 C 
ATOM     51  H   LIG d   1      11.475   2.264  -3.747  0.00  0.00     0.026 H 
ATOM     52  H   LIG d   1      11.464   3.415  -2.389  0.00  0.00     0.026 H 
ATOM     53  H   LIG d   1      10.709   1.814  -2.204  0.00  0.00     0.026 H 
ENDBRANCH  48  50
BRANCH  48  54
ATOM     54  C   LIG d   1       9.679   4.724  -3.508  0.00  0.00    -0.028 C 
ATOM     55  H   LIG d   1      10.239   4.979  -4.408  0.00  0.00     0.026 H 
ATOM     56  H   LIG d   1       8.680   5.158  -3.567  0.00  0.00     0.026 H 
ATOM     57  H   LIG d   1      10.195   5.121  -2.635  0.00  0.00     0.026 H 
ENDBRANCH  48  54
ENDBRANCH  47  48
ENDBRANCH  41  47
ENDBRANCH   1  37
TORSDOF 12
ENDMDL
MODEL 7
REMARK VINA RESULT:      -5.5      3.891      7.617
REMARK  12 active torsions:
REMARK  status: ('A' for Active; 'I' for Inactive)
REMARK    1  A    between atoms: C_1  and  C_2 
REMARK    2  A    between atoms: C_5  and  C_8 
REMARK    3  A    between atoms: C_8  and  C_10 
REMARK    4  A    between atoms: C_8  and  C_18 
REMARK    5  A    between atoms: C_10  and  C_11 
REMARK    6  A    between atoms: C_11  and  N_55 
REMARK    7  A    between atoms: C_12  and  C_13 
REMARK    8  A    between atoms: C_12  and  N_55 
REMARK    9  A    between atoms: C_21  and  O_24 
REMARK   10  A    between atoms: O_24  and  C_25 
REMARK   11  A    between atoms: C_25  and  C_26 
REMARK   12  A    between atoms: C_25  and  C_27 
ROOT
ATOM      1  C   LIG d   1       9.368   4.784  -4.138  0.00  0.00     0.014 C 
ATOM      2  H   LIG d   1       8.407   4.890  -3.635  0.00  0.00     0.040 H 
ENDROOT
BRANCH   1   3
ATOM      3  C   LIG d   1       9.464   5.792  -5.254  0.00  0.00    -0.040 A 
ATOM      4  C   LIG d   1       9.211   7.127  -5.004  0.00  0.00    -0.058 A 
ATOM      5  C   LIG d   1       9.299   8.051  -6.028  0.00  0.00    -0.059 A 
ATOM      6  H   LIG d   1       8.946   7.449  -4.008  0.00  0.00     0.062 H 
ATOM      7  C   LIG d   1       9.639   7.640  -7.303  0.00  0.00    -0.050 A 
ATOM      8  H   LIG d   1       9.102   9.095  -5.833  0.00  0.00     0.062 H 
ATOM      9  C   LIG d   1       9.891   6.304  -7.554  0.00  0.00    -0.059 A 
ATOM     10  C   LIG d   1       9.809   5.380  -6.528  0.00  0.00    -0.058 A 
ATOM     11  H   LIG d   1      10.157   5.981  -8.550  0.00  0.00     0.062 H 
ATOM     12  H   LIG d   1      10.010   4.338  -6.724  0.00  0.00     0.062 H 
BRANCH   7  13
ATOM     13  C   LIG d   1       9.735   8.647  -8.421  0.00  0.00    -0.040 C 
ATOM     14  H   LIG d   1       9.674   9.654  -8.008  0.00  0.00     0.028 H 
ATOM     15  H   LIG d   1      10.684   8.524  -8.940  0.00  0.00     0.028 H 
ATOM     16  H   LIG d   1       8.915   8.491  -9.121  0.00  0.00     0.028 H 
ENDBRANCH   7  13
ENDBRANCH   1   3
BRANCH   1  17
ATOM     17  C   LIG d   1       9.490   3.371  -4.713  0.00  0.00    -0.002 C 
ATOM     18  H   LIG d   1      10.542   3.117  -4.832  0.00  0.00     0.033 H 
ATOM     19  H   LIG d   1       8.994   3.331  -5.683  0.00  0.00     0.033 H 
BRANCH  17  20
ATOM     20  C   LIG d   1       8.827   2.374  -3.760  0.00  0.00    -0.032 C 
ATOM     21  H   LIG d   1       8.656   2.852  -2.795  0.00  0.00     0.081 H 
ATOM     22  H   LIG d   1       9.479   1.511  -3.628  0.00  0.00     0.081 H 
BRANCH  20  23
ATOM     23  N   LIG d   1       7.540   1.940  -4.334  0.00  0.00     0.233 N 
ATOM     24  H   LIG d   1       7.566   2.059  -5.354  0.00  0.00     0.202 HD
ATOM     25  H   LIG d   1       6.784   2.513  -3.942  0.00  0.00     0.202 HD
BRANCH  23  26
ATOM     26  C   LIG d   1       7.290   0.521  -4.017  0.00  0.00     0.026 C 
ATOM     27  H   LIG d   1       8.166   0.096  -3.526  0.00  0.00     0.090 H 
ATOM     28  H   LIG d   1       7.085  -0.029  -4.934  0.00  0.00     0.090 H 
BRANCH  26  29
ATOM     29  C   LIG d   1       6.102   0.423  -3.095  0.00  0.00     0.149 A 
ATOM     30  O   LIG d   1       5.532   1.445  -2.436  0.00  0.00    -0.463 OA
ATOM     31  C   LIG d   1       4.496   0.990  -1.713  0.00  0.00     0.092 A 
ATOM     32  C   LIG d   1       4.399  -0.339  -1.898  0.00  0.00    -0.024 A 
ATOM     33  H   LIG d   1       3.852   1.589  -1.085  0.00  0.00     0.103 H 
ATOM     34  C   LIG d   1       5.435  -0.704  -2.789  0.00  0.00    -0.015 A 
ATOM     35  H   LIG d   1       3.670  -1.000  -1.452  0.00  0.00     0.065 H 
ATOM     36  H   LIG d   1       5.649  -1.698  -3.154  0.00  0.00     0.065 H 
ENDBRANCH  26  29
ENDBRANCH  23  26
ENDBRANCH  20  23
ENDBRANCH  17  20
ENDBRANCH   1  17
BRANCH   1  37
ATOM     37  C   LIG d   1      10.481   5.022  -3.150  0.00  0.00    -0.040 A 
ATOM     38  C   LIG d   1      11.793   4.798  -3.521  0.00  0.00    -0.054 A 
ATOM     39  C   LIG d   1      12.815   5.016  -2.617  0.00  0.00    -0.020 A 
ATOM     40  H   LIG d   1      12.021   4.452  -4.519  0.00  0.00     0.062 H 
ATOM     41  C   LIG d   1      12.523   5.460  -1.336  0.00  0.00     0.121 A 
ATOM     42  H   LIG d   1      13.841   4.841  -2.908  0.00  0.00     0.065 H 
ATOM     43  C   LIG d   1      11.205   5.683  -0.965  0.00  0.00    -0.020 A 
ATOM     44  C   LIG d   1      10.188   5.469  -1.874  0.00  0.00    -0.054 A 
ATOM     45  H   LIG d   1      10.974   6.028   0.032  0.00  0.00     0.065 H 
ATOM     46  H   LIG d   1       9.161   5.647  -1.588  0.00  0.00     0.062 H 
BRANCH  41  47
ATOM     47  O   LIG d   1      13.526   5.675  -0.445  0.00  0.00    -0.489 OA
BRANCH  47  48
ATOM     48  C   LIG d   1      14.650   6.431  -0.902  0.00  0.00     0.095 C 
ATOM     49  H   LIG d   1      14.731   6.341  -1.985  0.00  0.00     0.073 H 
BRANCH  48  50
ATOM     50  C   LIG d   1      14.461   7.902  -0.526  0.00  0.00    -0.028 C 
ATOM     51  H   LIG d   1      15.139   8.518  -1.116  0.00  0.00     0.026 H 
ATOM     52  H   LIG d   1      13.432   8.199  -0.726  0.00  0.00     0.026 H 
ATOM     53  H   LIG d   1      14.677   8.036   0.534  0.00  0.00     0.026 H 
ENDBRANCH  48  50
BRANCH  48  54
ATOM     54  C   LIG d   1      15.925   5.897  -0.248  0.00  0.00    -0.028 C 
ATOM     55  H   LIG d   1      16.793   6.377  -0.700  0.00  0.00     0.026 H 
ATOM     56  H   LIG d   1      15.904   6.114   0.819  0.00  0.00     0.026 H 
ATOM     57  H   LIG d   1      15.987   4.820  -0.399  0.00  0.00     0.026 H 
ENDBRANCH  48  54
ENDBRANCH  47  48
ENDBRANCH  41  47
ENDBRANCH   1  37
TORSDOF 12
ENDMDL
MODEL 8
REMARK VINA RESULT:      -5.5      3.668      6.657
REMARK  12 active torsions:
REMARK  status: ('A' for Active; 'I' for Inactive)
REMARK    1  A    between atoms: C_1  and  C_2 
REMARK    2  A    between atoms: C_5  and  C_8 
REMARK    3  A    between atoms: C_8  and  C_10 
REMARK    4  A    between atoms: C_8  and  C_18 
REMARK    5  A    between atoms: C_10  and  C_11 
REMARK    6  A    between atoms: C_11  and  N_55 
REMARK    7  A    between atoms: C_12  and  C_13 
REMARK    8  A    between atoms: C_12  and  N_55 
REMARK    9  A    between atoms: C_21  and  O_24 
REMARK   10  A    between atoms: O_24  and  C_25 
REMARK   11  A    between atoms: C_25  and  C_26 
REMARK   12  A    between atoms: C_25  and  C_27 
ROOT
ATOM      1  C   LIG d   1       5.555  -3.228  -5.294  0.00  0.00     0.014 C 
ATOM      2  H   LIG d   1       4.740  -3.952  -5.267  0.00  0.00     0.040 H 
ENDROOT
BRANCH   1   3
ATOM      3  C   LIG d   1       5.269  -2.115  -4.320  0.00  0.00    -0.040 A 
ATOM      4  C   LIG d   1       5.707  -0.832  -4.587  0.00  0.00    -0.058 A 
ATOM      5  C   LIG d   1       5.444   0.189  -3.693  0.00  0.00    -0.059 A 
ATOM      6  H   LIG d   1       6.254  -0.627  -5.495  0.00  0.00     0.062 H 
ATOM      7  C   LIG d   1       4.743  -0.073  -2.531  0.00  0.00    -0.050 A 
ATOM      8  H   LIG d   1       5.786   1.192  -3.902  0.00  0.00     0.062 H 
ATOM      9  C   LIG d   1       4.305  -1.357  -2.263  0.00  0.00    -0.059 A 
ATOM     10  C   LIG d   1       4.563  -2.377  -3.160  0.00  0.00    -0.058 A 
ATOM     11  H   LIG d   1       3.756  -1.563  -1.355  0.00  0.00     0.062 H 
ATOM     12  H   LIG d   1       4.216  -3.378  -2.953  0.00  0.00     0.062 H 
BRANCH   7  13
ATOM     13  C   LIG d   1       4.455   1.039  -1.556  0.00  0.00    -0.040 C 
ATOM     14  H   LIG d   1       4.718   0.716  -0.549  0.00  0.00     0.028 H 
ATOM     15  H   LIG d   1       5.043   1.917  -1.821  0.00  0.00     0.028 H 
ATOM     16  H   LIG d   1       3.395   1.288  -1.591  0.00  0.00     0.028 H 
ENDBRANCH   7  13
ENDBRANCH   1   3
BRANCH   1  17
ATOM     17  C   LIG d   1       5.677  -2.652  -6.707  0.00  0.00    -0.002 C 
ATOM     18  H   LIG d   1       6.501  -3.140  -7.227  0.00  0.00     0.033 H 
ATOM     19  H   LIG d   1       5.869  -1.581  -6.646  0.00  0.00     0.033 H 
BRANCH  17  20
ATOM     20  C   LIG d   1       4.374  -2.895  -7.472  0.00  0.00    -0.032 C 
ATOM     21  H   LIG d   1       3.808  -3.688  -6.982  0.00  0.00     0.081 H 
ATOM     22  H   LIG d   1       4.604  -3.190  -8.495  0.00  0.00     0.081 H 
BRANCH  20  23
ATOM     23  N   LIG d   1       3.580  -1.652  -7.480  0.00  0.00     0.233 N 
ATOM     24  H   LIG d   1       4.094  -0.919  -6.975  0.00  0.00     0.202 HD
ATOM     25  H   LIG d   1       2.680  -1.822  -7.015  0.00  0.00     0.202 HD
BRANCH  23  26
ATOM     26  C   LIG d   1       3.337  -1.210  -8.865  0.00  0.00     0.026 C 
ATOM     27  H   LIG d   1       2.291  -1.375  -9.125  0.00  0.00     0.090 H 
ATOM     28  H   LIG d   1       3.973  -1.774  -9.547  0.00  0.00     0.090 H 
BRANCH  26  29
ATOM     29  C   LIG d   1       3.656   0.259  -8.979  0.00  0.00     0.149 A 
ATOM     30  O   LIG d   1       4.862   0.782  -9.252  0.00  0.00    -0.463 OA
ATOM     31  C   LIG d   1       4.774   2.121  -9.279  0.00  0.00     0.092 A 
ATOM     32  C   LIG d   1       3.503   2.469  -9.011  0.00  0.00    -0.024 A 
ATOM     33  H   LIG d   1       5.588   2.804  -9.476  0.00  0.00     0.103 H 
ATOM     34  C   LIG d   1       2.782   1.268  -8.817  0.00  0.00    -0.015 A 
ATOM     35  H   LIG d   1       3.109   3.474  -8.954  0.00  0.00     0.065 H 
ATOM     36  H   LIG d   1       1.731   1.179  -8.584  0.00  0.00     0.065 H 
ENDBRANCH  26  29
ENDBRANCH  23  26
ENDBRANCH  20  23
ENDBRANCH  17  20
ENDBRANCH   1  17
BRANCH   1  37
ATOM     37  C   LIG d   1       6.844  -3.909  -4.915  0.00  0.00    -0.040 A 
ATOM     38  C   LIG d   1       7.787  -3.233  -4.163  0.00  0.00    -0.054 A 
ATOM     39  C   LIG d   1       8.970  -3.855  -3.814  0.00  0.00    -0.020 A 
ATOM     40  H   LIG d   1       7.598  -2.216  -3.848  0.00  0.00     0.062 H 
ATOM     41  C   LIG d   1       9.211  -5.159  -4.218  0.00  0.00     0.121 A 
ATOM     42  H   LIG d   1       9.706  -3.326  -3.226  0.00  0.00     0.065 H 
ATOM     43  C   LIG d   1       8.265  -5.836  -4.973  0.00  0.00    -0.020 A 
ATOM     44  C   LIG d   1       7.081  -5.212  -5.315  0.00  0.00    -0.054 A 
ATOM     45  H   LIG d   1       8.450  -6.852  -5.290  0.00  0.00     0.065 H 
ATOM     46  H   LIG d   1       6.341  -5.739  -5.899  0.00  0.00     0.062 H 
BRANCH  41  47
ATOM     47  O   LIG d   1      10.375  -5.774  -3.876  0.00  0.00    -0.489 OA
BRANCH  47  48
ATOM     48  C   LIG d   1      10.283  -6.886  -2.983  0.00  0.00     0.095 C 
ATOM     49  H   LIG d   1       9.482  -7.549  -3.310  0.00  0.00     0.073 H 
BRANCH  48  50
ATOM     50  C   LIG d   1      11.608  -7.650  -2.984  0.00  0.00    -0.028 C 
ATOM     51  H   LIG d   1      11.528  -8.518  -3.639  0.00  0.00     0.026 H 
ATOM     52  H   LIG d   1      12.404  -6.997  -3.341  0.00  0.00     0.026 H 
ATOM     53  H   LIG d   1      11.838  -7.980  -1.971  0.00  0.00     0.026 H 
ENDBRANCH  48  50
BRANCH  48  54
ATOM     54  C   LIG d   1       9.986  -6.383  -1.570  0.00  0.00    -0.028 C 
ATOM     55  H   LIG d   1       8.919  -6.480  -1.367  0.00  0.00     0.026 H 
ATOM     56  H   LIG d   1      10.549  -6.974  -0.848  0.00  0.00     0.026 H 
ATOM     57  H   LIG d   1      10.276  -5.336  -1.488  0.00  0.00     0.026 H 
ENDBRANCH  48  54
ENDBRANCH  47  48
ENDBRANCH  41  47
ENDBRANCH   1  37
TORSDOF 12
ENDMDL
MODEL 9
REMARK VINA RESULT:      -5.4      4.629      8.348
REMARK  12 active torsions:
REMARK  status: ('A' for Active; 'I' for Inactive)
REMARK    1  A    between atoms: C_1  and  C_2 
REMARK    2  A    between atoms: C_5  and  C_8 
REMARK    3  A    between atoms: C_8  and  C_10 
REMARK    4  A    between atoms: C_8  and  C_18 
REMARK    5  A    between atoms: C_10  and  C_11 
REMARK    6  A    between atoms: C_11  and  N_55 
REMARK    7  A    between atoms: C_12  and  C_13 
REMARK    8  A    between atoms: C_12  and  N_55 
REMARK    9  A    between atoms: C_21  and  O_24 
REMARK   10  A    between atoms: O_24  and  C_25 
REMARK   11  A    between atoms: C_25  and  C_26 
REMARK   12  A    between atoms: C_25  and  C_27 
ROOT
ATOM      1  C   LIG d   1       9.545   5.088  -3.132  0.00  0.00     0.014 C 
ATOM      2  H   LIG d   1       8.458   5.173  -3.107  0.00  0.00     0.040 H 
ENDROOT
BRANCH   1   3
ATOM      3  C   LIG d   1      10.071   5.759  -4.374  0.00  0.00    -0.040 A 
ATOM      4  C   LIG d   1      11.379   5.553  -4.771  0.00  0.00    -0.058 A 
ATOM      5  C   LIG d   1      11.861   6.169  -5.911  0.00  0.00    -0.059 A 
ATOM      6  H   LIG d   1      12.023   4.910  -4.191  0.00  0.00     0.062 H 
ATOM      7  C   LIG d   1      11.036   6.991  -6.654  0.00  0.00    -0.050 A 
ATOM      8  H   LIG d   1      12.882   6.007  -6.222  0.00  0.00     0.062 H 
ATOM      9  C   LIG d   1       9.727   7.198  -6.257  0.00  0.00    -0.059 A 
ATOM     10  C   LIG d   1       9.243   6.578  -5.120  0.00  0.00    -0.058 A 
ATOM     11  H   LIG d   1       9.081   7.841  -6.838  0.00  0.00     0.062 H 
ATOM     12  H   LIG d   1       8.220   6.737  -4.814  0.00  0.00     0.062 H 
BRANCH   7  13
ATOM     13  C   LIG d   1      11.560   7.663  -7.897  0.00  0.00    -0.040 C 
ATOM     14  H   LIG d   1      12.129   6.943  -8.486  0.00  0.00     0.028 H 
ATOM     15  H   LIG d   1      10.725   8.038  -8.488  0.00  0.00     0.028 H 
ATOM     16  H   LIG d   1      12.207   8.494  -7.615  0.00  0.00     0.028 H 
ENDBRANCH   7  13
ENDBRANCH   1   3
BRANCH   1  17
ATOM     17  C   LIG d   1       9.941   3.611  -3.142  0.00  0.00    -0.002 C 
ATOM     18  H   LIG d   1       9.843   3.201  -2.138  0.00  0.00     0.033 H 
ATOM     19  H   LIG d   1      10.974   3.515  -3.475  0.00  0.00     0.033 H 
BRANCH  17  20
ATOM     20  C   LIG d   1       9.024   2.843  -4.098  0.00  0.00    -0.032 C 
ATOM     21  H   LIG d   1       9.581   2.567  -4.993  0.00  0.00     0.081 H 
ATOM     22  H   LIG d   1       8.179   3.474  -4.375  0.00  0.00     0.081 H 
BRANCH  20  23
ATOM     23  N   LIG d   1       8.534   1.626  -3.423  0.00  0.00     0.233 N 
ATOM     24  H   LIG d   1       8.187   1.874  -2.489  0.00  0.00     0.202 HD
ATOM     25  H   LIG d   1       9.305   0.954  -3.336  0.00  0.00     0.202 HD
BRANCH  23  26
ATOM     26  C   LIG d   1       7.441   1.014  -4.202  0.00  0.00     0.026 C 
ATOM     27  H   LIG d   1       7.801   0.107  -4.688  0.00  0.00     0.090 H 
ATOM     28  H   LIG d   1       7.093   1.717  -4.959  0.00  0.00     0.090 H 
BRANCH  26  29
ATOM     29  C   LIG d   1       6.305   0.670  -3.274  0.00  0.00     0.149 A 
ATOM     30  O   LIG d   1       5.615   1.541  -2.521  0.00  0.00    -0.463 OA
ATOM     31  C   LIG d   1       4.674   0.884  -1.824  0.00  0.00     0.092 A 
ATOM     32  C   LIG d   1       4.762  -0.425  -2.121  0.00  0.00    -0.024 A 
ATOM     33  H   LIG d   1       3.969   1.329  -1.137  0.00  0.00     0.103 H 
ATOM     34  C   LIG d   1       5.814  -0.563  -3.056  0.00  0.00    -0.015 A 
ATOM     35  H   LIG d   1       4.148  -1.219  -1.721  0.00  0.00     0.065 H 
ATOM     36  H   LIG d   1       6.157  -1.482  -3.508  0.00  0.00     0.065 H 
ENDBRANCH  26  29
ENDBRANCH  23  26
ENDBRANCH  20  23
ENDBRANCH  17  20
ENDBRANCH   1  17
BRANCH   1  37
ATOM     37  C   LIG d   1      10.128   5.757  -1.914  0.00  0.00    -0.040 A 
ATOM     38  C   LIG d   1      11.093   5.108  -1.166  0.00  0.00    -0.054 A 
ATOM     39  C   LIG d   1      11.629   5.719  -0.050  0.00  0.00    -0.020 A 
ATOM     40  H   LIG d   1      11.428   4.122  -1.455  0.00  0.00     0.062 H 
ATOM     41  C   LIG d   1      11.200   6.986   0.321  0.00  0.00     0.121 A 
ATOM     42  H   LIG d   1      12.384   5.213   0.534  0.00  0.00     0.065 H 
ATOM     43  C   LIG d   1      10.231   7.634  -0.431  0.00  0.00    -0.020 A 
ATOM     44  C   LIG d   1       9.702   7.022  -1.550  0.00  0.00    -0.054 A 
ATOM     45  H   LIG d   1       9.895   8.620  -0.145  0.00  0.00     0.065 H 
ATOM     46  H   LIG d   1       8.951   7.528  -2.139  0.00  0.00     0.062 H 
BRANCH  41  47
ATOM     47  O   LIG d   1      11.727   7.589   1.419  0.00  0.00    -0.489 OA
BRANCH  47  48
ATOM     48  C   LIG d   1      12.049   8.977   1.305  0.00  0.00     0.095 C 
ATOM     49  H   LIG d   1      11.246   9.495   0.781  0.00  0.00     0.073 H 
BRANCH  48  50
ATOM     50  C   LIG d   1      12.217   9.577   2.702  0.00  0.00    -0.028 C 
ATOM     51  H   LIG d   1      11.263   9.544   3.229  0.00  0.00     0.026 H 
ATOM     52  H   LIG d   1      12.959   9.003   3.257  0.00  0.00     0.026 H 
ATOM     53  H   LIG d   1      12.549  10.611   2.616  0.00  0.00     0.026 H 
ENDBRANCH  48  50
BRANCH  48  54
ATOM     54  C   LIG d   1      13.354   9.135   0.523  0.00  0.00    -0.028 C 
ATOM     55  H   LIG d   1      13.157   9.666  -0.408  0.00  0.00     0.026 H 
ATOM     56  H   LIG d   1      14.069   9.700   1.120  0.00  0.00     0.026 H 
ATOM     57  H   LIG d   1      13.766   8.151   0.299  0.00  0.00     0.026 H 
ENDBRANCH  48  54
ENDBRANCH  47  48
ENDBRANCH  41  47
ENDBRANCH   1  37
TORSDOF 12
ENDMDL
MODEL 10
REMARK VINA RESULT:      -5.3      4.484      7.450
REMARK  12 active torsions:
REMARK  status: ('A' for Active; 'I' for Inactive)
REMARK    1  A    between atoms: C_1  and  C_2 
REMARK    2  A    between atoms: C_5  and  C_8 
REMARK    3  A    between atoms: C_8  and  C_10 
REMARK    4  A    between atoms: C_8  and  C_18 
REMARK    5  A    between atoms: C_10  and  C_11 
REMARK    6  A    between atoms: C_11  and  N_55 
REMARK    7  A    between atoms: C_12  and  C_13 
REMARK    8  A    between atoms: C_12  and  N_55 
REMARK    9  A    between atoms: C_21  and  O_24 
REMARK   10  A    between atoms: O_24  and  C_25 
REMARK   11  A    between atoms: C_25  and  C_26 
REMARK   12  A    between atoms: C_25  and  C_27 
ROOT
ATOM      1  C   LIG d   1       8.189  -3.293  -4.884  0.00  0.00     0.014 C 
ATOM      2  H   LIG d   1       8.015  -3.673  -5.891  0.00  0.00     0.040 H 
ENDROOT
BRANCH   1   3
ATOM      3  C   LIG d   1       6.890  -2.794  -4.306  0.00  0.00    -0.040 A 
ATOM      4  C   LIG d   1       6.864  -1.629  -3.564  0.00  0.00    -0.058 A 
ATOM      5  C   LIG d   1       5.672  -1.171  -3.035  0.00  0.00    -0.059 A 
ATOM      6  H   LIG d   1       7.776  -1.074  -3.400  0.00  0.00     0.062 H 
ATOM      7  C   LIG d   1       4.505  -1.880  -3.247  0.00  0.00    -0.050 A 
ATOM      8  H   LIG d   1       5.652  -0.260  -2.456  0.00  0.00     0.062 H 
ATOM      9  C   LIG d   1       4.530  -3.047  -3.988  0.00  0.00    -0.059 A 
ATOM     10  C   LIG d   1       5.721  -3.501  -4.523  0.00  0.00    -0.058 A 
ATOM     11  H   LIG d   1       3.617  -3.602  -4.154  0.00  0.00     0.062 H 
ATOM     12  H   LIG d   1       5.739  -4.410  -5.106  0.00  0.00     0.062 H 
BRANCH   7  13
ATOM     13  C   LIG d   1       3.204  -1.383  -2.670  0.00  0.00    -0.040 C 
ATOM     14  H   LIG d   1       2.708  -0.738  -3.395  0.00  0.00     0.028 H 
ATOM     15  H   LIG d   1       2.561  -2.231  -2.437  0.00  0.00     0.028 H 
ATOM     16  H   LIG d   1       3.404  -0.818  -1.759  0.00  0.00     0.028 H 
ENDBRANCH   7  13
ENDBRANCH   1   3
BRANCH   1  17
ATOM     17  C   LIG d   1       9.198  -2.144  -4.940  0.00  0.00    -0.002 C 
ATOM     18  H   LIG d   1      10.184  -2.513  -4.663  0.00  0.00     0.033 H 
ATOM     19  H   LIG d   1       8.894  -1.361  -4.246  0.00  0.00     0.033 H 
BRANCH  17  20
ATOM     20  C   LIG d   1       9.246  -1.576  -6.360  0.00  0.00    -0.032 C 
ATOM     21  H   LIG d   1       8.718  -2.248  -7.038  0.00  0.00     0.081 H 
ATOM     22  H   LIG d   1      10.284  -1.481  -6.678  0.00  0.00     0.081 H 
BRANCH  20  23
ATOM     23  N   LIG d   1       8.599  -0.250  -6.372  0.00  0.00     0.233 N 
ATOM     24  H   LIG d   1       9.321   0.479  -6.328  0.00  0.00     0.202 HD
ATOM     25  H   LIG d   1       7.979  -0.169  -5.557  0.00  0.00     0.202 HD
BRANCH  23  26
ATOM     26  C   LIG d   1       7.808  -0.078  -7.605  0.00  0.00     0.026 C 
ATOM     27  H   LIG d   1       8.205  -0.723  -8.389  0.00  0.00     0.090 H 
ATOM     28  H   LIG d   1       7.858   0.961  -7.930  0.00  0.00     0.090 H 
BRANCH  26  29
ATOM     29  C   LIG d   1       6.374  -0.449  -7.327  0.00  0.00     0.149 A 
ATOM     30  O   LIG d   1       5.512   0.253  -6.575  0.00  0.00    -0.463 OA
ATOM     31  C   LIG d   1       4.325  -0.373  -6.551  0.00  0.00     0.092 A 
ATOM     32  C   LIG d   1       4.421  -1.495  -7.287  0.00  0.00    -0.024 A 
ATOM     33  H   LIG d   1       3.442  -0.036  -6.026  0.00  0.00     0.103 H 
ATOM     34  C   LIG d   1       5.742  -1.544  -7.787  0.00  0.00    -0.015 A 
ATOM     35  H   LIG d   1       3.638  -2.219  -7.462  0.00  0.00     0.065 H 
ATOM     36  H   LIG d   1       6.163  -2.314  -8.417  0.00  0.00     0.065 H 
ENDBRANCH  26  29
ENDBRANCH  23  26
ENDBRANCH  20  23
ENDBRANCH  17  20
ENDBRANCH   1  17
BRANCH   1  37
ATOM     37  C   LIG d   1       8.733  -4.398  -4.017  0.00  0.00    -0.040 A 
ATOM     38  C   LIG d   1       8.654  -5.711  -4.441  0.00  0.00    -0.054 A 
ATOM     39  C   LIG d   1       9.153  -6.726  -3.648  0.00  0.00    -0.020 A 
ATOM     40  H   LIG d   1       8.203  -5.945  -5.395  0.00  0.00     0.062 H 
ATOM     41  C   LIG d   1       9.733  -6.427  -2.424  0.00  0.00     0.121 A 
ATOM     42  H   LIG d   1       9.092  -7.752  -3.980  0.00  0.00     0.065 H 
ATOM     43  C   LIG d   1       9.811  -5.108  -1.999  0.00  0.00    -0.020 A 
ATOM     44  C   LIG d   1       9.316  -4.097  -2.799  0.00  0.00    -0.054 A 
ATOM     45  H   LIG d   1      10.261  -4.872  -1.047  0.00  0.00     0.065 H 
ATOM     46  H   LIG d   1       9.380  -3.069  -2.472  0.00  0.00     0.062 H 
BRANCH  41  47
ATOM     47  O   LIG d   1      10.225  -7.424  -1.641  0.00  0.00    -0.489 OA
BRANCH  47  48
ATOM     48  C   LIG d   1      10.106  -8.758  -2.140  0.00  0.00     0.095 C 
ATOM     49  H   LIG d   1       9.668  -8.735  -3.137  0.00  0.00     0.073 H 
BRANCH  48  50
ATOM     50  C   LIG d   1      11.493  -9.402  -2.207  0.00  0.00    -0.028 C 
ATOM     51  H   LIG d   1      11.510 -10.293  -1.580  0.00  0.00     0.026 H 
ATOM     52  H   LIG d   1      11.716  -9.677  -3.238  0.00  0.00     0.026 H 
ATOM     53  H   LIG d   1      12.240  -8.692  -1.851  0.00  0.00     0.026 H 
ENDBRANCH  48  50
BRANCH  48  54
ATOM     54  C   LIG d   1       9.210  -9.574  -1.207  0.00  0.00    -0.028 C 
ATOM     55  H   LIG d   1       9.005  -8.997  -0.305  0.00  0.00     0.026 H 
ATOM     56  H   LIG d   1       8.273  -9.804  -1.712  0.00  0.00     0.026 H 
ATOM     57  H   LIG d   1       9.715 -10.501  -0.937  0.00  0.00     0.026 H 
ENDBRANCH  48  54
ENDBRANCH  47  48
ENDBRANCH  41  47
ENDBRANCH   1  37
TORSDOF 12
ENDMDL
