MODEL 1
REMARK VINA RESULT:      -4.1      0.000      0.000
REMARK  3 active torsions:
REMARK  status: ('A' for Active; 'I' for Inactive)
REMARK    1  A    between atoms: C_1  and  C_2 
REMARK    2  A    between atoms: C_2  and  N_3 
REMARK    3  A    between atoms: C_6  and  N_7 
ROOT
ATOM      1  N   LIG d   1       5.085  -0.372  -2.692  0.00  0.00    -0.353 N 
ATOM      2  C   LIG d   1       5.950  -0.742  -3.675  0.00  0.00     0.011 C 
ATOM      3  C   LIG d   1       5.790  -1.910  -4.330  0.00  0.00     0.025 C 
ATOM      4  C   LIG d   1       4.660  -2.769  -3.945  0.00  0.00     0.202 C 
ATOM      5  C   LIG d   1       3.969  -2.446  -2.688  0.00  0.00     0.025 C 
ATOM      6  C   LIG d   1       4.224  -1.252  -2.112  0.00  0.00     0.011 C 
ATOM      7  H   LIG d   1       6.774  -0.094  -3.934  0.00  0.00     0.081 H 
ATOM      8  H   LIG d   1       6.471  -2.206  -5.114  0.00  0.00     0.070 H 
ATOM      9  H   LIG d   1       3.281  -3.145  -2.236  0.00  0.00     0.070 H 
ATOM     10  H   LIG d   1       3.738  -0.991  -1.184  0.00  0.00     0.081 H 
ENDROOT
BRANCH   1  11
ATOM     11  C   LIG d   1       5.084   1.021  -2.239  0.00  0.00     0.020 C 
ATOM     12  H   LIG d   1       5.847   1.579  -2.782  0.00  0.00     0.049 H 
ATOM     13  H   LIG d   1       5.299   1.056  -1.171  0.00  0.00     0.049 H 
BRANCH  11  14
ATOM     14  C   LIG d   1       3.712   1.643  -2.504  0.00  0.00    -0.047 C 
ATOM     15  H   LIG d   1       3.462   1.535  -3.559  0.00  0.00     0.025 H 
ATOM     16  H   LIG d   1       2.960   1.137  -1.898  0.00  0.00     0.025 H 
ATOM     17  H   LIG d   1       3.736   2.701  -2.243  0.00  0.00     0.025 H 
ENDBRANCH  11  14
ENDBRANCH   1  11
BRANCH   4  18
ATOM     18  N   LIG d   1       4.282  -3.789  -4.696  0.00  0.00    -0.254 N 
ATOM     19  H   LIG d   1       3.497  -4.305  -4.453  0.00  0.00     0.443 HD
ATOM     20  H   LIG d   1       4.789  -4.022  -5.489  0.00  0.00     0.443 HD
ENDBRANCH   4  18
TORSDOF 3
ENDMDL
MODEL 2
REMARK VINA RESULT:      -3.9      2.668      2.991
REMARK  3 active torsions:
REMARK  status: ('A' for Active; 'I' for Inactive)
REMARK    1  A    between atoms: C_1  and  C_2 
REMARK    2  A    between atoms: C_2  and  N_3 
REMARK    3  A    between atoms: C_6  and  N_7 
ROOT
ATOM      1  N   LIG d   1       3.941  -0.551  -3.523  0.00  0.00    -0.353 N 
ATOM      2  C   LIG d   1       4.689  -1.102  -4.519  0.00  0.00     0.011 C 
ATOM      3  C   LIG d   1       4.442  -0.806  -5.811  0.00  0.00     0.025 C 
ATOM      4  C   LIG d   1       3.341   0.122  -6.109  0.00  0.00     0.202 C 
ATOM      5  C   LIG d   1       2.404   0.423  -5.017  0.00  0.00     0.025 C 
ATOM      6  C   LIG d   1       2.750   0.061  -3.764  0.00  0.00     0.011 C 
ATOM      7  H   LIG d   1       5.488  -1.784  -4.270  0.00  0.00     0.081 H 
ATOM      8  H   LIG d   1       5.036  -1.237  -6.603  0.00  0.00     0.070 H 
ATOM      9  H   LIG d   1       1.463   0.917  -5.213  0.00  0.00     0.070 H 
ATOM     10  H   LIG d   1       2.078   0.263  -2.943  0.00  0.00     0.081 H 
ENDROOT
BRANCH   1  11
ATOM     11  C   LIG d   1       4.434  -0.625  -2.146  0.00  0.00     0.020 C 
ATOM     12  H   LIG d   1       5.392  -1.145  -2.131  0.00  0.00     0.049 H 
ATOM     13  H   LIG d   1       3.716  -1.168  -1.532  0.00  0.00     0.049 H 
BRANCH  11  14
ATOM     14  C   LIG d   1       4.612   0.790  -1.592  0.00  0.00    -0.047 C 
ATOM     15  H   LIG d   1       3.678   1.123  -1.137  0.00  0.00     0.025 H 
ATOM     16  H   LIG d   1       5.402   0.790  -0.841  0.00  0.00     0.025 H 
ATOM     17  H   LIG d   1       4.881   1.466  -2.403  0.00  0.00     0.025 H 
ENDBRANCH  11  14
ENDBRANCH   1  11
BRANCH   4  18
ATOM     18  N   LIG d   1       3.199   0.660  -7.308  0.00  0.00    -0.254 N 
ATOM     19  H   LIG d   1       3.510   1.565  -7.473  0.00  0.00     0.443 HD
ATOM     20  H   LIG d   1       2.784   0.153  -8.022  0.00  0.00     0.443 HD
ENDBRANCH   4  18
TORSDOF 3
ENDMDL
MODEL 3
REMARK VINA RESULT:      -3.8      2.648      3.270
REMARK  3 active torsions:
REMARK  status: ('A' for Active; 'I' for Inactive)
REMARK    1  A    between atoms: C_1  and  C_2 
REMARK    2  A    between atoms: C_2  and  N_3 
REMARK    3  A    between atoms: C_6  and  N_7 
ROOT
ATOM      1  N   LIG d   1       4.131  -0.153  -3.772  0.00  0.00    -0.353 N 
ATOM      2  C   LIG d   1       2.975   0.524  -4.015  0.00  0.00     0.011 C 
ATOM      3  C   LIG d   1       2.449   0.564  -5.257  0.00  0.00     0.025 C 
ATOM      4  C   LIG d   1       3.164  -0.137  -6.333  0.00  0.00     0.202 C 
ATOM      5  C   LIG d   1       4.539  -0.574  -6.053  0.00  0.00     0.025 C 
ATOM      6  C   LIG d   1       4.964  -0.553  -4.772  0.00  0.00     0.011 C 
ATOM      7  H   LIG d   1       2.475   1.034  -3.206  0.00  0.00     0.081 H 
ATOM      8  H   LIG d   1       1.530   1.096  -5.453  0.00  0.00     0.070 H 
ATOM      9  H   LIG d   1       5.193  -0.898  -6.849  0.00  0.00     0.070 H 
ATOM     10  H   LIG d   1       5.972  -0.860  -4.537  0.00  0.00     0.081 H 
ENDROOT
BRANCH   1  11
ATOM     11  C   LIG d   1       4.494  -0.457  -2.386  0.00  0.00     0.020 C 
ATOM     12  H   LIG d   1       5.462  -0.959  -2.365  0.00  0.00     0.049 H 
ATOM     13  H   LIG d   1       3.738  -1.107  -1.946  0.00  0.00     0.049 H 
BRANCH  11  14
ATOM     14  C   LIG d   1       4.577   0.844  -1.584  0.00  0.00    -0.047 C 
ATOM     15  H   LIG d   1       4.435   0.628  -0.525  0.00  0.00     0.025 H 
ATOM     16  H   LIG d   1       5.555   1.302  -1.734  0.00  0.00     0.025 H 
ATOM     17  H   LIG d   1       3.799   1.529  -1.922  0.00  0.00     0.025 H 
ENDBRANCH  11  14
ENDBRANCH   1  11
BRANCH   4  18
ATOM     18  N   LIG d   1       2.594  -0.364  -7.505  0.00  0.00    -0.254 N 
ATOM     19  H   LIG d   1       1.820  -0.946  -7.562  0.00  0.00     0.443 HD
ATOM     20  H   LIG d   1       2.949   0.050  -8.306  0.00  0.00     0.443 HD
ENDBRANCH   4  18
TORSDOF 3
ENDMDL
MODEL 4
REMARK VINA RESULT:      -3.7      1.765      2.523
REMARK  3 active torsions:
REMARK  status: ('A' for Active; 'I' for Inactive)
REMARK    1  A    between atoms: C_1  and  C_2 
REMARK    2  A    between atoms: C_2  and  N_3 
REMARK    3  A    between atoms: C_6  and  N_7 
ROOT
ATOM      1  N   LIG d   1       6.379   0.447  -3.152  0.00  0.00    -0.353 N 
ATOM      2  C   LIG d   1       6.746  -0.846  -3.367  0.00  0.00     0.011 C 
ATOM      3  C   LIG d   1       5.900  -1.859  -3.090  0.00  0.00     0.025 C 
ATOM      4  C   LIG d   1       4.576  -1.523  -2.546  0.00  0.00     0.202 C 
ATOM      5  C   LIG d   1       4.377  -0.149  -2.063  0.00  0.00     0.025 C 
ATOM      6  C   LIG d   1       5.303   0.778  -2.387  0.00  0.00     0.011 C 
ATOM      7  H   LIG d   1       7.727  -1.063  -3.763  0.00  0.00     0.081 H 
ATOM      8  H   LIG d   1       6.186  -2.886  -3.264  0.00  0.00     0.070 H 
ATOM      9  H   LIG d   1       3.518   0.111  -1.462  0.00  0.00     0.070 H 
ATOM     10  H   LIG d   1       5.188   1.794  -2.039  0.00  0.00     0.081 H 
ENDROOT
BRANCH   1  11
ATOM     11  C   LIG d   1       7.171   1.517  -3.761  0.00  0.00     0.020 C 
ATOM     12  H   LIG d   1       7.959   1.822  -3.072  0.00  0.00     0.049 H 
ATOM     13  H   LIG d   1       6.526   2.369  -3.976  0.00  0.00     0.049 H 
BRANCH  11  14
ATOM     14  C   LIG d   1       7.798   1.011  -5.062  0.00  0.00    -0.047 C 
ATOM     15  H   LIG d   1       8.876   1.169  -5.031  0.00  0.00     0.025 H 
ATOM     16  H   LIG d   1       7.589  -0.052  -5.176  0.00  0.00     0.025 H 
ATOM     17  H   LIG d   1       7.375   1.557  -5.905  0.00  0.00     0.025 H 
ENDBRANCH  11  14
ENDBRANCH   1  11
BRANCH   4  18
ATOM     18  N   LIG d   1       3.605  -2.419  -2.493  0.00  0.00    -0.254 N 
ATOM     19  H   LIG d   1       3.596  -3.162  -3.117  0.00  0.00     0.443 HD
ATOM     20  H   LIG d   1       2.902  -2.334  -1.830  0.00  0.00     0.443 HD
ENDBRANCH   4  18
TORSDOF 3
ENDMDL
MODEL 5
REMARK VINA RESULT:      -3.7      1.255      1.993
REMARK  3 active torsions:
REMARK  status: ('A' for Active; 'I' for Inactive)
REMARK    1  A    between atoms: C_1  and  C_2 
REMARK    2  A    between atoms: C_2  and  N_3 
REMARK    3  A    between atoms: C_6  and  N_7 
ROOT
ATOM      1  N   LIG d   1       3.738  -0.398  -3.393  0.00  0.00    -0.353 N 
ATOM      2  C   LIG d   1       3.683  -1.533  -2.643  0.00  0.00     0.011 C 
ATOM      3  C   LIG d   1       4.179  -2.695  -3.115  0.00  0.00     0.025 C 
ATOM      4  C   LIG d   1       4.772  -2.698  -4.460  0.00  0.00     0.202 C 
ATOM      5  C   LIG d   1       4.517  -1.525  -5.308  0.00  0.00     0.025 C 
ATOM      6  C   LIG d   1       3.999  -0.422  -4.728  0.00  0.00     0.011 C 
ATOM      7  H   LIG d   1       3.236  -1.503  -1.661  0.00  0.00     0.081 H 
ATOM      8  H   LIG d   1       4.142  -3.597  -2.521  0.00  0.00     0.070 H 
ATOM      9  H   LIG d   1       4.734  -1.546  -6.367  0.00  0.00     0.070 H 
ATOM     10  H   LIG d   1       3.793   0.452  -5.328  0.00  0.00     0.081 H 
ENDROOT
BRANCH   1  11
ATOM     11  C   LIG d   1       3.502   0.892  -2.741  0.00  0.00     0.020 C 
ATOM     12  H   LIG d   1       2.497   0.905  -2.316  0.00  0.00     0.049 H 
ATOM     13  H   LIG d   1       3.597   1.693  -3.474  0.00  0.00     0.049 H 
BRANCH  11  14
ATOM     14  C   LIG d   1       4.530   1.095  -1.626  0.00  0.00    -0.047 C 
ATOM     15  H   LIG d   1       5.380   1.657  -2.014  0.00  0.00     0.025 H 
ATOM     16  H   LIG d   1       4.072   1.647  -0.805  0.00  0.00     0.025 H 
ATOM     17  H   LIG d   1       4.871   0.124  -1.266  0.00  0.00     0.025 H 
ENDBRANCH  11  14
ENDBRANCH   1  11
BRANCH   4  18
ATOM     18  N   LIG d   1       5.503  -3.713  -4.889  0.00  0.00    -0.254 N 
ATOM     19  H   LIG d   1       6.325  -3.545  -5.377  0.00  0.00     0.443 HD
ATOM     20  H   LIG d   1       5.219  -4.623  -4.717  0.00  0.00     0.443 HD
ENDBRANCH   4  18
TORSDOF 3
ENDMDL
MODEL 6
REMARK VINA RESULT:      -3.7      3.045      3.527
REMARK  3 active torsions:
REMARK  status: ('A' for Active; 'I' for Inactive)
REMARK    1  A    between atoms: C_1  and  C_2 
REMARK    2  A    between atoms: C_2  and  N_3 
REMARK    3  A    between atoms: C_6  and  N_7 
ROOT
ATOM      1  N   LIG d   1       3.303  -0.087  -5.709  0.00  0.00    -0.353 N 
ATOM      2  C   LIG d   1       4.363  -0.940  -5.665  0.00  0.00     0.011 C 
ATOM      3  C   LIG d   1       4.589  -1.703  -4.575  0.00  0.00     0.025 C 
ATOM      4  C   LIG d   1       3.661  -1.579  -3.441  0.00  0.00     0.202 C 
ATOM      5  C   LIG d   1       2.742  -0.432  -3.448  0.00  0.00     0.025 C 
ATOM      6  C   LIG d   1       2.611   0.271  -4.593  0.00  0.00     0.011 C 
ATOM      7  H   LIG d   1       5.030  -1.006  -6.511  0.00  0.00     0.081 H 
ATOM      8  H   LIG d   1       5.426  -2.384  -4.538  0.00  0.00     0.070 H 
ATOM      9  H   LIG d   1       2.189  -0.157  -2.561  0.00  0.00     0.070 H 
ATOM     10  H   LIG d   1       1.949   1.123  -4.625  0.00  0.00     0.081 H 
ENDROOT
BRANCH   1  11
ATOM     11  C   LIG d   1       2.896   0.469  -7.002  0.00  0.00     0.020 C 
ATOM     12  H   LIG d   1       3.570   1.281  -7.275  0.00  0.00     0.049 H 
ATOM     13  H   LIG d   1       1.878   0.850  -6.929  0.00  0.00     0.049 H 
BRANCH  11  14
ATOM     14  C   LIG d   1       2.957  -0.626  -8.069  0.00  0.00    -0.047 C 
ATOM     15  H   LIG d   1       2.249  -1.417  -7.818  0.00  0.00     0.025 H 
ATOM     16  H   LIG d   1       2.700  -0.202  -9.040  0.00  0.00     0.025 H 
ATOM     17  H   LIG d   1       3.965  -1.040  -8.107  0.00  0.00     0.025 H 
ENDBRANCH  11  14
ENDBRANCH   1  11
BRANCH   4  18
ATOM     18  N   LIG d   1       3.656  -2.461  -2.456  0.00  0.00    -0.254 N 
ATOM     19  H   LIG d   1       4.106  -3.313  -2.566  0.00  0.00     0.443 HD
ATOM     20  H   LIG d   1       3.202  -2.256  -1.624  0.00  0.00     0.443 HD
ENDBRANCH   4  18
TORSDOF 3
ENDMDL
MODEL 7
REMARK VINA RESULT:      -3.6      1.596      3.914
REMARK  3 active torsions:
REMARK  status: ('A' for Active; 'I' for Inactive)
REMARK    1  A    between atoms: C_1  and  C_2 
REMARK    2  A    between atoms: C_2  and  N_3 
REMARK    3  A    between atoms: C_6  and  N_7 
ROOT
ATOM      1  N   LIG d   1       6.148  -1.365  -3.325  0.00  0.00    -0.353 N 
ATOM      2  C   LIG d   1       5.050  -1.765  -2.626  0.00  0.00     0.011 C 
ATOM      3  C   LIG d   1       4.160  -0.862  -2.165  0.00  0.00     0.025 C 
ATOM      4  C   LIG d   1       4.417   0.560  -2.434  0.00  0.00     0.202 C 
ATOM      5  C   LIG d   1       5.758   0.921  -2.916  0.00  0.00     0.025 C 
ATOM      6  C   LIG d   1       6.571  -0.072  -3.336  0.00  0.00     0.011 C 
ATOM      7  H   LIG d   1       4.890  -2.816  -2.439  0.00  0.00     0.081 H 
ATOM      8  H   LIG d   1       3.286  -1.175  -1.614  0.00  0.00     0.070 H 
ATOM      9  H   LIG d   1       6.086   1.950  -2.930  0.00  0.00     0.070 H 
ATOM     10  H   LIG d   1       7.564   0.163  -3.688  0.00  0.00     0.081 H 
ENDROOT
BRANCH   1  11
ATOM     11  C   LIG d   1       6.903  -2.363  -4.086  0.00  0.00     0.020 C 
ATOM     12  H   LIG d   1       7.601  -2.873  -3.422  0.00  0.00     0.049 H 
ATOM     13  H   LIG d   1       7.456  -1.869  -4.884  0.00  0.00     0.049 H 
BRANCH  11  14
ATOM     14  C   LIG d   1       5.936  -3.383  -4.690  0.00  0.00    -0.047 C 
ATOM     15  H   LIG d   1       4.910  -3.058  -4.514  0.00  0.00     0.025 H 
ATOM     16  H   LIG d   1       6.114  -3.461  -5.763  0.00  0.00     0.025 H 
ATOM     17  H   LIG d   1       6.095  -4.355  -4.223  0.00  0.00     0.025 H 
ENDBRANCH  11  14
ENDBRANCH   1  11
BRANCH   4  18
ATOM     18  N   LIG d   1       3.482   1.476  -2.249  0.00  0.00    -0.254 N 
ATOM     19  H   LIG d   1       2.624   1.391  -2.696  0.00  0.00     0.443 HD
ATOM     20  H   LIG d   1       3.652   2.233  -1.668  0.00  0.00     0.443 HD
ENDBRANCH   4  18
TORSDOF 3
ENDMDL
MODEL 8
REMARK VINA RESULT:      -3.6      1.696      3.636
REMARK  3 active torsions:
REMARK  status: ('A' for Active; 'I' for Inactive)
REMARK    1  A    between atoms: C_1  and  C_2 
REMARK    2  A    between atoms: C_2  and  N_3 
REMARK    3  A    between atoms: C_6  and  N_7 
ROOT
ATOM      1  N   LIG d   1       5.257  -0.910  -2.722  0.00  0.00    -0.353 N 
ATOM      2  C   LIG d   1       5.055   0.402  -2.420  0.00  0.00     0.011 C 
ATOM      3  C   LIG d   1       5.856   1.358  -2.935  0.00  0.00     0.025 C 
ATOM      4  C   LIG d   1       6.950   0.939  -3.823  0.00  0.00     0.202 C 
ATOM      5  C   LIG d   1       7.282  -0.493  -3.849  0.00  0.00     0.025 C 
ATOM      6  C   LIG d   1       6.413  -1.357  -3.284  0.00  0.00     0.011 C 
ATOM      7  H   LIG d   1       4.247   0.681  -1.761  0.00  0.00     0.081 H 
ATOM      8  H   LIG d   1       5.696   2.401  -2.703  0.00  0.00     0.070 H 
ATOM      9  H   LIG d   1       8.197  -0.844  -4.303  0.00  0.00     0.070 H 
ATOM     10  H   LIG d   1       6.634  -2.414  -3.280  0.00  0.00     0.081 H 
ENDROOT
BRANCH   1  11
ATOM     11  C   LIG d   1       4.195  -1.874  -2.426  0.00  0.00     0.020 C 
ATOM     12  H   LIG d   1       4.201  -2.104  -1.360  0.00  0.00     0.049 H 
ATOM     13  H   LIG d   1       4.364  -2.787  -2.996  0.00  0.00     0.049 H 
BRANCH  11  14
ATOM     14  C   LIG d   1       2.840  -1.275  -2.811  0.00  0.00    -0.047 C 
ATOM     15  H   LIG d   1       2.303  -1.975  -3.451  0.00  0.00     0.025 H 
ATOM     16  H   LIG d   1       2.258  -1.084  -1.910  0.00  0.00     0.025 H 
ATOM     17  H   LIG d   1       2.997  -0.339  -3.348  0.00  0.00     0.025 H 
ENDBRANCH  11  14
ENDBRANCH   1  11
BRANCH   4  18
ATOM     18  N   LIG d   1       7.608   1.812  -4.566  0.00  0.00    -0.254 N 
ATOM     19  H   LIG d   1       7.641   2.746  -4.302  0.00  0.00     0.443 HD
ATOM     20  H   LIG d   1       8.058   1.521  -5.374  0.00  0.00     0.443 HD
ENDBRANCH   4  18
TORSDOF 3
ENDMDL
MODEL 9
REMARK VINA RESULT:      -3.5      1.624      2.376
REMARK  3 active torsions:
REMARK  status: ('A' for Active; 'I' for Inactive)
REMARK    1  A    between atoms: C_1  and  C_2 
REMARK    2  A    between atoms: C_2  and  N_3 
REMARK    3  A    between atoms: C_6  and  N_7 
ROOT
ATOM      1  N   LIG d   1       4.582  -0.677  -3.270  0.00  0.00    -0.353 N 
ATOM      2  C   LIG d   1       4.554  -1.947  -3.759  0.00  0.00     0.011 C 
ATOM      3  C   LIG d   1       5.696  -2.643  -3.936  0.00  0.00     0.025 C 
ATOM      4  C   LIG d   1       6.965  -1.986  -3.592  0.00  0.00     0.202 C 
ATOM      5  C   LIG d   1       6.931  -0.534  -3.368  0.00  0.00     0.025 C 
ATOM      6  C   LIG d   1       5.726   0.058  -3.224  0.00  0.00     0.011 C 
ATOM      7  H   LIG d   1       3.607  -2.402  -4.008  0.00  0.00     0.081 H 
ATOM      8  H   LIG d   1       5.678  -3.652  -4.319  0.00  0.00     0.070 H 
ATOM      9  H   LIG d   1       7.842   0.044  -3.324  0.00  0.00     0.070 H 
ATOM     10  H   LIG d   1       5.670   1.125  -3.066  0.00  0.00     0.081 H 
ENDROOT
BRANCH   1  11
ATOM     11  C   LIG d   1       3.337  -0.080  -2.782  0.00  0.00     0.020 C 
ATOM     12  H   LIG d   1       2.962  -0.661  -1.939  0.00  0.00     0.049 H 
ATOM     13  H   LIG d   1       2.596  -0.080  -3.582  0.00  0.00     0.049 H 
BRANCH  11  14
ATOM     14  C   LIG d   1       3.603   1.358  -2.332  0.00  0.00    -0.047 C 
ATOM     15  H   LIG d   1       4.624   1.637  -2.593  0.00  0.00     0.025 H 
ATOM     16  H   LIG d   1       2.904   2.030  -2.830  0.00  0.00     0.025 H 
ATOM     17  H   LIG d   1       3.471   1.431  -1.253  0.00  0.00     0.025 H 
ENDBRANCH  11  14
ENDBRANCH   1  11
BRANCH   4  18
ATOM     18  N   LIG d   1       8.091  -2.673  -3.489  0.00  0.00    -0.254 N 
ATOM     19  H   LIG d   1       8.500  -3.054  -4.282  0.00  0.00     0.443 HD
ATOM     20  H   LIG d   1       8.508  -2.795  -2.622  0.00  0.00     0.443 HD
ENDBRANCH   4  18
TORSDOF 3
ENDMDL
MODEL 10
REMARK VINA RESULT:      -3.5      1.693      3.729
REMARK  3 active torsions:
REMARK  status: ('A' for Active; 'I' for Inactive)
REMARK    1  A    between atoms: C_1  and  C_2 
REMARK    2  A    between atoms: C_2  and  N_3 
REMARK    3  A    between atoms: C_6  and  N_7 
ROOT
ATOM      1  N   LIG d   1       4.278  -1.944  -4.273  0.00  0.00    -0.353 N 
ATOM      2  C   LIG d   1       3.947  -0.682  -4.662  0.00  0.00     0.011 C 
ATOM      3  C   LIG d   1       3.928   0.331  -3.771  0.00  0.00     0.025 C 
ATOM      4  C   LIG d   1       4.267   0.028  -2.373  0.00  0.00     0.202 C 
ATOM      5  C   LIG d   1       4.309  -1.389  -1.985  0.00  0.00     0.025 C 
ATOM      6  C   LIG d   1       4.304  -2.318  -2.965  0.00  0.00     0.011 C 
ATOM      7  H   LIG d   1       3.697  -0.490  -5.695  0.00  0.00     0.081 H 
ATOM      8  H   LIG d   1       3.671   1.334  -4.077  0.00  0.00     0.070 H 
ATOM      9  H   LIG d   1       4.338  -1.681  -0.945  0.00  0.00     0.070 H 
ATOM     10  H   LIG d   1       4.326  -3.366  -2.710  0.00  0.00     0.081 H 
ENDROOT
BRANCH   1  11
ATOM     11  C   LIG d   1       4.610  -2.935  -5.299  0.00  0.00     0.020 C 
ATOM     12  H   LIG d   1       3.804  -3.665  -5.374  0.00  0.00     0.049 H 
ATOM     13  H   LIG d   1       5.536  -3.443  -5.027  0.00  0.00     0.049 H 
BRANCH  11  14
ATOM     14  C   LIG d   1       4.790  -2.233  -6.647  0.00  0.00    -0.047 C 
ATOM     15  H   LIG d   1       5.182  -2.943  -7.376  0.00  0.00     0.025 H 
ATOM     16  H   LIG d   1       3.828  -1.853  -6.990  0.00  0.00     0.025 H 
ATOM     17  H   LIG d   1       5.490  -1.405  -6.534  0.00  0.00     0.025 H 
ENDBRANCH  11  14
ENDBRANCH   1  11
BRANCH   4  18
ATOM     18  N   LIG d   1       4.523   0.989  -1.502  0.00  0.00    -0.254 N 
ATOM     19  H   LIG d   1       3.796   1.403  -1.011  0.00  0.00     0.443 HD
ATOM     20  H   LIG d   1       5.436   1.279  -1.354  0.00  0.00     0.443 HD
ENDBRANCH   4  18
TORSDOF 3
ENDMDL
