MODEL 1
REMARK VINA RESULT:      -5.6      0.000      0.000
REMARK  7 active torsions:
REMARK  status: ('A' for Active; 'I' for Inactive)
REMARK    1  A    between atoms: C_1  and  O_2 
REMARK    2  A    between atoms: O_2  and  C_3 
REMARK    3  A    between atoms: C_3  and  C_4 
REMARK       I    between atoms: C_4  and  N_6 
REMARK    4  A    between atoms: N_6  and  C_7 
REMARK    5  A    between atoms: C_18  and  O_25 
REMARK    6  A    between atoms: O_25  and  C_26 
REMARK    7  A    between atoms: C_26  and  C_27 
ROOT
ATOM      1  C   LIG d   1       4.690  -5.741  -7.624  0.00  0.00     0.052 C 
ATOM      2  H   LIG d   1       5.771  -5.645  -7.721  0.00  0.00     0.052 H 
ATOM      3  C   LIG d   1       4.000  -5.727  -9.017  0.00  0.00    -0.016 C 
ATOM      4  C   LIG d   1       3.932  -4.218  -9.347  0.00  0.00     0.017 C 
ATOM      5  N   LIG d   1       4.000  -3.496  -8.071  0.00  0.00    -0.286 N 
ATOM      6  CA  LIG d   1       4.072  -4.482  -6.974  0.00  0.00     0.121 C 
ATOM      7  HA  LIG d   1       3.081  -4.695  -6.574  0.00  0.00     0.061 H 
ATOM      8  C   LIG d   1       4.994  -3.949  -5.907  0.00  0.00     0.239 C 
ATOM      9  O   LIG d   1       5.581  -4.702  -5.159  0.00  0.00    -0.274 OA
ATOM     10  N   LIG d   1       5.151  -2.612  -5.805  0.00  0.00    -0.286 N 
ATOM     11  C   LIG d   1       6.173  -1.888  -5.021  0.00  0.00     0.042 C 
ATOM     12  C   LIG d   1       5.964  -0.380  -5.283  0.00  0.00     0.076 C 
ATOM     13  H   LIG d   1       6.922   0.137  -5.349  0.00  0.00     0.061 H 
ATOM     14  C   LIG d   1       5.238  -0.369  -6.658  0.00  0.00     0.002 C 
ATOM     15  CA  LIG d   1       4.333  -1.616  -6.527  0.00  0.00     0.105 C 
ATOM     16  HA  LIG d   1       3.424  -1.383  -5.973  0.00  0.00     0.060 H 
ATOM     17  C   LIG d   1       4.008  -2.158  -7.895  0.00  0.00     0.237 C 
ATOM     18  O   LIG d   1       3.758  -1.410  -8.816  0.00  0.00    -0.274 OA
ATOM     19  H   LIG d   1       4.605  -6.256  -9.753  0.00  0.00     0.030 H 
ATOM     20  H   LIG d   1       3.000  -6.154  -8.958  0.00  0.00     0.030 H 
ATOM     21  H   LIG d   1       4.776  -3.937  -9.977  0.00  0.00     0.046 H 
ATOM     22  H   LIG d   1       2.994  -3.990  -9.853  0.00  0.00     0.046 H 
ATOM     23  H   LIG d   1       7.173  -2.185  -5.338  0.00  0.00     0.049 H 
ATOM     24  H   LIG d   1       6.040  -2.103  -3.961  0.00  0.00     0.049 H 
ATOM     25  H   LIG d   1       5.947  -0.483  -7.477  0.00  0.00     0.031 H 
ATOM     26  H   LIG d   1       4.643   0.536  -6.779  0.00  0.00     0.031 H 
ENDROOT
BRANCH   1  27
ATOM     27  N   LIG d   1       4.336  -6.950  -6.874  0.00  0.00    -0.308 N 
ATOM     28  C   LIG d   1       5.268  -7.896  -6.643  0.00  0.00     0.239 C 
ATOM     29  O   LIG d   1       6.398  -7.749  -7.058  0.00  0.00    -0.273 OA
ATOM     30  H   LIG d   1       3.432  -7.068  -6.543  0.00  0.00     0.149 HD
BRANCH  28  31
ATOM     31  C   LIG d   1       4.904  -9.139  -5.872  0.00  0.00     0.123 C 
ATOM     32  H   LIG d   1       5.811  -9.685  -5.613  0.00  0.00     0.066 H 
ATOM     33  H   LIG d   1       4.262  -9.772  -6.484  0.00  0.00     0.066 H 
BRANCH  31  34
ATOM     34  O   LIG d   1       4.212  -8.771  -4.677  0.00  0.00    -0.374 OA
BRANCH  34  35
ATOM     35  C   LIG d   1       4.049  -9.844  -3.746  0.00  0.00     0.037 C 
ATOM     36  H   LIG d   1       3.441 -10.627  -4.197  0.00  0.00     0.052 H 
ATOM     37  H   LIG d   1       5.026 -10.249  -3.485  0.00  0.00     0.052 H 
ATOM     38  H   LIG d   1       3.556  -9.473  -2.848  0.00  0.00     0.052 H 
ENDBRANCH  34  35
ENDBRANCH  31  34
ENDBRANCH  28  31
ENDBRANCH   1  27
BRANCH  12  39
ATOM     39  O   LIG d   1       5.141   0.201  -4.270  0.00  0.00    -0.375 OA
BRANCH  39  40
ATOM     40  C   LIG d   1       5.496  -0.185  -2.941  0.00  0.00     0.051 C 
ATOM     41  H   LIG d   1       6.203  -1.014  -2.980  0.00  0.00     0.056 H 
ATOM     42  H   LIG d   1       5.952   0.659  -2.426  0.00  0.00     0.056 H 
BRANCH  40  43
ATOM     43  C   LIG d   1       4.239  -0.624  -2.185  0.00  0.00    -0.018 A 
ATOM     44  C   LIG d   1       3.001  -0.970  -3.015  0.00  0.00    -0.048 A 
ATOM     45  C   LIG d   1       3.800  -2.083  -2.332  0.00  0.00    -0.048 A 
ATOM     46  H   LIG d   1       2.027  -0.719  -2.594  0.00  0.00     0.027 H 
ATOM     47  H   LIG d   1       3.081  -0.884  -4.099  0.00  0.00     0.027 H 
ATOM     48  H   LIG d   1       4.406  -2.728  -2.968  0.00  0.00     0.027 H 
ATOM     49  H   LIG d   1       3.351  -2.564  -1.463  0.00  0.00     0.027 H 
ATOM     50  H   LIG d   1       4.080  -0.146  -1.219  0.00  0.00     0.032 H 
ENDBRANCH  40  43
ENDBRANCH  39  40
ENDBRANCH  12  39
TORSDOF 7
ENDMDL
MODEL 2
REMARK VINA RESULT:      -5.5      3.222      5.761
REMARK  7 active torsions:
REMARK  status: ('A' for Active; 'I' for Inactive)
REMARK    1  A    between atoms: C_1  and  O_2 
REMARK    2  A    between atoms: O_2  and  C_3 
REMARK    3  A    between atoms: C_3  and  C_4 
REMARK       I    between atoms: C_4  and  N_6 
REMARK    4  A    between atoms: N_6  and  C_7 
REMARK    5  A    between atoms: C_18  and  O_25 
REMARK    6  A    between atoms: O_25  and  C_26 
REMARK    7  A    between atoms: C_26  and  C_27 
ROOT
ATOM      1  C   LIG d   1       3.377  -0.731 -10.990  0.00  0.00     0.052 C 
ATOM      2  H   LIG d   1       4.092  -1.512 -11.249  0.00  0.00     0.052 H 
ATOM      3  C   LIG d   1       3.934   0.676 -11.344  0.00  0.00    -0.016 C 
ATOM      4  C   LIG d   1       4.858   0.988 -10.143  0.00  0.00     0.017 C 
ATOM      5  N   LIG d   1       4.394   0.165  -9.020  0.00  0.00    -0.286 N 
ATOM      6  CA  LIG d   1       3.216  -0.610  -9.457  0.00  0.00     0.121 C 
ATOM      7  HA  LIG d   1       2.291  -0.092  -9.202  0.00  0.00     0.061 H 
ATOM      8  C   LIG d   1       3.275  -1.977  -8.823  0.00  0.00     0.239 C 
ATOM      9  O   LIG d   1       2.732  -2.928  -9.343  0.00  0.00    -0.274 OA
ATOM     10  N   LIG d   1       3.950  -2.115  -7.663  0.00  0.00    -0.286 N 
ATOM     11  C   LIG d   1       4.350  -3.377  -7.005  0.00  0.00     0.042 C 
ATOM     12  C   LIG d   1       5.149  -2.997  -5.738  0.00  0.00     0.076 C 
ATOM     13  H   LIG d   1       5.980  -3.686  -5.584  0.00  0.00     0.061 H 
ATOM     14  C   LIG d   1       5.671  -1.573  -6.077  0.00  0.00     0.002 C 
ATOM     15  CA  LIG d   1       4.467  -0.992  -6.855  0.00  0.00     0.105 C 
ATOM     16  HA  LIG d   1       3.704  -0.618  -6.172  0.00  0.00     0.060 H 
ATOM     17  C   LIG d   1       4.937   0.096  -7.787  0.00  0.00     0.237 C 
ATOM     18  O   LIG d   1       5.783   0.893  -7.436  0.00  0.00    -0.274 OA
ATOM     19  H   LIG d   1       4.505   0.644 -12.271  0.00  0.00     0.030 H 
ATOM     20  H   LIG d   1       3.128   1.406 -11.409  0.00  0.00     0.030 H 
ATOM     21  H   LIG d   1       5.888   0.732 -10.391  0.00  0.00     0.046 H 
ATOM     22  H   LIG d   1       4.786   2.044  -9.885  0.00  0.00     0.046 H 
ATOM     23  H   LIG d   1       4.973  -3.970  -7.673  0.00  0.00     0.049 H 
ATOM     24  H   LIG d   1       3.459  -3.941  -6.727  0.00  0.00     0.049 H 
ATOM     25  H   LIG d   1       6.559  -1.620  -6.707  0.00  0.00     0.031 H 
ATOM     26  H   LIG d   1       5.865  -1.000  -5.170  0.00  0.00     0.031 H 
ENDROOT
BRANCH   1  27
ATOM     27  N   LIG d   1       2.085  -0.965 -11.640  0.00  0.00    -0.308 N 
ATOM     28  C   LIG d   1       1.965  -1.933 -12.570  0.00  0.00     0.239 C 
ATOM     29  O   LIG d   1       2.926  -2.609 -12.871  0.00  0.00    -0.273 OA
ATOM     30  H   LIG d   1       1.316  -0.424 -11.400  0.00  0.00     0.149 HD
BRANCH  28  31
ATOM     31  C   LIG d   1       0.635  -2.174 -13.239  0.00  0.00     0.123 C 
ATOM     32  H   LIG d   1       0.701  -1.892 -14.290  0.00  0.00     0.066 H 
ATOM     33  H   LIG d   1      -0.132  -1.574 -12.749  0.00  0.00     0.066 H 
BRANCH  31  34
ATOM     34  O   LIG d   1       0.295  -3.558 -13.137  0.00  0.00    -0.374 OA
BRANCH  34  35
ATOM     35  C   LIG d   1      -0.169  -3.948 -11.842  0.00  0.00     0.037 C 
ATOM     36  H   LIG d   1       0.479  -3.517 -11.079  0.00  0.00     0.052 H 
ATOM     37  H   LIG d   1      -1.188  -3.589 -11.698  0.00  0.00     0.052 H 
ATOM     38  H   LIG d   1      -0.152  -5.035 -11.763  0.00  0.00     0.052 H 
ENDBRANCH  34  35
ENDBRANCH  31  34
ENDBRANCH  28  31
ENDBRANCH   1  27
BRANCH  12  39
ATOM     39  O   LIG d   1       4.296  -2.965  -4.592  0.00  0.00    -0.375 OA
BRANCH  39  40
ATOM     40  C   LIG d   1       4.951  -2.547  -3.393  0.00  0.00     0.051 C 
ATOM     41  H   LIG d   1       5.416  -3.409  -2.914  0.00  0.00     0.056 H 
ATOM     42  H   LIG d   1       5.714  -1.808  -3.633  0.00  0.00     0.056 H 
BRANCH  40  43
ATOM     43  C   LIG d   1       3.924  -1.928  -2.441  0.00  0.00    -0.018 A 
ATOM     44  C   LIG d   1       3.989  -0.415  -2.219  0.00  0.00    -0.048 A 
ATOM     45  C   LIG d   1       2.855  -1.019  -3.051  0.00  0.00    -0.048 A 
ATOM     46  H   LIG d   1       3.741  -0.042  -1.225  0.00  0.00     0.027 H 
ATOM     47  H   LIG d   1       4.763   0.138  -2.750  0.00  0.00     0.027 H 
ATOM     48  H   LIG d   1       2.883  -0.861  -4.128  0.00  0.00     0.027 H 
ATOM     49  H   LIG d   1       1.860  -1.041  -2.604  0.00  0.00     0.027 H 
ATOM     50  H   LIG d   1       3.633  -2.549  -1.594  0.00  0.00     0.032 H 
ENDBRANCH  40  43
ENDBRANCH  39  40
ENDBRANCH  12  39
TORSDOF 7
ENDMDL
MODEL 3
REMARK VINA RESULT:      -5.4      4.164      7.745
REMARK  7 active torsions:
REMARK  status: ('A' for Active; 'I' for Inactive)
REMARK    1  A    between atoms: C_1  and  O_2 
REMARK    2  A    between atoms: O_2  and  C_3 
REMARK    3  A    between atoms: C_3  and  C_4 
REMARK       I    between atoms: C_4  and  N_6 
REMARK    4  A    between atoms: N_6  and  C_7 
REMARK    5  A    between atoms: C_18  and  O_25 
REMARK    6  A    between atoms: O_25  and  C_26 
REMARK    7  A    between atoms: C_26  and  C_27 
ROOT
ATOM      1  C   LIG d   1       9.232   0.358  -7.016  0.00  0.00     0.052 C 
ATOM      2  H   LIG d   1       8.717  -0.113  -7.852  0.00  0.00     0.052 H 
ATOM      3  C   LIG d   1      10.589  -0.344  -6.727  0.00  0.00    -0.016 C 
ATOM      4  C   LIG d   1      10.163  -1.576  -5.896  0.00  0.00     0.017 C 
ATOM      5  N   LIG d   1       8.861  -1.261  -5.296  0.00  0.00    -0.286 N 
ATOM      6  CA  LIG d   1       8.481   0.111  -5.687  0.00  0.00     0.121 C 
ATOM      7  HA  LIG d   1       8.783   0.833  -4.928  0.00  0.00     0.061 H 
ATOM      8  C   LIG d   1       6.992   0.150  -5.923  0.00  0.00     0.239 C 
ATOM      9  O   LIG d   1       6.501   0.971  -6.668  0.00  0.00    -0.274 OA
ATOM     10  N   LIG d   1       6.219  -0.753  -5.283  0.00  0.00    -0.286 N 
ATOM     11  C   LIG d   1       4.799  -1.063  -5.549  0.00  0.00     0.042 C 
ATOM     12  C   LIG d   1       4.395  -2.206  -4.591  0.00  0.00     0.076 C 
ATOM     13  H   LIG d   1       3.724  -2.907  -5.088  0.00  0.00     0.061 H 
ATOM     14  C   LIG d   1       5.758  -2.881  -4.271  0.00  0.00     0.002 C 
ATOM     15  CA  LIG d   1       6.693  -1.651  -4.211  0.00  0.00     0.105 C 
ATOM     16  HA  LIG d   1       6.635  -1.163  -3.238  0.00  0.00     0.060 H 
ATOM     17  C   LIG d   1       8.108  -2.069  -4.521  0.00  0.00     0.237 C 
ATOM     18  O   LIG d   1       8.560  -3.107  -4.084  0.00  0.00    -0.274 OA
ATOM     19  H   LIG d   1      11.070  -0.651  -7.655  0.00  0.00     0.030 H 
ATOM     20  H   LIG d   1      11.244   0.306  -6.147  0.00  0.00     0.030 H 
ATOM     21  H   LIG d   1      10.072  -2.447  -6.544  0.00  0.00     0.046 H 
ATOM     22  H   LIG d   1      10.897  -1.766  -5.113  0.00  0.00     0.046 H 
ATOM     23  H   LIG d   1       4.669  -1.381  -6.583  0.00  0.00     0.049 H 
ATOM     24  H   LIG d   1       4.190  -0.181  -5.352  0.00  0.00     0.049 H 
ATOM     25  H   LIG d   1       6.056  -3.562  -5.068  0.00  0.00     0.031 H 
ATOM     26  H   LIG d   1       5.724  -3.395  -3.310  0.00  0.00     0.031 H 
ENDROOT
BRANCH   1  27
ATOM     27  N   LIG d   1       9.421   1.792  -7.256  0.00  0.00    -0.308 N 
ATOM     28  C   LIG d   1       9.139   2.314  -8.467  0.00  0.00     0.239 C 
ATOM     29  O   LIG d   1       8.731   1.598  -9.357  0.00  0.00    -0.273 OA
ATOM     30  H   LIG d   1       9.748   2.364  -6.545  0.00  0.00     0.149 HD
BRANCH  28  31
ATOM     31  C   LIG d   1       9.334   3.789  -8.714  0.00  0.00     0.123 C 
ATOM     32  H   LIG d   1      10.262   3.945  -9.262  0.00  0.00     0.066 H 
ATOM     33  H   LIG d   1       9.381   4.314  -7.761  0.00  0.00     0.066 H 
BRANCH  31  34
ATOM     34  O   LIG d   1       8.237   4.291  -9.480  0.00  0.00    -0.374 OA
BRANCH  34  35
ATOM     35  C   LIG d   1       8.336   5.682  -9.793  0.00  0.00     0.037 C 
ATOM     36  H   LIG d   1       7.826   5.880 -10.735  0.00  0.00     0.052 H 
ATOM     37  H   LIG d   1       7.871   6.267  -8.999  0.00  0.00     0.052 H 
ATOM     38  H   LIG d   1       9.386   5.960  -9.883  0.00  0.00     0.052 H 
ENDBRANCH  34  35
ENDBRANCH  31  34
ENDBRANCH  28  31
ENDBRANCH   1  27
BRANCH  12  39
ATOM     39  O   LIG d   1       3.796  -1.684  -3.403  0.00  0.00    -0.375 OA
BRANCH  39  40
ATOM     40  C   LIG d   1       2.999  -0.518  -3.619  0.00  0.00     0.051 C 
ATOM     41  H   LIG d   1       3.219  -0.104  -4.603  0.00  0.00     0.056 H 
ATOM     42  H   LIG d   1       1.944  -0.783  -3.563  0.00  0.00     0.056 H 
BRANCH  40  43
ATOM     43  C   LIG d   1       3.321   0.525  -2.545  0.00  0.00    -0.018 A 
ATOM     44  C   LIG d   1       4.576   0.303  -1.699  0.00  0.00    -0.048 A 
ATOM     45  C   LIG d   1       4.554   1.404  -2.762  0.00  0.00    -0.048 A 
ATOM     46  H   LIG d   1       4.540   0.611  -0.654  0.00  0.00     0.027 H 
ATOM     47  H   LIG d   1       5.173  -0.585  -1.907  0.00  0.00     0.027 H 
ATOM     48  H   LIG d   1       5.135   1.240  -3.668  0.00  0.00     0.027 H 
ATOM     49  H   LIG d   1       4.503   2.437  -2.415  0.00  0.00     0.027 H 
ATOM     50  H   LIG d   1       2.458   0.978  -2.057  0.00  0.00     0.032 H 
ENDBRANCH  40  43
ENDBRANCH  39  40
ENDBRANCH  12  39
TORSDOF 7
ENDMDL
MODEL 4
REMARK VINA RESULT:      -5.4      3.475      4.807
REMARK  7 active torsions:
REMARK  status: ('A' for Active; 'I' for Inactive)
REMARK    1  A    between atoms: C_1  and  O_2 
REMARK    2  A    between atoms: O_2  and  C_3 
REMARK    3  A    between atoms: C_3  and  C_4 
REMARK       I    between atoms: C_4  and  N_6 
REMARK    4  A    between atoms: N_6  and  C_7 
REMARK    5  A    between atoms: C_18  and  O_25 
REMARK    6  A    between atoms: O_25  and  C_26 
REMARK    7  A    between atoms: C_26  and  C_27 
ROOT
ATOM      1  C   LIG d   1       2.787  -1.775 -10.570  0.00  0.00     0.052 C 
ATOM      2  H   LIG d   1       3.699  -2.316 -10.820  0.00  0.00     0.052 H 
ATOM      3  C   LIG d   1       2.674  -0.460 -11.391  0.00  0.00    -0.016 C 
ATOM      4  C   LIG d   1       3.581   0.512 -10.602  0.00  0.00     0.017 C 
ATOM      5  N   LIG d   1       3.673  -0.004  -9.231  0.00  0.00    -0.286 N 
ATOM      6  CA  LIG d   1       2.844  -1.221  -9.128  0.00  0.00     0.121 C 
ATOM      7  HA  LIG d   1       1.845  -0.985  -8.761  0.00  0.00     0.061 H 
ATOM      8  C   LIG d   1       3.543  -2.206  -8.225  0.00  0.00     0.239 C 
ATOM      9  O   LIG d   1       3.344  -3.397  -8.332  0.00  0.00    -0.274 OA
ATOM     10  N   LIG d   1       4.398  -1.727  -7.297  0.00  0.00    -0.286 N 
ATOM     11  C   LIG d   1       5.367  -2.499  -6.490  0.00  0.00     0.042 C 
ATOM     12  C   LIG d   1       6.146  -1.486  -5.622  0.00  0.00     0.076 C 
ATOM     13  H   LIG d   1       7.195  -1.772  -5.541  0.00  0.00     0.061 H 
ATOM     14  C   LIG d   1       5.997  -0.163  -6.424  0.00  0.00     0.002 C 
ATOM     15  CA  LIG d   1       4.552  -0.298  -6.957  0.00  0.00     0.105 C 
ATOM     16  HA  LIG d   1       3.827   0.004  -6.202  0.00  0.00     0.060 H 
ATOM     17  C   LIG d   1       4.392   0.517  -8.215  0.00  0.00     0.237 C 
ATOM     18  O   LIG d   1       4.898   1.615  -8.312  0.00  0.00    -0.274 OA
ATOM     19  H   LIG d   1       3.050  -0.603 -12.404  0.00  0.00     0.030 H 
ATOM     20  H   LIG d   1       1.645  -0.101 -11.406  0.00  0.00     0.030 H 
ATOM     21  H   LIG d   1       4.572   0.543 -11.054  0.00  0.00     0.046 H 
ATOM     22  H   LIG d   1       3.140   1.508 -10.596  0.00  0.00     0.046 H 
ATOM     23  H   LIG d   1       6.056  -3.037  -7.141  0.00  0.00     0.049 H 
ATOM     24  H   LIG d   1       4.832  -3.202  -5.852  0.00  0.00     0.049 H 
ATOM     25  H   LIG d   1       6.714  -0.117  -7.242  0.00  0.00     0.031 H 
ATOM     26  H   LIG d   1       6.094   0.704  -5.770  0.00  0.00     0.031 H 
ENDROOT
BRANCH   1  27
ATOM     27  N   LIG d   1       1.605  -2.621 -10.764  0.00  0.00    -0.308 N 
ATOM     28  C   LIG d   1       1.732  -3.834 -11.339  0.00  0.00     0.239 C 
ATOM     29  O   LIG d   1       2.823  -4.224 -11.698  0.00  0.00    -0.273 OA
ATOM     30  H   LIG d   1       0.733  -2.308 -10.478  0.00  0.00     0.149 HD
BRANCH  28  31
ATOM     31  C   LIG d   1       0.517  -4.703 -11.539  0.00  0.00     0.123 C 
ATOM     32  H   LIG d   1       0.826  -5.744 -11.627  0.00  0.00     0.066 H 
ATOM     33  H   LIG d   1      -0.001  -4.400 -12.448  0.00  0.00     0.066 H 
BRANCH  31  34
ATOM     34  O   LIG d   1      -0.360  -4.559 -10.420  0.00  0.00    -0.374 OA
BRANCH  34  35
ATOM     35  C   LIG d   1      -1.706  -4.961 -10.681  0.00  0.00     0.037 C 
ATOM     36  H   LIG d   1      -1.724  -6.015 -10.957  0.00  0.00     0.052 H 
ATOM     37  H   LIG d   1      -2.310  -4.810  -9.787  0.00  0.00     0.052 H 
ATOM     38  H   LIG d   1      -2.111  -4.364 -11.499  0.00  0.00     0.052 H 
ENDBRANCH  34  35
ENDBRANCH  31  34
ENDBRANCH  28  31
ENDBRANCH   1  27
BRANCH  12  39
ATOM     39  O   LIG d   1       5.551  -1.365  -4.328  0.00  0.00    -0.375 OA
BRANCH  39  40
ATOM     40  C   LIG d   1       4.841  -2.530  -3.904  0.00  0.00     0.051 C 
ATOM     41  H   LIG d   1       4.209  -2.886  -4.718  0.00  0.00     0.056 H 
ATOM     42  H   LIG d   1       5.551  -3.308  -3.627  0.00  0.00     0.056 H 
BRANCH  40  43
ATOM     43  C   LIG d   1       3.968  -2.183  -2.695  0.00  0.00    -0.018 A 
ATOM     44  C   LIG d   1       4.293  -0.894  -1.937  0.00  0.00    -0.048 A 
ATOM     45  C   LIG d   1       3.043  -0.970  -2.817  0.00  0.00    -0.048 A 
ATOM     46  H   LIG d   1       4.148  -0.896  -0.856  0.00  0.00     0.027 H 
ATOM     47  H   LIG d   1       5.128  -0.294  -2.299  0.00  0.00     0.027 H 
ATOM     48  H   LIG d   1       3.057  -0.420  -3.758  0.00  0.00     0.027 H 
ATOM     49  H   LIG d   1       2.077  -1.022  -2.316  0.00  0.00     0.027 H 
ATOM     50  H   LIG d   1       3.611  -3.033  -2.114  0.00  0.00     0.032 H 
ENDBRANCH  40  43
ENDBRANCH  39  40
ENDBRANCH  12  39
TORSDOF 7
ENDMDL
MODEL 5
REMARK VINA RESULT:      -5.3      2.501      5.721
REMARK  7 active torsions:
REMARK  status: ('A' for Active; 'I' for Inactive)
REMARK    1  A    between atoms: C_1  and  O_2 
REMARK    2  A    between atoms: O_2  and  C_3 
REMARK    3  A    between atoms: C_3  and  C_4 
REMARK       I    between atoms: C_4  and  N_6 
REMARK    4  A    between atoms: N_6  and  C_7 
REMARK    5  A    between atoms: C_18  and  O_25 
REMARK    6  A    between atoms: O_25  and  C_26 
REMARK    7  A    between atoms: C_26  and  C_27 
ROOT
ATOM      1  C   LIG d   1       3.539  -2.543  -8.613  0.00  0.00     0.052 C 
ATOM      2  H   LIG d   1       2.529  -2.267  -8.312  0.00  0.00     0.052 H 
ATOM      3  C   LIG d   1       3.648  -4.072  -8.872  0.00  0.00    -0.016 C 
ATOM      4  C   LIG d   1       3.811  -4.647  -7.446  0.00  0.00     0.017 C 
ATOM      5  N   LIG d   1       4.337  -3.566  -6.604  0.00  0.00    -0.286 N 
ATOM      6  CA  LIG d   1       4.537  -2.368  -7.444  0.00  0.00     0.121 C 
ATOM      7  HA  LIG d   1       5.562  -2.313  -7.811  0.00  0.00     0.061 H 
ATOM      8  C   LIG d   1       4.174  -1.147  -6.637  0.00  0.00     0.239 C 
ATOM      9  O   LIG d   1       3.806  -0.128  -7.181  0.00  0.00    -0.274 OA
ATOM     10  N   LIG d   1       4.269  -1.217  -5.292  0.00  0.00    -0.286 N 
ATOM     11  C   LIG d   1       3.737  -0.254  -4.306  0.00  0.00     0.042 C 
ATOM     12  C   LIG d   1       4.055  -0.816  -2.903  0.00  0.00     0.076 C 
ATOM     13  H   LIG d   1       3.231  -0.624  -2.214  0.00  0.00     0.061 H 
ATOM     14  C   LIG d   1       4.204  -2.340  -3.171  0.00  0.00     0.002 C 
ATOM     15  CA  LIG d   1       4.894  -2.334  -4.555  0.00  0.00     0.105 C 
ATOM     16  HA  LIG d   1       5.969  -2.182  -4.454  0.00  0.00     0.060 H 
ATOM     17  C   LIG d   1       4.596  -3.620  -5.281  0.00  0.00     0.237 C 
ATOM     18  O   LIG d   1       4.590  -4.680  -4.691  0.00  0.00    -0.274 OA
ATOM     19  H   LIG d   1       2.739  -4.450  -9.339  0.00  0.00     0.030 H 
ATOM     20  H   LIG d   1       4.522  -4.299  -9.482  0.00  0.00     0.030 H 
ATOM     21  H   LIG d   1       2.845  -4.977  -7.066  0.00  0.00     0.046 H 
ATOM     22  H   LIG d   1       4.513  -5.481  -7.460  0.00  0.00     0.046 H 
ATOM     23  H   LIG d   1       2.659  -0.145  -4.428  0.00  0.00     0.049 H 
ATOM     24  H   LIG d   1       4.226   0.711  -4.439  0.00  0.00     0.049 H 
ATOM     25  H   LIG d   1       3.230  -2.827  -3.221  0.00  0.00     0.031 H 
ATOM     26  H   LIG d   1       4.837  -2.810  -2.419  0.00  0.00     0.031 H 
ENDROOT
BRANCH   1  27
ATOM     27  N   LIG d   1       3.964  -1.778  -9.788  0.00  0.00    -0.308 N 
ATOM     28  C   LIG d   1       3.110  -0.916 -10.376  0.00  0.00     0.239 C 
ATOM     29  O   LIG d   1       1.990  -0.776  -9.934  0.00  0.00    -0.273 OA
ATOM     30  H   LIG d   1       4.860  -1.891 -10.143  0.00  0.00     0.149 HD
BRANCH  28  31
ATOM     31  C   LIG d   1       3.547  -0.130 -11.586  0.00  0.00     0.123 C 
ATOM     32  H   LIG d   1       2.783  -0.198 -12.359  0.00  0.00     0.066 H 
ATOM     33  H   LIG d   1       4.485  -0.536 -11.964  0.00  0.00     0.066 H 
BRANCH  31  34
ATOM     34  O   LIG d   1       3.735   1.239 -11.220  0.00  0.00    -0.374 OA
BRANCH  34  35
ATOM     35  C   LIG d   1       4.678   1.435 -10.165  0.00  0.00     0.037 C 
ATOM     36  H   LIG d   1       5.054   0.469  -9.830  0.00  0.00     0.052 H 
ATOM     37  H   LIG d   1       5.508   2.042 -10.528  0.00  0.00     0.052 H 
ATOM     38  H   LIG d   1       4.192   1.944  -9.333  0.00  0.00     0.052 H 
ENDBRANCH  34  35
ENDBRANCH  31  34
ENDBRANCH  28  31
ENDBRANCH   1  27
BRANCH  12  39
ATOM     39  O   LIG d   1       5.275  -0.268  -2.402  0.00  0.00    -0.375 OA
BRANCH  39  40
ATOM     40  C   LIG d   1       5.580   1.032  -2.910  0.00  0.00     0.051 C 
ATOM     41  H   LIG d   1       4.898   1.272  -3.727  0.00  0.00     0.056 H 
ATOM     42  H   LIG d   1       5.469   1.769  -2.115  0.00  0.00     0.056 H 
BRANCH  40  43
ATOM     43  C   LIG d   1       7.021   1.053  -3.426  0.00  0.00    -0.018 A 
ATOM     44  C   LIG d   1       7.622  -0.274  -3.896  0.00  0.00    -0.048 A 
ATOM     45  C   LIG d   1       7.239   0.799  -4.919  0.00  0.00    -0.048 A 
ATOM     46  H   LIG d   1       8.684  -0.438  -3.712  0.00  0.00     0.027 H 
ATOM     47  H   LIG d   1       6.991  -1.160  -3.837  0.00  0.00     0.027 H 
ATOM     48  H   LIG d   1       6.357   0.617  -5.533  0.00  0.00     0.027 H 
ATOM     49  H   LIG d   1       8.050   1.339  -5.409  0.00  0.00     0.027 H 
ATOM     50  H   LIG d   1       7.687   1.761  -2.933  0.00  0.00     0.032 H 
ENDBRANCH  40  43
ENDBRANCH  39  40
ENDBRANCH  12  39
TORSDOF 7
ENDMDL
MODEL 6
REMARK VINA RESULT:      -5.0      3.781      6.675
REMARK  7 active torsions:
REMARK  status: ('A' for Active; 'I' for Inactive)
REMARK    1  A    between atoms: C_1  and  O_2 
REMARK    2  A    between atoms: O_2  and  C_3 
REMARK    3  A    between atoms: C_3  and  C_4 
REMARK       I    between atoms: C_4  and  N_6 
REMARK    4  A    between atoms: N_6  and  C_7 
REMARK    5  A    between atoms: C_18  and  O_25 
REMARK    6  A    between atoms: O_25  and  C_26 
REMARK    7  A    between atoms: C_26  and  C_27 
ROOT
ATOM      1  C   LIG d   1       3.353   0.066  -6.048  0.00  0.00     0.052 C 
ATOM      2  H   LIG d   1       4.129   0.824  -6.160  0.00  0.00     0.052 H 
ATOM      3  C   LIG d   1       2.347   0.457  -4.929  0.00  0.00    -0.016 C 
ATOM      4  C   LIG d   1       3.088   0.028  -3.642  0.00  0.00     0.017 C 
ATOM      5  N   LIG d   1       4.061  -1.000  -4.028  0.00  0.00    -0.286 N 
ATOM      6  CA  LIG d   1       3.935  -1.248  -5.478  0.00  0.00     0.121 C 
ATOM      7  HA  LIG d   1       3.268  -2.088  -5.675  0.00  0.00     0.061 H 
ATOM      8  C   LIG d   1       5.310  -1.492  -6.048  0.00  0.00     0.239 C 
ATOM      9  O   LIG d   1       5.550  -1.264  -7.214  0.00  0.00    -0.274 OA
ATOM     10  N   LIG d   1       6.268  -1.969  -5.225  0.00  0.00    -0.286 N 
ATOM     11  C   LIG d   1       7.719  -2.043  -5.490  0.00  0.00     0.042 C 
ATOM     12  C   LIG d   1       8.386  -2.610  -4.218  0.00  0.00     0.076 C 
ATOM     13  H   LIG d   1       9.343  -2.120  -4.031  0.00  0.00     0.061 H 
ATOM     14  C   LIG d   1       7.360  -2.255  -3.106  0.00  0.00     0.002 C 
ATOM     15  CA  LIG d   1       6.024  -2.465  -3.856  0.00  0.00     0.105 C 
ATOM     16  HA  LIG d   1       5.744  -3.518  -3.865  0.00  0.00     0.060 H 
ATOM     17  C   LIG d   1       4.944  -1.625  -3.223  0.00  0.00     0.237 C 
ATOM     18  O   LIG d   1       4.870  -1.514  -2.017  0.00  0.00    -0.274 OA
ATOM     19  H   LIG d   1       2.167   1.532  -4.930  0.00  0.00     0.030 H 
ATOM     20  H   LIG d   1       1.414  -0.094  -5.039  0.00  0.00     0.030 H 
ATOM     21  H   LIG d   1       3.604   0.884  -3.208  0.00  0.00     0.046 H 
ATOM     22  H   LIG d   1       2.377  -0.384  -2.925  0.00  0.00     0.046 H 
ATOM     23  H   LIG d   1       8.115  -1.051  -5.707  0.00  0.00     0.049 H 
ATOM     24  H   LIG d   1       7.903  -2.709  -6.334  0.00  0.00     0.049 H 
ATOM     25  H   LIG d   1       7.471  -1.219  -2.786  0.00  0.00     0.031 H 
ATOM     26  H   LIG d   1       7.447  -2.936  -2.260  0.00  0.00     0.031 H 
ENDROOT
BRANCH   1  27
ATOM     27  N   LIG d   1       2.663  -0.169  -7.319  0.00  0.00    -0.308 N 
ATOM     28  C   LIG d   1       2.928   0.613  -8.385  0.00  0.00     0.239 C 
ATOM     29  O   LIG d   1       3.736   1.512  -8.291  0.00  0.00    -0.273 OA
ATOM     30  H   LIG d   1       2.016  -0.888  -7.393  0.00  0.00     0.149 HD
BRANCH  28  31
ATOM     31  C   LIG d   1       2.217   0.370  -9.692  0.00  0.00     0.123 C 
ATOM     32  H   LIG d   1       2.952   0.221 -10.482  0.00  0.00     0.066 H 
ATOM     33  H   LIG d   1       1.594   1.232  -9.932  0.00  0.00     0.066 H 
BRANCH  31  34
ATOM     34  O   LIG d   1       1.395  -0.793  -9.578  0.00  0.00    -0.374 OA
BRANCH  34  35
ATOM     35  C   LIG d   1       1.810  -1.881 -10.408  0.00  0.00     0.037 C 
ATOM     36  H   LIG d   1       0.998  -2.154 -11.081  0.00  0.00     0.052 H 
ATOM     37  H   LIG d   1       2.679  -1.580 -10.992  0.00  0.00     0.052 H 
ATOM     38  H   LIG d   1       2.068  -2.736  -9.784  0.00  0.00     0.052 H 
ENDBRANCH  34  35
ENDBRANCH  31  34
ENDBRANCH  28  31
ENDBRANCH   1  27
BRANCH  12  39
ATOM     39  O   LIG d   1       8.553  -4.026  -4.320  0.00  0.00    -0.375 OA
BRANCH  39  40
ATOM     40  C   LIG d   1       9.893  -4.434  -4.603  0.00  0.00     0.051 C 
ATOM     41  H   LIG d   1       9.885  -5.179  -5.399  0.00  0.00     0.056 H 
ATOM     42  H   LIG d   1      10.478  -3.571  -4.919  0.00  0.00     0.056 H 
BRANCH  40  43
ATOM     43  C   LIG d   1      10.517  -5.040  -3.344  0.00  0.00    -0.018 A 
ATOM     44  C   LIG d   1       9.725  -4.928  -2.039  0.00  0.00    -0.048 A 
ATOM     45  C   LIG d   1       9.845  -6.279  -2.749  0.00  0.00    -0.048 A 
ATOM     46  H   LIG d   1      10.292  -4.792  -1.117  0.00  0.00     0.027 H 
ATOM     47  H   LIG d   1       8.760  -4.423  -2.078  0.00  0.00     0.027 H 
ATOM     48  H   LIG d   1       8.958  -6.662  -3.253  0.00  0.00     0.027 H 
ATOM     49  H   LIG d   1      10.489  -7.032  -2.293  0.00  0.00     0.027 H 
ATOM     50  H   LIG d   1      11.603  -4.978  -3.281  0.00  0.00     0.032 H 
ENDBRANCH  40  43
ENDBRANCH  39  40
ENDBRANCH  12  39
TORSDOF 7
ENDMDL
MODEL 7
REMARK VINA RESULT:      -4.9      5.860      9.980
REMARK  7 active torsions:
REMARK  status: ('A' for Active; 'I' for Inactive)
REMARK    1  A    between atoms: C_1  and  O_2 
REMARK    2  A    between atoms: O_2  and  C_3 
REMARK    3  A    between atoms: C_3  and  C_4 
REMARK       I    between atoms: C_4  and  N_6 
REMARK    4  A    between atoms: N_6  and  C_7 
REMARK    5  A    between atoms: C_18  and  O_25 
REMARK    6  A    between atoms: O_25  and  C_26 
REMARK    7  A    between atoms: C_26  and  C_27 
ROOT
ATOM      1  C   LIG d   1      10.014   4.913  -5.130  0.00  0.00     0.052 C 
ATOM      2  H   LIG d   1       9.029   5.296  -4.866  0.00  0.00     0.052 H 
ATOM      3  C   LIG d   1      10.402   5.319  -6.580  0.00  0.00    -0.016 C 
ATOM      4  C   LIG d   1       9.657   4.269  -7.437  0.00  0.00     0.017 C 
ATOM      5  N   LIG d   1       9.415   3.105  -6.576  0.00  0.00    -0.286 N 
ATOM      6  CA  LIG d   1      10.000   3.371  -5.247  0.00  0.00     0.121 C 
ATOM      7  HA  LIG d   1      11.009   2.965  -5.175  0.00  0.00     0.061 H 
ATOM      8  C   LIG d   1       9.093   2.784  -4.195  0.00  0.00     0.239 C 
ATOM      9  O   LIG d   1       9.074   3.233  -3.069  0.00  0.00    -0.274 OA
ATOM     10  N   LIG d   1       8.304   1.745  -4.539  0.00  0.00    -0.286 N 
ATOM     11  C   LIG d   1       7.176   1.183  -3.765  0.00  0.00     0.042 C 
ATOM     12  C   LIG d   1       6.562   0.048  -4.614  0.00  0.00     0.076 C 
ATOM     13  H   LIG d   1       5.476   0.039  -4.520  0.00  0.00     0.061 H 
ATOM     14  C   LIG d   1       6.986   0.433  -6.059  0.00  0.00     0.002 C 
ATOM     15  CA  LIG d   1       8.402   1.003  -5.812  0.00  0.00     0.105 C 
ATOM     16  HA  LIG d   1       9.138   0.203  -5.743  0.00  0.00     0.060 H 
ATOM     17  C   LIG d   1       8.762   1.973  -6.909  0.00  0.00     0.237 C 
ATOM     18  O   LIG d   1       8.472   1.740  -8.064  0.00  0.00    -0.274 OA
ATOM     19  H   LIG d   1      10.049   6.324  -6.807  0.00  0.00     0.030 H 
ATOM     20  H   LIG d   1      11.479   5.243  -6.727  0.00  0.00     0.030 H 
ATOM     21  H   LIG d   1       8.709   4.679  -7.784  0.00  0.00     0.046 H 
ATOM     22  H   LIG d   1      10.274   3.980  -8.288  0.00  0.00     0.046 H 
ATOM     23  H   LIG d   1       6.428   1.953  -3.577  0.00  0.00     0.049 H 
ATOM     24  H   LIG d   1       7.545   0.783  -2.821  0.00  0.00     0.049 H 
ATOM     25  H   LIG d   1       6.324   1.194  -6.473  0.00  0.00     0.031 H 
ATOM     26  H   LIG d   1       7.023  -0.445  -6.704  0.00  0.00     0.031 H 
ENDROOT
BRANCH   1  27
ATOM     27  N   LIG d   1      11.026   5.360  -4.169  0.00  0.00    -0.308 N 
ATOM     28  C   LIG d   1      10.708   6.276  -3.233  0.00  0.00     0.239 C 
ATOM     29  O   LIG d   1       9.585   6.732  -3.187  0.00  0.00    -0.273 OA
ATOM     30  H   LIG d   1      11.924   4.996  -4.206  0.00  0.00     0.149 HD
BRANCH  28  31
ATOM     31  C   LIG d   1      11.749   6.736  -2.245  0.00  0.00     0.123 C 
ATOM     32  H   LIG d   1      11.294   7.424  -1.531  0.00  0.00     0.066 H 
ATOM     33  H   LIG d   1      12.555   7.243  -2.775  0.00  0.00     0.066 H 
BRANCH  31  34
ATOM     34  O   LIG d   1      12.276   5.605  -1.548  0.00  0.00    -0.374 OA
BRANCH  34  35
ATOM     35  C   LIG d   1      11.854   5.514  -0.185  0.00  0.00     0.037 C 
ATOM     36  H   LIG d   1      12.724   5.379   0.456  0.00  0.00     0.052 H 
ATOM     37  H   LIG d   1      11.334   6.430   0.096  0.00  0.00     0.052 H 
ATOM     38  H   LIG d   1      11.181   4.664  -0.070  0.00  0.00     0.052 H 
ENDBRANCH  34  35
ENDBRANCH  31  34
ENDBRANCH  28  31
ENDBRANCH   1  27
BRANCH  12  39
ATOM     39  O   LIG d   1       7.114  -1.217  -4.244  0.00  0.00    -0.375 OA
BRANCH  39  40
ATOM     40  C   LIG d   1       6.375  -1.899  -3.229  0.00  0.00     0.051 C 
ATOM     41  H   LIG d   1       6.375  -2.969  -3.436  0.00  0.00     0.056 H 
ATOM     42  H   LIG d   1       6.836  -1.716  -2.258  0.00  0.00     0.056 H 
BRANCH  40  43
ATOM     43  C   LIG d   1       4.934  -1.382  -3.214  0.00  0.00    -0.018 A 
ATOM     44  C   LIG d   1       3.893  -2.216  -2.465  0.00  0.00    -0.048 A 
ATOM     45  C   LIG d   1       4.375  -0.886  -1.879  0.00  0.00    -0.048 A 
ATOM     46  H   LIG d   1       2.883  -2.248  -2.876  0.00  0.00     0.027 H 
ATOM     47  H   LIG d   1       4.234  -3.132  -1.982  0.00  0.00     0.027 H 
ATOM     48  H   LIG d   1       5.033  -0.928  -1.012  0.00  0.00     0.027 H 
ATOM     49  H   LIG d   1       3.683  -0.045  -1.905  0.00  0.00     0.027 H 
ATOM     50  H   LIG d   1       4.611  -0.867  -4.118  0.00  0.00     0.032 H 
ENDBRANCH  40  43
ENDBRANCH  39  40
ENDBRANCH  12  39
TORSDOF 7
ENDMDL
MODEL 8
REMARK VINA RESULT:      -4.9     10.797     15.719
REMARK  7 active torsions:
REMARK  status: ('A' for Active; 'I' for Inactive)
REMARK    1  A    between atoms: C_1  and  O_2 
REMARK    2  A    between atoms: O_2  and  C_3 
REMARK    3  A    between atoms: C_3  and  C_4 
REMARK       I    between atoms: C_4  and  N_6 
REMARK    4  A    between atoms: N_6  and  C_7 
REMARK    5  A    between atoms: C_18  and  O_25 
REMARK    6  A    between atoms: O_25  and  C_26 
REMARK    7  A    between atoms: C_26  and  C_27 
ROOT
ATOM      1  C   LIG d   1      10.779  10.522  -0.637  0.00  0.00     0.052 C 
ATOM      2  H   LIG d   1      11.646  10.461  -1.294  0.00  0.00     0.052 H 
ATOM      3  C   LIG d   1      11.207  10.784   0.834  0.00  0.00    -0.016 C 
ATOM      4  C   LIG d   1      11.605   9.374   1.328  0.00  0.00     0.017 C 
ATOM      5  N   LIG d   1      10.911   8.406   0.470  0.00  0.00    -0.286 N 
ATOM      6  CA  LIG d   1      10.084   9.147  -0.503  0.00  0.00     0.121 C 
ATOM      7  HA  LIG d   1       9.061   9.260  -0.142  0.00  0.00     0.061 H 
ATOM      8  C   LIG d   1      10.125   8.419  -1.823  0.00  0.00     0.239 C 
ATOM      9  O   LIG d   1       9.941   9.010  -2.866  0.00  0.00    -0.274 OA
ATOM     10  N   LIG d   1      10.372   7.092  -1.815  0.00  0.00    -0.286 N 
ATOM     11  C   LIG d   1      10.704   6.236  -2.973  0.00  0.00     0.042 C 
ATOM     12  C   LIG d   1      10.954   4.812  -2.430  0.00  0.00     0.076 C 
ATOM     13  H   LIG d   1      11.774   4.332  -2.965  0.00  0.00     0.061 H 
ATOM     14  C   LIG d   1      11.342   5.073  -0.948  0.00  0.00     0.002 C 
ATOM     15  CA  LIG d   1      10.407   6.254  -0.599  0.00  0.00     0.105 C 
ATOM     16  HA  LIG d   1       9.410   5.899  -0.340  0.00  0.00     0.060 H 
ATOM     17  C   LIG d   1      11.001   7.061   0.527  0.00  0.00     0.237 C 
ATOM     18  O   LIG d   1      11.546   6.515   1.463  0.00  0.00    -0.274 OA
ATOM     19  H   LIG d   1      12.060  11.461   0.873  0.00  0.00     0.030 H 
ATOM     20  H   LIG d   1      10.373  11.176   1.415  0.00  0.00     0.030 H 
ATOM     21  H   LIG d   1      12.683   9.241   1.243  0.00  0.00     0.046 H 
ATOM     22  H   LIG d   1      11.292   9.243   2.364  0.00  0.00     0.046 H 
ATOM     23  H   LIG d   1      11.600   6.606  -3.471  0.00  0.00     0.049 H 
ATOM     24  H   LIG d   1       9.867   6.226  -3.671  0.00  0.00     0.049 H 
ATOM     25  H   LIG d   1      12.389   5.363  -0.862  0.00  0.00     0.031 H 
ATOM     26  H   LIG d   1      11.125   4.204  -0.327  0.00  0.00     0.031 H 
ENDROOT
BRANCH   1  27
ATOM     27  N   LIG d   1       9.838  11.545  -1.103  0.00  0.00    -0.308 N 
ATOM     28  C   LIG d   1      10.183  12.366  -2.115  0.00  0.00     0.239 C 
ATOM     29  O   LIG d   1      11.272  12.259  -2.639  0.00  0.00    -0.273 OA
ATOM     30  H   LIG d   1       8.968  11.630  -0.683  0.00  0.00     0.149 HD
BRANCH  28  31
ATOM     31  C   LIG d   1       9.216  13.418  -2.594  0.00  0.00     0.123 C 
ATOM     32  H   LIG d   1       9.577  14.403  -2.300  0.00  0.00     0.066 H 
ATOM     33  H   LIG d   1       8.237  13.242  -2.148  0.00  0.00     0.066 H 
BRANCH  31  34
ATOM     34  O   LIG d   1       9.109  13.354  -4.017  0.00  0.00    -0.374 OA
BRANCH  34  35
ATOM     35  C   LIG d   1       9.389  14.591  -4.677  0.00  0.00     0.037 C 
ATOM     36  H   LIG d   1       9.328  15.407  -3.959  0.00  0.00     0.052 H 
ATOM     37  H   LIG d   1      10.391  14.556  -5.104  0.00  0.00     0.052 H 
ATOM     38  H   LIG d   1       8.660  14.751  -5.472  0.00  0.00     0.052 H 
ENDBRANCH  34  35
ENDBRANCH  31  34
ENDBRANCH  28  31
ENDBRANCH   1  27
BRANCH  12  39
ATOM     39  O   LIG d   1       9.764   4.023  -2.511  0.00  0.00    -0.375 OA
BRANCH  39  40
ATOM     40  C   LIG d   1       9.899   2.849  -3.315  0.00  0.00     0.051 C 
ATOM     41  H   LIG d   1      10.789   2.937  -3.939  0.00  0.00     0.056 H 
ATOM     42  H   LIG d   1       9.991   1.976  -2.671  0.00  0.00     0.056 H 
BRANCH  40  43
ATOM     43  C   LIG d   1       8.665   2.698  -4.207  0.00  0.00    -0.018 A 
ATOM     44  C   LIG d   1       8.584   1.456  -5.097  0.00  0.00    -0.048 A 
ATOM     45  C   LIG d   1       7.681   1.576  -3.866  0.00  0.00    -0.048 A 
ATOM     46  H   LIG d   1       8.118   1.568  -6.076  0.00  0.00     0.027 H 
ATOM     47  H   LIG d   1       9.411   0.747  -5.046  0.00  0.00     0.027 H 
ATOM     48  H   LIG d   1       7.914   0.947  -3.008  0.00  0.00     0.027 H 
ATOM     49  H   LIG d   1       6.621   1.767  -4.037  0.00  0.00     0.027 H 
ATOM     50  H   LIG d   1       8.252   3.627  -4.600  0.00  0.00     0.032 H 
ENDBRANCH  40  43
ENDBRANCH  39  40
ENDBRANCH  12  39
TORSDOF 7
ENDMDL
MODEL 9
REMARK VINA RESULT:      -4.9      6.357     10.426
REMARK  7 active torsions:
REMARK  status: ('A' for Active; 'I' for Inactive)
REMARK    1  A    between atoms: C_1  and  O_2 
REMARK    2  A    between atoms: O_2  and  C_3 
REMARK    3  A    between atoms: C_3  and  C_4 
REMARK       I    between atoms: C_4  and  N_6 
REMARK    4  A    between atoms: N_6  and  C_7 
REMARK    5  A    between atoms: C_18  and  O_25 
REMARK    6  A    between atoms: O_25  and  C_26 
REMARK    7  A    between atoms: C_26  and  C_27 
ROOT
ATOM      1  C   LIG d   1      12.001   3.780  -3.524  0.00  0.00     0.052 C 
ATOM      2  H   LIG d   1      11.391   4.454  -4.126  0.00  0.00     0.052 H 
ATOM      3  C   LIG d   1      13.365   3.495  -4.212  0.00  0.00    -0.016 C 
ATOM      4  C   LIG d   1      13.003   2.401  -5.243  0.00  0.00     0.017 C 
ATOM      5  N   LIG d   1      11.778   1.749  -4.767  0.00  0.00    -0.286 N 
ATOM      6  CA  LIG d   1      11.387   2.361  -3.481  0.00  0.00     0.121 C 
ATOM      7  HA  LIG d   1      11.782   1.791  -2.640  0.00  0.00     0.061 H 
ATOM      8  C   LIG d   1       9.883   2.452  -3.428  0.00  0.00     0.239 C 
ATOM      9  O   LIG d   1       9.334   3.292  -2.746  0.00  0.00    -0.274 OA
ATOM     10  N   LIG d   1       9.163   1.576  -4.159  0.00  0.00    -0.286 N 
ATOM     11  C   LIG d   1       7.716   1.636  -4.457  0.00  0.00     0.042 C 
ATOM     12  C   LIG d   1       7.391   0.439  -5.377  0.00  0.00     0.076 C 
ATOM     13  H   LIG d   1       6.657   0.720  -6.133  0.00  0.00     0.061 H 
ATOM     14  C   LIG d   1       8.766   0.128  -6.033  0.00  0.00     0.002 C 
ATOM     15  CA  LIG d   1       9.727   0.402  -4.854  0.00  0.00     0.105 C 
ATOM     16  HA  LIG d   1       9.781  -0.458  -4.186  0.00  0.00     0.060 H 
ATOM     17  C   LIG d   1      11.093   0.762  -5.380  0.00  0.00     0.237 C 
ATOM     18  O   LIG d   1      11.566   0.178  -6.332  0.00  0.00    -0.274 OA
ATOM     19  H   LIG d   1      13.740   4.387  -4.711  0.00  0.00     0.030 H 
ATOM     20  H   LIG d   1      14.090   3.119  -3.490  0.00  0.00     0.030 H 
ATOM     21  H   LIG d   1      12.827   2.855  -6.218  0.00  0.00     0.046 H 
ATOM     22  H   LIG d   1      13.811   1.672  -5.310  0.00  0.00     0.046 H 
ATOM     23  H   LIG d   1       7.472   2.570  -4.962  0.00  0.00     0.049 H 
ATOM     24  H   LIG d   1       7.149   1.555  -3.529  0.00  0.00     0.049 H 
ATOM     25  H   LIG d   1       8.964   0.803  -6.866  0.00  0.00     0.031 H 
ATOM     26  H   LIG d   1       8.821  -0.913  -6.352  0.00  0.00     0.031 H 
ENDROOT
BRANCH   1  27
ATOM     27  N   LIG d   1      12.193   4.313  -2.172  0.00  0.00    -0.308 N 
ATOM     28  C   LIG d   1      11.720   5.535  -1.856  0.00  0.00     0.239 C 
ATOM     29  O   LIG d   1      11.137   6.194  -2.691  0.00  0.00    -0.273 OA
ATOM     30  H   LIG d   1      12.660   3.786  -1.505  0.00  0.00     0.149 HD
BRANCH  28  31
ATOM     31  C   LIG d   1      11.918   6.083  -0.466  0.00  0.00     0.123 C 
ATOM     32  H   LIG d   1      12.161   7.144  -0.525  0.00  0.00     0.066 H 
ATOM     33  H   LIG d   1      12.734   5.550   0.022  0.00  0.00     0.066 H 
BRANCH  31  34
ATOM     34  O   LIG d   1      10.717   5.909   0.289  0.00  0.00    -0.374 OA
BRANCH  34  35
ATOM     35  C   LIG d   1      10.936   5.674   1.682  0.00  0.00     0.037 C 
ATOM     36  H   LIG d   1      10.089   5.127   2.095  0.00  0.00     0.052 H 
ATOM     37  H   LIG d   1      11.845   5.087   1.813  0.00  0.00     0.052 H 
ATOM     38  H   LIG d   1      11.040   6.627   2.199  0.00  0.00     0.052 H 
ENDBRANCH  34  35
ENDBRANCH  31  34
ENDBRANCH  28  31
ENDBRANCH   1  27
BRANCH  12  39
ATOM     39  O   LIG d   1       6.930  -0.678  -4.613  0.00  0.00    -0.375 OA
BRANCH  39  40
ATOM     40  C   LIG d   1       5.582  -0.552  -4.156  0.00  0.00     0.051 C 
ATOM     41  H   LIG d   1       5.370   0.495  -3.937  0.00  0.00     0.056 H 
ATOM     42  H   LIG d   1       4.901  -0.908  -4.927  0.00  0.00     0.056 H 
BRANCH  40  43
ATOM     43  C   LIG d   1       5.395  -1.386  -2.886  0.00  0.00    -0.018 A 
ATOM     44  C   LIG d   1       4.368  -0.896  -1.864  0.00  0.00    -0.048 A 
ATOM     45  C   LIG d   1       4.068  -2.130  -2.719  0.00  0.00    -0.048 A 
ATOM     46  H   LIG d   1       4.591  -1.056  -0.809  0.00  0.00     0.027 H 
ATOM     47  H   LIG d   1       3.825   0.021  -2.096  0.00  0.00     0.027 H 
ATOM     48  H   LIG d   1       3.329  -2.024  -3.512  0.00  0.00     0.027 H 
ATOM     49  H   LIG d   1       4.095  -3.102  -2.226  0.00  0.00     0.027 H 
ATOM     50  H   LIG d   1       6.294  -1.869  -2.504  0.00  0.00     0.032 H 
ENDBRANCH  40  43
ENDBRANCH  39  40
ENDBRANCH  12  39
TORSDOF 7
ENDMDL
