MODEL 1
REMARK VINA RESULT:      -7.2      0.000      0.000
REMARK  4 active torsions:
REMARK  status: ('A' for Active; 'I' for Inactive)
REMARK    1  A    between atoms: C_1  and  C_2 
REMARK    2  A    between atoms: C_5  and  N_9 
REMARK    3  A    between atoms: C_7  and  C_8 
REMARK    4  A    between atoms: C_21  and  C_22 
ROOT
ATOM      1  N   LIG d   1       4.585  -6.912  -5.858  0.00  0.00    -0.293 NA
ATOM      2  C   LIG d   1       5.316  -5.656  -5.633  0.00  0.00     0.047 C 
ATOM      3  C   LIG d   1       4.791  -4.593  -6.563  0.00  0.00     0.054 A 
ATOM      4  C   LIG d   1       4.042  -4.929  -7.676  0.00  0.00     0.131 A 
ATOM      5  C   LIG d   1       3.565  -3.935  -8.532  0.00  0.00    -0.019 A 
ATOM      6  C   LIG d   1       3.828  -2.621  -8.280  0.00  0.00    -0.047 A 
ATOM      7  C   LIG d   1       4.582  -2.266  -7.159  0.00  0.00     0.026 A 
ATOM      8  C   LIG d   1       5.068  -3.257  -6.292  0.00  0.00     0.148 A 
ATOM      9  O   LIG d   1       5.797  -2.927  -5.207  0.00  0.00    -0.422 OA
ATOM     10  C   LIG d   1       6.071  -1.647  -4.934  0.00  0.00     0.338 A 
ATOM     11  O   LIG d   1       6.734  -1.393  -3.943  0.00  0.00    -0.245 OA
ATOM     12  C   LIG d   1       5.632  -0.583  -5.737  0.00  0.00     0.031 A 
ATOM     13  C   LIG d   1       4.880  -0.853  -6.865  0.00  0.00    -0.001 A 
ATOM     14  O   LIG d   1       3.760  -6.229  -7.956  0.00  0.00    -0.473 OA
ATOM     15  C   LIG d   1       4.545  -7.224  -7.296  0.00  0.00     0.157 C 
ATOM     16  H   LIG d   1       5.179  -5.337  -4.601  0.00  0.00     0.052 H 
ATOM     17  H   LIG d   1       6.378  -5.815  -5.825  0.00  0.00     0.052 H 
ATOM     18  H   LIG d   1       2.982  -4.209  -9.399  0.00  0.00     0.065 H 
ATOM     19  H   LIG d   1       3.456  -1.857  -8.946  0.00  0.00     0.063 H 
ATOM     20  H   LIG d   1       5.878   0.435  -5.476  0.00  0.00     0.070 H 
ATOM     21  H   LIG d   1       4.095  -8.205  -7.445  0.00  0.00     0.091 H 
ATOM     22  H   LIG d   1       5.557  -7.219  -7.701  0.00  0.00     0.091 H 
ENDROOT
BRANCH   1  23
ATOM     23  C   LIG d   1       5.158  -7.960  -5.134  0.00  0.00     0.033 A 
ATOM     24  C   LIG d   1       6.538  -8.037  -4.991  0.00  0.00    -0.040 A 
ATOM     25  C   LIG d   1       7.100  -9.075  -4.274  0.00  0.00    -0.057 A 
ATOM     26  H   LIG d   1       7.170  -7.284  -5.439  0.00  0.00     0.064 H 
ATOM     27  C   LIG d   1       6.292 -10.038  -3.699  0.00  0.00    -0.047 A 
ATOM     28  H   LIG d   1       8.172  -9.134  -4.162  0.00  0.00     0.062 H 
ATOM     29  C   LIG d   1       4.917  -9.966  -3.840  0.00  0.00    -0.046 A 
ATOM     30  C   LIG d   1       4.348  -8.927  -4.551  0.00  0.00    -0.037 A 
ATOM     31  H   LIG d   1       3.275  -8.869  -4.656  0.00  0.00     0.064 H 
BRANCH  27  32
ATOM     32  C   LIG d   1       6.909 -11.169  -2.918  0.00  0.00    -0.040 C 
ATOM     33  H   LIG d   1       7.031 -10.867  -1.878  0.00  0.00     0.028 H 
ATOM     34  H   LIG d   1       6.258 -12.042  -2.968  0.00  0.00     0.028 H 
ATOM     35  H   LIG d   1       7.882 -11.415  -3.343  0.00  0.00     0.028 H 
ENDBRANCH  27  32
BRANCH  29  36
ATOM     36  C   LIG d   1       4.040 -11.018  -3.211  0.00  0.00    -0.039 C 
ATOM     37  H   LIG d   1       4.090 -10.932  -2.127  0.00  0.00     0.028 H 
ATOM     38  H   LIG d   1       3.011 -10.875  -3.541  0.00  0.00     0.028 H 
ATOM     39  H   LIG d   1       4.386 -12.006  -3.515  0.00  0.00     0.028 H 
ENDBRANCH  29  36
ENDBRANCH   1  23
BRANCH  13  40
ATOM     40  C   LIG d   1       4.392   0.233  -7.743  0.00  0.00    -0.017 A 
ATOM     41  C   LIG d   1       3.099   0.734  -7.587  0.00  0.00    -0.054 A 
ATOM     42  C   LIG d   1       2.651   1.748  -8.408  0.00  0.00    -0.061 A 
ATOM     43  H   LIG d   1       2.451   0.329  -6.824  0.00  0.00     0.062 H 
ATOM     44  C   LIG d   1       3.481   2.268  -9.385  0.00  0.00    -0.062 A 
ATOM     45  H   LIG d   1       1.650   2.135  -8.289  0.00  0.00     0.062 H 
ATOM     46  C   LIG d   1       4.764   1.777  -9.545  0.00  0.00    -0.061 A 
ATOM     47  H   LIG d   1       3.124   3.062 -10.026  0.00  0.00     0.062 H 
ATOM     48  C   LIG d   1       5.226   0.767  -8.727  0.00  0.00    -0.054 A 
ATOM     49  H   LIG d   1       5.406   2.187 -10.310  0.00  0.00     0.062 H 
ATOM     50  H   LIG d   1       6.230   0.388  -8.850  0.00  0.00     0.062 H 
ENDBRANCH  13  40
TORSDOF 4
ENDMDL
MODEL 2
REMARK VINA RESULT:      -7.0      1.374      1.958
REMARK  4 active torsions:
REMARK  status: ('A' for Active; 'I' for Inactive)
REMARK    1  A    between atoms: C_1  and  C_2 
REMARK    2  A    between atoms: C_5  and  N_9 
REMARK    3  A    between atoms: C_7  and  C_8 
REMARK    4  A    between atoms: C_21  and  C_22 
ROOT
ATOM      1  N   LIG d   1       4.343  -8.061  -5.572  0.00  0.00    -0.293 NA
ATOM      2  C   LIG d   1       4.877  -6.701  -5.413  0.00  0.00     0.047 C 
ATOM      3  C   LIG d   1       4.453  -5.852  -6.583  0.00  0.00     0.054 A 
ATOM      4  C   LIG d   1       3.994  -6.431  -7.752  0.00  0.00     0.131 A 
ATOM      5  C   LIG d   1       3.608  -5.634  -8.831  0.00  0.00    -0.019 A 
ATOM      6  C   LIG d   1       3.676  -4.274  -8.745  0.00  0.00    -0.047 A 
ATOM      7  C   LIG d   1       4.136  -3.675  -7.570  0.00  0.00     0.026 A 
ATOM      8  C   LIG d   1       4.528  -4.467  -6.479  0.00  0.00     0.148 A 
ATOM      9  O   LIG d   1       4.974  -3.899  -5.341  0.00  0.00    -0.422 OA
ATOM     10  C   LIG d   1       5.052  -2.570  -5.227  0.00  0.00     0.338 A 
ATOM     11  O   LIG d   1       5.462  -2.099  -4.181  0.00  0.00    -0.245 OA
ATOM     12  C   LIG d   1       4.685  -1.691  -6.259  0.00  0.00     0.031 A 
ATOM     13  C   LIG d   1       4.219  -2.208  -7.453  0.00  0.00    -0.001 A 
ATOM     14  O   LIG d   1       3.912  -7.783  -7.871  0.00  0.00    -0.473 OA
ATOM     15  C   LIG d   1       4.639  -8.567  -6.922  0.00  0.00     0.157 C 
ATOM     16  H   LIG d   1       4.493  -6.266  -4.491  0.00  0.00     0.052 H 
ATOM     17  H   LIG d   1       5.966  -6.741  -5.369  0.00  0.00     0.052 H 
ATOM     18  H   LIG d   1       3.253  -6.097  -9.739  0.00  0.00     0.065 H 
ATOM     19  H   LIG d   1       3.376  -3.663  -9.583  0.00  0.00     0.063 H 
ATOM     20  H   LIG d   1       4.765  -0.623  -6.120  0.00  0.00     0.070 H 
ATOM     21  H   LIG d   1       4.333  -9.610  -6.998  0.00  0.00     0.091 H 
ATOM     22  H   LIG d   1       5.707  -8.482  -7.120  0.00  0.00     0.091 H 
ENDROOT
BRANCH   1  23
ATOM     23  C   LIG d   1       4.854  -8.917  -4.594  0.00  0.00     0.033 A 
ATOM     24  C   LIG d   1       4.004  -9.773  -3.903  0.00  0.00    -0.040 A 
ATOM     25  C   LIG d   1       4.514 -10.618  -2.937  0.00  0.00    -0.057 A 
ATOM     26  H   LIG d   1       2.947  -9.777  -4.123  0.00  0.00     0.064 H 
ATOM     27  C   LIG d   1       5.868 -10.613  -2.656  0.00  0.00    -0.047 A 
ATOM     28  H   LIG d   1       3.854 -11.283  -2.401  0.00  0.00     0.062 H 
ATOM     29  C   LIG d   1       6.716  -9.762  -3.341  0.00  0.00    -0.046 A 
ATOM     30  C   LIG d   1       6.214  -8.918  -4.312  0.00  0.00    -0.037 A 
ATOM     31  H   LIG d   1       6.879  -8.258  -4.849  0.00  0.00     0.064 H 
BRANCH  27  32
ATOM     32  C   LIG d   1       6.420 -11.537  -1.601  0.00  0.00    -0.040 C 
ATOM     33  H   LIG d   1       6.468 -11.012  -0.648  0.00  0.00     0.028 H 
ATOM     34  H   LIG d   1       5.770 -12.407  -1.504  0.00  0.00     0.028 H 
ATOM     35  H   LIG d   1       7.420 -11.861  -1.890  0.00  0.00     0.028 H 
ENDBRANCH  27  32
BRANCH  29  36
ATOM     36  C   LIG d   1       8.192  -9.761  -3.030  0.00  0.00    -0.039 C 
ATOM     37  H   LIG d   1       8.340  -9.953  -1.969  0.00  0.00     0.028 H 
ATOM     38  H   LIG d   1       8.685 -10.539  -3.613  0.00  0.00     0.028 H 
ATOM     39  H   LIG d   1       8.615  -8.790  -3.288  0.00  0.00     0.028 H 
ENDBRANCH  29  36
ENDBRANCH   1  23
BRANCH  13  40
ATOM     40  C   LIG d   1       3.819  -1.324  -8.570  0.00  0.00    -0.017 A 
ATOM     41  C   LIG d   1       2.534  -0.780  -8.607  0.00  0.00    -0.054 A 
ATOM     42  C   LIG d   1       2.167   0.044  -9.651  0.00  0.00    -0.061 A 
ATOM     43  H   LIG d   1       1.829  -1.003  -7.820  0.00  0.00     0.062 H 
ATOM     44  C   LIG d   1       3.070   0.331 -10.659  0.00  0.00    -0.062 A 
ATOM     45  H   LIG d   1       1.173   0.465  -9.681  0.00  0.00     0.062 H 
ATOM     46  C   LIG d   1       4.345  -0.204 -10.629  0.00  0.00    -0.061 A 
ATOM     47  H   LIG d   1       2.776   0.977 -11.475  0.00  0.00     0.062 H 
ATOM     48  C   LIG d   1       4.726  -1.026  -9.587  0.00  0.00    -0.054 A 
ATOM     49  H   LIG d   1       5.044   0.023 -11.419  0.00  0.00     0.062 H 
ATOM     50  H   LIG d   1       5.723  -1.440  -9.562  0.00  0.00     0.062 H 
ENDBRANCH  13  40
TORSDOF 4
ENDMDL
MODEL 3
REMARK VINA RESULT:      -6.8      5.445     10.418
REMARK  4 active torsions:
REMARK  status: ('A' for Active; 'I' for Inactive)
REMARK    1  A    between atoms: C_1  and  C_2 
REMARK    2  A    between atoms: C_5  and  N_9 
REMARK    3  A    between atoms: C_7  and  C_8 
REMARK    4  A    between atoms: C_21  and  C_22 
ROOT
ATOM      1  N   LIG d   1       9.695   2.844  -4.145  0.00  0.00    -0.293 NA
ATOM      2  C   LIG d   1       8.382   2.247  -3.861  0.00  0.00     0.047 C 
ATOM      3  C   LIG d   1       8.294   0.888  -4.505  0.00  0.00     0.054 A 
ATOM      4  C   LIG d   1       9.174   0.519  -5.507  0.00  0.00     0.131 A 
ATOM      5  C   LIG d   1       9.080  -0.742  -6.099  0.00  0.00    -0.019 A 
ATOM      6  C   LIG d   1       8.122  -1.625  -5.697  0.00  0.00    -0.047 A 
ATOM      7  C   LIG d   1       7.228  -1.267  -4.686  0.00  0.00     0.026 A 
ATOM      8  C   LIG d   1       7.313  -0.002  -4.083  0.00  0.00     0.148 A 
ATOM      9  O   LIG d   1       6.454   0.355  -3.107  0.00  0.00    -0.422 OA
ATOM     10  C   LIG d   1       5.505  -0.489  -2.691  0.00  0.00     0.338 A 
ATOM     11  O   LIG d   1       4.750  -0.126  -1.807  0.00  0.00    -0.245 OA
ATOM     12  C   LIG d   1       5.337  -1.775  -3.228  0.00  0.00     0.031 A 
ATOM     13  C   LIG d   1       6.184  -2.204  -4.233  0.00  0.00    -0.001 A 
ATOM     14  O   LIG d   1      10.142   1.374  -5.931  0.00  0.00    -0.473 OA
ATOM     15  C   LIG d   1       9.992   2.752  -5.584  0.00  0.00     0.157 C 
ATOM     16  H   LIG d   1       8.255   2.147  -2.783  0.00  0.00     0.052 H 
ATOM     17  H   LIG d   1       7.597   2.890  -4.260  0.00  0.00     0.052 H 
ATOM     18  H   LIG d   1       9.771  -1.019  -6.881  0.00  0.00     0.065 H 
ATOM     19  H   LIG d   1       8.055  -2.599  -6.159  0.00  0.00     0.063 H 
ATOM     20  H   LIG d   1       4.556  -2.423  -2.859  0.00  0.00     0.070 H 
ATOM     21  H   LIG d   1      10.916   3.288  -5.801  0.00  0.00     0.091 H 
ATOM     22  H   LIG d   1       9.172   3.187  -6.155  0.00  0.00     0.091 H 
ENDROOT
BRANCH   1  23
ATOM     23  C   LIG d   1       9.749   4.168  -3.706  0.00  0.00     0.033 A 
ATOM     24  C   LIG d   1       9.378   5.201  -4.559  0.00  0.00    -0.040 A 
ATOM     25  C   LIG d   1       9.432   6.509  -4.121  0.00  0.00    -0.057 A 
ATOM     26  H   LIG d   1       9.048   4.979  -5.563  0.00  0.00     0.064 H 
ATOM     27  C   LIG d   1       9.854   6.794  -2.836  0.00  0.00    -0.047 A 
ATOM     28  H   LIG d   1       9.144   7.311  -4.784  0.00  0.00     0.062 H 
ATOM     29  C   LIG d   1      10.224   5.768  -1.984  0.00  0.00    -0.046 A 
ATOM     30  C   LIG d   1      10.167   4.457  -2.413  0.00  0.00    -0.037 A 
ATOM     31  H   LIG d   1      10.452   3.657  -1.746  0.00  0.00     0.064 H 
BRANCH  27  32
ATOM     32  C   LIG d   1       9.911   8.223  -2.361  0.00  0.00    -0.040 C 
ATOM     33  H   LIG d   1      10.918   8.613  -2.505  0.00  0.00     0.028 H 
ATOM     34  H   LIG d   1       9.203   8.824  -2.933  0.00  0.00     0.028 H 
ATOM     35  H   LIG d   1       9.651   8.265  -1.304  0.00  0.00     0.028 H 
ENDBRANCH  27  32
BRANCH  29  36
ATOM     36  C   LIG d   1      10.683   6.083  -0.583  0.00  0.00    -0.039 C 
ATOM     37  H   LIG d   1      10.919   7.144  -0.508  0.00  0.00     0.028 H 
ATOM     38  H   LIG d   1       9.889   5.837   0.122  0.00  0.00     0.028 H 
ATOM     39  H   LIG d   1      11.571   5.495  -0.351  0.00  0.00     0.028 H 
ENDBRANCH  29  36
ENDBRANCH   1  23
BRANCH  13  40
ATOM     40  C   LIG d   1       6.049  -3.551  -4.831  0.00  0.00    -0.017 A 
ATOM     41  C   LIG d   1       4.817  -3.976  -5.329  0.00  0.00    -0.054 A 
ATOM     42  C   LIG d   1       4.698  -5.233  -5.886  0.00  0.00    -0.061 A 
ATOM     43  H   LIG d   1       3.959  -3.323  -5.280  0.00  0.00     0.062 H 
ATOM     44  C   LIG d   1       5.797  -6.071  -5.949  0.00  0.00    -0.062 A 
ATOM     45  H   LIG d   1       3.745  -5.564  -6.271  0.00  0.00     0.062 H 
ATOM     46  C   LIG d   1       7.021  -5.656  -5.458  0.00  0.00    -0.061 A 
ATOM     47  H   LIG d   1       5.698  -7.054  -6.386  0.00  0.00     0.062 H 
ATOM     48  C   LIG d   1       7.155  -4.399  -4.904  0.00  0.00    -0.054 A 
ATOM     49  H   LIG d   1       7.875  -6.315  -5.511  0.00  0.00     0.062 H 
ATOM     50  H   LIG d   1       8.113  -4.074  -4.525  0.00  0.00     0.062 H 
ENDBRANCH  13  40
TORSDOF 4
ENDMDL
MODEL 4
REMARK VINA RESULT:      -6.7      1.763      3.483
REMARK  4 active torsions:
REMARK  status: ('A' for Active; 'I' for Inactive)
REMARK    1  A    between atoms: C_1  and  C_2 
REMARK    2  A    between atoms: C_5  and  N_9 
REMARK    3  A    between atoms: C_7  and  C_8 
REMARK    4  A    between atoms: C_21  and  C_22 
ROOT
ATOM      1  N   LIG d   1       5.110  -6.805  -6.623  0.00  0.00    -0.293 NA
ATOM      2  C   LIG d   1       4.030  -6.184  -7.405  0.00  0.00     0.047 C 
ATOM      3  C   LIG d   1       4.223  -4.690  -7.434  0.00  0.00     0.054 A 
ATOM      4  C   LIG d   1       5.053  -4.062  -6.523  0.00  0.00     0.131 A 
ATOM      5  C   LIG d   1       5.220  -2.677  -6.557  0.00  0.00    -0.019 A 
ATOM      6  C   LIG d   1       4.568  -1.925  -7.490  0.00  0.00    -0.047 A 
ATOM      7  C   LIG d   1       3.727  -2.545  -8.417  0.00  0.00     0.026 A 
ATOM      8  C   LIG d   1       3.552  -3.937  -8.391  0.00  0.00     0.148 A 
ATOM      9  O   LIG d   1       2.742  -4.546  -9.281  0.00  0.00    -0.422 OA
ATOM     10  C   LIG d   1       2.090  -3.836 -10.207  0.00  0.00     0.338 A 
ATOM     11  O   LIG d   1       1.368  -4.426 -10.991  0.00  0.00    -0.245 OA
ATOM     12  C   LIG d   1       2.198  -2.441 -10.317  0.00  0.00     0.031 A 
ATOM     13  C   LIG d   1       3.012  -1.754  -9.435  0.00  0.00    -0.001 A 
ATOM     14  O   LIG d   1       5.720  -4.782  -5.581  0.00  0.00    -0.473 OA
ATOM     15  C   LIG d   1       5.262  -6.113  -5.332  0.00  0.00     0.157 C 
ATOM     16  H   LIG d   1       4.051  -6.572  -8.422  0.00  0.00     0.052 H 
ATOM     17  H   LIG d   1       3.069  -6.418  -6.946  0.00  0.00     0.052 H 
ATOM     18  H   LIG d   1       5.870  -2.198  -5.841  0.00  0.00     0.065 H 
ATOM     19  H   LIG d   1       4.702  -0.854  -7.512  0.00  0.00     0.063 H 
ATOM     20  H   LIG d   1       1.652  -1.910 -11.082  0.00  0.00     0.070 H 
ATOM     21  H   LIG d   1       5.990  -6.641  -4.718  0.00  0.00     0.091 H 
ATOM     22  H   LIG d   1       4.302  -6.080  -4.818  0.00  0.00     0.091 H 
ENDROOT
BRANCH   1  23
ATOM     23  C   LIG d   1       4.871  -8.168  -6.435  0.00  0.00     0.033 A 
ATOM     24  C   LIG d   1       4.731  -9.009  -7.532  0.00  0.00    -0.040 A 
ATOM     25  C   LIG d   1       4.495 -10.356  -7.342  0.00  0.00    -0.057 A 
ATOM     26  H   LIG d   1       4.808  -8.608  -8.532  0.00  0.00     0.064 H 
ATOM     27  C   LIG d   1       4.399 -10.869  -6.062  0.00  0.00    -0.047 A 
ATOM     28  H   LIG d   1       4.388 -11.010  -8.195  0.00  0.00     0.062 H 
ATOM     29  C   LIG d   1       4.536 -10.035  -4.967  0.00  0.00    -0.046 A 
ATOM     30  C   LIG d   1       4.778  -8.687  -5.150  0.00  0.00    -0.037 A 
ATOM     31  H   LIG d   1       4.890  -8.038  -4.294  0.00  0.00     0.064 H 
BRANCH  27  32
ATOM     32  C   LIG d   1       4.142 -12.340  -5.859  0.00  0.00    -0.040 C 
ATOM     33  H   LIG d   1       3.741 -12.504  -4.859  0.00  0.00     0.028 H 
ATOM     34  H   LIG d   1       3.422 -12.689  -6.600  0.00  0.00     0.028 H 
ATOM     35  H   LIG d   1       5.075 -12.891  -5.973  0.00  0.00     0.028 H 
ENDBRANCH  27  32
BRANCH  29  36
ATOM     36  C   LIG d   1       4.430 -10.599  -3.573  0.00  0.00    -0.039 C 
ATOM     37  H   LIG d   1       3.396 -10.874  -3.371  0.00  0.00     0.028 H 
ATOM     38  H   LIG d   1       5.064 -11.482  -3.491  0.00  0.00     0.028 H 
ATOM     39  H   LIG d   1       4.756  -9.849  -2.853  0.00  0.00     0.028 H 
ENDBRANCH  29  36
ENDBRANCH   1  23
BRANCH  13  40
ATOM     40  C   LIG d   1       3.160  -0.284  -9.510  0.00  0.00    -0.017 A 
ATOM     41  C   LIG d   1       3.768   0.303 -10.621  0.00  0.00    -0.054 A 
ATOM     42  C   LIG d   1       3.902   1.675 -10.685  0.00  0.00    -0.061 A 
ATOM     43  H   LIG d   1       4.131  -0.315 -11.428  0.00  0.00     0.062 H 
ATOM     44  C   LIG d   1       3.437   2.467  -9.651  0.00  0.00    -0.062 A 
ATOM     45  H   LIG d   1       4.373   2.130 -11.544  0.00  0.00     0.062 H 
ATOM     46  C   LIG d   1       2.834   1.892  -8.547  0.00  0.00    -0.061 A 
ATOM     47  H   LIG d   1       3.546   3.541  -9.707  0.00  0.00     0.062 H 
ATOM     48  C   LIG d   1       2.688   0.521  -8.473  0.00  0.00    -0.054 A 
ATOM     49  H   LIG d   1       2.474   2.516  -7.743  0.00  0.00     0.062 H 
ATOM     50  H   LIG d   1       2.213   0.074  -7.613  0.00  0.00     0.062 H 
ENDBRANCH  13  40
TORSDOF 4
ENDMDL
MODEL 5
REMARK VINA RESULT:      -6.7      7.711     10.375
REMARK  4 active torsions:
REMARK  status: ('A' for Active; 'I' for Inactive)
REMARK    1  A    between atoms: C_1  and  C_2 
REMARK    2  A    between atoms: C_5  and  N_9 
REMARK    3  A    between atoms: C_7  and  C_8 
REMARK    4  A    between atoms: C_21  and  C_22 
ROOT
ATOM      1  N   LIG d   1       7.907   1.644  -4.708  0.00  0.00    -0.293 NA
ATOM      2  C   LIG d   1       8.632   2.476  -3.737  0.00  0.00     0.047 C 
ATOM      3  C   LIG d   1       9.717   3.248  -4.443  0.00  0.00     0.054 A 
ATOM      4  C   LIG d   1      10.151   2.874  -5.703  0.00  0.00     0.131 A 
ATOM      5  C   LIG d   1      11.158   3.594  -6.345  0.00  0.00    -0.019 A 
ATOM      6  C   LIG d   1      11.726   4.677  -5.741  0.00  0.00    -0.047 A 
ATOM      7  C   LIG d   1      11.298   5.068  -4.470  0.00  0.00     0.026 A 
ATOM      8  C   LIG d   1      10.285   4.350  -3.814  0.00  0.00     0.148 A 
ATOM      9  O   LIG d   1       9.864   4.718  -2.587  0.00  0.00    -0.422 OA
ATOM     10  C   LIG d   1      10.402   5.774  -1.970  0.00  0.00     0.338 A 
ATOM     11  O   LIG d   1       9.992   6.071  -0.862  0.00  0.00    -0.245 OA
ATOM     12  C   LIG d   1      11.418   6.557  -2.540  0.00  0.00     0.031 A 
ATOM     13  C   LIG d   1      11.896   6.234  -3.797  0.00  0.00    -0.001 A 
ATOM     14  O   LIG d   1       9.605   1.801  -6.334  0.00  0.00    -0.473 OA
ATOM     15  C   LIG d   1       8.859   0.882  -5.533  0.00  0.00     0.157 C 
ATOM     16  H   LIG d   1       7.939   3.172  -3.266  0.00  0.00     0.052 H 
ATOM     17  H   LIG d   1       9.079   1.837  -2.974  0.00  0.00     0.052 H 
ATOM     18  H   LIG d   1      11.490   3.293  -7.327  0.00  0.00     0.065 H 
ATOM     19  H   LIG d   1      12.505   5.231  -6.243  0.00  0.00     0.063 H 
ATOM     20  H   LIG d   1      11.821   7.403  -2.003  0.00  0.00     0.070 H 
ATOM     21  H   LIG d   1       8.314   0.192  -6.177  0.00  0.00     0.091 H 
ATOM     22  H   LIG d   1       9.538   0.324  -4.888  0.00  0.00     0.091 H 
ENDROOT
BRANCH   1  23
ATOM     23  C   LIG d   1       7.008   0.791  -4.064  0.00  0.00     0.033 A 
ATOM     24  C   LIG d   1       7.163  -0.587  -4.161  0.00  0.00    -0.040 A 
ATOM     25  C   LIG d   1       6.272  -1.426  -3.522  0.00  0.00    -0.057 A 
ATOM     26  H   LIG d   1       7.980  -0.999  -4.734  0.00  0.00     0.064 H 
ATOM     27  C   LIG d   1       5.227  -0.899  -2.787  0.00  0.00    -0.047 A 
ATOM     28  H   LIG d   1       6.393  -2.496  -3.596  0.00  0.00     0.062 H 
ATOM     29  C   LIG d   1       5.069   0.472  -2.689  0.00  0.00    -0.046 A 
ATOM     30  C   LIG d   1       5.960   1.318  -3.321  0.00  0.00    -0.037 A 
ATOM     31  H   LIG d   1       5.838   2.388  -3.240  0.00  0.00     0.064 H 
BRANCH  27  32
ATOM     32  C   LIG d   1       4.257  -1.818  -2.091  0.00  0.00    -0.040 C 
ATOM     33  H   LIG d   1       4.396  -2.836  -2.456  0.00  0.00     0.028 H 
ATOM     34  H   LIG d   1       4.437  -1.789  -1.016  0.00  0.00     0.028 H 
ATOM     35  H   LIG d   1       3.237  -1.494  -2.297  0.00  0.00     0.028 H 
ENDBRANCH  27  32
BRANCH  29  36
ATOM     36  C   LIG d   1       3.927   1.043  -1.887  0.00  0.00    -0.039 C 
ATOM     37  H   LIG d   1       3.009   0.511  -2.132  0.00  0.00     0.028 H 
ATOM     38  H   LIG d   1       4.141   0.930  -0.824  0.00  0.00     0.028 H 
ATOM     39  H   LIG d   1       3.810   2.100  -2.124  0.00  0.00     0.028 H 
ENDBRANCH  29  36
ENDBRANCH   1  23
BRANCH  13  40
ATOM     40  C   LIG d   1      12.965   7.029  -4.440  0.00  0.00    -0.017 A 
ATOM     41  C   LIG d   1      12.639   8.119  -5.249  0.00  0.00    -0.054 A 
ATOM     42  C   LIG d   1      13.640   8.856  -5.846  0.00  0.00    -0.061 A 
ATOM     43  H   LIG d   1      11.604   8.384  -5.407  0.00  0.00     0.062 H 
ATOM     44  C   LIG d   1      14.966   8.516  -5.645  0.00  0.00    -0.062 A 
ATOM     45  H   LIG d   1      13.389   9.699  -6.473  0.00  0.00     0.062 H 
ATOM     46  C   LIG d   1      15.297   7.438  -4.844  0.00  0.00    -0.061 A 
ATOM     47  H   LIG d   1      15.747   9.097  -6.115  0.00  0.00     0.062 H 
ATOM     48  C   LIG d   1      14.305   6.696  -4.237  0.00  0.00    -0.054 A 
ATOM     49  H   LIG d   1      16.334   7.178  -4.691  0.00  0.00     0.062 H 
ATOM     50  H   LIG d   1      14.565   5.857  -3.608  0.00  0.00     0.062 H 
ENDBRANCH  13  40
TORSDOF 4
ENDMDL
MODEL 6
REMARK VINA RESULT:      -6.6     11.692     15.071
REMARK  4 active torsions:
REMARK  status: ('A' for Active; 'I' for Inactive)
REMARK    1  A    between atoms: C_1  and  C_2 
REMARK    2  A    between atoms: C_5  and  N_9 
REMARK    3  A    between atoms: C_7  and  C_8 
REMARK    4  A    between atoms: C_21  and  C_22 
ROOT
ATOM      1  N   LIG d   1      11.486   8.344   0.898  0.00  0.00    -0.293 NA
ATOM      2  C   LIG d   1      10.748   7.360   0.091  0.00  0.00     0.047 C 
ATOM      3  C   LIG d   1      10.618   7.862  -1.324  0.00  0.00     0.054 A 
ATOM      4  C   LIG d   1      10.823   9.197  -1.626  0.00  0.00     0.131 A 
ATOM      5  C   LIG d   1      10.696   9.650  -2.939  0.00  0.00    -0.019 A 
ATOM      6  C   LIG d   1      10.371   8.784  -3.942  0.00  0.00    -0.047 A 
ATOM      7  C   LIG d   1      10.163   7.434  -3.652  0.00  0.00     0.026 A 
ATOM      8  C   LIG d   1      10.287   6.966  -2.334  0.00  0.00     0.148 A 
ATOM      9  O   LIG d   1      10.088   5.665  -2.043  0.00  0.00    -0.422 OA
ATOM     10  C   LIG d   1       9.769   4.792  -3.004  0.00  0.00     0.338 A 
ATOM     11  O   LIG d   1       9.597   3.626  -2.696  0.00  0.00    -0.245 OA
ATOM     12  C   LIG d   1       9.621   5.159  -4.351  0.00  0.00     0.031 A 
ATOM     13  C   LIG d   1       9.812   6.478  -4.718  0.00  0.00    -0.001 A 
ATOM     14  O   LIG d   1      11.149  10.087  -0.651  0.00  0.00    -0.473 OA
ATOM     15  C   LIG d   1      10.918   9.688   0.702  0.00  0.00     0.157 C 
ATOM     16  H   LIG d   1      11.286   6.413   0.092  0.00  0.00     0.052 H 
ATOM     17  H   LIG d   1       9.755   7.213   0.517  0.00  0.00     0.052 H 
ATOM     18  H   LIG d   1      10.856  10.694  -3.164  0.00  0.00     0.065 H 
ATOM     19  H   LIG d   1      10.275   9.141  -4.956  0.00  0.00     0.063 H 
ATOM     20  H   LIG d   1       9.363   4.418  -5.093  0.00  0.00     0.070 H 
ATOM     21  H   LIG d   1      11.400  10.391   1.379  0.00  0.00     0.091 H 
ATOM     22  H   LIG d   1       9.846   9.665   0.897  0.00  0.00     0.091 H 
ENDROOT
BRANCH   1  23
ATOM     23  C   LIG d   1      11.478   7.989   2.248  0.00  0.00     0.033 A 
ATOM     24  C   LIG d   1      11.036   6.730   2.636  0.00  0.00    -0.040 A 
ATOM     25  C   LIG d   1      11.031   6.384   3.973  0.00  0.00    -0.057 A 
ATOM     26  H   LIG d   1      10.698   6.024   1.893  0.00  0.00     0.064 H 
ATOM     27  C   LIG d   1      11.464   7.287   4.926  0.00  0.00    -0.047 A 
ATOM     28  H   LIG d   1      10.688   5.405   4.274  0.00  0.00     0.062 H 
ATOM     29  C   LIG d   1      11.904   8.542   4.543  0.00  0.00    -0.046 A 
ATOM     30  C   LIG d   1      11.917   8.893   3.207  0.00  0.00    -0.037 A 
ATOM     31  H   LIG d   1      12.266   9.871   2.910  0.00  0.00     0.064 H 
BRANCH  27  32
ATOM     32  C   LIG d   1      11.457   6.905   6.383  0.00  0.00    -0.040 C 
ATOM     33  H   LIG d   1      11.604   5.829   6.477  0.00  0.00     0.028 H 
ATOM     34  H   LIG d   1      12.262   7.428   6.900  0.00  0.00     0.028 H 
ATOM     35  H   LIG d   1      10.501   7.183   6.826  0.00  0.00     0.028 H 
ENDBRANCH  27  32
BRANCH  29  36
ATOM     36  C   LIG d   1      12.376   9.524   5.585  0.00  0.00    -0.039 C 
ATOM     37  H   LIG d   1      13.271   9.137   6.070  0.00  0.00     0.028 H 
ATOM     38  H   LIG d   1      12.603  10.477   5.108  0.00  0.00     0.028 H 
ATOM     39  H   LIG d   1      11.592   9.667   6.329  0.00  0.00     0.028 H 
ENDBRANCH  29  36
ENDBRANCH   1  23
BRANCH  13  40
ATOM     40  C   LIG d   1       9.669   6.914  -6.124  0.00  0.00    -0.017 A 
ATOM     41  C   LIG d   1       9.122   8.164  -6.419  0.00  0.00    -0.054 A 
ATOM     42  C   LIG d   1       8.992   8.564  -7.733  0.00  0.00    -0.061 A 
ATOM     43  H   LIG d   1       8.801   8.816  -5.620  0.00  0.00     0.062 H 
ATOM     44  C   LIG d   1       9.402   7.729  -8.757  0.00  0.00    -0.062 A 
ATOM     45  H   LIG d   1       8.568   9.531  -7.962  0.00  0.00     0.062 H 
ATOM     46  C   LIG d   1       9.945   6.489  -8.472  0.00  0.00    -0.061 A 
ATOM     47  H   LIG d   1       9.297   8.048  -9.784  0.00  0.00     0.062 H 
ATOM     48  C   LIG d   1      10.086   6.079  -7.162  0.00  0.00    -0.054 A 
ATOM     49  H   LIG d   1      10.263   5.842  -9.276  0.00  0.00     0.062 H 
ATOM     50  H   LIG d   1      10.514   5.113  -6.941  0.00  0.00     0.062 H 
ENDBRANCH  13  40
TORSDOF 4
ENDMDL
MODEL 7
REMARK VINA RESULT:      -6.5      6.048     10.612
REMARK  4 active torsions:
REMARK  status: ('A' for Active; 'I' for Inactive)
REMARK    1  A    between atoms: C_1  and  C_2 
REMARK    2  A    between atoms: C_5  and  N_9 
REMARK    3  A    between atoms: C_7  and  C_8 
REMARK    4  A    between atoms: C_21  and  C_22 
ROOT
ATOM      1  N   LIG d   1      10.270   3.304  -3.893  0.00  0.00    -0.293 NA
ATOM      2  C   LIG d   1       8.863   2.973  -3.619  0.00  0.00     0.047 C 
ATOM      3  C   LIG d   1       8.469   1.752  -4.410  0.00  0.00     0.054 A 
ATOM      4  C   LIG d   1       9.228   1.326  -5.486  0.00  0.00     0.131 A 
ATOM      5  C   LIG d   1       8.850   0.196  -6.212  0.00  0.00    -0.019 A 
ATOM      6  C   LIG d   1       7.730  -0.503  -5.870  0.00  0.00    -0.047 A 
ATOM      7  C   LIG d   1       6.955  -0.086  -4.786  0.00  0.00     0.026 A 
ATOM      8  C   LIG d   1       7.325   1.049  -4.048  0.00  0.00     0.148 A 
ATOM      9  O   LIG d   1       6.584   1.461  -3.000  0.00  0.00    -0.422 OA
ATOM     10  C   LIG d   1       5.482   0.796  -2.641  0.00  0.00     0.338 A 
ATOM     11  O   LIG d   1       4.841   1.204  -1.688  0.00  0.00    -0.245 OA
ATOM     12  C   LIG d   1       5.027  -0.350  -3.312  0.00  0.00     0.031 A 
ATOM     13  C   LIG d   1       5.741  -0.825  -4.396  0.00  0.00    -0.001 A 
ATOM     14  O   LIG d   1      10.351   1.999  -5.852  0.00  0.00    -0.473 OA
ATOM     15  C   LIG d   1      10.512   3.325  -5.344  0.00  0.00     0.157 C 
ATOM     16  H   LIG d   1       8.738   2.773  -2.556  0.00  0.00     0.052 H 
ATOM     17  H   LIG d   1       8.230   3.813  -3.908  0.00  0.00     0.052 H 
ATOM     18  H   LIG d   1       9.449  -0.126  -7.051  0.00  0.00     0.065 H 
ATOM     19  H   LIG d   1       7.444  -1.377  -6.436  0.00  0.00     0.063 H 
ATOM     20  H   LIG d   1       4.130  -0.854  -2.985  0.00  0.00     0.070 H 
ATOM     21  H   LIG d   1      11.526   3.672  -5.541  0.00  0.00     0.091 H 
ATOM     22  H   LIG d   1       9.796   3.991  -5.826  0.00  0.00     0.091 H 
ENDROOT
BRANCH   1  23
ATOM     23  C   LIG d   1      10.619   4.523  -3.309  0.00  0.00     0.033 A 
ATOM     24  C   LIG d   1      10.841   5.640  -4.106  0.00  0.00    -0.040 A 
ATOM     25  C   LIG d   1      11.186   6.844  -3.525  0.00  0.00    -0.057 A 
ATOM     26  H   LIG d   1      10.743   5.565  -5.179  0.00  0.00     0.064 H 
ATOM     27  C   LIG d   1      11.311   6.941  -2.152  0.00  0.00    -0.047 A 
ATOM     28  H   LIG d   1      11.358   7.711  -4.144  0.00  0.00     0.062 H 
ATOM     29  C   LIG d   1      11.092   5.831  -1.355  0.00  0.00    -0.046 A 
ATOM     30  C   LIG d   1      10.741   4.625  -1.929  0.00  0.00    -0.037 A 
ATOM     31  H   LIG d   1      10.565   3.761  -1.305  0.00  0.00     0.064 H 
BRANCH  27  32
ATOM     32  C   LIG d   1      11.687   8.256  -1.521  0.00  0.00    -0.040 C 
ATOM     33  H   LIG d   1      11.611   9.050  -2.264  0.00  0.00     0.028 H 
ATOM     34  H   LIG d   1      11.012   8.468  -0.692  0.00  0.00     0.028 H 
ATOM     35  H   LIG d   1      12.711   8.201  -1.150  0.00  0.00     0.028 H 
ENDBRANCH  27  32
BRANCH  29  36
ATOM     36  C   LIG d   1      11.229   5.941   0.142  0.00  0.00    -0.039 C 
ATOM     37  H   LIG d   1      12.130   6.504   0.384  0.00  0.00     0.028 H 
ATOM     38  H   LIG d   1      10.358   6.457   0.549  0.00  0.00     0.028 H 
ATOM     39  H   LIG d   1      11.296   4.943   0.575  0.00  0.00     0.028 H 
ENDBRANCH  29  36
ENDBRANCH   1  23
BRANCH  13  40
ATOM     40  C   LIG d   1       5.304  -2.030  -5.136  0.00  0.00    -0.017 A 
ATOM     41  C   LIG d   1       4.699  -1.903  -6.388  0.00  0.00    -0.054 A 
ATOM     42  C   LIG d   1       4.294  -3.030  -7.073  0.00  0.00    -0.061 A 
ATOM     43  H   LIG d   1       4.549  -0.924  -6.819  0.00  0.00     0.062 H 
ATOM     44  C   LIG d   1       4.487  -4.284  -6.521  0.00  0.00    -0.062 A 
ATOM     45  H   LIG d   1       3.826  -2.933  -8.041  0.00  0.00     0.062 H 
ATOM     46  C   LIG d   1       5.086  -4.417  -5.282  0.00  0.00    -0.061 A 
ATOM     47  H   LIG d   1       4.167  -5.163  -7.062  0.00  0.00     0.062 H 
ATOM     48  C   LIG d   1       5.500  -3.298  -4.589  0.00  0.00    -0.054 A 
ATOM     49  H   LIG d   1       5.232  -5.399  -4.857  0.00  0.00     0.062 H 
ATOM     50  H   LIG d   1       5.972  -3.404  -3.623  0.00  0.00     0.062 H 
ENDBRANCH  13  40
TORSDOF 4
ENDMDL
MODEL 8
REMARK VINA RESULT:      -6.4      4.182      7.619
REMARK  4 active torsions:
REMARK  status: ('A' for Active; 'I' for Inactive)
REMARK    1  A    between atoms: C_1  and  C_2 
REMARK    2  A    between atoms: C_5  and  N_9 
REMARK    3  A    between atoms: C_7  and  C_8 
REMARK    4  A    between atoms: C_21  and  C_22 
ROOT
ATOM      1  N   LIG d   1       2.405  -1.940 -11.192  0.00  0.00    -0.293 NA
ATOM      2  C   LIG d   1       3.339  -2.428 -10.167  0.00  0.00     0.047 C 
ATOM      3  C   LIG d   1       3.351  -1.474  -9.000  0.00  0.00     0.054 A 
ATOM      4  C   LIG d   1       2.858  -0.188  -9.128  0.00  0.00     0.131 A 
ATOM      5  C   LIG d   1       2.879   0.687  -8.041  0.00  0.00    -0.019 A 
ATOM      6  C   LIG d   1       3.383   0.285  -6.839  0.00  0.00    -0.047 A 
ATOM      7  C   LIG d   1       3.883  -1.011  -6.695  0.00  0.00     0.026 A 
ATOM      8  C   LIG d   1       3.868  -1.900  -7.781  0.00  0.00     0.148 A 
ATOM      9  O   LIG d   1       4.349  -3.153  -7.653  0.00  0.00    -0.422 OA
ATOM     10  C   LIG d   1       4.850  -3.575  -6.488  0.00  0.00     0.338 A 
ATOM     11  O   LIG d   1       5.274  -4.715  -6.417  0.00  0.00    -0.245 OA
ATOM     12  C   LIG d   1       4.910  -2.765  -5.343  0.00  0.00     0.031 A 
ATOM     13  C   LIG d   1       4.434  -1.469  -5.406  0.00  0.00    -0.001 A 
ATOM     14  O   LIG d   1       2.346   0.244 -10.311  0.00  0.00    -0.473 OA
ATOM     15  C   LIG d   1       2.663  -0.519 -11.477  0.00  0.00     0.157 C 
ATOM     16  H   LIG d   1       3.021  -3.413  -9.827  0.00  0.00     0.052 H 
ATOM     17  H   LIG d   1       4.341  -2.496 -10.591  0.00  0.00     0.052 H 
ATOM     18  H   LIG d   1       2.492   1.689  -8.152  0.00  0.00     0.065 H 
ATOM     19  H   LIG d   1       3.396   0.967  -6.002  0.00  0.00     0.063 H 
ATOM     20  H   LIG d   1       5.323  -3.151  -4.423  0.00  0.00     0.070 H 
ATOM     21  H   LIG d   1       2.040  -0.193 -12.309  0.00  0.00     0.091 H 
ATOM     22  H   LIG d   1       3.715  -0.381 -11.729  0.00  0.00     0.091 H 
ENDROOT
BRANCH   1  23
ATOM     23  C   LIG d   1       2.493  -2.707 -12.355  0.00  0.00     0.033 A 
ATOM     24  C   LIG d   1       1.686  -2.412 -13.448  0.00  0.00    -0.040 A 
ATOM     25  C   LIG d   1       1.777  -3.174 -14.596  0.00  0.00    -0.057 A 
ATOM     26  H   LIG d   1       0.991  -1.588 -13.398  0.00  0.00     0.064 H 
ATOM     27  C   LIG d   1       2.668  -4.229 -14.661  0.00  0.00    -0.047 A 
ATOM     28  H   LIG d   1       1.151  -2.944 -15.446  0.00  0.00     0.062 H 
ATOM     29  C   LIG d   1       3.472  -4.526 -13.575  0.00  0.00    -0.046 A 
ATOM     30  C   LIG d   1       3.391  -3.765 -12.425  0.00  0.00    -0.037 A 
ATOM     31  H   LIG d   1       4.023  -3.995 -11.579  0.00  0.00     0.064 H 
BRANCH  27  32
ATOM     32  C   LIG d   1       2.764  -5.057 -15.916  0.00  0.00    -0.040 C 
ATOM     33  H   LIG d   1       2.440  -6.076 -15.704  0.00  0.00     0.028 H 
ATOM     34  H   LIG d   1       2.125  -4.625 -16.686  0.00  0.00     0.028 H 
ATOM     35  H   LIG d   1       3.797  -5.068 -16.266  0.00  0.00     0.028 H 
ENDBRANCH  27  32
BRANCH  29  36
ATOM     36  C   LIG d   1       4.443  -5.677 -13.650  0.00  0.00    -0.039 C 
ATOM     37  H   LIG d   1       4.638  -6.054 -12.646  0.00  0.00     0.028 H 
ATOM     38  H   LIG d   1       4.014  -6.472 -14.260  0.00  0.00     0.028 H 
ATOM     39  H   LIG d   1       5.376  -5.336 -14.099  0.00  0.00     0.028 H 
ENDBRANCH  29  36
ENDBRANCH   1  23
BRANCH  13  40
ATOM     40  C   LIG d   1       4.474  -0.577  -4.227  0.00  0.00    -0.017 A 
ATOM     41  C   LIG d   1       5.654   0.089  -3.891  0.00  0.00    -0.054 A 
ATOM     42  C   LIG d   1       5.684   0.920  -2.790  0.00  0.00    -0.061 A 
ATOM     43  H   LIG d   1       6.541  -0.046  -4.493  0.00  0.00     0.062 H 
ATOM     44  C   LIG d   1       4.549   1.094  -2.020  0.00  0.00    -0.062 A 
ATOM     45  H   LIG d   1       6.597   1.436  -2.530  0.00  0.00     0.062 H 
ATOM     46  C   LIG d   1       3.376   0.437  -2.347  0.00  0.00    -0.061 A 
ATOM     47  H   LIG d   1       4.579   1.746  -1.159  0.00  0.00     0.062 H 
ATOM     48  C   LIG d   1       3.330  -0.392  -3.449  0.00  0.00    -0.054 A 
ATOM     49  H   LIG d   1       2.493   0.577  -1.741  0.00  0.00     0.062 H 
ATOM     50  H   LIG d   1       2.413  -0.901  -3.705  0.00  0.00     0.062 H 
ENDBRANCH  13  40
TORSDOF 4
ENDMDL
MODEL 9
REMARK VINA RESULT:      -6.3      6.224     10.621
REMARK  4 active torsions:
REMARK  status: ('A' for Active; 'I' for Inactive)
REMARK    1  A    between atoms: C_1  and  C_2 
REMARK    2  A    between atoms: C_5  and  N_9 
REMARK    3  A    between atoms: C_7  and  C_8 
REMARK    4  A    between atoms: C_21  and  C_22 
ROOT
ATOM      1  N   LIG d   1       2.076  -3.568 -10.558  0.00  0.00    -0.293 NA
ATOM      2  C   LIG d   1       0.616  -3.736 -10.555  0.00  0.00     0.047 C 
ATOM      3  C   LIG d   1       0.270  -5.157 -10.916  0.00  0.00     0.054 A 
ATOM      4  C   LIG d   1       1.198  -5.982 -11.526  0.00  0.00     0.131 A 
ATOM      5  C   LIG d   1       0.865  -7.295 -11.859  0.00  0.00    -0.019 A 
ATOM      6  C   LIG d   1      -0.379  -7.783 -11.585  0.00  0.00    -0.047 A 
ATOM      7  C   LIG d   1      -1.326  -6.963 -10.969  0.00  0.00     0.026 A 
ATOM      8  C   LIG d   1      -1.002  -5.640 -10.629  0.00  0.00     0.148 A 
ATOM      9  O   LIG d   1      -1.909  -4.840 -10.034  0.00  0.00    -0.422 OA
ATOM     10  C   LIG d   1      -3.136  -5.290  -9.754  0.00  0.00     0.338 A 
ATOM     11  O   LIG d   1      -3.924  -4.532  -9.216  0.00  0.00    -0.245 OA
ATOM     12  C   LIG d   1      -3.558  -6.595 -10.052  0.00  0.00     0.031 A 
ATOM     13  C   LIG d   1      -2.677  -7.468 -10.662  0.00  0.00    -0.001 A 
ATOM     14  O   LIG d   1       2.448  -5.528 -11.811  0.00  0.00    -0.473 OA
ATOM     15  C   LIG d   1       2.646  -4.112 -11.801  0.00  0.00     0.157 C 
ATOM     16  H   LIG d   1       0.227  -3.508  -9.563  0.00  0.00     0.052 H 
ATOM     17  H   LIG d   1       0.171  -3.057 -11.283  0.00  0.00     0.052 H 
ATOM     18  H   LIG d   1       1.597  -7.929 -12.336  0.00  0.00     0.065 H 
ATOM     19  H   LIG d   1      -0.631  -8.800 -11.845  0.00  0.00     0.063 H 
ATOM     20  H   LIG d   1      -4.560  -6.914  -9.805  0.00  0.00     0.070 H 
ATOM     21  H   LIG d   1       3.712  -3.891 -11.843  0.00  0.00     0.091 H 
ATOM     22  H   LIG d   1       2.144  -3.667 -12.660  0.00  0.00     0.091 H 
ENDROOT
BRANCH   1  23
ATOM     23  C   LIG d   1       2.426  -2.226 -10.393  0.00  0.00     0.033 A 
ATOM     24  C   LIG d   1       2.725  -1.442 -11.501  0.00  0.00    -0.040 A 
ATOM     25  C   LIG d   1       3.070  -0.116 -11.333  0.00  0.00    -0.057 A 
ATOM     26  H   LIG d   1       2.687  -1.871 -12.491  0.00  0.00     0.064 H 
ATOM     27  C   LIG d   1       3.118   0.434 -10.065  0.00  0.00    -0.047 A 
ATOM     28  H   LIG d   1       3.302   0.493 -12.194  0.00  0.00     0.062 H 
ATOM     29  C   LIG d   1       2.822  -0.344  -8.960  0.00  0.00    -0.046 A 
ATOM     30  C   LIG d   1       2.471  -1.670  -9.121  0.00  0.00    -0.037 A 
ATOM     31  H   LIG d   1       2.235  -2.275  -8.257  0.00  0.00     0.064 H 
BRANCH  27  32
ATOM     32  C   LIG d   1       3.495   1.882  -9.887  0.00  0.00    -0.040 C 
ATOM     33  H   LIG d   1       4.262   2.149 -10.613  0.00  0.00     0.028 H 
ATOM     34  H   LIG d   1       2.615   2.507 -10.040  0.00  0.00     0.028 H 
ATOM     35  H   LIG d   1       3.879   2.035  -8.878  0.00  0.00     0.028 H 
ENDBRANCH  27  32
BRANCH  29  36
ATOM     36  C   LIG d   1       2.876   0.259  -7.580  0.00  0.00    -0.039 C 
ATOM     37  H   LIG d   1       2.431   1.254  -7.600  0.00  0.00     0.028 H 
ATOM     38  H   LIG d   1       2.322  -0.373  -6.886  0.00  0.00     0.028 H 
ATOM     39  H   LIG d   1       3.915   0.331  -7.256  0.00  0.00     0.028 H 
ENDBRANCH  29  36
ENDBRANCH   1  23
BRANCH  13  40
ATOM     40  C   LIG d   1      -3.074  -8.853 -10.996  0.00  0.00    -0.017 A 
ATOM     41  C   LIG d   1      -3.666  -9.137 -12.227  0.00  0.00    -0.054 A 
ATOM     42  C   LIG d   1      -4.033 -10.431 -12.532  0.00  0.00    -0.061 A 
ATOM     43  H   LIG d   1      -3.836  -8.344 -12.940  0.00  0.00     0.062 H 
ATOM     44  C   LIG d   1      -3.816 -11.447 -11.619  0.00  0.00    -0.062 A 
ATOM     45  H   LIG d   1      -4.492 -10.651 -13.485  0.00  0.00     0.062 H 
ATOM     46  C   LIG d   1      -3.229 -11.174 -10.396  0.00  0.00    -0.061 A 
ATOM     47  H   LIG d   1      -4.106 -12.459 -11.863  0.00  0.00     0.062 H 
ATOM     48  C   LIG d   1      -2.852  -9.884 -10.081  0.00  0.00    -0.054 A 
ATOM     49  H   LIG d   1      -3.063 -11.972  -9.688  0.00  0.00     0.062 H 
ATOM     50  H   LIG d   1      -2.390  -9.673  -9.129  0.00  0.00     0.062 H 
ENDBRANCH  13  40
TORSDOF 4
ENDMDL
