MODEL 1
REMARK VINA RESULT:      -6.0      0.000      0.000
REMARK  9 active torsions:
REMARK  status: ('A' for Active; 'I' for Inactive)
REMARK    1  A    between atoms: C_1  and  C_2 
REMARK    2  A    between atoms: C_9  and  O_39 
REMARK    3  A    between atoms: C_17  and  O_19 
REMARK    4  A    between atoms: C_21  and  C_26 
REMARK    5  A    between atoms: C_23  and  O_25 
REMARK    6  A    between atoms: C_26  and  C_27 
REMARK    7  A    between atoms: C_26  and  C_28 
REMARK    8  A    between atoms: C_26  and  C_29 
REMARK    9  A    between atoms: C_30  and  O_38 
ROOT
ATOM      1  C   LIG d   1       4.095   0.303  -3.376  0.00  0.00     0.089 C 
ATOM      2  H   LIG d   1       3.690   0.725  -4.297  0.00  0.00     0.044 H 
ATOM      3  C   LIG d   1       3.274  -0.898  -2.938  0.00  0.00     0.313 C 
ATOM      4  O   LIG d   1       2.068  -1.005  -3.003  0.00  0.00    -0.250 OA
ATOM      5  O   LIG d   1       4.134  -1.822  -2.458  0.00  0.00    -0.455 OA
ATOM      6  C   LIG d   1       5.346  -1.756  -3.204  0.00  0.00     0.162 C 
ATOM      7  H   LIG d   1       6.202  -2.118  -2.626  0.00  0.00     0.079 H 
ATOM      8  C   LIG d   1       5.515  -0.261  -3.600  0.00  0.00     0.158 C 
ATOM      9  C   LIG d   1       5.878  -0.253  -5.070  0.00  0.00     0.214 C 
ATOM     10  C   LIG d   1       7.209   0.322  -5.425  0.00  0.00     0.344 C 
ATOM     11  O   LIG d   1       7.449   1.508  -5.496  0.00  0.00    -0.247 OA
ATOM     12  O   LIG d   1       8.128  -0.662  -5.664  0.00  0.00    -0.456 OA
ATOM     13  C   LIG d   1       7.659  -1.951  -5.207  0.00  0.00     0.141 C 
ATOM     14  H   LIG d   1       7.936  -2.205  -4.185  0.00  0.00     0.077 H 
ATOM     15  C   LIG d   1       6.152  -1.738  -5.461  0.00  0.00     0.097 C 
ATOM     16  C   LIG d   1       5.224  -2.513  -4.550  0.00  0.00     0.108 C 
ATOM     17  H   LIG d   1       5.568  -3.538  -4.403  0.00  0.00     0.064 H 
ATOM     18  C   LIG d   1       6.019  -1.777  -6.974  0.00  0.00     0.090 C 
ATOM     19  C   LIG d   1       6.631  -3.086  -7.188  0.00  0.00     0.009 C 
ATOM     20  H   LIG d   1       6.886  -3.311  -8.221  0.00  0.00     0.034 H 
ATOM     21  C   LIG d   1       7.873  -3.105  -6.238  0.00  0.00     0.097 C 
ATOM     22  H   LIG d   1       8.792  -2.940  -6.798  0.00  0.00     0.063 H 
ATOM     23  C   LIG d   1       6.950  -1.095  -8.046  0.00  0.00     0.164 C 
ATOM     24  H   LIG d   1       7.489  -0.223  -7.628  0.00  0.00     0.072 H 
ATOM     25  C   LIG d   1       5.910  -0.633  -9.090  0.00  0.00     0.339 C 
ATOM     26  O   LIG d   1       6.105  -0.334 -10.241  0.00  0.00    -0.248 OA
ATOM     27  O   LIG d   1       4.692  -0.637  -8.405  0.00  0.00    -0.432 OA
ATOM     28  C   LIG d   1       5.393  -0.416  -7.161  0.00  0.00     0.216 C 
ATOM     29  H   LIG d   1       6.133   0.361  -7.366  0.00  0.00     0.106 H 
ATOM     30  O   LIG d   1       4.747  -0.021  -5.947  0.00  0.00    -0.319 OA
ENDROOT
BRANCH  19  31
ATOM     31  C   LIG d   1       5.667  -4.233  -6.825  0.00  0.00    -0.032 C 
BRANCH  31  32
ATOM     32  C   LIG d   1       4.227  -3.799  -7.107  0.00  0.00    -0.060 C 
ATOM     33  H   LIG d   1       3.922  -4.165  -8.087  0.00  0.00     0.024 H 
ATOM     34  H   LIG d   1       3.568  -4.209  -6.343  0.00  0.00     0.024 H 
ATOM     35  H   LIG d   1       4.167  -2.710  -7.092  0.00  0.00     0.024 H 
ENDBRANCH  31  32
BRANCH  31  36
ATOM     36  C   LIG d   1       6.000  -5.466  -7.668  0.00  0.00    -0.060 C 
ATOM     37  H   LIG d   1       6.540  -5.158  -8.564  0.00  0.00     0.024 H 
ATOM     38  H   LIG d   1       6.623  -6.147  -7.086  0.00  0.00     0.024 H 
ATOM     39  H   LIG d   1       5.079  -5.971  -7.955  0.00  0.00     0.024 H 
ENDBRANCH  31  36
BRANCH  31  40
ATOM     40  C   LIG d   1       5.816  -4.575  -5.341  0.00  0.00    -0.060 C 
ATOM     41  H   LIG d   1       6.012  -3.663  -4.776  0.00  0.00     0.024 H 
ATOM     42  H   LIG d   1       4.896  -5.034  -4.980  0.00  0.00     0.024 H 
ATOM     43  H   LIG d   1       6.646  -5.269  -5.210  0.00  0.00     0.024 H 
ENDBRANCH  31  40
ENDBRANCH  19  31
BRANCH  21  44
ATOM     44  O   LIG d   1       7.944  -4.359  -5.552  0.00  0.00    -0.388 OA
ATOM     45  H   LIG d   1       8.777  -4.832  -5.684  0.00  0.00     0.210 HD
ENDBRANCH  21  44
BRANCH  23  46
ATOM     46  O   LIG d   1       7.973  -1.870  -8.658  0.00  0.00    -0.380 OA
ATOM     47  H   LIG d   1       8.637  -2.205  -8.039  0.00  0.00     0.210 HD
ENDBRANCH  23  46
BRANCH  16  48
ATOM     48  O   LIG d   1       3.881  -2.487  -5.030  0.00  0.00    -0.387 OA
ATOM     49  H   LIG d   1       3.745  -2.983  -5.848  0.00  0.00     0.210 HD
ENDBRANCH  16  48
BRANCH   8  50
ATOM     50  O   LIG d   1       6.495   0.406  -2.798  0.00  0.00    -0.381 OA
ATOM     51  H   LIG d   1       6.586   0.044  -1.906  0.00  0.00     0.210 HD
ENDBRANCH   8  50
BRANCH   1  52
ATOM     52  C   LIG d   1       4.110   1.368  -2.274  0.00  0.00    -0.049 C 
ATOM     53  H   LIG d   1       3.989   0.887  -1.304  0.00  0.00     0.024 H 
ATOM     54  H   LIG d   1       5.058   1.903  -2.300  0.00  0.00     0.024 H 
ATOM     55  H   LIG d   1       3.292   2.069  -2.437  0.00  0.00     0.024 H 
ENDBRANCH   1  52
TORSDOF 9
ENDMDL
MODEL 2
REMARK VINA RESULT:      -6.0      2.014      3.543
REMARK  9 active torsions:
REMARK  status: ('A' for Active; 'I' for Inactive)
REMARK    1  A    between atoms: C_1  and  C_2 
REMARK    2  A    between atoms: C_9  and  O_39 
REMARK    3  A    between atoms: C_17  and  O_19 
REMARK    4  A    between atoms: C_21  and  C_26 
REMARK    5  A    between atoms: C_23  and  O_25 
REMARK    6  A    between atoms: C_26  and  C_27 
REMARK    7  A    between atoms: C_26  and  C_28 
REMARK    8  A    between atoms: C_26  and  C_29 
REMARK    9  A    between atoms: C_30  and  O_38 
ROOT
ATOM      1  C   LIG d   1       4.650   0.299  -3.532  0.00  0.00     0.089 C 
ATOM      2  H   LIG d   1       5.494   0.921  -3.835  0.00  0.00     0.044 H 
ATOM      3  C   LIG d   1       3.341   1.041  -3.745  0.00  0.00     0.313 C 
ATOM      4  O   LIG d   1       3.144   2.219  -3.540  0.00  0.00    -0.250 OA
ATOM      5  O   LIG d   1       2.439   0.145  -4.200  0.00  0.00    -0.455 OA
ATOM      6  C   LIG d   1       3.107  -0.803  -5.027  0.00  0.00     0.162 C 
ATOM      7  H   LIG d   1       2.579  -1.762  -5.057  0.00  0.00     0.079 H 
ATOM      8  C   LIG d   1       4.533  -0.954  -4.426  0.00  0.00     0.158 C 
ATOM      9  C   LIG d   1       5.493  -0.880  -5.595  0.00  0.00     0.214 C 
ATOM     10  C   LIG d   1       6.331  -2.090  -5.849  0.00  0.00     0.344 C 
ATOM     11  O   LIG d   1       7.326  -2.381  -5.222  0.00  0.00    -0.247 OA
ATOM     12  O   LIG d   1       5.832  -2.832  -6.884  0.00  0.00    -0.456 OA
ATOM     13  C   LIG d   1       4.488  -2.425  -7.231  0.00  0.00     0.141 C 
ATOM     14  H   LIG d   1       3.696  -2.966  -6.715  0.00  0.00     0.077 H 
ATOM     15  C   LIG d   1       4.616  -0.927  -6.885  0.00  0.00     0.097 C 
ATOM     16  C   LIG d   1       3.333  -0.248  -6.456  0.00  0.00     0.108 C 
ATOM     17  H   LIG d   1       2.490  -0.548  -7.081  0.00  0.00     0.064 H 
ATOM     18  C   LIG d   1       5.502  -0.364  -7.983  0.00  0.00     0.090 C 
ATOM     19  C   LIG d   1       4.696  -0.797  -9.122  0.00  0.00     0.009 C 
ATOM     20  H   LIG d   1       5.191  -0.729 -10.088  0.00  0.00     0.034 H 
ATOM     21  C   LIG d   1       4.256  -2.254  -8.767  0.00  0.00     0.097 C 
ATOM     22  H   LIG d   1       4.847  -2.983  -9.318  0.00  0.00     0.063 H 
ATOM     23  C   LIG d   1       6.812  -0.993  -8.589  0.00  0.00     0.164 C 
ATOM     24  H   LIG d   1       7.301  -1.688  -7.879  0.00  0.00     0.072 H 
ATOM     25  C   LIG d   1       7.680   0.268  -8.789  0.00  0.00     0.339 C 
ATOM     26  O   LIG d   1       8.648   0.391  -9.497  0.00  0.00    -0.248 OA
ATOM     27  O   LIG d   1       7.098   1.235  -7.966  0.00  0.00    -0.432 OA
ATOM     28  C   LIG d   1       6.593   0.194  -7.102  0.00  0.00     0.216 C 
ATOM     29  H   LIG d   1       7.419  -0.508  -6.962  0.00  0.00     0.106 H 
ATOM     30  O   LIG d   1       6.068   0.436  -5.792  0.00  0.00    -0.319 OA
ENDROOT
BRANCH  19  31
ATOM     31  C   LIG d   1       3.457   0.100  -9.318  0.00  0.00    -0.032 C 
BRANCH  31  32
ATOM     32  C   LIG d   1       3.774   1.520  -8.846  0.00  0.00    -0.060 C 
ATOM     33  H   LIG d   1       3.268   2.239  -9.489  0.00  0.00     0.024 H 
ATOM     34  H   LIG d   1       3.432   1.647  -7.819  0.00  0.00     0.024 H 
ATOM     35  H   LIG d   1       4.851   1.686  -8.894  0.00  0.00     0.024 H 
ENDBRANCH  31  32
BRANCH  31  36
ATOM     36  C   LIG d   1       3.079   0.129 -10.800  0.00  0.00    -0.060 C 
ATOM     37  H   LIG d   1       2.352   0.923 -10.974  0.00  0.00     0.024 H 
ATOM     38  H   LIG d   1       3.970   0.317 -11.400  0.00  0.00     0.024 H 
ATOM     39  H   LIG d   1       2.645  -0.829 -11.085  0.00  0.00     0.024 H 
ENDBRANCH  31  36
BRANCH  31  40
ATOM     40  C   LIG d   1       2.288  -0.459  -8.504  0.00  0.00    -0.060 C 
ATOM     41  H   LIG d   1       2.344  -0.083  -7.483  0.00  0.00     0.024 H 
ATOM     42  H   LIG d   1       1.348  -0.145  -8.956  0.00  0.00     0.024 H 
ATOM     43  H   LIG d   1       2.341  -1.548  -8.494  0.00  0.00     0.024 H 
ENDBRANCH  31  40
ENDBRANCH  19  31
BRANCH  21  44
ATOM     44  O   LIG d   1       2.868  -2.432  -9.068  0.00  0.00    -0.388 OA
ATOM     45  H   LIG d   1       2.357  -1.610  -9.068  0.00  0.00     0.210 HD
ENDBRANCH  21  44
BRANCH  23  46
ATOM     46  O   LIG d   1       6.720  -1.741  -9.794  0.00  0.00    -0.380 OA
ATOM     47  H   LIG d   1       6.321  -2.616  -9.685  0.00  0.00     0.210 HD
ENDBRANCH  23  46
BRANCH  16  48
ATOM     48  O   LIG d   1       3.476   1.170  -6.434  0.00  0.00    -0.387 OA
ATOM     49  H   LIG d   1       3.995   1.525  -7.169  0.00  0.00     0.210 HD
ENDBRANCH  16  48
BRANCH   8  50
ATOM     50  O   LIG d   1       4.683  -2.167  -3.680  0.00  0.00    -0.381 OA
ATOM     51  H   LIG d   1       3.849  -2.616  -3.488  0.00  0.00     0.210 HD
ENDBRANCH   8  50
BRANCH   1  52
ATOM     52  C   LIG d   1       4.800  -0.105  -2.061  0.00  0.00    -0.049 C 
ATOM     53  H   LIG d   1       3.841  -0.457  -1.683  0.00  0.00     0.024 H 
ATOM     54  H   LIG d   1       5.539  -0.901  -1.977  0.00  0.00     0.024 H 
ATOM     55  H   LIG d   1       5.126   0.757  -1.480  0.00  0.00     0.024 H 
ENDBRANCH   1  52
TORSDOF 9
ENDMDL
MODEL 3
REMARK VINA RESULT:      -6.0     10.325     13.013
REMARK  9 active torsions:
REMARK  status: ('A' for Active; 'I' for Inactive)
REMARK    1  A    between atoms: C_1  and  C_2 
REMARK    2  A    between atoms: C_9  and  O_39 
REMARK    3  A    between atoms: C_17  and  O_19 
REMARK    4  A    between atoms: C_21  and  C_26 
REMARK    5  A    between atoms: C_23  and  O_25 
REMARK    6  A    between atoms: C_26  and  C_27 
REMARK    7  A    between atoms: C_26  and  C_28 
REMARK    8  A    between atoms: C_26  and  C_29 
REMARK    9  A    between atoms: C_30  and  O_38 
ROOT
ATOM      1  C   LIG d   1      10.617  11.241  -2.039  0.00  0.00     0.089 C 
ATOM      2  H   LIG d   1      10.611  11.321  -0.952  0.00  0.00     0.044 H 
ATOM      3  C   LIG d   1      11.995  11.572  -2.588  0.00  0.00     0.313 C 
ATOM      4  O   LIG d   1      12.736  12.442  -2.185  0.00  0.00    -0.250 OA
ATOM      5  O   LIG d   1      12.238  10.721  -3.608  0.00  0.00    -0.455 OA
ATOM      6  C   LIG d   1      11.642   9.462  -3.312  0.00  0.00     0.162 C 
ATOM      7  H   LIG d   1      11.405   8.899  -4.220  0.00  0.00     0.079 H 
ATOM      8  C   LIG d   1      10.361   9.786  -2.491  0.00  0.00     0.158 C 
ATOM      9  C   LIG d   1      10.368   8.840  -1.308  0.00  0.00     0.214 C 
ATOM     10  C   LIG d   1       9.228   7.881  -1.215  0.00  0.00     0.344 C 
ATOM     11  O   LIG d   1       8.121   8.165  -0.812  0.00  0.00    -0.247 OA
ATOM     12  O   LIG d   1       9.591   6.633  -1.643  0.00  0.00    -0.456 OA
ATOM     13  C   LIG d   1      10.853   6.660  -2.350  0.00  0.00     0.141 C 
ATOM     14  H   LIG d   1      10.772   6.797  -3.428  0.00  0.00     0.077 H 
ATOM     15  C   LIG d   1      11.515   7.817  -1.573  0.00  0.00     0.097 C 
ATOM     16  C   LIG d   1      12.528   8.627  -2.354  0.00  0.00     0.108 C 
ATOM     17  H   LIG d   1      13.179   7.988  -2.953  0.00  0.00     0.064 H 
ATOM     18  C   LIG d   1      11.832   7.221  -0.212  0.00  0.00     0.090 C 
ATOM     19  C   LIG d   1      12.626   6.087  -0.679  0.00  0.00     0.009 C 
ATOM     20  H   LIG d   1      12.824   5.325   0.071  0.00  0.00     0.034 H 
ATOM     21  C   LIG d   1      11.846   5.535  -1.916  0.00  0.00     0.097 C 
ATOM     22  H   LIG d   1      11.297   4.631  -1.656  0.00  0.00     0.063 H 
ATOM     23  C   LIG d   1      10.917   6.296   0.676  0.00  0.00     0.164 C 
ATOM     24  H   LIG d   1       9.844   6.434   0.444  0.00  0.00     0.072 H 
ATOM     25  C   LIG d   1      11.234   6.836   2.088  0.00  0.00     0.339 C 
ATOM     26  O   LIG d   1      11.043   6.290   3.145  0.00  0.00    -0.248 OA
ATOM     27  O   LIG d   1      11.791   8.099   1.869  0.00  0.00    -0.432 OA
ATOM     28  C   LIG d   1      11.057   8.206   0.630  0.00  0.00     0.216 C 
ATOM     29  H   LIG d   1      10.043   7.863   0.849  0.00  0.00     0.106 H 
ATOM     30  O   LIG d   1      10.901   9.430  -0.096  0.00  0.00    -0.319 OA
ENDROOT
BRANCH  19  31
ATOM     31  C   LIG d   1      14.047   6.520  -1.096  0.00  0.00    -0.032 C 
BRANCH  31  32
ATOM     32  C   LIG d   1      14.458   7.759  -0.299  0.00  0.00    -0.060 C 
ATOM     33  H   LIG d   1      15.533   7.912  -0.394  0.00  0.00     0.024 H 
ATOM     34  H   LIG d   1      13.931   8.631  -0.686  0.00  0.00     0.024 H 
ATOM     35  H   LIG d   1      14.203   7.616   0.752  0.00  0.00     0.024 H 
ENDBRANCH  31  32
BRANCH  31  36
ATOM     36  C   LIG d   1      15.030   5.382  -0.812  0.00  0.00    -0.060 C 
ATOM     37  H   LIG d   1      15.090   4.728  -1.682  0.00  0.00     0.024 H 
ATOM     38  H   LIG d   1      16.017   5.798  -0.603  0.00  0.00     0.024 H 
ATOM     39  H   LIG d   1      14.687   4.811   0.050  0.00  0.00     0.024 H 
ENDBRANCH  31  36
BRANCH  31  40
ATOM     40  C   LIG d   1      14.062   6.846  -2.591  0.00  0.00    -0.060 C 
ATOM     41  H   LIG d   1      13.318   6.236  -3.104  0.00  0.00     0.024 H 
ATOM     42  H   LIG d   1      13.829   7.901  -2.735  0.00  0.00     0.024 H 
ATOM     43  H   LIG d   1      15.050   6.632  -2.999  0.00  0.00     0.024 H 
ENDBRANCH  31  40
ENDBRANCH  19  31
BRANCH  21  44
ATOM     44  O   LIG d   1      12.757   5.257  -2.984  0.00  0.00    -0.388 OA
ATOM     45  H   LIG d   1      13.171   4.384  -2.930  0.00  0.00     0.210 HD
ENDBRANCH  21  44
BRANCH  23  46
ATOM     46  O   LIG d   1      11.104   4.888   0.618  0.00  0.00    -0.380 OA
ATOM     47  H   LIG d   1      11.385   4.494   1.456  0.00  0.00     0.210 HD
ENDBRANCH  23  46
BRANCH  16  48
ATOM     48  O   LIG d   1      13.290   9.474  -1.497  0.00  0.00    -0.387 OA
ATOM     49  H   LIG d   1      13.835   8.998  -0.856  0.00  0.00     0.210 HD
ENDBRANCH  16  48
BRANCH   8  50
ATOM     50  O   LIG d   1       9.168   9.664  -3.273  0.00  0.00    -0.381 OA
ATOM     51  H   LIG d   1       9.319   9.699  -4.228  0.00  0.00     0.210 HD
ENDBRANCH   8  50
BRANCH   1  52
ATOM     52  C   LIG d   1       9.566  12.180  -2.640  0.00  0.00    -0.049 C 
ATOM     53  H   LIG d   1       8.572  11.767  -2.472  0.00  0.00     0.024 H 
ATOM     54  H   LIG d   1       9.639  13.158  -2.165  0.00  0.00     0.024 H 
ATOM     55  H   LIG d   1       9.740  12.283  -3.711  0.00  0.00     0.024 H 
ENDBRANCH   1  52
TORSDOF 9
ENDMDL
MODEL 4
REMARK VINA RESULT:      -5.9      1.630      5.098
REMARK  9 active torsions:
REMARK  status: ('A' for Active; 'I' for Inactive)
REMARK    1  A    between atoms: C_1  and  C_2 
REMARK    2  A    between atoms: C_9  and  O_39 
REMARK    3  A    between atoms: C_17  and  O_19 
REMARK    4  A    between atoms: C_21  and  C_26 
REMARK    5  A    between atoms: C_23  and  O_25 
REMARK    6  A    between atoms: C_26  and  C_27 
REMARK    7  A    between atoms: C_26  and  C_28 
REMARK    8  A    between atoms: C_26  and  C_29 
REMARK    9  A    between atoms: C_30  and  O_38 
ROOT
ATOM      1  C   LIG d   1       9.069  -3.324  -6.196  0.00  0.00     0.089 C 
ATOM      2  H   LIG d   1       9.034  -2.509  -6.920  0.00  0.00     0.044 H 
ATOM      3  C   LIG d   1       9.784  -2.879  -4.931  0.00  0.00     0.313 C 
ATOM      4  O   LIG d   1      10.764  -2.168  -4.874  0.00  0.00    -0.250 OA
ATOM      5  O   LIG d   1       9.129  -3.426  -3.884  0.00  0.00    -0.455 OA
ATOM      6  C   LIG d   1       7.738  -3.480  -4.187  0.00  0.00     0.162 C 
ATOM      7  H   LIG d   1       7.231  -4.276  -3.632  0.00  0.00     0.079 H 
ATOM      8  C   LIG d   1       7.651  -3.710  -5.723  0.00  0.00     0.158 C 
ATOM      9  C   LIG d   1       6.619  -2.729  -6.238  0.00  0.00     0.214 C 
ATOM     10  C   LIG d   1       5.405  -3.313  -6.879  0.00  0.00     0.344 C 
ATOM     11  O   LIG d   1       5.364  -3.745  -8.011  0.00  0.00    -0.247 OA
ATOM     12  O   LIG d   1       4.336  -3.299  -6.026  0.00  0.00    -0.456 OA
ATOM     13  C   LIG d   1       4.745  -3.025  -4.666  0.00  0.00     0.141 C 
ATOM     14  H   LIG d   1       4.968  -3.907  -4.066  0.00  0.00     0.077 H 
ATOM     15  C   LIG d   1       5.943  -2.104  -4.979  0.00  0.00     0.097 C 
ATOM     16  C   LIG d   1       7.053  -2.112  -3.950  0.00  0.00     0.108 C 
ATOM     17  H   LIG d   1       6.659  -2.094  -2.932  0.00  0.00     0.064 H 
ATOM     18  C   LIG d   1       5.306  -0.817  -5.472  0.00  0.00     0.090 C 
ATOM     19  C   LIG d   1       4.457  -0.564  -4.311  0.00  0.00     0.009 C 
ATOM     20  H   LIG d   1       3.693   0.197  -4.457  0.00  0.00     0.034 H 
ATOM     21  C   LIG d   1       3.860  -1.960  -3.941  0.00  0.00     0.097 C 
ATOM     22  H   LIG d   1       2.827  -2.041  -4.276  0.00  0.00     0.063 H 
ATOM     23  C   LIG d   1       4.098  -0.655  -6.470  0.00  0.00     0.164 C 
ATOM     24  H   LIG d   1       3.991  -1.535  -7.132  0.00  0.00     0.072 H 
ATOM     25  C   LIG d   1       4.551   0.577  -7.284  0.00  0.00     0.339 C 
ATOM     26  O   LIG d   1       3.869   1.302  -7.964  0.00  0.00    -0.248 OA
ATOM     27  O   LIG d   1       5.928   0.665  -7.061  0.00  0.00    -0.432 OA
ATOM     28  C   LIG d   1       5.978  -0.759  -6.823  0.00  0.00     0.216 C 
ATOM     29  H   LIG d   1       5.376  -1.218  -7.610  0.00  0.00     0.106 H 
ATOM     30  O   LIG d   1       7.194  -1.513  -6.780  0.00  0.00    -0.319 OA
ENDROOT
BRANCH  19  31
ATOM     31  C   LIG d   1       5.266  -0.000  -3.125  0.00  0.00    -0.032 C 
BRANCH  31  32
ATOM     32  C   LIG d   1       6.439   0.828  -3.654  0.00  0.00    -0.060 C 
ATOM     33  H   LIG d   1       7.295   0.176  -3.828  0.00  0.00     0.024 H 
ATOM     34  H   LIG d   1       6.152   1.308  -4.589  0.00  0.00     0.024 H 
ATOM     35  H   LIG d   1       6.706   1.589  -2.920  0.00  0.00     0.024 H 
ENDBRANCH  31  32
BRANCH  31  36
ATOM     36  C   LIG d   1       4.363   0.888  -2.267  0.00  0.00    -0.060 C 
ATOM     37  H   LIG d   1       4.902   1.794  -1.989  0.00  0.00     0.024 H 
ATOM     38  H   LIG d   1       3.471   1.156  -2.835  0.00  0.00     0.024 H 
ATOM     39  H   LIG d   1       4.071   0.348  -1.366  0.00  0.00     0.024 H 
ENDBRANCH  31  36
BRANCH  31  40
ATOM     40  C   LIG d   1       5.800  -1.157  -2.276  0.00  0.00    -0.060 C 
ATOM     41  H   LIG d   1       5.183  -1.267  -1.384  0.00  0.00     0.024 H 
ATOM     42  H   LIG d   1       5.767  -2.078  -2.857  0.00  0.00     0.024 H 
ATOM     43  H   LIG d   1       6.828  -0.947  -1.982  0.00  0.00     0.024 H 
ENDBRANCH  31  40
ENDBRANCH  19  31
BRANCH  21  44
ATOM     44  O   LIG d   1       3.926  -2.161  -2.526  0.00  0.00    -0.388 OA
ATOM     45  H   LIG d   1       4.501  -2.892  -2.259  0.00  0.00     0.210 HD
ENDBRANCH  21  44
BRANCH  23  46
ATOM     46  O   LIG d   1       2.793  -0.460  -5.941  0.00  0.00    -0.380 OA
ATOM     47  H   LIG d   1       2.562   0.468  -5.795  0.00  0.00     0.210 HD
ENDBRANCH  23  46
BRANCH  16  48
ATOM     48  O   LIG d   1       7.969  -1.040  -4.164  0.00  0.00    -0.387 OA
ATOM     49  H   LIG d   1       7.546  -0.197  -4.376  0.00  0.00     0.210 HD
ENDBRANCH  16  48
BRANCH   8  50
ATOM     50  O   LIG d   1       7.321  -5.064  -6.052  0.00  0.00    -0.381 OA
ATOM     51  H   LIG d   1       7.373  -5.674  -5.304  0.00  0.00     0.210 HD
ENDBRANCH   8  50
BRANCH   1  52
ATOM     52  C   LIG d   1       9.778  -4.537  -6.809  0.00  0.00    -0.049 C 
ATOM     53  H   LIG d   1      10.820  -4.547  -6.491  0.00  0.00     0.024 H 
ATOM     54  H   LIG d   1       9.288  -5.450  -6.475  0.00  0.00     0.024 H 
ATOM     55  H   LIG d   1       9.730  -4.474  -7.896  0.00  0.00     0.024 H 
ENDBRANCH   1  52
TORSDOF 9
ENDMDL
MODEL 5
REMARK VINA RESULT:      -5.9      1.898      4.352
REMARK  9 active torsions:
REMARK  status: ('A' for Active; 'I' for Inactive)
REMARK    1  A    between atoms: C_1  and  C_2 
REMARK    2  A    between atoms: C_9  and  O_39 
REMARK    3  A    between atoms: C_17  and  O_19 
REMARK    4  A    between atoms: C_21  and  C_26 
REMARK    5  A    between atoms: C_23  and  O_25 
REMARK    6  A    between atoms: C_26  and  C_27 
REMARK    7  A    between atoms: C_26  and  C_28 
REMARK    8  A    between atoms: C_26  and  C_29 
REMARK    9  A    between atoms: C_30  and  O_38 
ROOT
ATOM      1  C   LIG d   1       8.831   2.026  -6.748  0.00  0.00     0.089 C 
ATOM      2  H   LIG d   1       7.933   2.485  -7.162  0.00  0.00     0.044 H 
ATOM      3  C   LIG d   1       8.962   2.357  -5.270  0.00  0.00     0.313 C 
ATOM      4  O   LIG d   1       8.704   3.421  -4.749  0.00  0.00    -0.250 OA
ATOM      5  O   LIG d   1       9.424   1.251  -4.648  0.00  0.00    -0.455 OA
ATOM      6  C   LIG d   1       8.883   0.101  -5.290  0.00  0.00     0.162 C 
ATOM      7  H   LIG d   1       9.523  -0.778  -5.160  0.00  0.00     0.079 H 
ATOM      8  C   LIG d   1       8.740   0.485  -6.791  0.00  0.00     0.158 C 
ATOM      9  C   LIG d   1       7.358   0.034  -7.212  0.00  0.00     0.214 C 
ATOM     10  C   LIG d   1       7.292  -1.000  -8.287  0.00  0.00     0.344 C 
ATOM     11  O   LIG d   1       7.433  -0.773  -9.469  0.00  0.00    -0.247 OA
ATOM     12  O   LIG d   1       7.051  -2.242  -7.769  0.00  0.00    -0.456 OA
ATOM     13  C   LIG d   1       7.239  -2.266  -6.335  0.00  0.00     0.141 C 
ATOM     14  H   LIG d   1       8.243  -2.535  -6.008  0.00  0.00     0.077 H 
ATOM     15  C   LIG d   1       6.798  -0.819  -6.032  0.00  0.00     0.097 C 
ATOM     16  C   LIG d   1       7.437  -0.188  -4.814  0.00  0.00     0.108 C 
ATOM     17  H   LIG d   1       7.482  -0.884  -3.975  0.00  0.00     0.064 H 
ATOM     18  C   LIG d   1       5.293  -0.836  -6.238  0.00  0.00     0.090 C 
ATOM     19  C   LIG d   1       4.983  -1.918  -5.308  0.00  0.00     0.009 C 
ATOM     20  H   LIG d   1       3.977  -2.324  -5.393  0.00  0.00     0.034 H 
ATOM     21  C   LIG d   1       6.093  -2.990  -5.558  0.00  0.00     0.097 C 
ATOM     22  H   LIG d   1       5.705  -3.819  -6.149  0.00  0.00     0.063 H 
ATOM     23  C   LIG d   1       4.483  -1.520  -7.403  0.00  0.00     0.164 C 
ATOM     24  H   LIG d   1       5.100  -1.647  -8.313  0.00  0.00     0.072 H 
ATOM     25  C   LIG d   1       3.376  -0.472  -7.648  0.00  0.00     0.339 C 
ATOM     26  O   LIG d   1       2.322  -0.631  -8.212  0.00  0.00    -0.248 OA
ATOM     27  O   LIG d   1       3.864   0.704  -7.071  0.00  0.00    -0.432 OA
ATOM     28  C   LIG d   1       5.217   0.246  -7.288  0.00  0.00     0.216 C 
ATOM     29  H   LIG d   1       5.240  -0.155  -8.305  0.00  0.00     0.106 H 
ATOM     30  O   LIG d   1       6.367   1.091  -7.182  0.00  0.00    -0.319 OA
ENDROOT
BRANCH  19  31
ATOM     31  C   LIG d   1       5.026  -1.440  -3.842  0.00  0.00    -0.032 C 
BRANCH  31  32
ATOM     32  C   LIG d   1       4.623   0.034  -3.773  0.00  0.00    -0.060 C 
ATOM     33  H   LIG d   1       3.733   0.196  -4.381  0.00  0.00     0.024 H 
ATOM     34  H   LIG d   1       4.411   0.305  -2.739  0.00  0.00     0.024 H 
ATOM     35  H   LIG d   1       5.439   0.651  -4.151  0.00  0.00     0.024 H 
ENDBRANCH  31  32
BRANCH  31  36
ATOM     36  C   LIG d   1       4.053  -2.274  -3.005  0.00  0.00    -0.060 C 
ATOM     37  H   LIG d   1       4.609  -2.836  -2.254  0.00  0.00     0.024 H 
ATOM     38  H   LIG d   1       3.341  -1.613  -2.509  0.00  0.00     0.024 H 
ATOM     39  H   LIG d   1       3.515  -2.966  -3.653  0.00  0.00     0.024 H 
ENDBRANCH  31  36
BRANCH  31  40
ATOM     40  C   LIG d   1       6.445  -1.608  -3.292  0.00  0.00    -0.060 C 
ATOM     41  H   LIG d   1       6.888  -0.626  -3.126  0.00  0.00     0.024 H 
ATOM     42  H   LIG d   1       6.406  -2.153  -2.350  0.00  0.00     0.024 H 
ATOM     43  H   LIG d   1       7.049  -2.163  -4.010  0.00  0.00     0.024 H 
ENDBRANCH  31  40
ENDBRANCH  19  31
BRANCH  21  44
ATOM     44  O   LIG d   1       6.591  -3.479  -4.309  0.00  0.00    -0.388 OA
ATOM     45  H   LIG d   1       6.343  -2.936  -3.547  0.00  0.00     0.210 HD
ENDBRANCH  21  44
BRANCH  23  46
ATOM     46  O   LIG d   1       3.922  -2.808  -7.185  0.00  0.00    -0.380 OA
ATOM     47  H   LIG d   1       4.429  -3.359  -6.572  0.00  0.00     0.210 HD
ENDBRANCH  23  46
BRANCH  16  48
ATOM     48  O   LIG d   1       6.773   1.019  -4.443  0.00  0.00    -0.387 OA
ATOM     49  H   LIG d   1       6.369   0.992  -3.566  0.00  0.00     0.210 HD
ENDBRANCH  16  48
BRANCH   8  50
ATOM     50  O   LIG d   1       9.768  -0.095  -7.601  0.00  0.00    -0.381 OA
ATOM     51  H   LIG d   1      10.423  -0.601  -7.102  0.00  0.00     0.210 HD
ENDBRANCH   8  50
BRANCH   1  52
ATOM     52  C   LIG d   1      10.068   2.511  -7.513  0.00  0.00    -0.049 C 
ATOM     53  H   LIG d   1      10.820   2.855  -6.805  0.00  0.00     0.024 H 
ATOM     54  H   LIG d   1      10.473   1.691  -8.104  0.00  0.00     0.024 H 
ATOM     55  H   LIG d   1       9.787   3.331  -8.173  0.00  0.00     0.024 H 
ENDBRANCH   1  52
TORSDOF 9
ENDMDL
MODEL 6
REMARK VINA RESULT:      -5.8      1.546      4.071
REMARK  9 active torsions:
REMARK  status: ('A' for Active; 'I' for Inactive)
REMARK    1  A    between atoms: C_1  and  C_2 
REMARK    2  A    between atoms: C_9  and  O_39 
REMARK    3  A    between atoms: C_17  and  O_19 
REMARK    4  A    between atoms: C_21  and  C_26 
REMARK    5  A    between atoms: C_23  and  O_25 
REMARK    6  A    between atoms: C_26  and  C_27 
REMARK    7  A    between atoms: C_26  and  C_28 
REMARK    8  A    between atoms: C_26  and  C_29 
REMARK    9  A    between atoms: C_30  and  O_38 
ROOT
ATOM      1  C   LIG d   1       5.143  -0.930  -3.007  0.00  0.00     0.089 C 
ATOM      2  H   LIG d   1       6.122  -1.402  -2.926  0.00  0.00     0.044 H 
ATOM      3  C   LIG d   1       5.291   0.567  -3.218  0.00  0.00     0.313 C 
ATOM      4  O   LIG d   1       6.109   1.288  -2.687  0.00  0.00    -0.250 OA
ATOM      5  O   LIG d   1       4.343   0.947  -4.101  0.00  0.00    -0.455 OA
ATOM      6  C   LIG d   1       4.145  -0.102  -5.045  0.00  0.00     0.162 C 
ATOM      7  H   LIG d   1       3.141  -0.073  -5.481  0.00  0.00     0.079 H 
ATOM      8  C   LIG d   1       4.389  -1.423  -4.261  0.00  0.00     0.158 C 
ATOM      9  C   LIG d   1       5.288  -2.272  -5.137  0.00  0.00     0.214 C 
ATOM     10  C   LIG d   1       4.729  -3.577  -5.599  0.00  0.00     0.344 C 
ATOM     11  O   LIG d   1       4.668  -4.578  -4.920  0.00  0.00    -0.247 OA
ATOM     12  O   LIG d   1       4.293  -3.500  -6.894  0.00  0.00    -0.456 OA
ATOM     13  C   LIG d   1       4.200  -2.129  -7.343  0.00  0.00     0.141 C 
ATOM     14  H   LIG d   1       3.229  -1.660  -7.191  0.00  0.00     0.077 H 
ATOM     15  C   LIG d   1       5.365  -1.547  -6.516  0.00  0.00     0.097 C 
ATOM     16  C   LIG d   1       5.233  -0.085  -6.147  0.00  0.00     0.108 C 
ATOM     17  H   LIG d   1       4.867   0.510  -6.985  0.00  0.00     0.064 H 
ATOM     18  C   LIG d   1       6.612  -2.104  -7.183  0.00  0.00     0.090 C 
ATOM     19  C   LIG d   1       6.342  -1.616  -8.533  0.00  0.00     0.009 C 
ATOM     20  H   LIG d   1       6.966  -2.049  -9.311  0.00  0.00     0.034 H 
ATOM     21  C   LIG d   1       4.818  -1.883  -8.758  0.00  0.00     0.097 C 
ATOM     22  H   LIG d   1       4.667  -2.757  -9.389  0.00  0.00     0.063 H 
ATOM     23  C   LIG d   1       6.862  -3.572  -7.695  0.00  0.00     0.164 C 
ATOM     24  H   LIG d   1       6.225  -4.306  -7.166  0.00  0.00     0.072 H 
ATOM     25  C   LIG d   1       8.344  -3.770  -7.308  0.00  0.00     0.339 C 
ATOM     26  O   LIG d   1       9.114  -4.592  -7.739  0.00  0.00    -0.248 OA
ATOM     27  O   LIG d   1       8.596  -2.789  -6.346  0.00  0.00    -0.432 OA
ATOM     28  C   LIG d   1       7.199  -2.795  -5.977  0.00  0.00     0.216 C 
ATOM     29  H   LIG d   1       6.909  -3.847  -5.914  0.00  0.00     0.106 H 
ATOM     30  O   LIG d   1       6.691  -2.185  -4.786  0.00  0.00    -0.319 OA
ENDROOT
BRANCH  19  31
ATOM     31  C   LIG d   1       6.643  -0.109  -8.665  0.00  0.00    -0.032 C 
BRANCH  31  32
ATOM     32  C   LIG d   1       7.766   0.275  -7.701  0.00  0.00    -0.060 C 
ATOM     33  H   LIG d   1       7.384   0.973  -6.956  0.00  0.00     0.024 H 
ATOM     34  H   LIG d   1       8.138  -0.620  -7.202  0.00  0.00     0.024 H 
ATOM     35  H   LIG d   1       8.578   0.745  -8.257  0.00  0.00     0.024 H 
ENDBRANCH  31  32
BRANCH  31  36
ATOM     36  C   LIG d   1       7.076   0.201 -10.100  0.00  0.00    -0.060 C 
ATOM     37  H   LIG d   1       8.006   0.770 -10.084  0.00  0.00     0.024 H 
ATOM     38  H   LIG d   1       7.232  -0.732 -10.643  0.00  0.00     0.024 H 
ATOM     39  H   LIG d   1       6.302   0.785 -10.596  0.00  0.00     0.024 H 
ENDBRANCH  31  36
BRANCH  31  40
ATOM     40  C   LIG d   1       5.384   0.694  -8.329  0.00  0.00    -0.060 C 
ATOM     41  H   LIG d   1       5.245   0.715  -7.248  0.00  0.00     0.024 H 
ATOM     42  H   LIG d   1       5.493   1.712  -8.700  0.00  0.00     0.024 H 
ATOM     43  H   LIG d   1       4.518   0.225  -8.797  0.00  0.00     0.024 H 
ENDBRANCH  31  40
ENDBRANCH  19  31
BRANCH  21  44
ATOM     44  O   LIG d   1       4.205  -0.739  -9.360  0.00  0.00    -0.388 OA
ATOM     45  H   LIG d   1       4.801  -0.225  -9.922  0.00  0.00     0.210 HD
ENDBRANCH  21  44
BRANCH  23  46
ATOM     46  O   LIG d   1       6.654  -3.863  -9.071  0.00  0.00    -0.380 OA
ATOM     47  H   LIG d   1       7.413  -3.658  -9.635  0.00  0.00     0.210 HD
ENDBRANCH  23  46
BRANCH  16  48
ATOM     48  O   LIG d   1       6.460   0.438  -5.644  0.00  0.00    -0.387 OA
ATOM     49  H   LIG d   1       6.349   1.112  -4.959  0.00  0.00     0.210 HD
ENDBRANCH  16  48
BRANCH   8  50
ATOM     50  O   LIG d   1       3.168  -2.094  -3.931  0.00  0.00    -0.381 OA
ATOM     51  H   LIG d   1       2.723  -1.737  -3.150  0.00  0.00     0.210 HD
ENDBRANCH   8  50
BRANCH   1  52
ATOM     52  C   LIG d   1       4.321  -1.210  -1.744  0.00  0.00    -0.049 C 
ATOM     53  H   LIG d   1       4.286  -0.313  -1.128  0.00  0.00     0.024 H 
ATOM     54  H   LIG d   1       3.308  -1.497  -2.027  0.00  0.00     0.024 H 
ATOM     55  H   LIG d   1       4.784  -2.020  -1.182  0.00  0.00     0.024 H 
ENDBRANCH   1  52
TORSDOF 9
ENDMDL
MODEL 7
REMARK VINA RESULT:      -5.7      1.728      4.816
REMARK  9 active torsions:
REMARK  status: ('A' for Active; 'I' for Inactive)
REMARK    1  A    between atoms: C_1  and  C_2 
REMARK    2  A    between atoms: C_9  and  O_39 
REMARK    3  A    between atoms: C_17  and  O_19 
REMARK    4  A    between atoms: C_21  and  C_26 
REMARK    5  A    between atoms: C_23  and  O_25 
REMARK    6  A    between atoms: C_26  and  C_27 
REMARK    7  A    between atoms: C_26  and  C_28 
REMARK    8  A    between atoms: C_26  and  C_29 
REMARK    9  A    between atoms: C_30  and  O_38 
ROOT
ATOM      1  C   LIG d   1       8.975  -0.008  -6.975  0.00  0.00     0.089 C 
ATOM      2  H   LIG d   1       8.505  -0.571  -7.781  0.00  0.00     0.044 H 
ATOM      3  C   LIG d   1       8.370   1.382  -6.875  0.00  0.00     0.313 C 
ATOM      4  O   LIG d   1       8.044   2.090  -7.804  0.00  0.00    -0.250 OA
ATOM      5  O   LIG d   1       8.267   1.685  -5.563  0.00  0.00    -0.455 OA
ATOM      6  C   LIG d   1       7.969   0.495  -4.838  0.00  0.00     0.162 C 
ATOM      7  H   LIG d   1       8.306   0.557  -3.798  0.00  0.00     0.079 H 
ATOM      8  C   LIG d   1       8.686  -0.654  -5.602  0.00  0.00     0.158 C 
ATOM      9  C   LIG d   1       7.672  -1.772  -5.730  0.00  0.00     0.214 C 
ATOM     10  C   LIG d   1       8.017  -3.064  -5.068  0.00  0.00     0.344 C 
ATOM     11  O   LIG d   1       8.782  -3.887  -5.520  0.00  0.00    -0.247 OA
ATOM     12  O   LIG d   1       7.355  -3.205  -3.879  0.00  0.00    -0.456 OA
ATOM     13  C   LIG d   1       6.766  -1.957  -3.446  0.00  0.00     0.141 C 
ATOM     14  H   LIG d   1       7.400  -1.350  -2.801  0.00  0.00     0.077 H 
ATOM     15  C   LIG d   1       6.459  -1.366  -4.838  0.00  0.00     0.097 C 
ATOM     16  C   LIG d   1       6.462   0.146  -4.915  0.00  0.00     0.108 C 
ATOM     17  H   LIG d   1       5.958   0.595  -4.057  0.00  0.00     0.064 H 
ATOM     18  C   LIG d   1       5.297  -2.200  -5.350  0.00  0.00     0.090 C 
ATOM     19  C   LIG d   1       4.389  -1.974  -4.229  0.00  0.00     0.009 C 
ATOM     20  H   LIG d   1       3.525  -2.634  -4.197  0.00  0.00     0.034 H 
ATOM     21  C   LIG d   1       5.288  -2.090  -2.956  0.00  0.00     0.097 C 
ATOM     22  H   LIG d   1       5.143  -3.051  -2.464  0.00  0.00     0.063 H 
ATOM     23  C   LIG d   1       5.116  -3.762  -5.266  0.00  0.00     0.164 C 
ATOM     24  H   LIG d   1       6.087  -4.285  -5.176  0.00  0.00     0.072 H 
ATOM     25  C   LIG d   1       4.471  -4.059  -6.637  0.00  0.00     0.339 C 
ATOM     26  O   LIG d   1       3.853  -5.041  -6.963  0.00  0.00    -0.248 OA
ATOM     27  O   LIG d   1       4.762  -2.937  -7.418  0.00  0.00    -0.432 OA
ATOM     28  C   LIG d   1       5.943  -2.693  -6.622  0.00  0.00     0.216 C 
ATOM     29  H   LIG d   1       6.428  -3.663  -6.497  0.00  0.00     0.106 H 
ATOM     30  O   LIG d   1       6.984  -1.789  -7.006  0.00  0.00    -0.319 OA
ENDROOT
BRANCH  19  31
ATOM     31  C   LIG d   1       3.738  -0.577  -4.294  0.00  0.00    -0.032 C 
BRANCH  31  32
ATOM     32  C   LIG d   1       3.560  -0.165  -5.756  0.00  0.00    -0.060 C 
ATOM     33  H   LIG d   1       3.491   0.921  -5.822  0.00  0.00     0.024 H 
ATOM     34  H   LIG d   1       4.413  -0.511  -6.339  0.00  0.00     0.024 H 
ATOM     35  H   LIG d   1       2.645  -0.611  -6.151  0.00  0.00     0.024 H 
ENDBRANCH  31  32
BRANCH  31  36
ATOM     36  C   LIG d   1       2.371  -0.619  -3.607  0.00  0.00    -0.060 C 
ATOM     37  H   LIG d   1       1.602  -0.295  -4.308  0.00  0.00     0.024 H 
ATOM     38  H   LIG d   1       2.159  -1.637  -3.280  0.00  0.00     0.024 H 
ATOM     39  H   LIG d   1       2.378   0.046  -2.743  0.00  0.00     0.024 H 
ENDBRANCH  31  36
BRANCH  31  40
ATOM     40  C   LIG d   1       4.636   0.438  -3.583  0.00  0.00    -0.060 C 
ATOM     41  H   LIG d   1       5.185   1.018  -4.324  0.00  0.00     0.024 H 
ATOM     42  H   LIG d   1       4.022   1.106  -2.981  0.00  0.00     0.024 H 
ATOM     43  H   LIG d   1       5.340  -0.089  -2.939  0.00  0.00     0.024 H 
ENDBRANCH  31  40
ENDBRANCH  19  31
BRANCH  21  44
ATOM     44  O   LIG d   1       4.985  -1.030  -2.044  0.00  0.00    -0.388 OA
ATOM     45  H   LIG d   1       4.951  -1.307  -1.117  0.00  0.00     0.210 HD
ENDBRANCH  21  44
BRANCH  23  46
ATOM     46  O   LIG d   1       4.334  -4.305  -4.210  0.00  0.00    -0.380 OA
ATOM     47  H   LIG d   1       3.379  -4.241  -4.353  0.00  0.00     0.210 HD
ENDBRANCH  23  46
BRANCH  16  48
ATOM     48  O   LIG d   1       5.895   0.606  -6.140  0.00  0.00    -0.387 OA
ATOM     49  H   LIG d   1       6.495   1.144  -6.674  0.00  0.00     0.210 HD
ENDBRANCH  16  48
BRANCH   8  50
ATOM     50  O   LIG d   1       9.882  -1.083  -4.943  0.00  0.00    -0.381 OA
ATOM     51  H   LIG d   1       9.791  -1.175  -3.985  0.00  0.00     0.210 HD
ENDBRANCH   8  50
BRANCH   1  52
ATOM     52  C   LIG d   1      10.486   0.086  -7.214  0.00  0.00    -0.049 C 
ATOM     53  H   LIG d   1      11.009  -0.510  -6.468  0.00  0.00     0.024 H 
ATOM     54  H   LIG d   1      10.720  -0.290  -8.209  0.00  0.00     0.024 H 
ATOM     55  H   LIG d   1      10.802   1.126  -7.135  0.00  0.00     0.024 H 
ENDBRANCH   1  52
TORSDOF 9
ENDMDL
MODEL 8
REMARK VINA RESULT:      -5.6      1.693      4.832
REMARK  9 active torsions:
REMARK  status: ('A' for Active; 'I' for Inactive)
REMARK    1  A    between atoms: C_1  and  C_2 
REMARK    2  A    between atoms: C_9  and  O_39 
REMARK    3  A    between atoms: C_17  and  O_19 
REMARK    4  A    between atoms: C_21  and  C_26 
REMARK    5  A    between atoms: C_23  and  O_25 
REMARK    6  A    between atoms: C_26  and  C_27 
REMARK    7  A    between atoms: C_26  and  C_28 
REMARK    8  A    between atoms: C_26  and  C_29 
REMARK    9  A    between atoms: C_30  and  O_38 
ROOT
ATOM      1  C   LIG d   1       4.806  -1.272  -9.279  0.00  0.00     0.089 C 
ATOM      2  H   LIG d   1       5.049  -2.329  -9.166  0.00  0.00     0.044 H 
ATOM      3  C   LIG d   1       3.372  -1.008  -8.852  0.00  0.00     0.313 C 
ATOM      4  O   LIG d   1       2.418  -1.725  -9.061  0.00  0.00    -0.250 OA
ATOM      5  O   LIG d   1       3.356   0.175  -8.199  0.00  0.00    -0.455 OA
ATOM      6  C   LIG d   1       4.576   0.319  -7.477  0.00  0.00     0.162 C 
ATOM      7  H   LIG d   1       4.829   1.371  -7.311  0.00  0.00     0.079 H 
ATOM      8  C   LIG d   1       5.658  -0.400  -8.331  0.00  0.00     0.158 C 
ATOM      9  C   LIG d   1       6.451  -1.260  -7.368  0.00  0.00     0.214 C 
ATOM     10  C   LIG d   1       7.903  -0.941  -7.231  0.00  0.00     0.344 C 
ATOM     11  O   LIG d   1       8.758  -1.273  -8.023  0.00  0.00    -0.247 OA
ATOM     12  O   LIG d   1       8.150  -0.225  -6.092  0.00  0.00    -0.456 OA
ATOM     13  C   LIG d   1       6.929   0.290  -5.513  0.00  0.00     0.141 C 
ATOM     14  H   LIG d   1       6.646   1.287  -5.848  0.00  0.00     0.077 H 
ATOM     15  C   LIG d   1       5.985  -0.856  -5.935  0.00  0.00     0.097 C 
ATOM     16  C   LIG d   1       4.538  -0.462  -6.140  0.00  0.00     0.108 C 
ATOM     17  H   LIG d   1       4.189   0.211  -5.355  0.00  0.00     0.064 H 
ATOM     18  C   LIG d   1       6.390  -2.020  -5.047  0.00  0.00     0.090 C 
ATOM     19  C   LIG d   1       6.217  -1.351  -3.761  0.00  0.00     0.009 C 
ATOM     20  H   LIG d   1       6.648  -1.872  -2.910  0.00  0.00     0.034 H 
ATOM     21  C   LIG d   1       6.821   0.076  -3.968  0.00  0.00     0.097 C 
ATOM     22  H   LIG d   1       7.806   0.149  -3.511  0.00  0.00     0.063 H 
ATOM     23  C   LIG d   1       7.845  -2.495  -4.677  0.00  0.00     0.164 C 
ATOM     24  H   LIG d   1       8.586  -2.184  -5.438  0.00  0.00     0.072 H 
ATOM     25  C   LIG d   1       7.668  -4.029  -4.694  0.00  0.00     0.339 C 
ATOM     26  O   LIG d   1       8.381  -4.858  -4.187  0.00  0.00    -0.248 OA
ATOM     27  O   LIG d   1       6.499  -4.244  -5.429  0.00  0.00    -0.432 OA
ATOM     28  C   LIG d   1       6.721  -3.007  -6.141  0.00  0.00     0.216 C 
ATOM     29  H   LIG d   1       7.781  -2.998  -6.406  0.00  0.00     0.106 H 
ATOM     30  O   LIG d   1       6.022  -2.644  -7.335  0.00  0.00    -0.319 OA
ENDROOT
BRANCH  19  31
ATOM     31  C   LIG d   1       4.729  -1.245  -3.368  0.00  0.00    -0.032 C 
BRANCH  31  32
ATOM     32  C   LIG d   1       3.971  -2.460  -3.909  0.00  0.00    -0.060 C 
ATOM     33  H   LIG d   1       4.384  -3.369  -3.474  0.00  0.00     0.024 H 
ATOM     34  H   LIG d   1       2.917  -2.377  -3.645  0.00  0.00     0.024 H 
ATOM     35  H   LIG d   1       4.072  -2.497  -4.994  0.00  0.00     0.024 H 
ENDBRANCH  31  32
BRANCH  31  36
ATOM     36  C   LIG d   1       4.605  -1.205  -1.844  0.00  0.00    -0.060 C 
ATOM     37  H   LIG d   1       4.747  -2.208  -1.441  0.00  0.00     0.024 H 
ATOM     38  H   LIG d   1       5.365  -0.539  -1.434  0.00  0.00     0.024 H 
ATOM     39  H   LIG d   1       3.616  -0.840  -1.568  0.00  0.00     0.024 H 
ENDBRANCH  31  36
BRANCH  31  40
ATOM     40  C   LIG d   1       4.134   0.034  -3.962  0.00  0.00    -0.060 C 
ATOM     41  H   LIG d   1       3.064   0.067  -3.754  0.00  0.00     0.024 H 
ATOM     42  H   LIG d   1       4.618   0.901  -3.516  0.00  0.00     0.024 H 
ATOM     43  H   LIG d   1       4.294   0.042  -5.041  0.00  0.00     0.024 H 
ENDBRANCH  31  40
ENDBRANCH  19  31
BRANCH  21  44
ATOM     44  O   LIG d   1       5.952   1.062  -3.404  0.00  0.00    -0.388 OA
ATOM     45  H   LIG d   1       5.189   0.693  -2.937  0.00  0.00     0.210 HD
ENDBRANCH  21  44
BRANCH  23  46
ATOM     46  O   LIG d   1       8.414  -2.064  -3.447  0.00  0.00    -0.380 OA
ATOM     47  H   LIG d   1       7.790  -1.617  -2.859  0.00  0.00     0.210 HD
ENDBRANCH  23  46
BRANCH  16  48
ATOM     48  O   LIG d   1       3.696  -1.608  -6.243  0.00  0.00    -0.387 OA
ATOM     49  H   LIG d   1       3.222  -1.823  -5.429  0.00  0.00     0.210 HD
ENDBRANCH  16  48
BRANCH   8  50
ATOM     50  O   LIG d   1       6.490   0.521  -9.044  0.00  0.00    -0.381 OA
ATOM     51  H   LIG d   1       7.175   0.098  -9.580  0.00  0.00     0.210 HD
ENDBRANCH   8  50
BRANCH   1  52
ATOM     52  C   LIG d   1       5.015  -0.840 -10.735  0.00  0.00    -0.049 C 
ATOM     53  H   LIG d   1       5.530   0.119 -10.758  0.00  0.00     0.024 H 
ATOM     54  H   LIG d   1       5.615  -1.587 -11.252  0.00  0.00     0.024 H 
ATOM     55  H   LIG d   1       4.048  -0.745 -11.227  0.00  0.00     0.024 H 
ENDBRANCH   1  52
TORSDOF 9
ENDMDL
MODEL 9
REMARK VINA RESULT:      -5.5      1.547      4.487
REMARK  9 active torsions:
REMARK  status: ('A' for Active; 'I' for Inactive)
REMARK    1  A    between atoms: C_1  and  C_2 
REMARK    2  A    between atoms: C_9  and  O_39 
REMARK    3  A    between atoms: C_17  and  O_19 
REMARK    4  A    between atoms: C_21  and  C_26 
REMARK    5  A    between atoms: C_23  and  O_25 
REMARK    6  A    between atoms: C_26  and  C_27 
REMARK    7  A    between atoms: C_26  and  C_28 
REMARK    8  A    between atoms: C_26  and  C_29 
REMARK    9  A    between atoms: C_30  and  O_38 
ROOT
ATOM      1  C   LIG d   1       8.649  -3.580  -3.952  0.00  0.00     0.089 C 
ATOM      2  H   LIG d   1       7.833  -3.714  -3.241  0.00  0.00     0.044 H 
ATOM      3  C   LIG d   1       8.657  -4.708  -4.970  0.00  0.00     0.313 C 
ATOM      4  O   LIG d   1       8.427  -5.877  -4.745  0.00  0.00    -0.250 OA
ATOM      5  O   LIG d   1       8.971  -4.169  -6.168  0.00  0.00    -0.455 OA
ATOM      6  C   LIG d   1       8.413  -2.861  -6.246  0.00  0.00     0.162 C 
ATOM      7  H   LIG d   1       8.970  -2.221  -6.937  0.00  0.00     0.079 H 
ATOM      8  C   LIG d   1       8.449  -2.301  -4.795  0.00  0.00     0.158 C 
ATOM      9  C   LIG d   1       7.085  -1.692  -4.544  0.00  0.00     0.214 C 
ATOM     10  C   LIG d   1       7.051  -0.226  -4.264  0.00  0.00     0.344 C 
ATOM     11  O   LIG d   1       7.324   0.276  -3.196  0.00  0.00    -0.247 OA
ATOM     12  O   LIG d   1       6.668   0.482  -5.370  0.00  0.00    -0.456 OA
ATOM     13  C   LIG d   1       6.710  -0.332  -6.564  0.00  0.00     0.141 C 
ATOM     14  H   LIG d   1       7.654  -0.301  -7.108  0.00  0.00     0.077 H 
ATOM     15  C   LIG d   1       6.349  -1.687  -5.919  0.00  0.00     0.097 C 
ATOM     16  C   LIG d   1       6.910  -2.907  -6.617  0.00  0.00     0.108 C 
ATOM     17  H   LIG d   1       6.819  -2.828  -7.702  0.00  0.00     0.064 H 
ATOM     18  C   LIG d   1       4.875  -1.556  -5.576  0.00  0.00     0.090 C 
ATOM     19  C   LIG d   1       4.395  -1.218  -6.913  0.00  0.00     0.009 C 
ATOM     20  H   LIG d   1       3.376  -0.841  -6.954  0.00  0.00     0.034 H 
ATOM     21  C   LIG d   1       5.442  -0.198  -7.467  0.00  0.00     0.097 C 
ATOM     22  H   LIG d   1       5.055   0.819  -7.420  0.00  0.00     0.063 H 
ATOM     23  C   LIG d   1       4.137  -0.325  -4.930  0.00  0.00     0.164 C 
ATOM     24  H   LIG d   1       4.830   0.310  -4.345  0.00  0.00     0.072 H 
ATOM     25  C   LIG d   1       3.140  -1.038  -3.990  0.00  0.00     0.339 C 
ATOM     26  O   LIG d   1       2.139  -0.582  -3.496  0.00  0.00    -0.248 OA
ATOM     27  O   LIG d   1       3.655  -2.328  -3.838  0.00  0.00    -0.432 OA
ATOM     28  C   LIG d   1       4.985  -1.826  -4.095  0.00  0.00     0.216 C 
ATOM     29  H   LIG d   1       5.079  -0.909  -3.508  0.00  0.00     0.106 H 
ATOM     30  O   LIG d   1       6.178  -2.573  -3.835  0.00  0.00    -0.319 OA
ENDROOT
BRANCH  19  31
ATOM     31  C   LIG d   1       4.328  -2.459  -7.826  0.00  0.00    -0.032 C 
BRANCH  31  32
ATOM     32  C   LIG d   1       3.190  -2.290  -8.835  0.00  0.00    -0.060 C 
ATOM     33  H   LIG d   1       2.623  -3.218  -8.903  0.00  0.00     0.024 H 
ATOM     34  H   LIG d   1       2.531  -1.485  -8.508  0.00  0.00     0.024 H 
ATOM     35  H   LIG d   1       3.605  -2.046  -9.813  0.00  0.00     0.024 H 
ENDBRANCH  31  32
BRANCH  31  36
ATOM     36  C   LIG d   1       5.653  -2.614  -8.576  0.00  0.00    -0.060 C 
ATOM     37  H   LIG d   1       6.454  -2.153  -7.996  0.00  0.00     0.024 H 
ATOM     38  H   LIG d   1       5.870  -3.673  -8.716  0.00  0.00     0.024 H 
ATOM     39  H   LIG d   1       5.581  -2.126  -9.547  0.00  0.00     0.024 H 
ENDBRANCH  31  36
BRANCH  31  40
ATOM     40  C   LIG d   1       4.075  -3.706  -6.975  0.00  0.00    -0.060 C 
ATOM     41  H   LIG d   1       3.167  -3.567  -6.388  0.00  0.00     0.024 H 
ATOM     42  H   LIG d   1       3.957  -4.572  -7.626  0.00  0.00     0.024 H 
ATOM     43  H   LIG d   1       4.920  -3.866  -6.305  0.00  0.00     0.024 H 
ENDBRANCH  31  40
ENDBRANCH  19  31
BRANCH  21  44
ATOM     44  O   LIG d   1       5.776  -0.526  -8.820  0.00  0.00    -0.388 OA
ATOM     45  H   LIG d   1       5.031  -0.462  -9.435  0.00  0.00     0.210 HD
ENDBRANCH  21  44
BRANCH  23  46
ATOM     46  O   LIG d   1       3.463   0.595  -5.780  0.00  0.00    -0.380 OA
ATOM     47  H   LIG d   1       2.717   1.044  -5.360  0.00  0.00     0.210 HD
ENDBRANCH  23  46
BRANCH  16  48
ATOM     48  O   LIG d   1       6.304  -4.106  -6.139  0.00  0.00    -0.387 OA
ATOM     49  H   LIG d   1       6.888  -4.876  -6.153  0.00  0.00     0.210 HD
ENDBRANCH  16  48
BRANCH   8  50
ATOM     50  O   LIG d   1       9.507  -1.355  -4.603  0.00  0.00    -0.381 OA
ATOM     51  H   LIG d   1       9.419  -0.555  -5.137  0.00  0.00     0.210 HD
ENDBRANCH   8  50
BRANCH   1  52
ATOM     52  C   LIG d   1       9.988  -3.526  -3.208  0.00  0.00    -0.049 C 
ATOM     53  H   LIG d   1       9.845  -3.051  -2.238  0.00  0.00     0.024 H 
ATOM     54  H   LIG d   1      10.365  -4.538  -3.065  0.00  0.00     0.024 H 
ATOM     55  H   LIG d   1      10.705  -2.950  -3.793  0.00  0.00     0.024 H 
ENDBRANCH   1  52
TORSDOF 9
ENDMDL
MODEL 10
REMARK VINA RESULT:      -5.4      1.995      4.502
REMARK  9 active torsions:
REMARK  status: ('A' for Active; 'I' for Inactive)
REMARK    1  A    between atoms: C_1  and  C_2 
REMARK    2  A    between atoms: C_9  and  O_39 
REMARK    3  A    between atoms: C_17  and  O_19 
REMARK    4  A    between atoms: C_21  and  C_26 
REMARK    5  A    between atoms: C_23  and  O_25 
REMARK    6  A    between atoms: C_26  and  C_27 
REMARK    7  A    between atoms: C_26  and  C_28 
REMARK    8  A    between atoms: C_26  and  C_29 
REMARK    9  A    between atoms: C_30  and  O_38 
ROOT
ATOM      1  C   LIG d   1       5.840  -1.328  -4.471  0.00  0.00     0.089 C 
ATOM      2  H   LIG d   1       6.838  -1.441  -4.897  0.00  0.00     0.044 H 
ATOM      3  C   LIG d   1       5.473   0.142  -4.363  0.00  0.00     0.313 C 
ATOM      4  O   LIG d   1       6.216   1.045  -4.044  0.00  0.00    -0.250 OA
ATOM      5  O   LIG d   1       4.166   0.256  -4.684  0.00  0.00    -0.455 OA
ATOM      6  C   LIG d   1       3.853  -0.701  -5.692  0.00  0.00     0.162 C 
ATOM      7  H   LIG d   1       2.794  -0.976  -5.677  0.00  0.00     0.079 H 
ATOM      8  C   LIG d   1       4.766  -1.927  -5.405  0.00  0.00     0.158 C 
ATOM      9  C   LIG d   1       5.365  -2.328  -6.737  0.00  0.00     0.214 C 
ATOM     10  C   LIG d   1       5.028  -3.694  -7.235  0.00  0.00     0.344 C 
ATOM     11  O   LIG d   1       5.549  -4.716  -6.845  0.00  0.00    -0.247 OA
ATOM     12  O   LIG d   1       4.055  -3.648  -8.195  0.00  0.00    -0.456 OA
ATOM     13  C   LIG d   1       3.408  -2.355  -8.234  0.00  0.00     0.141 C 
ATOM     14  H   LIG d   1       2.523  -2.265  -7.604  0.00  0.00     0.077 H 
ATOM     15  C   LIG d   1       4.618  -1.491  -7.821  0.00  0.00     0.097 C 
ATOM     16  C   LIG d   1       4.280  -0.206  -7.096  0.00  0.00     0.108 C 
ATOM     17  H   LIG d   1       3.433   0.305  -7.556  0.00  0.00     0.064 H 
ATOM     18  C   LIG d   1       5.529  -1.520  -9.036  0.00  0.00     0.090 C 
ATOM     19  C   LIG d   1       4.562  -1.027 -10.014  0.00  0.00     0.009 C 
ATOM     20  H   LIG d   1       4.860  -1.143 -11.053  0.00  0.00     0.034 H 
ATOM     21  C   LIG d   1       3.234  -1.778  -9.676  0.00  0.00     0.097 C 
ATOM     22  H   LIG d   1       3.054  -2.585 -10.383  0.00  0.00     0.063 H 
ATOM     23  C   LIG d   1       5.904  -2.757  -9.936  0.00  0.00     0.164 C 
ATOM     24  H   LIG d   1       5.794  -3.712  -9.389  0.00  0.00     0.072 H 
ATOM     25  C   LIG d   1       7.394  -2.471 -10.224  0.00  0.00     0.339 C 
ATOM     26  O   LIG d   1       8.076  -2.933 -11.104  0.00  0.00    -0.248 OA
ATOM     27  O   LIG d   1       7.779  -1.560  -9.237  0.00  0.00    -0.432 OA
ATOM     28  C   LIG d   1       6.757  -2.080  -8.360  0.00  0.00     0.216 C 
ATOM     29  H   LIG d   1       6.818  -3.169  -8.438  0.00  0.00     0.106 H 
ATOM     30  O   LIG d   1       6.696  -1.799  -6.958  0.00  0.00    -0.319 OA
ENDROOT
BRANCH  19  31
ATOM     31  C   LIG d   1       4.357   0.497  -9.894  0.00  0.00    -0.032 C 
BRANCH  31  32
ATOM     32  C   LIG d   1       3.941   1.065 -11.253  0.00  0.00    -0.060 C 
ATOM     33  H   LIG d   1       3.942   0.268 -11.996  0.00  0.00     0.024 H 
ATOM     34  H   LIG d   1       2.940   1.490 -11.178  0.00  0.00     0.024 H 
ATOM     35  H   LIG d   1       4.645   1.842 -11.553  0.00  0.00     0.024 H 
ENDBRANCH  31  32
BRANCH  31  36
ATOM     36  C   LIG d   1       3.262   0.785  -8.865  0.00  0.00    -0.060 C 
ATOM     37  H   LIG d   1       2.360   0.232  -9.129  0.00  0.00     0.024 H 
ATOM     38  H   LIG d   1       3.601   0.475  -7.876  0.00  0.00     0.024 H 
ATOM     39  H   LIG d   1       3.043   1.853  -8.855  0.00  0.00     0.024 H 
ENDBRANCH  31  36
BRANCH  31  40
ATOM     40  C   LIG d   1       5.664   1.155  -9.445  0.00  0.00    -0.060 C 
ATOM     41  H   LIG d   1       6.183   0.494  -8.751  0.00  0.00     0.024 H 
ATOM     42  H   LIG d   1       6.296   1.337 -10.314  0.00  0.00     0.024 H 
ATOM     43  H   LIG d   1       5.443   2.101  -8.951  0.00  0.00     0.024 H 
ENDBRANCH  31  40
ENDBRANCH  19  31
BRANCH  21  44
ATOM     44  O   LIG d   1       2.134  -0.861  -9.699  0.00  0.00    -0.388 OA
ATOM     45  H   LIG d   1       2.059  -0.360 -10.523  0.00  0.00     0.210 HD
ENDBRANCH  21  44
BRANCH  23  46
ATOM     46  O   LIG d   1       5.186  -2.968 -11.145  0.00  0.00    -0.380 OA
ATOM     47  H   LIG d   1       5.164  -3.891 -11.433  0.00  0.00     0.210 HD
ENDBRANCH  23  46
BRANCH  16  48
ATOM     48  O   LIG d   1       5.413   0.655  -7.009  0.00  0.00    -0.387 OA
ATOM     49  H   LIG d   1       5.711   1.001  -7.862  0.00  0.00     0.210 HD
ENDBRANCH  16  48
BRANCH   8  50
ATOM     50  O   LIG d   1       4.052  -3.004  -4.787  0.00  0.00    -0.381 OA
ATOM     51  H   LIG d   1       4.534  -3.433  -4.068  0.00  0.00     0.210 HD
ENDBRANCH   8  50
BRANCH   1  52
ATOM     52  C   LIG d   1       5.782  -1.993  -3.092  0.00  0.00    -0.049 C 
ATOM     53  H   LIG d   1       6.765  -1.947  -2.625  0.00  0.00     0.024 H 
ATOM     54  H   LIG d   1       5.058  -1.471  -2.468  0.00  0.00     0.024 H 
ATOM     55  H   LIG d   1       5.481  -3.035  -3.204  0.00  0.00     0.024 H 
ENDBRANCH   1  52
TORSDOF 9
ENDMDL
