MODEL 1
REMARK VINA RESULT:      -5.3      0.000      0.000
REMARK  10 active torsions:
REMARK  status: ('A' for Active; 'I' for Inactive)
REMARK    1  A    between atoms: C_1  and  O_2 
REMARK    2  A    between atoms: O_2  and  C_3 
REMARK    3  A    between atoms: C_5  and  C_10 
REMARK    4  A    between atoms: C_8  and  O_9 
REMARK    5  A    between atoms: C_11  and  O_25 
REMARK    6  A    between atoms: C_15  and  O_24 
REMARK    7  A    between atoms: C_17  and  O_23 
REMARK    8  A    between atoms: C_18  and  O_21 
REMARK    9  A    between atoms: O_21  and  C_22 
REMARK   10  A    between atoms: O_25  and  C_26 
ROOT
ATOM      1  C   LIG d   1       4.225  -1.481  -5.978  0.00  0.00     0.181 A 
ATOM      2  C   LIG d   1       4.662  -2.768  -6.074  0.00  0.00     0.211 A 
ATOM      3  C   LIG d   1       4.507  -3.468  -7.299  0.00  0.00     0.238 A 
ATOM      4  O   LIG d   1       4.883  -4.623  -7.421  0.00  0.00    -0.283 OA
ATOM      5  C   LIG d   1       3.875  -2.747  -8.416  0.00  0.00     0.113 A 
ATOM      6  C   LIG d   1       3.681  -3.362  -9.660  0.00  0.00     0.135 A 
ATOM      7  C   LIG d   1       3.084  -2.654 -10.685  0.00  0.00     0.026 A 
ATOM      8  C   LIG d   1       2.678  -1.339 -10.483  0.00  0.00     0.166 A 
ATOM      9  C   LIG d   1       2.865  -0.722  -9.254  0.00  0.00     0.205 A 
ATOM     10  C   LIG d   1       3.463  -1.419  -8.211  0.00  0.00     0.188 A 
ATOM     11  O   LIG d   1       3.653  -0.835  -7.009  0.00  0.00    -0.447 OA
ATOM     12  H   LIG d   1       2.932  -3.122 -11.647  0.00  0.00     0.069 H 
ENDROOT
BRANCH   1  13
ATOM     13  C   LIG d   1       4.388  -0.770  -4.697  0.00  0.00     0.025 A 
ATOM     14  C   LIG d   1       5.522   0.018  -4.472  0.00  0.00    -0.005 A 
ATOM     15  C   LIG d   1       5.668   0.685  -3.271  0.00  0.00     0.162 A 
ATOM     16  H   LIG d   1       6.278   0.107  -5.237  0.00  0.00     0.066 H 
ATOM     17  C   LIG d   1       4.693   0.565  -2.283  0.00  0.00     0.159 A 
ATOM     18  C   LIG d   1       3.570  -0.222  -2.504  0.00  0.00    -0.016 A 
ATOM     19  C   LIG d   1       3.414  -0.886  -3.701  0.00  0.00    -0.047 A 
ATOM     20  H   LIG d   1       2.817  -0.313  -1.735  0.00  0.00     0.066 H 
ATOM     21  H   LIG d   1       2.540  -1.498  -3.870  0.00  0.00     0.063 H 
BRANCH  15  22
ATOM     22  O   LIG d   1       6.767   1.456  -3.052  0.00  0.00    -0.491 OA
BRANCH  22  23
ATOM     23  C   LIG d   1       7.759   1.478  -4.080  0.00  0.00     0.079 C 
ATOM     24  H   LIG d   1       7.590   2.346  -4.734  0.00  0.00     0.066 H 
ATOM     25  H   LIG d   1       7.695   0.554  -4.672  0.00  0.00     0.066 H 
ATOM     26  H   LIG d   1       8.758   1.553  -3.623  0.00  0.00     0.066 H 
ENDBRANCH  22  23
ENDBRANCH  15  22
BRANCH  17  27
ATOM     27  O   LIG d   1       4.841   1.218  -1.102  0.00  0.00    -0.503 OA
ATOM     28  H   LIG d   1       5.098   0.657  -0.192  0.00  0.00     0.292 HD
ENDBRANCH  17  27
ENDBRANCH   1  13
BRANCH   2  29
ATOM     29  O   LIG d   1       5.239  -3.379  -5.003  0.00  0.00    -0.488 OA
BRANCH  29  30
ATOM     30  C   LIG d   1       6.665  -3.464  -4.996  0.00  0.00     0.079 C 
ATOM     31  H   LIG d   1       7.088  -2.555  -5.450  0.00  0.00     0.066 H 
ATOM     32  H   LIG d   1       6.983  -4.343  -5.574  0.00  0.00     0.066 H 
ATOM     33  H   LIG d   1       7.021  -3.556  -3.960  0.00  0.00     0.066 H 
ENDBRANCH  29  30
ENDBRANCH   2  29
BRANCH   9  34
ATOM     34  O   LIG d   1       2.463   0.566  -9.070  0.00  0.00    -0.488 OA
BRANCH  34  35
ATOM     35  C   LIG d   1       3.417   1.591  -9.355  0.00  0.00     0.079 C 
ATOM     36  H   LIG d   1       4.386   1.131  -9.600  0.00  0.00     0.066 H 
ATOM     37  H   LIG d   1       3.532   2.240  -8.474  0.00  0.00     0.066 H 
ATOM     38  H   LIG d   1       3.068   2.189 -10.209  0.00  0.00     0.066 H 
ENDBRANCH  34  35
ENDBRANCH   9  34
BRANCH   6  39
ATOM     39  O   LIG d   1       4.078  -4.646  -9.856  0.00  0.00    -0.506 OA
ATOM     40  H   LIG d   1       3.827  -5.161 -10.795  0.00  0.00     0.292 HD
ENDBRANCH   6  39
BRANCH   8  41
ATOM     41  O   LIG d   1       2.091  -0.653 -11.498  0.00  0.00    -0.503 OA
ATOM     42  H   LIG d   1       2.126   0.447 -11.511  0.00  0.00     0.292 HD
ENDBRANCH   8  41
TORSDOF 10
ENDMDL
MODEL 2
REMARK VINA RESULT:      -5.2      3.938      5.957
REMARK  10 active torsions:
REMARK  status: ('A' for Active; 'I' for Inactive)
REMARK    1  A    between atoms: C_1  and  O_2 
REMARK    2  A    between atoms: O_2  and  C_3 
REMARK    3  A    between atoms: C_5  and  C_10 
REMARK    4  A    between atoms: C_8  and  O_9 
REMARK    5  A    between atoms: C_11  and  O_25 
REMARK    6  A    between atoms: C_15  and  O_24 
REMARK    7  A    between atoms: C_17  and  O_23 
REMARK    8  A    between atoms: C_18  and  O_21 
REMARK    9  A    between atoms: O_21  and  C_22 
REMARK   10  A    between atoms: O_25  and  C_26 
ROOT
ATOM      1  C   LIG d   1       8.115   0.993  -4.786  0.00  0.00     0.181 A 
ATOM      2  C   LIG d   1       8.885  -0.120  -4.942  0.00  0.00     0.211 A 
ATOM      3  C   LIG d   1       8.285  -1.402  -4.852  0.00  0.00     0.238 A 
ATOM      4  O   LIG d   1       8.944  -2.422  -4.983  0.00  0.00    -0.283 OA
ATOM      5  C   LIG d   1       6.837  -1.456  -4.593  0.00  0.00     0.113 A 
ATOM      6  C   LIG d   1       6.162  -2.680  -4.488  0.00  0.00     0.135 A 
ATOM      7  C   LIG d   1       4.802  -2.690  -4.245  0.00  0.00     0.026 A 
ATOM      8  C   LIG d   1       4.107  -1.493  -4.106  0.00  0.00     0.166 A 
ATOM      9  C   LIG d   1       4.767  -0.276  -4.208  0.00  0.00     0.205 A 
ATOM     10  C   LIG d   1       6.135  -0.247  -4.452  0.00  0.00     0.188 A 
ATOM     11  O   LIG d   1       6.792   0.928  -4.554  0.00  0.00    -0.447 OA
ATOM     12  H   LIG d   1       4.277  -3.630  -4.163  0.00  0.00     0.069 H 
ENDROOT
BRANCH   1  13
ATOM     13  C   LIG d   1       8.755   2.318  -4.877  0.00  0.00     0.025 A 
ATOM     14  C   LIG d   1       9.087   3.018  -3.712  0.00  0.00    -0.005 A 
ATOM     15  C   LIG d   1       9.690   4.258  -3.804  0.00  0.00     0.162 A 
ATOM     16  H   LIG d   1       8.875   2.589  -2.745  0.00  0.00     0.066 H 
ATOM     17  C   LIG d   1       9.959   4.812  -5.054  0.00  0.00     0.159 A 
ATOM     18  C   LIG d   1       9.625   4.120  -6.210  0.00  0.00    -0.016 A 
ATOM     19  C   LIG d   1       9.027   2.881  -6.128  0.00  0.00    -0.047 A 
ATOM     20  H   LIG d   1       9.834   4.554  -7.176  0.00  0.00     0.066 H 
ATOM     21  H   LIG d   1       8.768   2.345  -7.029  0.00  0.00     0.063 H 
BRANCH  15  22
ATOM     22  O   LIG d   1      10.018   4.938  -2.673  0.00  0.00    -0.491 OA
BRANCH  22  23
ATOM     23  C   LIG d   1      11.116   4.436  -1.909  0.00  0.00     0.079 C 
ATOM     24  H   LIG d   1      10.875   4.498  -0.837  0.00  0.00     0.066 H 
ATOM     25  H   LIG d   1      12.014   5.036  -2.118  0.00  0.00     0.066 H 
ATOM     26  H   LIG d   1      11.303   3.387  -2.182  0.00  0.00     0.066 H 
ENDBRANCH  22  23
ENDBRANCH  15  22
BRANCH  17  27
ATOM     27  O   LIG d   1      10.548   6.033  -5.141  0.00  0.00    -0.503 OA
ATOM     28  H   LIG d   1      10.057   6.842  -5.702  0.00  0.00     0.292 HD
ENDBRANCH  17  27
ENDBRANCH   1  13
BRANCH   2  29
ATOM     29  O   LIG d   1      10.220  -0.003  -5.180  0.00  0.00    -0.488 OA
BRANCH  29  30
ATOM     30  C   LIG d   1      10.669  -0.271  -6.509  0.00  0.00     0.079 C 
ATOM     31  H   LIG d   1      11.662  -0.744  -6.472  0.00  0.00     0.066 H 
ATOM     32  H   LIG d   1      10.733   0.671  -7.072  0.00  0.00     0.066 H 
ATOM     33  H   LIG d   1       9.959  -0.948  -7.006  0.00  0.00     0.066 H 
ENDBRANCH  29  30
ENDBRANCH   2  29
BRANCH   9  34
ATOM     34  O   LIG d   1       4.074   0.888  -4.070  0.00  0.00    -0.488 OA
BRANCH  34  35
ATOM     35  C   LIG d   1       3.930   1.403  -2.744  0.00  0.00     0.079 C 
ATOM     36  H   LIG d   1       4.872   1.264  -2.193  0.00  0.00     0.066 H 
ATOM     37  H   LIG d   1       3.121   0.866  -2.228  0.00  0.00     0.066 H 
ATOM     38  H   LIG d   1       3.687   2.475  -2.792  0.00  0.00     0.066 H 
ENDBRANCH  34  35
ENDBRANCH   9  34
BRANCH   6  39
ATOM     39  O   LIG d   1       6.842  -3.847  -4.624  0.00  0.00    -0.506 OA
ATOM     40  H   LIG d   1       7.477  -4.014  -5.506  0.00  0.00     0.292 HD
ENDBRANCH   6  39
BRANCH   8  41
ATOM     41  O   LIG d   1       2.770  -1.516  -3.866  0.00  0.00    -0.503 OA
ATOM     42  H   LIG d   1       2.173  -2.391  -4.164  0.00  0.00     0.292 HD
ENDBRANCH   8  41
TORSDOF 10
ENDMDL
MODEL 3
REMARK VINA RESULT:      -5.2      7.568     12.216
REMARK  10 active torsions:
REMARK  status: ('A' for Active; 'I' for Inactive)
REMARK    1  A    between atoms: C_1  and  O_2 
REMARK    2  A    between atoms: O_2  and  C_3 
REMARK    3  A    between atoms: C_5  and  C_10 
REMARK    4  A    between atoms: C_8  and  O_9 
REMARK    5  A    between atoms: C_11  and  O_25 
REMARK    6  A    between atoms: C_15  and  O_24 
REMARK    7  A    between atoms: C_17  and  O_23 
REMARK    8  A    between atoms: C_18  and  O_21 
REMARK    9  A    between atoms: O_21  and  C_22 
REMARK   10  A    between atoms: O_25  and  C_26 
ROOT
ATOM      1  C   LIG d   1      10.247   7.230  -2.994  0.00  0.00     0.181 A 
ATOM      2  C   LIG d   1       9.963   7.818  -1.798  0.00  0.00     0.211 A 
ATOM      3  C   LIG d   1       9.625   9.196  -1.760  0.00  0.00     0.238 A 
ATOM      4  O   LIG d   1       9.369   9.757  -0.707  0.00  0.00    -0.283 OA
ATOM      5  C   LIG d   1       9.598   9.921  -3.041  0.00  0.00     0.113 A 
ATOM      6  C   LIG d   1       9.276  11.284  -3.097  0.00  0.00     0.135 A 
ATOM      7  C   LIG d   1       9.259  11.931  -4.317  0.00  0.00     0.026 A 
ATOM      8  C   LIG d   1       9.561  11.236  -5.483  0.00  0.00     0.166 A 
ATOM      9  C   LIG d   1       9.882   9.885  -5.437  0.00  0.00     0.205 A 
ATOM     10  C   LIG d   1       9.904   9.218  -4.218  0.00  0.00     0.188 A 
ATOM     11  O   LIG d   1      10.213   7.906  -4.155  0.00  0.00    -0.447 OA
ATOM     12  H   LIG d   1       9.012  12.982  -4.367  0.00  0.00     0.069 H 
ENDROOT
BRANCH   1  13
ATOM     13  C   LIG d   1      10.602   5.799  -3.015  0.00  0.00     0.025 A 
ATOM     14  C   LIG d   1       9.598   4.830  -3.108  0.00  0.00    -0.005 A 
ATOM     15  C   LIG d   1       9.936   3.490  -3.131  0.00  0.00     0.162 A 
ATOM     16  H   LIG d   1       8.562   5.128  -3.166  0.00  0.00     0.066 H 
ATOM     17  C   LIG d   1      11.273   3.107  -3.051  0.00  0.00     0.159 A 
ATOM     18  C   LIG d   1      12.270   4.069  -2.952  0.00  0.00    -0.016 A 
ATOM     19  C   LIG d   1      11.941   5.407  -2.934  0.00  0.00    -0.047 A 
ATOM     20  H   LIG d   1      13.305   3.767  -2.890  0.00  0.00     0.066 H 
ATOM     21  H   LIG d   1      12.718   6.153  -2.857  0.00  0.00     0.063 H 
BRANCH  15  22
ATOM     22  O   LIG d   1       8.962   2.545  -3.226  0.00  0.00    -0.491 OA
BRANCH  22  23
ATOM     23  C   LIG d   1       8.356   2.366  -4.508  0.00  0.00     0.079 C 
ATOM     24  H   LIG d   1       9.128   2.428  -5.289  0.00  0.00     0.066 H 
ATOM     25  H   LIG d   1       7.603   3.151  -4.672  0.00  0.00     0.066 H 
ATOM     26  H   LIG d   1       7.872   1.378  -4.549  0.00  0.00     0.066 H 
ENDBRANCH  22  23
ENDBRANCH  15  22
BRANCH  17  27
ATOM     27  O   LIG d   1      11.603   1.789  -3.069  0.00  0.00    -0.503 OA
ATOM     28  H   LIG d   1      12.644   1.485  -3.251  0.00  0.00     0.292 HD
ENDBRANCH  17  27
ENDBRANCH   1  13
BRANCH   2  29
ATOM     29  O   LIG d   1      10.006   7.091  -0.648  0.00  0.00    -0.488 OA
BRANCH  29  30
ATOM     30  C   LIG d   1      11.166   7.242   0.172  0.00  0.00     0.079 C 
ATOM     31  H   LIG d   1      11.504   6.253   0.515  0.00  0.00     0.066 H 
ATOM     32  H   LIG d   1      10.920   7.866   1.044  0.00  0.00     0.066 H 
ATOM     33  H   LIG d   1      11.966   7.722  -0.409  0.00  0.00     0.066 H 
ENDBRANCH  29  30
ENDBRANCH   2  29
BRANCH   9  34
ATOM     34  O   LIG d   1      10.175   9.216  -6.586  0.00  0.00    -0.488 OA
BRANCH  34  35
ATOM     35  C   LIG d   1       9.097   8.539  -7.236  0.00  0.00     0.079 C 
ATOM     36  H   LIG d   1       9.345   8.389  -8.297  0.00  0.00     0.066 H 
ATOM     37  H   LIG d   1       8.183   9.145  -7.156  0.00  0.00     0.066 H 
ATOM     38  H   LIG d   1       8.934   7.563  -6.755  0.00  0.00     0.066 H 
ENDBRANCH  34  35
ENDBRANCH   9  34
BRANCH   6  39
ATOM     39  O   LIG d   1       8.982  11.963  -1.958  0.00  0.00    -0.506 OA
ATOM     40  H   LIG d   1       9.792  12.376  -1.339  0.00  0.00     0.292 HD
ENDBRANCH   6  39
BRANCH   8  41
ATOM     41  O   LIG d   1       9.543  11.883  -6.677  0.00  0.00    -0.503 OA
ATOM     42  H   LIG d   1       8.776  12.646  -6.877  0.00  0.00     0.292 HD
ENDBRANCH   8  41
TORSDOF 10
ENDMDL
MODEL 4
REMARK VINA RESULT:      -5.1      1.750      3.499
REMARK  10 active torsions:
REMARK  status: ('A' for Active; 'I' for Inactive)
REMARK    1  A    between atoms: C_1  and  O_2 
REMARK    2  A    between atoms: O_2  and  C_3 
REMARK    3  A    between atoms: C_5  and  C_10 
REMARK    4  A    between atoms: C_8  and  O_9 
REMARK    5  A    between atoms: C_11  and  O_25 
REMARK    6  A    between atoms: C_15  and  O_24 
REMARK    7  A    between atoms: C_17  and  O_23 
REMARK    8  A    between atoms: C_18  and  O_21 
REMARK    9  A    between atoms: O_21  and  C_22 
REMARK   10  A    between atoms: O_25  and  C_26 
ROOT
ATOM      1  C   LIG d   1       4.538  -1.414  -6.371  0.00  0.00     0.181 A 
ATOM      2  C   LIG d   1       4.796  -0.758  -7.538  0.00  0.00     0.211 A 
ATOM      3  C   LIG d   1       4.725  -1.465  -8.766  0.00  0.00     0.238 A 
ATOM      4  O   LIG d   1       4.953  -0.912  -9.830  0.00  0.00    -0.283 OA
ATOM      5  C   LIG d   1       4.367  -2.892  -8.707  0.00  0.00     0.113 A 
ATOM      6  C   LIG d   1       4.275  -3.667  -9.871  0.00  0.00     0.135 A 
ATOM      7  C   LIG d   1       3.936  -5.003  -9.776  0.00  0.00     0.026 A 
ATOM      8  C   LIG d   1       3.687  -5.575  -8.533  0.00  0.00     0.166 A 
ATOM      9  C   LIG d   1       3.776  -4.815  -7.374  0.00  0.00     0.205 A 
ATOM     10  C   LIG d   1       4.116  -3.470  -7.451  0.00  0.00     0.188 A 
ATOM     11  O   LIG d   1       4.207  -2.716  -6.335  0.00  0.00    -0.447 OA
ATOM     12  H   LIG d   1       3.863  -5.605 -10.670  0.00  0.00     0.069 H 
ENDROOT
BRANCH   1  13
ATOM     13  C   LIG d   1       4.621  -0.666  -5.103  0.00  0.00     0.025 A 
ATOM     14  C   LIG d   1       5.863  -0.249  -4.616  0.00  0.00    -0.005 A 
ATOM     15  C   LIG d   1       5.935   0.455  -3.429  0.00  0.00     0.162 A 
ATOM     16  H   LIG d   1       6.764  -0.474  -5.167  0.00  0.00     0.066 H 
ATOM     17  C   LIG d   1       4.772   0.740  -2.716  0.00  0.00     0.159 A 
ATOM     18  C   LIG d   1       3.539   0.322  -3.197  0.00  0.00    -0.016 A 
ATOM     19  C   LIG d   1       3.458  -0.376  -4.382  0.00  0.00    -0.047 A 
ATOM     20  H   LIG d   1       2.641   0.545  -2.641  0.00  0.00     0.066 H 
ATOM     21  H   LIG d   1       2.498  -0.701  -4.754  0.00  0.00     0.063 H 
BRANCH  15  22
ATOM     22  O   LIG d   1       7.142   0.865  -2.955  0.00  0.00    -0.491 OA
BRANCH  22  23
ATOM     23  C   LIG d   1       8.042   1.454  -3.895  0.00  0.00     0.079 C 
ATOM     24  H   LIG d   1       7.474   1.833  -4.757  0.00  0.00     0.066 H 
ATOM     25  H   LIG d   1       8.765   0.698  -4.235  0.00  0.00     0.066 H 
ATOM     26  H   LIG d   1       8.580   2.286  -3.416  0.00  0.00     0.066 H 
ENDBRANCH  22  23
ENDBRANCH  15  22
BRANCH  17  27
ATOM     27  O   LIG d   1       4.846   1.428  -1.547  0.00  0.00    -0.503 OA
ATOM     28  H   LIG d   1       4.300   2.377  -1.432  0.00  0.00     0.292 HD
ENDBRANCH  17  27
ENDBRANCH   1  13
BRANCH   2  29
ATOM     29  O   LIG d   1       5.122   0.563  -7.525  0.00  0.00    -0.488 OA
BRANCH  29  30
ATOM     30  C   LIG d   1       6.470   0.902  -7.854  0.00  0.00     0.079 C 
ATOM     31  H   LIG d   1       7.067  -0.018  -7.946  0.00  0.00     0.066 H 
ATOM     32  H   LIG d   1       6.893   1.535  -7.061  0.00  0.00     0.066 H 
ATOM     33  H   LIG d   1       6.488   1.447  -8.809  0.00  0.00     0.066 H 
ENDBRANCH  29  30
ENDBRANCH   2  29
BRANCH   9  34
ATOM     34  O   LIG d   1       3.530  -5.388  -6.163  0.00  0.00    -0.488 OA
BRANCH  34  35
ATOM     35  C   LIG d   1       4.647  -5.954  -5.475  0.00  0.00     0.079 C 
ATOM     36  H   LIG d   1       5.148  -6.684  -6.128  0.00  0.00     0.066 H 
ATOM     37  H   LIG d   1       4.298  -6.458  -4.562  0.00  0.00     0.066 H 
ATOM     38  H   LIG d   1       5.354  -5.156  -5.206  0.00  0.00     0.066 H 
ENDBRANCH  34  35
ENDBRANCH   9  34
BRANCH   6  39
ATOM     39  O   LIG d   1       4.518  -3.108 -11.084  0.00  0.00    -0.506 OA
ATOM     40  H   LIG d   1       5.071  -3.673 -11.849  0.00  0.00     0.292 HD
ENDBRANCH   6  39
BRANCH   8  41
ATOM     41  O   LIG d   1       3.356  -6.890  -8.452  0.00  0.00    -0.503 OA
ATOM     42  H   LIG d   1       2.446  -7.195  -7.912  0.00  0.00     0.292 HD
ENDBRANCH   8  41
TORSDOF 10
ENDMDL
MODEL 5
REMARK VINA RESULT:      -5.0      2.230      3.848
REMARK  10 active torsions:
REMARK  status: ('A' for Active; 'I' for Inactive)
REMARK    1  A    between atoms: C_1  and  O_2 
REMARK    2  A    between atoms: O_2  and  C_3 
REMARK    3  A    between atoms: C_5  and  C_10 
REMARK    4  A    between atoms: C_8  and  O_9 
REMARK    5  A    between atoms: C_11  and  O_25 
REMARK    6  A    between atoms: C_15  and  O_24 
REMARK    7  A    between atoms: C_17  and  O_23 
REMARK    8  A    between atoms: C_18  and  O_21 
REMARK    9  A    between atoms: O_21  and  C_22 
REMARK   10  A    between atoms: O_25  and  C_26 
ROOT
ATOM      1  C   LIG d   1       3.623  -0.527  -8.147  0.00  0.00     0.181 A 
ATOM      2  C   LIG d   1       4.467   0.351  -8.758  0.00  0.00     0.211 A 
ATOM      3  C   LIG d   1       4.552   0.368 -10.174  0.00  0.00     0.238 A 
ATOM      4  O   LIG d   1       5.300   1.138 -10.756  0.00  0.00    -0.283 OA
ATOM      5  C   LIG d   1       3.704  -0.581 -10.915  0.00  0.00     0.113 A 
ATOM      6  C   LIG d   1       3.726  -0.634 -12.315  0.00  0.00     0.135 A 
ATOM      7  C   LIG d   1       2.915  -1.538 -12.975  0.00  0.00     0.026 A 
ATOM      8  C   LIG d   1       2.084  -2.390 -12.255  0.00  0.00     0.166 A 
ATOM      9  C   LIG d   1       2.057  -2.344 -10.868  0.00  0.00     0.205 A 
ATOM     10  C   LIG d   1       2.866  -1.442 -10.187  0.00  0.00     0.188 A 
ATOM     11  O   LIG d   1       2.852  -1.384  -8.838  0.00  0.00    -0.447 OA
ATOM     12  H   LIG d   1       2.927  -1.583 -14.055  0.00  0.00     0.069 H 
ENDROOT
BRANCH   1  13
ATOM     13  C   LIG d   1       3.551  -0.535  -6.674  0.00  0.00     0.025 A 
ATOM     14  C   LIG d   1       4.341  -1.424  -5.939  0.00  0.00    -0.005 A 
ATOM     15  C   LIG d   1       4.272  -1.424  -4.559  0.00  0.00     0.162 A 
ATOM     16  H   LIG d   1       5.006  -2.105  -6.448  0.00  0.00     0.066 H 
ATOM     17  C   LIG d   1       3.410  -0.547  -3.903  0.00  0.00     0.159 A 
ATOM     18  C   LIG d   1       2.621   0.331  -4.634  0.00  0.00    -0.016 A 
ATOM     19  C   LIG d   1       2.688   0.341  -6.010  0.00  0.00    -0.047 A 
ATOM     20  H   LIG d   1       1.954   1.009  -4.122  0.00  0.00     0.066 H 
ATOM     21  H   LIG d   1       2.072   1.025  -6.576  0.00  0.00     0.063 H 
BRANCH  15  22
ATOM     22  O   LIG d   1       5.043  -2.284  -3.841  0.00  0.00    -0.491 OA
BRANCH  22  23
ATOM     23  C   LIG d   1       6.021  -3.036  -4.562  0.00  0.00     0.079 C 
ATOM     24  H   LIG d   1       6.991  -2.964  -4.047  0.00  0.00     0.066 H 
ATOM     25  H   LIG d   1       6.115  -2.634  -5.582  0.00  0.00     0.066 H 
ATOM     26  H   LIG d   1       5.710  -4.090  -4.611  0.00  0.00     0.066 H 
ENDBRANCH  22  23
ENDBRANCH  15  22
BRANCH  17  27
ATOM     27  O   LIG d   1       3.341  -0.553  -2.547  0.00  0.00    -0.503 OA
ATOM     28  H   LIG d   1       3.290  -1.507  -2.003  0.00  0.00     0.292 HD
ENDBRANCH  17  27
ENDBRANCH   1  13
BRANCH   2  29
ATOM     29  O   LIG d   1       5.225   1.204  -8.015  0.00  0.00    -0.488 OA
BRANCH  29  30
ATOM     30  C   LIG d   1       6.605   0.870  -7.851  0.00  0.00     0.079 C 
ATOM     31  H   LIG d   1       6.792  -0.129  -8.272  0.00  0.00     0.066 H 
ATOM     32  H   LIG d   1       6.857   0.869  -6.781  0.00  0.00     0.066 H 
ATOM     33  H   LIG d   1       7.226   1.611  -8.374  0.00  0.00     0.066 H 
ENDBRANCH  29  30
ENDBRANCH   2  29
BRANCH   9  34
ATOM     34  O   LIG d   1       1.239  -3.184 -10.175  0.00  0.00    -0.488 OA
BRANCH  34  35
ATOM     35  C   LIG d   1       1.679  -4.534 -10.016  0.00  0.00     0.079 C 
ATOM     36  H   LIG d   1       2.538  -4.561  -9.328  0.00  0.00     0.066 H 
ATOM     37  H   LIG d   1       1.981  -4.938 -10.994  0.00  0.00     0.066 H 
ATOM     38  H   LIG d   1       0.860  -5.141  -9.605  0.00  0.00     0.066 H 
ENDBRANCH  34  35
ENDBRANCH   9  34
BRANCH   6  39
ATOM     39  O   LIG d   1       4.537   0.197 -13.018  0.00  0.00    -0.506 OA
ATOM     40  H   LIG d   1       5.189   0.907 -12.487  0.00  0.00     0.292 HD
ENDBRANCH   6  39
BRANCH   8  41
ATOM     41  O   LIG d   1       1.293  -3.274 -12.916  0.00  0.00    -0.503 OA
ATOM     42  H   LIG d   1       0.212  -3.305 -12.711  0.00  0.00     0.292 HD
ENDBRANCH   8  41
TORSDOF 10
ENDMDL
MODEL 6
REMARK VINA RESULT:      -4.9      9.102     12.328
REMARK  10 active torsions:
REMARK  status: ('A' for Active; 'I' for Inactive)
REMARK    1  A    between atoms: C_1  and  O_2 
REMARK    2  A    between atoms: O_2  and  C_3 
REMARK    3  A    between atoms: C_5  and  C_10 
REMARK    4  A    between atoms: C_8  and  O_9 
REMARK    5  A    between atoms: C_11  and  O_25 
REMARK    6  A    between atoms: C_15  and  O_24 
REMARK    7  A    between atoms: C_17  and  O_23 
REMARK    8  A    between atoms: C_18  and  O_21 
REMARK    9  A    between atoms: O_21  and  C_22 
REMARK   10  A    between atoms: O_25  and  C_26 
ROOT
ATOM      1  C   LIG d   1      10.284   7.186  -2.991  0.00  0.00     0.181 A 
ATOM      2  C   LIG d   1       9.989   7.762  -1.792  0.00  0.00     0.211 A 
ATOM      3  C   LIG d   1       9.630   9.134  -1.747  0.00  0.00     0.238 A 
ATOM      4  O   LIG d   1       9.363   9.686  -0.691  0.00  0.00    -0.283 OA
ATOM      5  C   LIG d   1       9.594   9.867  -3.023  0.00  0.00     0.113 A 
ATOM      6  C   LIG d   1       9.252  11.225  -3.071  0.00  0.00     0.135 A 
ATOM      7  C   LIG d   1       9.228  11.880  -4.287  0.00  0.00     0.026 A 
ATOM      8  C   LIG d   1       9.542  11.196  -5.457  0.00  0.00     0.166 A 
ATOM      9  C   LIG d   1       9.883   9.850  -5.418  0.00  0.00     0.205 A 
ATOM     10  C   LIG d   1       9.912   9.176  -4.204  0.00  0.00     0.188 A 
ATOM     11  O   LIG d   1      10.241   7.868  -4.148  0.00  0.00    -0.447 OA
ATOM     12  H   LIG d   1       8.965  12.927  -4.331  0.00  0.00     0.069 H 
ENDROOT
BRANCH   1  13
ATOM     13  C   LIG d   1      10.659   5.760  -3.020  0.00  0.00     0.025 A 
ATOM     14  C   LIG d   1      12.008   5.392  -3.062  0.00  0.00    -0.005 A 
ATOM     15  C   LIG d   1      12.354   4.054  -3.084  0.00  0.00     0.162 A 
ATOM     16  H   LIG d   1      12.776   6.150  -3.072  0.00  0.00     0.066 H 
ATOM     17  C   LIG d   1      11.362   3.076  -3.075  0.00  0.00     0.159 A 
ATOM     18  C   LIG d   1      10.022   3.442  -3.040  0.00  0.00    -0.016 A 
ATOM     19  C   LIG d   1       9.669   4.774  -3.011  0.00  0.00    -0.047 A 
ATOM     20  H   LIG d   1       9.257   2.681  -3.033  0.00  0.00     0.066 H 
ATOM     21  H   LIG d   1       8.626   5.055  -2.984  0.00  0.00     0.063 H 
BRANCH  15  22
ATOM     22  O   LIG d   1      13.665   3.693  -3.121  0.00  0.00    -0.491 OA
BRANCH  22  23
ATOM     23  C   LIG d   1      14.600   4.584  -2.510  0.00  0.00     0.079 C 
ATOM     24  H   LIG d   1      15.049   5.228  -3.281  0.00  0.00     0.066 H 
ATOM     25  H   LIG d   1      15.391   4.003  -2.012  0.00  0.00     0.066 H 
ATOM     26  H   LIG d   1      14.081   5.208  -1.768  0.00  0.00     0.066 H 
ENDBRANCH  22  23
ENDBRANCH  15  22
BRANCH  17  27
ATOM     27  O   LIG d   1      11.704   1.762  -3.103  0.00  0.00    -0.503 OA
ATOM     28  H   LIG d   1      10.949   0.992  -2.889  0.00  0.00     0.292 HD
ENDBRANCH  17  27
ENDBRANCH   1  13
BRANCH   2  29
ATOM     29  O   LIG d   1      10.041   7.029  -0.646  0.00  0.00    -0.488 OA
BRANCH  29  30
ATOM     30  C   LIG d   1      11.210   7.170   0.162  0.00  0.00     0.079 C 
ATOM     31  H   LIG d   1      11.686   6.186   0.293  0.00  0.00     0.066 H 
ATOM     32  H   LIG d   1      10.929   7.574   1.145  0.00  0.00     0.066 H 
ATOM     33  H   LIG d   1      11.915   7.856  -0.330  0.00  0.00     0.066 H 
ENDBRANCH  29  30
ENDBRANCH   2  29
BRANCH   9  34
ATOM     34  O   LIG d   1      10.188   9.192  -6.571  0.00  0.00    -0.488 OA
BRANCH  34  35
ATOM     35  C   LIG d   1       9.116   8.526  -7.241  0.00  0.00     0.079 C 
ATOM     36  H   LIG d   1       9.381   8.378  -8.299  0.00  0.00     0.066 H 
ATOM     37  H   LIG d   1       8.205   9.139  -7.174  0.00  0.00     0.066 H 
ATOM     38  H   LIG d   1       8.937   7.550  -6.767  0.00  0.00     0.066 H 
ENDBRANCH  34  35
ENDBRANCH   9  34
BRANCH   6  39
ATOM     39  O   LIG d   1       8.946  11.893  -1.929  0.00  0.00    -0.506 OA
ATOM     40  H   LIG d   1       8.785  11.337  -0.993  0.00  0.00     0.292 HD
ENDBRANCH   6  39
BRANCH   8  41
ATOM     41  O   LIG d   1       9.517  11.850  -6.647  0.00  0.00    -0.503 OA
ATOM     42  H   LIG d   1      10.018  12.825  -6.749  0.00  0.00     0.292 HD
ENDBRANCH   8  41
TORSDOF 10
ENDMDL
MODEL 7
REMARK VINA RESULT:      -4.9      9.703     13.619
REMARK  10 active torsions:
REMARK  status: ('A' for Active; 'I' for Inactive)
REMARK    1  A    between atoms: C_1  and  O_2 
REMARK    2  A    between atoms: O_2  and  C_3 
REMARK    3  A    between atoms: C_5  and  C_10 
REMARK    4  A    between atoms: C_8  and  O_9 
REMARK    5  A    between atoms: C_11  and  O_25 
REMARK    6  A    between atoms: C_15  and  O_24 
REMARK    7  A    between atoms: C_17  and  O_23 
REMARK    8  A    between atoms: C_18  and  O_21 
REMARK    9  A    between atoms: O_21  and  C_22 
REMARK   10  A    between atoms: O_25  and  C_26 
ROOT
ATOM      1  C   LIG d   1      10.487   8.610  -4.147  0.00  0.00     0.181 A 
ATOM      2  C   LIG d   1      10.382   9.753  -3.412  0.00  0.00     0.211 A 
ATOM      3  C   LIG d   1      10.487   9.685  -1.998  0.00  0.00     0.238 A 
ATOM      4  O   LIG d   1      10.395  10.687  -1.307  0.00  0.00    -0.283 OA
ATOM      5  C   LIG d   1      10.710   8.360  -1.398  0.00  0.00     0.113 A 
ATOM      6  C   LIG d   1      10.824   8.200  -0.011  0.00  0.00     0.135 A 
ATOM      7  C   LIG d   1      11.034   6.940   0.516  0.00  0.00     0.026 A 
ATOM      8  C   LIG d   1      11.130   5.837  -0.325  0.00  0.00     0.166 A 
ATOM      9  C   LIG d   1      11.017   5.986  -1.701  0.00  0.00     0.205 A 
ATOM     10  C   LIG d   1      10.806   7.245  -2.249  0.00  0.00     0.188 A 
ATOM     11  O   LIG d   1      10.695   7.407  -3.584  0.00  0.00    -0.447 OA
ATOM     12  H   LIG d   1      11.123   6.811   1.585  0.00  0.00     0.069 H 
ENDROOT
BRANCH   1  13
ATOM     13  C   LIG d   1      10.370   8.697  -5.615  0.00  0.00     0.025 A 
ATOM     14  C   LIG d   1      11.466   9.103  -6.382  0.00  0.00    -0.005 A 
ATOM     15  C   LIG d   1      11.352   9.179  -7.756  0.00  0.00     0.162 A 
ATOM     16  H   LIG d   1      12.400   9.353  -5.901  0.00  0.00     0.066 H 
ATOM     17  C   LIG d   1      10.145   8.861  -8.375  0.00  0.00     0.159 A 
ATOM     18  C   LIG d   1       9.054   8.464  -7.613  0.00  0.00    -0.016 A 
ATOM     19  C   LIG d   1       9.161   8.380  -6.242  0.00  0.00    -0.047 A 
ATOM     20  H   LIG d   1       8.121   8.219  -8.096  0.00  0.00     0.066 H 
ATOM     21  H   LIG d   1       8.311   8.071  -5.651  0.00  0.00     0.063 H 
BRANCH  15  22
ATOM     22  O   LIG d   1      12.419   9.569  -8.506  0.00  0.00    -0.491 OA
BRANCH  22  23
ATOM     23  C   LIG d   1      12.733  10.963  -8.510  0.00  0.00     0.079 C 
ATOM     24  H   LIG d   1      11.818  11.546  -8.328  0.00  0.00     0.066 H 
ATOM     25  H   LIG d   1      13.158  11.241  -9.485  0.00  0.00     0.066 H 
ATOM     26  H   LIG d   1      13.466  11.176  -7.716  0.00  0.00     0.066 H 
ENDBRANCH  22  23
ENDBRANCH  15  22
BRANCH  17  27
ATOM     27  O   LIG d   1      10.034   8.941  -9.726  0.00  0.00    -0.503 OA
ATOM     28  H   LIG d   1       9.986   8.023 -10.330  0.00  0.00     0.292 HD
ENDBRANCH  17  27
ENDBRANCH   1  13
BRANCH   2  29
ATOM     29  O   LIG d   1      10.176  10.949  -4.028  0.00  0.00    -0.488 OA
BRANCH  29  30
ATOM     30  C   LIG d   1       8.835  11.441  -4.058  0.00  0.00     0.079 C 
ATOM     31  H   LIG d   1       8.840  12.499  -4.360  0.00  0.00     0.066 H 
ATOM     32  H   LIG d   1       8.388  11.348  -3.058  0.00  0.00     0.066 H 
ATOM     33  H   LIG d   1       8.247  10.856  -4.780  0.00  0.00     0.066 H 
ENDBRANCH  29  30
ENDBRANCH   2  29
BRANCH   9  34
ATOM     34  O   LIG d   1      11.114   4.896  -2.514  0.00  0.00    -0.488 OA
BRANCH  34  35
ATOM     35  C   LIG d   1       9.896   4.225  -2.845  0.00  0.00     0.079 C 
ATOM     36  H   LIG d   1       9.148   4.962  -3.172  0.00  0.00     0.066 H 
ATOM     37  H   LIG d   1       9.520   3.691  -1.960  0.00  0.00     0.066 H 
ATOM     38  H   LIG d   1      10.083   3.506  -3.656  0.00  0.00     0.066 H 
ENDBRANCH  34  35
ENDBRANCH   9  34
BRANCH   6  39
ATOM     39  O   LIG d   1      10.730   9.278   0.810  0.00  0.00    -0.506 OA
ATOM     40  H   LIG d   1      10.487   9.139   1.874  0.00  0.00     0.292 HD
ENDBRANCH   6  39
BRANCH   8  41
ATOM     41  O   LIG d   1      11.335   4.603   0.205  0.00  0.00    -0.503 OA
ATOM     42  H   LIG d   1      10.539   3.845   0.154  0.00  0.00     0.292 HD
ENDBRANCH   8  41
TORSDOF 10
ENDMDL
MODEL 8
REMARK VINA RESULT:      -4.8      1.104      2.134
REMARK  10 active torsions:
REMARK  status: ('A' for Active; 'I' for Inactive)
REMARK    1  A    between atoms: C_1  and  O_2 
REMARK    2  A    between atoms: O_2  and  C_3 
REMARK    3  A    between atoms: C_5  and  C_10 
REMARK    4  A    between atoms: C_8  and  O_9 
REMARK    5  A    between atoms: C_11  and  O_25 
REMARK    6  A    between atoms: C_15  and  O_24 
REMARK    7  A    between atoms: C_17  and  O_23 
REMARK    8  A    between atoms: C_18  and  O_21 
REMARK    9  A    between atoms: O_21  and  C_22 
REMARK   10  A    between atoms: O_25  and  C_26 
ROOT
ATOM      1  C   LIG d   1       5.275  -1.144  -6.726  0.00  0.00     0.181 A 
ATOM      2  C   LIG d   1       5.570  -2.473  -6.794  0.00  0.00     0.211 A 
ATOM      3  C   LIG d   1       4.814  -3.312  -7.653  0.00  0.00     0.238 A 
ATOM      4  O   LIG d   1       5.046  -4.508  -7.737  0.00  0.00    -0.283 OA
ATOM      5  C   LIG d   1       3.737  -2.685  -8.437  0.00  0.00     0.113 A 
ATOM      6  C   LIG d   1       2.939  -3.440  -9.308  0.00  0.00     0.135 A 
ATOM      7  C   LIG d   1       1.938  -2.816 -10.028  0.00  0.00     0.026 A 
ATOM      8  C   LIG d   1       1.722  -1.449  -9.888  0.00  0.00     0.166 A 
ATOM      9  C   LIG d   1       2.507  -0.695  -9.027  0.00  0.00     0.205 A 
ATOM     10  C   LIG d   1       3.518  -1.305  -8.294  0.00  0.00     0.188 A 
ATOM     11  O   LIG d   1       4.291  -0.586  -7.452  0.00  0.00    -0.447 OA
ATOM     12  H   LIG d   1       1.320  -3.392 -10.702  0.00  0.00     0.069 H 
ENDROOT
BRANCH   1  13
ATOM     13  C   LIG d   1       6.067  -0.287  -5.825  0.00  0.00     0.025 A 
ATOM     14  C   LIG d   1       5.617  -0.032  -4.526  0.00  0.00    -0.005 A 
ATOM     15  C   LIG d   1       6.365   0.769  -3.684  0.00  0.00     0.162 A 
ATOM     16  H   LIG d   1       4.690  -0.464  -4.180  0.00  0.00     0.066 H 
ATOM     17  C   LIG d   1       7.560   1.329  -4.134  0.00  0.00     0.159 A 
ATOM     18  C   LIG d   1       8.003   1.081  -5.426  0.00  0.00    -0.016 A 
ATOM     19  C   LIG d   1       7.265   0.279  -6.270  0.00  0.00    -0.047 A 
ATOM     20  H   LIG d   1       8.928   1.518  -5.771  0.00  0.00     0.066 H 
ATOM     21  H   LIG d   1       7.612   0.089  -7.275  0.00  0.00     0.063 H 
BRANCH  15  22
ATOM     22  O   LIG d   1       5.933   1.014  -2.418  0.00  0.00    -0.491 OA
BRANCH  22  23
ATOM     23  C   LIG d   1       4.520   1.056  -2.212  0.00  0.00     0.079 C 
ATOM     24  H   LIG d   1       4.026   0.374  -2.921  0.00  0.00     0.066 H 
ATOM     25  H   LIG d   1       4.155   2.081  -2.373  0.00  0.00     0.066 H 
ATOM     26  H   LIG d   1       4.290   0.742  -1.182  0.00  0.00     0.066 H 
ENDBRANCH  22  23
ENDBRANCH  15  22
BRANCH  17  27
ATOM     27  O   LIG d   1       8.291   2.120  -3.306  0.00  0.00    -0.503 OA
ATOM     28  H   LIG d   1       9.233   1.746  -2.879  0.00  0.00     0.292 HD
ENDBRANCH  17  27
ENDBRANCH   1  13
BRANCH   2  29
ATOM     29  O   LIG d   1       6.579  -2.991  -6.043  0.00  0.00    -0.488 OA
BRANCH  29  30
ATOM     30  C   LIG d   1       6.211  -3.663  -4.837  0.00  0.00     0.079 C 
ATOM     31  H   LIG d   1       5.297  -4.251  -5.010  0.00  0.00     0.066 H 
ATOM     32  H   LIG d   1       6.026  -2.922  -4.046  0.00  0.00     0.066 H 
ATOM     33  H   LIG d   1       7.026  -4.334  -4.528  0.00  0.00     0.066 H 
ENDBRANCH  29  30
ENDBRANCH   2  29
BRANCH   9  34
ATOM     34  O   LIG d   1       2.285   0.643  -8.899  0.00  0.00    -0.488 OA
BRANCH  34  35
ATOM     35  C   LIG d   1       3.146   1.516  -9.634  0.00  0.00     0.079 C 
ATOM     36  H   LIG d   1       2.549   2.101 -10.350  0.00  0.00     0.066 H 
ATOM     37  H   LIG d   1       3.893   0.921 -10.179  0.00  0.00     0.066 H 
ATOM     38  H   LIG d   1       3.657   2.198  -8.938  0.00  0.00     0.066 H 
ENDBRANCH  34  35
ENDBRANCH   9  34
BRANCH   6  39
ATOM     39  O   LIG d   1       3.150  -4.774  -9.445  0.00  0.00    -0.506 OA
ATOM     40  H   LIG d   1       3.917  -5.274  -8.835  0.00  0.00     0.292 HD
ENDBRANCH   6  39
BRANCH   8  41
ATOM     41  O   LIG d   1       0.734  -0.848 -10.600  0.00  0.00    -0.503 OA
ATOM     42  H   LIG d   1      -0.276  -1.284 -10.615  0.00  0.00     0.292 HD
ENDBRANCH   8  41
TORSDOF 10
ENDMDL
MODEL 9
REMARK VINA RESULT:      -4.8      3.497      6.566
REMARK  10 active torsions:
REMARK  status: ('A' for Active; 'I' for Inactive)
REMARK    1  A    between atoms: C_1  and  O_2 
REMARK    2  A    between atoms: O_2  and  C_3 
REMARK    3  A    between atoms: C_5  and  C_10 
REMARK    4  A    between atoms: C_8  and  O_9 
REMARK    5  A    between atoms: C_11  and  O_25 
REMARK    6  A    between atoms: C_15  and  O_24 
REMARK    7  A    between atoms: C_17  and  O_23 
REMARK    8  A    between atoms: C_18  and  O_21 
REMARK    9  A    between atoms: O_21  and  C_22 
REMARK   10  A    between atoms: O_25  and  C_26 
ROOT
ATOM      1  C   LIG d   1       5.685   0.081  -7.172  0.00  0.00     0.181 A 
ATOM      2  C   LIG d   1       4.416   0.175  -7.660  0.00  0.00     0.211 A 
ATOM      3  C   LIG d   1       3.316   0.039  -6.775  0.00  0.00     0.238 A 
ATOM      4  O   LIG d   1       2.165   0.113  -7.176  0.00  0.00    -0.283 OA
ATOM      5  C   LIG d   1       3.616  -0.196  -5.353  0.00  0.00     0.113 A 
ATOM      6  C   LIG d   1       2.591  -0.343  -4.409  0.00  0.00     0.135 A 
ATOM      7  C   LIG d   1       2.911  -0.562  -3.083  0.00  0.00     0.026 A 
ATOM      8  C   LIG d   1       4.243  -0.637  -2.687  0.00  0.00     0.166 A 
ATOM      9  C   LIG d   1       5.264  -0.492  -3.616  0.00  0.00     0.205 A 
ATOM     10  C   LIG d   1       4.961  -0.272  -4.954  0.00  0.00     0.188 A 
ATOM     11  O   LIG d   1       5.942  -0.129  -5.870  0.00  0.00    -0.447 OA
ATOM     12  H   LIG d   1       2.125  -0.677  -2.350  0.00  0.00     0.069 H 
ENDROOT
BRANCH   1  13
ATOM     13  C   LIG d   1       6.817   0.219  -8.107  0.00  0.00     0.025 A 
ATOM     14  C   LIG d   1       7.213   1.487  -8.545  0.00  0.00    -0.005 A 
ATOM     15  C   LIG d   1       8.277   1.610  -9.418  0.00  0.00     0.162 A 
ATOM     16  H   LIG d   1       6.692   2.366  -8.198  0.00  0.00     0.066 H 
ATOM     17  C   LIG d   1       8.946   0.474  -9.868  0.00  0.00     0.159 A 
ATOM     18  C   LIG d   1       8.549  -0.785  -9.438  0.00  0.00    -0.016 A 
ATOM     19  C   LIG d   1       7.492  -0.917  -8.563  0.00  0.00    -0.047 A 
ATOM     20  H   LIG d   1       9.070  -1.663  -9.789  0.00  0.00     0.066 H 
ATOM     21  H   LIG d   1       7.185  -1.897  -8.230  0.00  0.00     0.063 H 
BRANCH  15  22
ATOM     22  O   LIG d   1       8.668   2.842  -9.842  0.00  0.00    -0.491 OA
BRANCH  22  23
ATOM     23  C   LIG d   1       9.322   3.680  -8.886  0.00  0.00     0.079 C 
ATOM     24  H   LIG d   1       9.834   4.502  -9.409  0.00  0.00     0.066 H 
ATOM     25  H   LIG d   1      10.058   3.089  -8.322  0.00  0.00     0.066 H 
ATOM     26  H   LIG d   1       8.576   4.096  -8.192  0.00  0.00     0.066 H 
ENDBRANCH  22  23
ENDBRANCH  15  22
BRANCH  17  27
ATOM     27  O   LIG d   1       9.989   0.598 -10.729  0.00  0.00    -0.503 OA
ATOM     28  H   LIG d   1       9.801   0.694 -11.809  0.00  0.00     0.292 HD
ENDBRANCH  17  27
ENDBRANCH   1  13
BRANCH   2  29
ATOM     29  O   LIG d   1       4.205   0.394  -8.987  0.00  0.00    -0.488 OA
BRANCH  29  30
ATOM     30  C   LIG d   1       3.922  -0.749  -9.796  0.00  0.00     0.079 C 
ATOM     31  H   LIG d   1       2.900  -1.100  -9.589  0.00  0.00     0.066 H 
ATOM     32  H   LIG d   1       4.638  -1.550  -9.563  0.00  0.00     0.066 H 
ATOM     33  H   LIG d   1       4.008  -0.477 -10.858  0.00  0.00     0.066 H 
ENDBRANCH  29  30
ENDBRANCH   2  29
BRANCH   9  34
ATOM     34  O   LIG d   1       6.564  -0.567  -3.215  0.00  0.00    -0.488 OA
BRANCH  34  35
ATOM     35  C   LIG d   1       7.203  -1.841  -3.322  0.00  0.00     0.079 C 
ATOM     36  H   LIG d   1       7.604  -2.133  -2.340  0.00  0.00     0.066 H 
ATOM     37  H   LIG d   1       8.025  -1.779  -4.050  0.00  0.00     0.066 H 
ATOM     38  H   LIG d   1       6.472  -2.591  -3.658  0.00  0.00     0.066 H 
ENDBRANCH  34  35
ENDBRANCH   9  34
BRANCH   6  39
ATOM     39  O   LIG d   1       1.291  -0.271  -4.795  0.00  0.00    -0.506 OA
ATOM     40  H   LIG d   1       0.537   0.147  -4.112  0.00  0.00     0.292 HD
ENDBRANCH   6  39
BRANCH   8  41
ATOM     41  O   LIG d   1       4.545  -0.854  -1.381  0.00  0.00    -0.503 OA
ATOM     42  H   LIG d   1       5.595  -0.973  -1.072  0.00  0.00     0.292 HD
ENDBRANCH   8  41
TORSDOF 10
ENDMDL
MODEL 10
REMARK VINA RESULT:      -4.8      7.976     12.670
REMARK  10 active torsions:
REMARK  status: ('A' for Active; 'I' for Inactive)
REMARK    1  A    between atoms: C_1  and  O_2 
REMARK    2  A    between atoms: O_2  and  C_3 
REMARK    3  A    between atoms: C_5  and  C_10 
REMARK    4  A    between atoms: C_8  and  O_9 
REMARK    5  A    between atoms: C_11  and  O_25 
REMARK    6  A    between atoms: C_15  and  O_24 
REMARK    7  A    between atoms: C_17  and  O_23 
REMARK    8  A    between atoms: C_18  and  O_21 
REMARK    9  A    between atoms: O_21  and  C_22 
REMARK   10  A    between atoms: O_25  and  C_26 
ROOT
ATOM      1  C   LIG d   1      10.309   7.601  -4.118  0.00  0.00     0.181 A 
ATOM      2  C   LIG d   1      10.138   7.896  -5.438  0.00  0.00     0.211 A 
ATOM      3  C   LIG d   1       9.818   9.225  -5.820  0.00  0.00     0.238 A 
ATOM      4  O   LIG d   1       9.654   9.526  -6.991  0.00  0.00    -0.283 OA
ATOM      5  C   LIG d   1       9.689  10.225  -4.747  0.00  0.00     0.113 A 
ATOM      6  C   LIG d   1       9.374  11.560  -5.034  0.00  0.00     0.135 A 
ATOM      7  C   LIG d   1       9.262  12.471  -4.001  0.00  0.00     0.026 A 
ATOM      8  C   LIG d   1       9.461  12.066  -2.685  0.00  0.00     0.166 A 
ATOM      9  C   LIG d   1       9.773  10.745  -2.393  0.00  0.00     0.205 A 
ATOM     10  C   LIG d   1       9.889   9.815  -3.418  0.00  0.00     0.188 A 
ATOM     11  O   LIG d   1      10.192   8.527  -3.151  0.00  0.00    -0.447 OA
ATOM     12  H   LIG d   1       9.019  13.502  -4.216  0.00  0.00     0.069 H 
ENDROOT
BRANCH   1  13
ATOM     13  C   LIG d   1      10.636   6.214  -3.738  0.00  0.00     0.025 A 
ATOM     14  C   LIG d   1       9.622   5.257  -3.639  0.00  0.00    -0.005 A 
ATOM     15  C   LIG d   1       9.935   3.958  -3.287  0.00  0.00     0.162 A 
ATOM     16  H   LIG d   1       8.597   5.531  -3.842  0.00  0.00     0.066 H 
ATOM     17  C   LIG d   1      11.257   3.607  -3.021  0.00  0.00     0.159 A 
ATOM     18  C   LIG d   1      12.264   4.559  -3.113  0.00  0.00    -0.016 A 
ATOM     19  C   LIG d   1      11.960   5.855  -3.469  0.00  0.00    -0.047 A 
ATOM     20  H   LIG d   1      13.286   4.283  -2.906  0.00  0.00     0.066 H 
ATOM     21  H   LIG d   1      12.745   6.594  -3.540  0.00  0.00     0.063 H 
BRANCH  15  22
ATOM     22  O   LIG d   1       8.951   3.023  -3.194  0.00  0.00    -0.491 OA
BRANCH  22  23
ATOM     23  C   LIG d   1       8.422   2.515  -4.420  0.00  0.00     0.079 C 
ATOM     24  H   LIG d   1       9.243   2.119  -5.037  0.00  0.00     0.066 H 
ATOM     25  H   LIG d   1       7.912   3.324  -4.964  0.00  0.00     0.066 H 
ATOM     26  H   LIG d   1       7.705   1.709  -4.204  0.00  0.00     0.066 H 
ENDBRANCH  22  23
ENDBRANCH  15  22
BRANCH  17  27
ATOM     27  O   LIG d   1      11.562   2.331  -2.669  0.00  0.00    -0.503 OA
ATOM     28  H   LIG d   1      11.819   2.094  -1.626  0.00  0.00     0.292 HD
ENDBRANCH  17  27
ENDBRANCH   1  13
BRANCH   2  29
ATOM     29  O   LIG d   1      10.271   6.925  -6.381  0.00  0.00    -0.488 OA
BRANCH  29  30
ATOM     30  C   LIG d   1      11.534   6.832  -7.044  0.00  0.00     0.079 C 
ATOM     31  H   LIG d   1      11.961   7.839  -7.160  0.00  0.00     0.066 H 
ATOM     32  H   LIG d   1      11.396   6.376  -8.034  0.00  0.00     0.066 H 
ATOM     33  H   LIG d   1      12.217   6.211  -6.445  0.00  0.00     0.066 H 
ENDBRANCH  29  30
ENDBRANCH   2  29
BRANCH   9  34
ATOM     34  O   LIG d   1       9.965  10.362  -1.100  0.00  0.00    -0.488 OA
BRANCH  34  35
ATOM     35  C   LIG d   1      11.298  10.441  -0.591  0.00  0.00     0.079 C 
ATOM     36  H   LIG d   1      12.014  10.307  -1.416  0.00  0.00     0.066 H 
ATOM     37  H   LIG d   1      11.452   9.652   0.160  0.00  0.00     0.066 H 
ATOM     38  H   LIG d   1      11.455  11.426  -0.126  0.00  0.00     0.066 H 
ENDBRANCH  34  35
ENDBRANCH   9  34
BRANCH   6  39
ATOM     39  O   LIG d   1       9.180  11.956  -6.318  0.00  0.00    -0.506 OA
ATOM     40  H   LIG d   1       8.326  11.563  -6.891  0.00  0.00     0.292 HD
ENDBRANCH   6  39
BRANCH   8  41
ATOM     41  O   LIG d   1       9.347  12.970  -1.679  0.00  0.00    -0.503 OA
ATOM     42  H   LIG d   1       9.148  12.628  -0.652  0.00  0.00     0.292 HD
ENDBRANCH   8  41
TORSDOF 10
ENDMDL
