MODEL 1
REMARK VINA RESULT:      -5.9      0.000      0.000
REMARK  15 active torsions:
REMARK  status: ('A' for Active; 'I' for Inactive)
REMARK    1  A    between atoms: C_1  and  C_2 
REMARK    2  A    between atoms: C_3  and  C_4 
REMARK    3  A    between atoms: C_3  and  C_5 
REMARK    4  A    between atoms: C_5  and  O_7 
REMARK    5  A    between atoms: O_7  and  C_8 
REMARK    6  A    between atoms: C_19  and  C_41 
REMARK    7  A    between atoms: C_21  and  C_40 
REMARK    8  A    between atoms: C_26  and  C_39 
REMARK    9  A    between atoms: C_29  and  C_33 
REMARK   10  A    between atoms: C_29  and  O_38 
REMARK   11  A    between atoms: C_30  and  C_31 
REMARK   12  A    between atoms: C_30  and  C_32 
REMARK   13  A    between atoms: C_33  and  C_34 
REMARK   14  A    between atoms: C_34  and  O_36 
REMARK   15  A    between atoms: O_36  and  C_37 
ROOT
ATOM      1  C   LIG d   1       4.543  -0.129  -6.026  0.00  0.00     0.121 C 
ATOM      2  H   LIG d   1       4.735   0.814  -5.481  0.00  0.00     0.075 H 
ATOM      3  C   LIG d   1       3.795   0.211  -7.309  0.00  0.00     0.059 C 
ATOM      4  H   LIG d   1       2.965   0.903  -7.086  0.00  0.00     0.042 H 
ATOM      5  C   LIG d   1       3.242  -1.046  -7.974  0.00  0.00    -0.018 C 
ATOM      6  C   LIG d   1       3.948  -1.335  -9.285  0.00  0.00    -0.064 C 
ATOM      7  C   LIG d   1       3.181  -1.748 -10.277  0.00  0.00    -0.050 C 
ATOM      8  C   LIG d   1       1.711  -1.948  -9.971  0.00  0.00     0.067 C 
ATOM      9  C   LIG d   1       1.143  -3.029 -10.858  0.00  0.00     0.312 C 
ATOM     10  O   LIG d   1       0.333  -3.821 -10.435  0.00  0.00    -0.251 OA
ATOM     11  O   LIG d   1       1.566  -3.086 -12.137  0.00  0.00    -0.455 OA
ATOM     12  C   LIG d   1       2.977  -3.209 -12.307  0.00  0.00     0.140 C 
ATOM     13  H   LIG d   1       3.316  -4.138 -11.857  0.00  0.00     0.080 H 
ATOM     14  C   LIG d   1       3.704  -2.039 -11.651  0.00  0.00     0.031 C 
ATOM     15  C   LIG d   1       5.199  -2.354 -11.591  0.00  0.00    -0.040 C 
ATOM     16  C   LIG d   1       5.916  -1.232 -10.834  0.00  0.00    -0.045 C 
ATOM     17  C   LIG d   1       5.436  -1.202  -9.390  0.00  0.00    -0.005 C 
ATOM     18  H   LIG d   1       5.867  -2.096  -8.913  0.00  0.00     0.036 H 
ATOM     19  C   LIG d   1       5.956   0.033  -8.661  0.00  0.00     0.063 C 
ATOM     20  C   LIG d   1       4.761   0.880  -8.264  0.00  0.00     0.149 C 
ATOM     21  O   LIG d   1       4.594   2.000  -8.680  0.00  0.00    -0.296 OA
ATOM     22  C   LIG d   1       6.716  -0.355  -7.392  0.00  0.00     0.097 C 
ATOM     23  C   LIG d   1       5.868  -0.835  -6.232  0.00  0.00     0.033 C 
ATOM     24  H   LIG d   1       3.306  -1.907  -7.314  0.00  0.00     0.032 H 
ATOM     25  H   LIG d   1       2.175  -0.863  -8.173  0.00  0.00     0.032 H 
ATOM     26  H   LIG d   1       1.593  -2.270  -8.932  0.00  0.00     0.042 H 
ATOM     27  H   LIG d   1       1.170  -1.017 -10.129  0.00  0.00     0.042 H 
ATOM     28  H   LIG d   1       5.358  -3.299 -11.069  0.00  0.00     0.028 H 
ATOM     29  H   LIG d   1       5.613  -2.420 -12.597  0.00  0.00     0.028 H 
ATOM     30  H   LIG d   1       6.987  -1.443 -10.855  0.00  0.00     0.027 H 
ATOM     31  H   LIG d   1       5.707  -0.295 -11.336  0.00  0.00     0.027 H 
ENDROOT
BRANCH   1  32
ATOM     32  O   LIG d   1       3.702  -0.931  -5.182  0.00  0.00    -0.457 OA
BRANCH  32  33
ATOM     33  C   LIG d   1       3.004  -0.287  -4.225  0.00  0.00     0.335 C 
ATOM     34  O   LIG d   1       1.821  -0.061  -4.384  0.00  0.00    -0.245 OA
BRANCH  33  35
ATOM     35  C   LIG d   1       3.674   0.141  -2.989  0.00  0.00     0.029 C 
ATOM     36  C   LIG d   1       4.099  -0.766  -2.113  0.00  0.00    -0.077 C 
ATOM     37  H   LIG d   1       4.590  -0.451  -1.204  0.00  0.00     0.057 H 
BRANCH  36  38
ATOM     38  C   LIG d   1       3.893  -2.234  -2.389  0.00  0.00    -0.046 C 
ATOM     39  H   LIG d   1       2.826  -2.450  -2.424  0.00  0.00     0.027 H 
ATOM     40  H   LIG d   1       4.349  -2.490  -3.346  0.00  0.00     0.027 H 
ATOM     41  H   LIG d   1       4.358  -2.821  -1.597  0.00  0.00     0.027 H 
ENDBRANCH  36  38
BRANCH  35  42
ATOM     42  C   LIG d   1       3.880   1.609  -2.713  0.00  0.00    -0.033 C 
ATOM     43  H   LIG d   1       4.666   1.994  -3.361  0.00  0.00     0.028 H 
ATOM     44  H   LIG d   1       2.953   2.149  -2.908  0.00  0.00     0.028 H 
ATOM     45  H   LIG d   1       4.167   1.745  -1.671  0.00  0.00     0.028 H 
ENDBRANCH  35  42
ENDBRANCH  33  35
ENDBRANCH  32  33
ENDBRANCH   1  32
BRANCH  23  46
ATOM     46  C   LIG d   1       5.664  -2.353  -6.307  0.00  0.00    -0.054 C 
ATOM     47  H   LIG d   1       6.559  -2.820  -6.718  0.00  0.00     0.024 H 
ATOM     48  H   LIG d   1       5.476  -2.745  -5.307  0.00  0.00     0.024 H 
ATOM     49  H   LIG d   1       4.811  -2.574  -6.950  0.00  0.00     0.024 H 
ENDBRANCH  23  46
BRANCH  23  50
ATOM     50  C   LIG d   1       6.703  -0.584  -4.945  0.00  0.00    -0.054 C 
ATOM     51  H   LIG d   1       6.644   0.470  -4.674  0.00  0.00     0.024 H 
ATOM     52  H   LIG d   1       6.309  -1.191  -4.132  0.00  0.00     0.024 H 
ATOM     53  H   LIG d   1       7.744  -0.854  -5.129  0.00  0.00     0.024 H 
ENDBRANCH  23  50
BRANCH  22  54
ATOM     54  C   LIG d   1       7.529   0.869  -6.928  0.00  0.00     0.075 C 
ATOM     55  H   LIG d   1       7.301   1.721  -7.569  0.00  0.00     0.041 H 
ATOM     56  H   LIG d   1       7.269   1.110  -5.897  0.00  0.00     0.041 H 
BRANCH  54  57
ATOM     57  C   LIG d   1       9.001   0.556  -7.013  0.00  0.00     0.310 C 
ATOM     58  O   LIG d   1       9.624   0.848  -8.007  0.00  0.00    -0.251 OA
BRANCH  57  59
ATOM     59  O   LIG d   1       9.620  -0.045  -5.986  0.00  0.00    -0.468 OA
BRANCH  59  60
ATOM     60  C   LIG d   1      10.236   0.802  -5.013  0.00  0.00     0.082 C 
ATOM     61  H   LIG d   1       9.785   1.794  -5.057  0.00  0.00     0.066 H 
ATOM     62  H   LIG d   1      10.090   0.380  -4.020  0.00  0.00     0.066 H 
ATOM     63  H   LIG d   1      11.304   0.879  -5.222  0.00  0.00     0.066 H 
ENDBRANCH  59  60
ENDBRANCH  57  59
ENDBRANCH  54  57
ENDBRANCH  22  54
BRANCH  22  64
ATOM     64  O   LIG d   1       7.664  -1.386  -7.725  0.00  0.00    -0.386 OA
ATOM     65  H   LIG d   1       8.250  -1.159  -8.460  0.00  0.00     0.210 HD
ENDBRANCH  22  64
BRANCH  19  66
ATOM     66  C   LIG d   1       6.893   0.878  -9.544  0.00  0.00    -0.050 C 
ATOM     67  H   LIG d   1       7.924   0.728  -9.227  0.00  0.00     0.024 H 
ATOM     68  H   LIG d   1       6.785   0.573 -10.585  0.00  0.00     0.024 H 
ATOM     69  H   LIG d   1       6.634   1.932  -9.446  0.00  0.00     0.024 H 
ENDBRANCH  19  66
BRANCH  14  70
ATOM     70  C   LIG d   1       3.482  -0.805 -12.531  0.00  0.00    -0.052 C 
ATOM     71  H   LIG d   1       4.299  -0.718 -13.247  0.00  0.00     0.024 H 
ATOM     72  H   LIG d   1       2.539  -0.907 -13.068  0.00  0.00     0.024 H 
ATOM     73  H   LIG d   1       3.450   0.087 -11.905  0.00  0.00     0.024 H 
ENDBRANCH  14  70
BRANCH  12  74
ATOM     74  C   LIG d   1       3.285  -3.222 -13.783  0.00  0.00     0.031 A 
ATOM     75  C   LIG d   1       4.365  -3.766 -14.372  0.00  0.00     0.098 A 
ATOM     76  O   LIG d   1       4.269  -3.571 -15.697  0.00  0.00    -0.471 OA
ATOM     77  H   LIG d   1       5.171  -4.276 -13.865  0.00  0.00     0.103 H 
ATOM     78  C   LIG d   1       3.141  -2.896 -15.970  0.00  0.00     0.092 A 
ATOM     79  C   LIG d   1       2.497  -2.659 -14.813  0.00  0.00    -0.017 A 
ATOM     80  H   LIG d   1       2.805  -2.597 -16.952  0.00  0.00     0.103 H 
ATOM     81  H   LIG d   1       1.559  -2.137 -14.693  0.00  0.00     0.065 H 
ENDBRANCH  12  74
TORSDOF 15
ENDMDL
MODEL 2
REMARK VINA RESULT:      -5.6      4.161      5.585
REMARK  15 active torsions:
REMARK  status: ('A' for Active; 'I' for Inactive)
REMARK    1  A    between atoms: C_1  and  C_2 
REMARK    2  A    between atoms: C_3  and  C_4 
REMARK    3  A    between atoms: C_3  and  C_5 
REMARK    4  A    between atoms: C_5  and  O_7 
REMARK    5  A    between atoms: O_7  and  C_8 
REMARK    6  A    between atoms: C_19  and  C_41 
REMARK    7  A    between atoms: C_21  and  C_40 
REMARK    8  A    between atoms: C_26  and  C_39 
REMARK    9  A    between atoms: C_29  and  C_33 
REMARK   10  A    between atoms: C_29  and  O_38 
REMARK   11  A    between atoms: C_30  and  C_31 
REMARK   12  A    between atoms: C_30  and  C_32 
REMARK   13  A    between atoms: C_33  and  C_34 
REMARK   14  A    between atoms: C_34  and  O_36 
REMARK   15  A    between atoms: O_36  and  C_37 
ROOT
ATOM      1  C   LIG d   1       5.490  -1.280  -4.646  0.00  0.00     0.121 C 
ATOM      2  H   LIG d   1       5.127  -0.281  -4.952  0.00  0.00     0.075 H 
ATOM      3  C   LIG d   1       5.022  -2.291  -5.685  0.00  0.00     0.059 C 
ATOM      4  H   LIG d   1       3.953  -2.131  -5.908  0.00  0.00     0.042 H 
ATOM      5  C   LIG d   1       5.230  -3.721  -5.196  0.00  0.00    -0.018 C 
ATOM      6  C   LIG d   1       6.300  -4.432  -6.003  0.00  0.00    -0.064 C 
ATOM      7  C   LIG d   1       6.054  -5.692  -6.307  0.00  0.00    -0.050 C 
ATOM      8  C   LIG d   1       4.775  -6.293  -5.761  0.00  0.00     0.067 C 
ATOM      9  C   LIG d   1       4.954  -7.778  -5.549  0.00  0.00     0.312 C 
ATOM     10  O   LIG d   1       4.467  -8.333  -4.592  0.00  0.00    -0.251 OA
ATOM     11  O   LIG d   1       5.672  -8.465  -6.459  0.00  0.00    -0.455 OA
ATOM     12  C   LIG d   1       6.999  -7.988  -6.675  0.00  0.00     0.140 C 
ATOM     13  H   LIG d   1       7.567  -8.066  -5.752  0.00  0.00     0.080 H 
ATOM     14  C   LIG d   1       6.981  -6.532  -7.132  0.00  0.00     0.031 C 
ATOM     15  C   LIG d   1       8.403  -5.973  -7.063  0.00  0.00    -0.040 C 
ATOM     16  C   LIG d   1       8.370  -4.483  -7.415  0.00  0.00    -0.045 C 
ATOM     17  C   LIG d   1       7.571  -3.726  -6.363  0.00  0.00    -0.005 C 
ATOM     18  H   LIG d   1       8.198  -3.723  -5.457  0.00  0.00     0.036 H 
ATOM     19  C   LIG d   1       7.327  -2.281  -6.788  0.00  0.00     0.063 C 
ATOM     20  C   LIG d   1       5.830  -2.088  -6.949  0.00  0.00     0.149 C 
ATOM     21  O   LIG d   1       5.326  -1.797  -8.005  0.00  0.00    -0.296 OA
ATOM     22  C   LIG d   1       7.829  -1.303  -5.725  0.00  0.00     0.097 C 
ATOM     23  C   LIG d   1       6.993  -1.204  -4.466  0.00  0.00     0.033 C 
ATOM     24  H   LIG d   1       5.475  -3.748  -4.138  0.00  0.00     0.032 H 
ATOM     25  H   LIG d   1       4.272  -4.248  -5.325  0.00  0.00     0.032 H 
ATOM     26  H   LIG d   1       4.542  -5.842  -4.793  0.00  0.00     0.042 H 
ATOM     27  H   LIG d   1       3.956  -6.114  -6.455  0.00  0.00     0.042 H 
ATOM     28  H   LIG d   1       8.801  -6.096  -6.055  0.00  0.00     0.028 H 
ATOM     29  H   LIG d   1       9.047  -6.488  -7.775  0.00  0.00     0.028 H 
ATOM     30  H   LIG d   1       9.398  -4.116  -7.421  0.00  0.00     0.027 H 
ATOM     31  H   LIG d   1       7.926  -4.374  -8.397  0.00  0.00     0.027 H 
ENDROOT
BRANCH   1  32
ATOM     32  O   LIG d   1       4.874  -1.575  -3.382  0.00  0.00    -0.457 OA
BRANCH  32  33
ATOM     33  C   LIG d   1       3.623  -1.110  -3.189  0.00  0.00     0.335 C 
ATOM     34  O   LIG d   1       2.773  -1.834  -2.709  0.00  0.00    -0.245 OA
BRANCH  33  35
ATOM     35  C   LIG d   1       3.288   0.273  -3.557  0.00  0.00     0.029 C 
ATOM     36  C   LIG d   1       3.714   1.284  -2.805  0.00  0.00    -0.077 C 
ATOM     37  H   LIG d   1       3.467   2.300  -3.075  0.00  0.00     0.057 H 
BRANCH  36  38
ATOM     38  C   LIG d   1       4.542   1.012  -1.575  0.00  0.00    -0.046 C 
ATOM     39  H   LIG d   1       3.962   1.255  -0.685  0.00  0.00     0.027 H 
ATOM     40  H   LIG d   1       4.821  -0.042  -1.552  0.00  0.00     0.027 H 
ATOM     41  H   LIG d   1       5.443   1.625  -1.600  0.00  0.00     0.027 H 
ENDBRANCH  36  38
BRANCH  35  42
ATOM     42  C   LIG d   1       2.460   0.545  -4.787  0.00  0.00    -0.033 C 
ATOM     43  H   LIG d   1       3.012   0.234  -5.673  0.00  0.00     0.028 H 
ATOM     44  H   LIG d   1       1.526  -0.013  -4.727  0.00  0.00     0.028 H 
ATOM     45  H   LIG d   1       2.243   1.611  -4.849  0.00  0.00     0.028 H 
ENDBRANCH  35  42
ENDBRANCH  33  35
ENDBRANCH  32  33
ENDBRANCH   1  32
BRANCH  23  46
ATOM     46  C   LIG d   1       7.464  -2.228  -3.426  0.00  0.00    -0.054 C 
ATOM     47  H   LIG d   1       7.309  -3.235  -3.812  0.00  0.00     0.024 H 
ATOM     48  H   LIG d   1       8.524  -2.076  -3.222  0.00  0.00     0.024 H 
ATOM     49  H   LIG d   1       6.895  -2.100  -2.505  0.00  0.00     0.024 H 
ENDBRANCH  23  46
BRANCH  23  50
ATOM     50  C   LIG d   1       7.291   0.192  -3.851  0.00  0.00    -0.054 C 
ATOM     51  H   LIG d   1       7.539   0.894  -4.646  0.00  0.00     0.024 H 
ATOM     52  H   LIG d   1       6.413   0.547  -3.313  0.00  0.00     0.024 H 
ATOM     53  H   LIG d   1       8.132   0.113  -3.161  0.00  0.00     0.024 H 
ENDBRANCH  23  50
BRANCH  22  54
ATOM     54  C   LIG d   1       7.913   0.097  -6.367  0.00  0.00     0.075 C 
ATOM     55  H   LIG d   1       7.533   0.052  -7.387  0.00  0.00     0.041 H 
ATOM     56  H   LIG d   1       7.315   0.800  -5.786  0.00  0.00     0.041 H 
BRANCH  54  57
ATOM     57  C   LIG d   1       9.348   0.556  -6.385  0.00  0.00     0.310 C 
ATOM     58  O   LIG d   1      10.059   0.278  -7.321  0.00  0.00    -0.251 OA
BRANCH  57  59
ATOM     59  O   LIG d   1       9.837   1.274  -5.361  0.00  0.00    -0.468 OA
BRANCH  59  60
ATOM     60  C   LIG d   1       9.636   2.688  -5.407  0.00  0.00     0.082 C 
ATOM     61  H   LIG d   1       8.949   2.984  -4.614  0.00  0.00     0.066 H 
ATOM     62  H   LIG d   1      10.591   3.194  -5.269  0.00  0.00     0.066 H 
ATOM     63  H   LIG d   1       9.215   2.964  -6.375  0.00  0.00     0.066 H 
ENDBRANCH  59  60
ENDBRANCH  57  59
ENDBRANCH  54  57
ENDBRANCH  22  54
BRANCH  22  64
ATOM     64  O   LIG d   1       9.170  -1.676  -5.358  0.00  0.00    -0.386 OA
ATOM     65  H   LIG d   1       9.842  -1.027  -5.607  0.00  0.00     0.210 HD
ENDBRANCH  22  64
BRANCH  19  66
ATOM     66  C   LIG d   1       8.019  -1.943  -8.121  0.00  0.00    -0.050 C 
ATOM     67  H   LIG d   1       7.266  -1.722  -8.876  0.00  0.00     0.024 H 
ATOM     68  H   LIG d   1       8.664  -1.073  -7.986  0.00  0.00     0.024 H 
ATOM     69  H   LIG d   1       8.620  -2.792  -8.445  0.00  0.00     0.024 H 
ENDBRANCH  19  66
BRANCH  14  70
ATOM     70  C   LIG d   1       6.499  -6.511  -8.586  0.00  0.00    -0.052 C 
ATOM     71  H   LIG d   1       7.356  -6.417  -9.252  0.00  0.00     0.024 H 
ATOM     72  H   LIG d   1       5.968  -7.436  -8.806  0.00  0.00     0.024 H 
ATOM     73  H   LIG d   1       5.829  -5.663  -8.734  0.00  0.00     0.024 H 
ENDBRANCH  14  70
BRANCH  12  74
ATOM     74  C   LIG d   1       7.649  -8.836  -7.739  0.00  0.00     0.031 A 
ATOM     75  C   LIG d   1       7.021  -9.610  -8.642  0.00  0.00     0.098 A 
ATOM     76  O   LIG d   1       7.949 -10.199  -9.413  0.00  0.00    -0.471 OA
ATOM     77  H   LIG d   1       5.953  -9.735  -8.732  0.00  0.00     0.103 H 
ATOM     78  C   LIG d   1       9.173  -9.819  -9.012  0.00  0.00     0.092 A 
ATOM     79  C   LIG d   1       9.036  -8.972  -7.976  0.00  0.00    -0.017 A 
ATOM     80  H   LIG d   1      10.108 -10.138  -9.447  0.00  0.00     0.103 H 
ATOM     81  H   LIG d   1       9.833  -8.490  -7.429  0.00  0.00     0.065 H 
ENDBRANCH  12  74
TORSDOF 15
ENDMDL
MODEL 3
REMARK VINA RESULT:      -5.5      3.594      8.218
REMARK  15 active torsions:
REMARK  status: ('A' for Active; 'I' for Inactive)
REMARK    1  A    between atoms: C_1  and  C_2 
REMARK    2  A    between atoms: C_3  and  C_4 
REMARK    3  A    between atoms: C_3  and  C_5 
REMARK    4  A    between atoms: C_5  and  O_7 
REMARK    5  A    between atoms: O_7  and  C_8 
REMARK    6  A    between atoms: C_19  and  C_41 
REMARK    7  A    between atoms: C_21  and  C_40 
REMARK    8  A    between atoms: C_26  and  C_39 
REMARK    9  A    between atoms: C_29  and  C_33 
REMARK   10  A    between atoms: C_29  and  O_38 
REMARK   11  A    between atoms: C_30  and  C_31 
REMARK   12  A    between atoms: C_30  and  C_32 
REMARK   13  A    between atoms: C_33  and  C_34 
REMARK   14  A    between atoms: C_34  and  O_36 
REMARK   15  A    between atoms: O_36  and  C_37 
ROOT
ATOM      1  C   LIG d   1       5.600  -0.150  -7.689  0.00  0.00     0.121 C 
ATOM      2  H   LIG d   1       5.324   0.919  -7.622  0.00  0.00     0.075 H 
ATOM      3  C   LIG d   1       7.053  -0.291  -7.254  0.00  0.00     0.059 C 
ATOM      4  H   LIG d   1       7.669   0.476  -7.756  0.00  0.00     0.042 H 
ATOM      5  C   LIG d   1       7.596  -1.677  -7.588  0.00  0.00    -0.018 C 
ATOM      6  C   LIG d   1       7.869  -2.481  -6.331  0.00  0.00    -0.064 C 
ATOM      7  C   LIG d   1       8.973  -3.204  -6.334  0.00  0.00    -0.050 C 
ATOM      8  C   LIG d   1       9.794  -3.197  -7.607  0.00  0.00     0.067 C 
ATOM      9  C   LIG d   1      10.533  -4.506  -7.750  0.00  0.00     0.312 C 
ATOM     10  O   LIG d   1      10.663  -5.033  -8.830  0.00  0.00    -0.251 OA
ATOM     11  O   LIG d   1      11.043  -5.070  -6.637  0.00  0.00    -0.455 OA
ATOM     12  C   LIG d   1      10.102  -5.320  -5.595  0.00  0.00     0.140 C 
ATOM     13  H   LIG d   1       9.350  -6.021  -5.946  0.00  0.00     0.080 H 
ATOM     14  C   LIG d   1       9.418  -4.025  -5.163  0.00  0.00     0.031 C 
ATOM     15  C   LIG d   1       8.223  -4.368  -4.273  0.00  0.00    -0.040 C 
ATOM     16  C   LIG d   1       7.471  -3.080  -3.930  0.00  0.00    -0.045 C 
ATOM     17  C   LIG d   1       6.888  -2.473  -5.199  0.00  0.00    -0.005 C 
ATOM     18  H   LIG d   1       6.060  -3.137  -5.494  0.00  0.00     0.036 H 
ATOM     19  C   LIG d   1       6.322  -1.081  -4.937  0.00  0.00     0.063 C 
ATOM     20  C   LIG d   1       7.126  -0.088  -5.756  0.00  0.00     0.149 C 
ATOM     21  O   LIG d   1       7.775   0.793  -5.249  0.00  0.00    -0.296 OA
ATOM     22  C   LIG d   1       4.858  -0.991  -5.370  0.00  0.00     0.097 C 
ATOM     23  C   LIG d   1       4.609  -0.946  -6.863  0.00  0.00     0.033 C 
ATOM     24  H   LIG d   1       6.923  -2.221  -8.245  0.00  0.00     0.032 H 
ATOM     25  H   LIG d   1       8.541  -1.530  -8.133  0.00  0.00     0.032 H 
ATOM     26  H   LIG d   1       9.132  -3.090  -8.471  0.00  0.00     0.042 H 
ATOM     27  H   LIG d   1      10.503  -2.372  -7.586  0.00  0.00     0.042 H 
ATOM     28  H   LIG d   1       7.552  -5.047  -4.800  0.00  0.00     0.028 H 
ATOM     29  H   LIG d   1       8.561  -4.835  -3.348  0.00  0.00     0.028 H 
ATOM     30  H   LIG d   1       6.659  -3.336  -3.246  0.00  0.00     0.027 H 
ATOM     31  H   LIG d   1       8.164  -2.397  -3.452  0.00  0.00     0.027 H 
ENDROOT
BRANCH   1  32
ATOM     32  O   LIG d   1       5.476  -0.523  -9.071  0.00  0.00    -0.457 OA
BRANCH  32  33
ATOM     33  C   LIG d   1       5.500   0.474  -9.978  0.00  0.00     0.335 C 
ATOM     34  O   LIG d   1       6.537   1.065 -10.204  0.00  0.00    -0.245 OA
BRANCH  33  35
ATOM     35  C   LIG d   1       4.271   0.845 -10.694  0.00  0.00     0.029 C 
ATOM     36  C   LIG d   1       3.583   1.921 -10.323  0.00  0.00    -0.077 C 
ATOM     37  H   LIG d   1       2.680   2.193 -10.849  0.00  0.00     0.057 H 
BRANCH  36  38
ATOM     38  C   LIG d   1       4.064   2.762  -9.167  0.00  0.00    -0.046 C 
ATOM     39  H   LIG d   1       3.215   3.263  -8.705  0.00  0.00     0.027 H 
ATOM     40  H   LIG d   1       4.555   2.122  -8.433  0.00  0.00     0.027 H 
ATOM     41  H   LIG d   1       4.773   3.507  -9.530  0.00  0.00     0.027 H 
ENDBRANCH  36  38
BRANCH  35  42
ATOM     42  C   LIG d   1       3.790   0.004 -11.849  0.00  0.00    -0.033 C 
ATOM     43  H   LIG d   1       4.360  -0.923 -11.886  0.00  0.00     0.028 H 
ATOM     44  H   LIG d   1       2.733  -0.224 -11.716  0.00  0.00     0.028 H 
ATOM     45  H   LIG d   1       3.929   0.553 -12.780  0.00  0.00     0.028 H 
ENDBRANCH  35  42
ENDBRANCH  33  35
ENDBRANCH  32  33
ENDBRANCH   1  32
BRANCH  23  46
ATOM     46  C   LIG d   1       4.457  -2.365  -7.425  0.00  0.00    -0.054 C 
ATOM     47  H   LIG d   1       5.396  -2.905  -7.310  0.00  0.00     0.024 H 
ATOM     48  H   LIG d   1       3.668  -2.888  -6.883  0.00  0.00     0.024 H 
ATOM     49  H   LIG d   1       4.196  -2.312  -8.483  0.00  0.00     0.024 H 
ENDBRANCH  23  46
BRANCH  23  50
ATOM     50  C   LIG d   1       3.227  -0.263  -7.057  0.00  0.00    -0.054 C 
ATOM     51  H   LIG d   1       2.625  -0.402  -6.160  0.00  0.00     0.024 H 
ATOM     52  H   LIG d   1       3.369   0.800  -7.239  0.00  0.00     0.024 H 
ATOM     53  H   LIG d   1       2.716  -0.712  -7.910  0.00  0.00     0.024 H 
ENDBRANCH  23  50
BRANCH  22  54
ATOM     54  C   LIG d   1       4.250   0.275  -4.735  0.00  0.00     0.075 C 
ATOM     55  H   LIG d   1       5.033   0.841  -4.231  0.00  0.00     0.041 H 
ATOM     56  H   LIG d   1       3.799   0.892  -5.514  0.00  0.00     0.041 H 
BRANCH  54  57
ATOM     57  C   LIG d   1       3.193  -0.122  -3.736  0.00  0.00     0.310 C 
ATOM     58  O   LIG d   1       2.105  -0.481  -4.119  0.00  0.00    -0.251 OA
BRANCH  57  59
ATOM     59  O   LIG d   1       3.461  -0.076  -2.422  0.00  0.00    -0.468 OA
BRANCH  59  60
ATOM     60  C   LIG d   1       4.062   1.121  -1.923  0.00  0.00     0.082 C 
ATOM     61  H   LIG d   1       5.104   1.164  -2.239  0.00  0.00     0.066 H 
ATOM     62  H   LIG d   1       3.527   1.985  -2.316  0.00  0.00     0.066 H 
ATOM     63  H   LIG d   1       4.011   1.126  -0.834  0.00  0.00     0.066 H 
ENDBRANCH  59  60
ENDBRANCH  57  59
ENDBRANCH  54  57
ENDBRANCH  22  54
BRANCH  22  64
ATOM     64  O   LIG d   1       4.150  -2.118  -4.819  0.00  0.00    -0.386 OA
ATOM     65  H   LIG d   1       3.364  -2.373  -5.323  0.00  0.00     0.210 HD
ENDBRANCH  22  64
BRANCH  19  66
ATOM     66  C   LIG d   1       6.411  -0.688  -3.450  0.00  0.00    -0.050 C 
ATOM     67  H   LIG d   1       6.540  -1.584  -2.845  0.00  0.00     0.024 H 
ATOM     68  H   LIG d   1       7.260  -0.021  -3.300  0.00  0.00     0.024 H 
ATOM     69  H   LIG d   1       5.494  -0.180  -3.154  0.00  0.00     0.024 H 
ENDBRANCH  19  66
BRANCH  14  70
ATOM     70  C   LIG d   1      10.435  -3.214  -4.354  0.00  0.00    -0.052 C 
ATOM     71  H   LIG d   1      11.010  -2.578  -5.026  0.00  0.00     0.024 H 
ATOM     72  H   LIG d   1       9.911  -2.595  -3.627  0.00  0.00     0.024 H 
ATOM     73  H   LIG d   1      11.110  -3.895  -3.832  0.00  0.00     0.024 H 
ENDBRANCH  14  70
BRANCH  12  74
ATOM     74  C   LIG d   1      10.834  -5.913  -4.417  0.00  0.00     0.031 A 
ATOM     75  C   LIG d   1      12.160  -5.878  -4.197  0.00  0.00     0.098 A 
ATOM     76  O   LIG d   1      12.414  -6.513  -3.041  0.00  0.00    -0.471 OA
ATOM     77  H   LIG d   1      12.895  -5.416  -4.839  0.00  0.00     0.103 H 
ATOM     78  C   LIG d   1      11.265  -6.966  -2.516  0.00  0.00     0.092 A 
ATOM     79  C   LIG d   1      10.256  -6.616  -3.335  0.00  0.00    -0.017 A 
ATOM     80  H   LIG d   1      11.165  -7.516  -1.592  0.00  0.00     0.103 H 
ATOM     81  H   LIG d   1       9.207  -6.832  -3.194  0.00  0.00     0.065 H 
ENDBRANCH  12  74
TORSDOF 15
ENDMDL
MODEL 4
REMARK VINA RESULT:      -5.4      4.594      8.316
REMARK  15 active torsions:
REMARK  status: ('A' for Active; 'I' for Inactive)
REMARK    1  A    between atoms: C_1  and  C_2 
REMARK    2  A    between atoms: C_3  and  C_4 
REMARK    3  A    between atoms: C_3  and  C_5 
REMARK    4  A    between atoms: C_5  and  O_7 
REMARK    5  A    between atoms: O_7  and  C_8 
REMARK    6  A    between atoms: C_19  and  C_41 
REMARK    7  A    between atoms: C_21  and  C_40 
REMARK    8  A    between atoms: C_26  and  C_39 
REMARK    9  A    between atoms: C_29  and  C_33 
REMARK   10  A    between atoms: C_29  and  O_38 
REMARK   11  A    between atoms: C_30  and  C_31 
REMARK   12  A    between atoms: C_30  and  C_32 
REMARK   13  A    between atoms: C_33  and  C_34 
REMARK   14  A    between atoms: C_34  and  O_36 
REMARK   15  A    between atoms: O_36  and  C_37 
ROOT
ATOM      1  C   LIG d   1       4.704  -2.487  -5.780  0.00  0.00     0.121 C 
ATOM      2  H   LIG d   1       3.604  -2.454  -5.667  0.00  0.00     0.075 H 
ATOM      3  C   LIG d   1       5.234  -3.617  -4.907  0.00  0.00     0.059 C 
ATOM      4  H   LIG d   1       4.780  -3.558  -3.903  0.00  0.00     0.042 H 
ATOM      5  C   LIG d   1       6.754  -3.550  -4.782  0.00  0.00    -0.018 C 
ATOM      6  C   LIG d   1       7.419  -4.717  -5.486  0.00  0.00    -0.064 C 
ATOM      7  C   LIG d   1       8.447  -5.260  -4.861  0.00  0.00    -0.050 C 
ATOM      8  C   LIG d   1       8.877  -4.617  -3.559  0.00  0.00     0.067 C 
ATOM      9  C   LIG d   1      10.359  -4.818  -3.351  0.00  0.00     0.312 C 
ATOM     10  O   LIG d   1      11.046  -3.945  -2.874  0.00  0.00    -0.251 OA
ATOM     11  O   LIG d   1      10.894  -6.001  -3.712  0.00  0.00    -0.455 OA
ATOM     12  C   LIG d   1      10.686  -6.374  -5.073  0.00  0.00     0.140 C 
ATOM     13  H   LIG d   1      11.155  -5.642  -5.725  0.00  0.00     0.080 H 
ATOM     14  C   LIG d   1       9.194  -6.445  -5.391  0.00  0.00     0.031 C 
ATOM     15  C   LIG d   1       9.015  -6.549  -6.906  0.00  0.00    -0.040 C 
ATOM     16  C   LIG d   1       7.520  -6.509  -7.235  0.00  0.00    -0.045 C 
ATOM     17  C   LIG d   1       6.944  -5.157  -6.836  0.00  0.00    -0.005 C 
ATOM     18  H   LIG d   1       7.347  -4.435  -7.564  0.00  0.00     0.036 H 
ATOM     19  C   LIG d   1       5.422  -5.152  -6.940  0.00  0.00     0.063 C 
ATOM     20  C   LIG d   1       4.859  -4.935  -5.548  0.00  0.00     0.149 C 
ATOM     21  O   LIG d   1       4.166  -5.754  -4.996  0.00  0.00    -0.296 OA
ATOM     22  C   LIG d   1       4.936  -4.016  -7.841  0.00  0.00     0.097 C 
ATOM     23  C   LIG d   1       5.023  -2.622  -7.256  0.00  0.00     0.033 C 
ATOM     24  H   LIG d   1       7.143  -2.609  -5.160  0.00  0.00     0.032 H 
ATOM     25  H   LIG d   1       6.991  -3.595  -3.707  0.00  0.00     0.032 H 
ATOM     26  H   LIG d   1       8.688  -3.540  -3.602  0.00  0.00     0.042 H 
ATOM     27  H   LIG d   1       8.324  -5.052  -2.729  0.00  0.00     0.042 H 
ATOM     28  H   LIG d   1       9.514  -5.712  -7.397  0.00  0.00     0.028 H 
ATOM     29  H   LIG d   1       9.431  -7.487  -7.274  0.00  0.00     0.028 H 
ATOM     30  H   LIG d   1       7.408  -6.646  -8.312  0.00  0.00     0.027 H 
ATOM     31  H   LIG d   1       7.032  -7.316  -6.701  0.00  0.00     0.027 H 
ENDROOT
BRANCH   1  32
ATOM     32  O   LIG d   1       5.208  -1.232  -5.297  0.00  0.00    -0.457 OA
BRANCH  32  33
ATOM     33  C   LIG d   1       4.404  -0.525  -4.478  0.00  0.00     0.335 C 
ATOM     34  O   LIG d   1       3.292  -0.203  -4.847  0.00  0.00    -0.245 OA
BRANCH  33  35
ATOM     35  C   LIG d   1       4.872  -0.146  -3.137  0.00  0.00     0.029 C 
ATOM     36  C   LIG d   1       4.543  -0.888  -2.082  0.00  0.00    -0.077 C 
ATOM     37  H   LIG d   1       4.886  -0.608  -1.097  0.00  0.00     0.057 H 
BRANCH  36  38
ATOM     38  C   LIG d   1       3.692  -2.119  -2.263  0.00  0.00    -0.046 C 
ATOM     39  H   LIG d   1       4.270  -3.003  -1.993  0.00  0.00     0.027 H 
ATOM     40  H   LIG d   1       2.813  -2.049  -1.622  0.00  0.00     0.027 H 
ATOM     41  H   LIG d   1       3.378  -2.194  -3.304  0.00  0.00     0.027 H 
ENDBRANCH  36  38
BRANCH  35  42
ATOM     42  C   LIG d   1       5.723   1.085  -2.957  0.00  0.00    -0.033 C 
ATOM     43  H   LIG d   1       5.090   1.971  -2.984  0.00  0.00     0.028 H 
ATOM     44  H   LIG d   1       6.236   1.034  -1.997  0.00  0.00     0.028 H 
ATOM     45  H   LIG d   1       6.458   1.138  -3.759  0.00  0.00     0.028 H 
ENDBRANCH  35  42
ENDBRANCH  33  35
ENDBRANCH  32  33
ENDBRANCH   1  32
BRANCH  23  46
ATOM     46  C   LIG d   1       6.385  -1.991  -7.572  0.00  0.00    -0.054 C 
ATOM     47  H   LIG d   1       6.258  -0.926  -7.760  0.00  0.00     0.024 H 
ATOM     48  H   LIG d   1       7.057  -2.134  -6.725  0.00  0.00     0.024 H 
ATOM     49  H   LIG d   1       6.810  -2.468  -8.456  0.00  0.00     0.024 H 
ENDBRANCH  23  46
BRANCH  23  50
ATOM     50  C   LIG d   1       3.973  -1.762  -8.012  0.00  0.00    -0.054 C 
ATOM     51  H   LIG d   1       3.114  -2.381  -8.269  0.00  0.00     0.024 H 
ATOM     52  H   LIG d   1       3.651  -0.939  -7.376  0.00  0.00     0.024 H 
ATOM     53  H   LIG d   1       4.418  -1.363  -8.924  0.00  0.00     0.024 H 
ENDBRANCH  23  50
BRANCH  22  54
ATOM     54  C   LIG d   1       3.466  -4.298  -8.213  0.00  0.00     0.075 C 
ATOM     55  H   LIG d   1       3.130  -5.202  -7.706  0.00  0.00     0.041 H 
ATOM     56  H   LIG d   1       2.845  -3.455  -7.906  0.00  0.00     0.041 H 
BRANCH  54  57
ATOM     57  C   LIG d   1       3.353  -4.486  -9.704  0.00  0.00     0.310 C 
ATOM     58  O   LIG d   1       3.623  -5.554 -10.200  0.00  0.00    -0.251 OA
BRANCH  57  59
ATOM     59  O   LIG d   1       2.952  -3.468 -10.481  0.00  0.00    -0.468 OA
BRANCH  59  60
ATOM     60  C   LIG d   1       1.556  -3.159 -10.477  0.00  0.00     0.082 C 
ATOM     61  H   LIG d   1       1.342  -2.431 -11.259  0.00  0.00     0.066 H 
ATOM     62  H   LIG d   1       0.984  -4.069 -10.659  0.00  0.00     0.066 H 
ATOM     63  H   LIG d   1       1.279  -2.744  -9.507  0.00  0.00     0.066 H 
ENDBRANCH  59  60
ENDBRANCH  57  59
ENDBRANCH  54  57
ENDBRANCH  22  54
BRANCH  22  64
ATOM     64  O   LIG d   1       5.692  -4.049  -9.066  0.00  0.00    -0.386 OA
ATOM     65  H   LIG d   1       5.774  -3.189  -9.501  0.00  0.00     0.210 HD
ENDBRANCH  22  64
BRANCH  19  66
ATOM     66  C   LIG d   1       4.873  -6.479  -7.499  0.00  0.00    -0.050 C 
ATOM     67  H   LIG d   1       4.386  -6.296  -8.456  0.00  0.00     0.024 H 
ATOM     68  H   LIG d   1       5.695  -7.183  -7.637  0.00  0.00     0.024 H 
ATOM     69  H   LIG d   1       4.151  -6.897  -6.798  0.00  0.00     0.024 H 
ENDBRANCH  19  66
BRANCH  14  70
ATOM     70  C   LIG d   1       8.642  -7.711  -4.728  0.00  0.00    -0.052 C 
ATOM     71  H   LIG d   1       9.376  -8.513  -4.808  0.00  0.00     0.024 H 
ATOM     72  H   LIG d   1       8.436  -7.510  -3.678  0.00  0.00     0.024 H 
ATOM     73  H   LIG d   1       7.721  -8.010  -5.229  0.00  0.00     0.024 H 
ENDBRANCH  14  70
BRANCH  12  74
ATOM     74  C   LIG d   1      11.309  -7.727  -5.304  0.00  0.00     0.031 A 
ATOM     75  C   LIG d   1      11.708  -8.236  -6.483  0.00  0.00     0.098 A 
ATOM     76  O   LIG d   1      12.212  -9.462  -6.267  0.00  0.00    -0.471 OA
ATOM     77  H   LIG d   1      11.637  -7.741  -7.440  0.00  0.00     0.103 H 
ATOM     78  C   LIG d   1      12.134  -9.755  -4.959  0.00  0.00     0.092 A 
ATOM     79  C   LIG d   1      11.581  -8.707  -4.322  0.00  0.00    -0.017 A 
ATOM     80  H   LIG d   1      12.461 -10.674  -4.497  0.00  0.00     0.103 H 
ATOM     81  H   LIG d   1      11.382  -8.630  -3.263  0.00  0.00     0.065 H 
ENDBRANCH  12  74
TORSDOF 15
ENDMDL
MODEL 5
REMARK VINA RESULT:      -5.4      3.760      7.125
REMARK  15 active torsions:
REMARK  status: ('A' for Active; 'I' for Inactive)
REMARK    1  A    between atoms: C_1  and  C_2 
REMARK    2  A    between atoms: C_3  and  C_4 
REMARK    3  A    between atoms: C_3  and  C_5 
REMARK    4  A    between atoms: C_5  and  O_7 
REMARK    5  A    between atoms: O_7  and  C_8 
REMARK    6  A    between atoms: C_19  and  C_41 
REMARK    7  A    between atoms: C_21  and  C_40 
REMARK    8  A    between atoms: C_26  and  C_39 
REMARK    9  A    between atoms: C_29  and  C_33 
REMARK   10  A    between atoms: C_29  and  O_38 
REMARK   11  A    between atoms: C_30  and  C_31 
REMARK   12  A    between atoms: C_30  and  C_32 
REMARK   13  A    between atoms: C_33  and  C_34 
REMARK   14  A    between atoms: C_34  and  O_36 
REMARK   15  A    between atoms: O_36  and  C_37 
ROOT
ATOM      1  C   LIG d   1       4.293  -1.314  -5.872  0.00  0.00     0.121 C 
ATOM      2  H   LIG d   1       3.187  -1.320  -5.881  0.00  0.00     0.075 H 
ATOM      3  C   LIG d   1       4.768  -2.695  -5.440  0.00  0.00     0.059 C 
ATOM      4  H   LIG d   1       4.206  -3.022  -4.548  0.00  0.00     0.042 H 
ATOM      5  C   LIG d   1       6.262  -2.691  -5.126  0.00  0.00    -0.018 C 
ATOM      6  C   LIG d   1       7.043  -3.504  -6.140  0.00  0.00    -0.064 C 
ATOM      7  C   LIG d   1       8.017  -4.251  -5.655  0.00  0.00    -0.050 C 
ATOM      8  C   LIG d   1       8.280  -4.157  -4.167  0.00  0.00     0.067 C 
ATOM      9  C   LIG d   1       9.737  -4.433  -3.883  0.00  0.00     0.312 C 
ATOM     10  O   LIG d   1      10.334  -3.812  -3.034  0.00  0.00    -0.251 OA
ATOM     11  O   LIG d   1      10.353  -5.390  -4.604  0.00  0.00    -0.455 OA
ATOM     12  C   LIG d   1      10.307  -5.213  -6.018  0.00  0.00     0.140 C 
ATOM     13  H   LIG d   1      10.816  -4.290  -6.284  0.00  0.00     0.080 H 
ATOM     14  C   LIG d   1       8.863  -5.148  -6.508  0.00  0.00     0.031 C 
ATOM     15  C   LIG d   1       8.852  -4.662  -7.958  0.00  0.00    -0.040 C 
ATOM     16  C   LIG d   1       7.401  -4.491  -8.416  0.00  0.00    -0.045 C 
ATOM     17  C   LIG d   1       6.734  -3.391  -7.601  0.00  0.00    -0.005 C 
ATOM     18  H   LIG d   1       7.185  -2.448  -7.947  0.00  0.00     0.036 H 
ATOM     19  C   LIG d   1       5.233  -3.337  -7.869  0.00  0.00     0.063 C 
ATOM     20  C   LIG d   1       4.515  -3.666  -6.574  0.00  0.00     0.149 C 
ATOM     21  O   LIG d   1       3.798  -4.629  -6.459  0.00  0.00    -0.296 OA
ATOM     22  C   LIG d   1       4.804  -1.940  -8.318  0.00  0.00     0.097 C 
ATOM     23  C   LIG d   1       4.775  -0.876  -7.241  0.00  0.00     0.033 C 
ATOM     24  H   LIG d   1       6.653  -1.679  -5.070  0.00  0.00     0.032 H 
ATOM     25  H   LIG d   1       6.382  -3.145  -4.130  0.00  0.00     0.032 H 
ATOM     26  H   LIG d   1       8.055  -3.146  -3.818  0.00  0.00     0.042 H 
ATOM     27  H   LIG d   1       7.657  -4.874  -3.635  0.00  0.00     0.042 H 
ATOM     28  H   LIG d   1       9.369  -3.705  -8.032  0.00  0.00     0.028 H 
ATOM     29  H   LIG d   1       9.341  -5.391  -8.605  0.00  0.00     0.028 H 
ATOM     30  H   LIG d   1       7.412  -4.204  -9.469  0.00  0.00     0.027 H 
ATOM     31  H   LIG d   1       6.889  -5.437  -8.289  0.00  0.00     0.027 H 
ENDROOT
BRANCH   1  32
ATOM     32  O   LIG d   1       4.693  -0.343  -4.893  0.00  0.00    -0.457 OA
BRANCH  32  33
ATOM     33  C   LIG d   1       3.809  -0.058  -3.917  0.00  0.00     0.335 C 
ATOM     34  O   LIG d   1       2.637   0.116  -4.190  0.00  0.00    -0.245 OA
BRANCH  33  35
ATOM     35  C   LIG d   1       4.260   0.040  -2.522  0.00  0.00     0.029 C 
ATOM     36  C   LIG d   1       4.268  -1.042  -1.746  0.00  0.00    -0.077 C 
ATOM     37  H   LIG d   1       4.599  -0.969  -0.721  0.00  0.00     0.057 H 
BRANCH  36  38
ATOM     38  C   LIG d   1       3.816  -2.369  -2.300  0.00  0.00    -0.046 C 
ATOM     39  H   LIG d   1       4.104  -2.442  -3.348  0.00  0.00     0.027 H 
ATOM     40  H   LIG d   1       4.285  -3.176  -1.736  0.00  0.00     0.027 H 
ATOM     41  H   LIG d   1       2.732  -2.448  -2.214  0.00  0.00     0.027 H 
ENDBRANCH  36  38
BRANCH  35  42
ATOM     42  C   LIG d   1       4.712   1.367  -1.968  0.00  0.00    -0.033 C 
ATOM     43  H   LIG d   1       5.784   1.335  -1.777  0.00  0.00     0.028 H 
ATOM     44  H   LIG d   1       4.495   2.155  -2.690  0.00  0.00     0.028 H 
ATOM     45  H   LIG d   1       4.183   1.571  -1.038  0.00  0.00     0.028 H 
ENDBRANCH  35  42
ENDBRANCH  33  35
ENDBRANCH  32  33
ENDBRANCH   1  32
BRANCH  23  46
ATOM     46  C   LIG d   1       6.138  -0.181  -7.135  0.00  0.00    -0.054 C 
ATOM     47  H   LIG d   1       6.265   0.219  -6.129  0.00  0.00     0.024 H 
ATOM     48  H   LIG d   1       6.930  -0.901  -7.342  0.00  0.00     0.024 H 
ATOM     49  H   LIG d   1       6.189   0.633  -7.859  0.00  0.00     0.024 H 
ENDBRANCH  23  46
BRANCH  23  50
ATOM     50  C   LIG d   1       3.780   0.214  -7.728  0.00  0.00    -0.054 C 
ATOM     51  H   LIG d   1       4.337   1.057  -8.138  0.00  0.00     0.024 H 
ATOM     52  H   LIG d   1       3.132  -0.202  -8.497  0.00  0.00     0.024 H 
ATOM     53  H   LIG d   1       3.174   0.555  -6.887  0.00  0.00     0.024 H 
ENDBRANCH  23  50
BRANCH  22  54
ATOM     54  C   LIG d   1       3.396  -2.048  -8.936  0.00  0.00     0.075 C 
ATOM     55  H   LIG d   1       3.054  -3.081  -8.881  0.00  0.00     0.041 H 
ATOM     56  H   LIG d   1       2.706  -1.407  -8.384  0.00  0.00     0.041 H 
BRANCH  54  57
ATOM     57  C   LIG d   1       3.443  -1.610 -10.377  0.00  0.00     0.310 C 
ATOM     58  O   LIG d   1       3.778  -2.392 -11.235  0.00  0.00    -0.251 OA
BRANCH  57  59
ATOM     59  O   LIG d   1       3.114  -0.352 -10.708  0.00  0.00    -0.468 OA
BRANCH  59  60
ATOM     60  C   LIG d   1       3.983   0.329 -11.615  0.00  0.00     0.082 C 
ATOM     61  H   LIG d   1       4.388   1.219 -11.132  0.00  0.00     0.066 H 
ATOM     62  H   LIG d   1       4.799  -0.334 -11.901  0.00  0.00     0.066 H 
ATOM     63  H   LIG d   1       3.423   0.621 -12.504  0.00  0.00     0.066 H 
ENDBRANCH  59  60
ENDBRANCH  57  59
ENDBRANCH  54  57
ENDBRANCH  22  54
BRANCH  22  64
ATOM     64  O   LIG d   1       5.689  -1.506  -9.368  0.00  0.00    -0.386 OA
ATOM     65  H   LIG d   1       6.259  -0.764  -9.122  0.00  0.00     0.210 HD
ENDBRANCH  22  64
BRANCH  19  66
ATOM     66  C   LIG d   1       4.799  -4.345  -8.950  0.00  0.00    -0.050 C 
ATOM     67  H   LIG d   1       5.668  -4.907  -9.292  0.00  0.00     0.024 H 
ATOM     68  H   LIG d   1       4.063  -5.032  -8.531  0.00  0.00     0.024 H 
ATOM     69  H   LIG d   1       4.359  -3.810  -9.791  0.00  0.00     0.024 H 
ENDBRANCH  19  66
BRANCH  14  70
ATOM     70  C   LIG d   1       8.290  -6.567  -6.445  0.00  0.00    -0.052 C 
ATOM     71  H   LIG d   1       8.975  -7.211  -5.893  0.00  0.00     0.024 H 
ATOM     72  H   LIG d   1       7.324  -6.548  -5.942  0.00  0.00     0.024 H 
ATOM     73  H   LIG d   1       8.165  -6.954  -7.457  0.00  0.00     0.024 H 
ENDBRANCH  14  70
BRANCH  12  74
ATOM     74  C   LIG d   1      11.003  -6.379  -6.674  0.00  0.00     0.031 A 
ATOM     75  C   LIG d   1      11.549  -6.399  -7.903  0.00  0.00     0.098 A 
ATOM     76  O   LIG d   1      12.072  -7.617  -8.114  0.00  0.00    -0.471 OA
ATOM     77  H   LIG d   1      11.567  -5.574  -8.599  0.00  0.00     0.103 H 
ATOM     78  C   LIG d   1      11.860  -8.389  -7.036  0.00  0.00     0.092 A 
ATOM     79  C   LIG d   1      11.200  -7.663  -6.116  0.00  0.00    -0.017 A 
ATOM     80  H   LIG d   1      12.168  -9.418  -6.925  0.00  0.00     0.103 H 
ATOM     81  H   LIG d   1      10.882  -7.996  -5.139  0.00  0.00     0.065 H 
ENDBRANCH  12  74
TORSDOF 15
ENDMDL
MODEL 6
REMARK VINA RESULT:      -5.4      3.184      8.606
REMARK  15 active torsions:
REMARK  status: ('A' for Active; 'I' for Inactive)
REMARK    1  A    between atoms: C_1  and  C_2 
REMARK    2  A    between atoms: C_3  and  C_4 
REMARK    3  A    between atoms: C_3  and  C_5 
REMARK    4  A    between atoms: C_5  and  O_7 
REMARK    5  A    between atoms: O_7  and  C_8 
REMARK    6  A    between atoms: C_19  and  C_41 
REMARK    7  A    between atoms: C_21  and  C_40 
REMARK    8  A    between atoms: C_26  and  C_39 
REMARK    9  A    between atoms: C_29  and  C_33 
REMARK   10  A    between atoms: C_29  and  O_38 
REMARK   11  A    between atoms: C_30  and  C_31 
REMARK   12  A    between atoms: C_30  and  C_32 
REMARK   13  A    between atoms: C_33  and  C_34 
REMARK   14  A    between atoms: C_34  and  O_36 
REMARK   15  A    between atoms: O_36  and  C_37 
ROOT
ATOM      1  C   LIG d   1       5.609  -1.071  -5.018  0.00  0.00     0.121 C 
ATOM      2  H   LIG d   1       5.117  -2.010  -4.699  0.00  0.00     0.075 H 
ATOM      3  C   LIG d   1       6.845  -0.867  -4.152  0.00  0.00     0.059 C 
ATOM      4  H   LIG d   1       6.588  -1.027  -3.091  0.00  0.00     0.042 H 
ATOM      5  C   LIG d   1       7.417   0.536  -4.330  0.00  0.00    -0.018 C 
ATOM      6  C   LIG d   1       8.764   0.500  -5.025  0.00  0.00    -0.064 C 
ATOM      7  C   LIG d   1       9.679   1.329  -4.557  0.00  0.00    -0.050 C 
ATOM      8  C   LIG d   1       9.257   2.256  -3.437  0.00  0.00     0.067 C 
ATOM      9  C   LIG d   1      10.057   3.536  -3.499  0.00  0.00     0.312 C 
ATOM     10  O   LIG d   1       9.543   4.603  -3.256  0.00  0.00    -0.251 OA
ATOM     11  O   LIG d   1      11.360   3.452  -3.833  0.00  0.00    -0.455 OA
ATOM     12  C   LIG d   1      11.629   2.819  -5.082  0.00  0.00     0.140 C 
ATOM     13  H   LIG d   1      11.169   3.390  -5.885  0.00  0.00     0.080 H 
ATOM     14  C   LIG d   1      11.075   1.397  -5.097  0.00  0.00     0.031 C 
ATOM     15  C   LIG d   1      11.114   0.864  -6.530  0.00  0.00    -0.040 C 
ATOM     16  C   LIG d   1      10.458  -0.519  -6.566  0.00  0.00    -0.045 C 
ATOM     17  C   LIG d   1       8.984  -0.395  -6.205  0.00  0.00    -0.005 C 
ATOM     18  H   LIG d   1       8.506   0.096  -7.068  0.00  0.00     0.036 H 
ATOM     19  C   LIG d   1       8.345  -1.767  -6.014  0.00  0.00     0.063 C 
ATOM     20  C   LIG d   1       7.894  -1.875  -4.569  0.00  0.00     0.149 C 
ATOM     21  O   LIG d   1       8.341  -2.702  -3.813  0.00  0.00    -0.296 OA
ATOM     22  C   LIG d   1       7.122  -1.935  -6.916  0.00  0.00     0.097 C 
ATOM     23  C   LIG d   1       5.884  -1.165  -6.506  0.00  0.00     0.033 C 
ATOM     24  H   LIG d   1       6.730   1.180  -4.871  0.00  0.00     0.032 H 
ATOM     25  H   LIG d   1       7.543   0.963  -3.323  0.00  0.00     0.032 H 
ATOM     26  H   LIG d   1       8.201   2.515  -3.553  0.00  0.00     0.042 H 
ATOM     27  H   LIG d   1       9.411   1.770  -2.476  0.00  0.00     0.042 H 
ATOM     28  H   LIG d   1      10.569   1.539  -7.191  0.00  0.00     0.028 H 
ATOM     29  H   LIG d   1      12.145   0.773  -6.873  0.00  0.00     0.028 H 
ATOM     30  H   LIG d   1      10.550  -0.908  -7.582  0.00  0.00     0.027 H 
ATOM     31  H   LIG d   1      10.980  -1.162  -5.868  0.00  0.00     0.027 H 
ENDROOT
BRANCH   1  32
ATOM     32  O   LIG d   1       4.673  -0.010  -4.773  0.00  0.00    -0.457 OA
BRANCH  32  33
ATOM     33  C   LIG d   1       3.629  -0.289  -3.967  0.00  0.00     0.335 C 
ATOM     34  O   LIG d   1       2.494  -0.086  -4.350  0.00  0.00    -0.245 OA
BRANCH  33  35
ATOM     35  C   LIG d   1       3.864  -0.841  -2.625  0.00  0.00     0.029 C 
ATOM     36  C   LIG d   1       4.293  -0.049  -1.645  0.00  0.00    -0.077 C 
ATOM     37  H   LIG d   1       4.466  -0.455  -0.660  0.00  0.00     0.057 H 
BRANCH  36  38
ATOM     38  C   LIG d   1       4.537   1.415  -1.911  0.00  0.00    -0.046 C 
ATOM     39  H   LIG d   1       4.330   1.633  -2.958  0.00  0.00     0.027 H 
ATOM     40  H   LIG d   1       3.880   2.013  -1.278  0.00  0.00     0.027 H 
ATOM     41  H   LIG d   1       5.576   1.656  -1.687  0.00  0.00     0.027 H 
ENDBRANCH  36  38
BRANCH  35  42
ATOM     42  C   LIG d   1       3.621  -2.305  -2.359  0.00  0.00    -0.033 C 
ATOM     43  H   LIG d   1       2.568  -2.533  -2.521  0.00  0.00     0.028 H 
ATOM     44  H   LIG d   1       4.230  -2.903  -3.036  0.00  0.00     0.028 H 
ATOM     45  H   LIG d   1       3.890  -2.536  -1.329  0.00  0.00     0.028 H 
ENDBRANCH  35  42
ENDBRANCH  33  35
ENDBRANCH  32  33
ENDBRANCH   1  32
BRANCH  23  46
ATOM     46  C   LIG d   1       5.884   0.231  -7.142  0.00  0.00    -0.054 C 
ATOM     47  H   LIG d   1       5.056   0.309  -7.846  0.00  0.00     0.024 H 
ATOM     48  H   LIG d   1       5.772   0.985  -6.363  0.00  0.00     0.024 H 
ATOM     49  H   LIG d   1       6.826   0.390  -7.669  0.00  0.00     0.024 H 
ENDBRANCH  23  46
BRANCH  23  50
ATOM     50  C   LIG d   1       4.674  -1.914  -7.130  0.00  0.00    -0.054 C 
ATOM     51  H   LIG d   1       4.819  -2.006  -8.206  0.00  0.00     0.024 H 
ATOM     52  H   LIG d   1       4.594  -2.906  -6.688  0.00  0.00     0.024 H 
ATOM     53  H   LIG d   1       3.759  -1.354  -6.934  0.00  0.00     0.024 H 
ENDBRANCH  23  50
BRANCH  22  54
ATOM     54  C   LIG d   1       6.769  -3.435  -6.967  0.00  0.00     0.075 C 
ATOM     55  H   LIG d   1       7.440  -3.989  -6.311  0.00  0.00     0.041 H 
ATOM     56  H   LIG d   1       5.739  -3.578  -6.638  0.00  0.00     0.041 H 
BRANCH  54  57
ATOM     57  C   LIG d   1       6.917  -3.939  -8.379  0.00  0.00     0.310 C 
ATOM     58  O   LIG d   1       7.955  -4.448  -8.733  0.00  0.00    -0.251 OA
BRANCH  57  59
ATOM     59  O   LIG d   1       5.898  -3.824  -9.245  0.00  0.00    -0.468 OA
BRANCH  59  60
ATOM     60  C   LIG d   1       6.221  -3.860 -10.636  0.00  0.00     0.082 C 
ATOM     61  H   LIG d   1       6.676  -4.820 -10.879  0.00  0.00     0.066 H 
ATOM     62  H   LIG d   1       5.312  -3.729 -11.223  0.00  0.00     0.066 H 
ATOM     63  H   LIG d   1       6.922  -3.057 -10.868  0.00  0.00     0.066 H 
ENDBRANCH  59  60
ENDBRANCH  57  59
ENDBRANCH  54  57
ENDBRANCH  22  54
BRANCH  22  64
ATOM     64  O   LIG d   1       7.484  -1.545  -8.254  0.00  0.00    -0.386 OA
ATOM     65  H   LIG d   1       7.573  -2.285  -8.870  0.00  0.00     0.210 HD
ENDBRANCH  22  64
BRANCH  19  66
ATOM     66  C   LIG d   1       9.328  -2.913  -6.316  0.00  0.00    -0.050 C 
ATOM     67  H   LIG d   1       9.988  -2.621  -7.133  0.00  0.00     0.024 H 
ATOM     68  H   LIG d   1       9.923  -3.127  -5.427  0.00  0.00     0.024 H 
ATOM     69  H   LIG d   1       8.771  -3.805  -6.602  0.00  0.00     0.024 H 
ENDBRANCH  19  66
BRANCH  14  70
ATOM     70  C   LIG d   1      11.985   0.538  -4.213  0.00  0.00    -0.052 C 
ATOM     71  H   LIG d   1      12.191  -0.407  -4.714  0.00  0.00     0.024 H 
ATOM     72  H   LIG d   1      12.921   1.066  -4.034  0.00  0.00     0.024 H 
ATOM     73  H   LIG d   1      11.489   0.345  -3.261  0.00  0.00     0.024 H 
ENDBRANCH  14  70
BRANCH  12  74
ATOM     74  C   LIG d   1      13.122   2.774  -5.288  0.00  0.00     0.031 A 
ATOM     75  C   LIG d   1      14.066   2.889  -4.337  0.00  0.00     0.098 A 
ATOM     76  O   LIG d   1      15.271   2.793  -4.922  0.00  0.00    -0.471 OA
ATOM     77  H   LIG d   1      13.886   3.031  -3.282  0.00  0.00     0.103 H 
ATOM     78  C   LIG d   1      15.115   2.626  -6.245  0.00  0.00     0.092 A 
ATOM     79  C   LIG d   1      13.798   2.607  -6.519  0.00  0.00    -0.017 A 
ATOM     80  H   LIG d   1      15.911   2.523  -6.968  0.00  0.00     0.103 H 
ATOM     81  H   LIG d   1      13.344   2.488  -7.491  0.00  0.00     0.065 H 
ENDBRANCH  12  74
TORSDOF 15
ENDMDL
MODEL 7
REMARK VINA RESULT:      -5.4      6.110     11.696
REMARK  15 active torsions:
REMARK  status: ('A' for Active; 'I' for Inactive)
REMARK    1  A    between atoms: C_1  and  C_2 
REMARK    2  A    between atoms: C_3  and  C_4 
REMARK    3  A    between atoms: C_3  and  C_5 
REMARK    4  A    between atoms: C_5  and  O_7 
REMARK    5  A    between atoms: O_7  and  C_8 
REMARK    6  A    between atoms: C_19  and  C_41 
REMARK    7  A    between atoms: C_21  and  C_40 
REMARK    8  A    between atoms: C_26  and  C_39 
REMARK    9  A    between atoms: C_29  and  C_33 
REMARK   10  A    between atoms: C_29  and  O_38 
REMARK   11  A    between atoms: C_30  and  C_31 
REMARK   12  A    between atoms: C_30  and  C_32 
REMARK   13  A    between atoms: C_33  and  C_34 
REMARK   14  A    between atoms: C_34  and  O_36 
REMARK   15  A    between atoms: O_36  and  C_37 
ROOT
ATOM      1  C   LIG d   1      10.289   4.407 -10.085  0.00  0.00     0.121 C 
ATOM      2  H   LIG d   1      10.999   4.344 -10.931  0.00  0.00     0.075 H 
ATOM      3  C   LIG d   1      11.076   4.221  -8.794  0.00  0.00     0.059 C 
ATOM      4  H   LIG d   1      11.752   3.354  -8.890  0.00  0.00     0.042 H 
ATOM      5  C   LIG d   1      10.142   4.008  -7.606  0.00  0.00    -0.018 C 
ATOM      6  C   LIG d   1      10.190   5.182  -6.647  0.00  0.00    -0.064 C 
ATOM      7  C   LIG d   1      10.177   4.882  -5.362  0.00  0.00    -0.050 C 
ATOM      8  C   LIG d   1      10.049   3.417  -5.001  0.00  0.00     0.067 C 
ATOM      9  C   LIG d   1       9.351   3.274  -3.670  0.00  0.00     0.312 C 
ATOM     10  O   LIG d   1       8.558   2.382  -3.475  0.00  0.00    -0.251 OA
ATOM     11  O   LIG d   1       9.637   4.170  -2.705  0.00  0.00    -0.455 OA
ATOM     12  C   LIG d   1       9.425   5.536  -3.059  0.00  0.00     0.140 C 
ATOM     13  H   LIG d   1       8.373   5.692  -3.284  0.00  0.00     0.080 H 
ATOM     14  C   LIG d   1      10.260   5.914  -4.279  0.00  0.00     0.031 C 
ATOM     15  C   LIG d   1       9.787   7.270  -4.803  0.00  0.00    -0.040 C 
ATOM     16  C   LIG d   1      10.548   7.600  -6.090  0.00  0.00    -0.045 C 
ATOM     17  C   LIG d   1      10.192   6.586  -7.169  0.00  0.00    -0.005 C 
ATOM     18  H   LIG d   1       9.155   6.815  -7.463  0.00  0.00     0.036 H 
ATOM     19  C   LIG d   1      11.089   6.744  -8.393  0.00  0.00     0.063 C 
ATOM     20  C   LIG d   1      11.896   5.469  -8.549  0.00  0.00     0.149 C 
ATOM     21  O   LIG d   1      13.100   5.454  -8.479  0.00  0.00    -0.296 OA
ATOM     22  C   LIG d   1      10.259   6.948  -9.661  0.00  0.00     0.097 C 
ATOM     23  C   LIG d   1       9.543   5.722 -10.190  0.00  0.00     0.033 C 
ATOM     24  H   LIG d   1       9.121   3.826  -7.929  0.00  0.00     0.032 H 
ATOM     25  H   LIG d   1      10.488   3.103  -7.083  0.00  0.00     0.032 H 
ATOM     26  H   LIG d   1       9.443   2.905  -5.754  0.00  0.00     0.042 H 
ATOM     27  H   LIG d   1      11.036   2.960  -4.953  0.00  0.00     0.042 H 
ATOM     28  H   LIG d   1       8.718   7.232  -5.016  0.00  0.00     0.028 H 
ATOM     29  H   LIG d   1       9.984   8.050  -4.068  0.00  0.00     0.028 H 
ATOM     30  H   LIG d   1      10.242   8.596  -6.416  0.00  0.00     0.027 H 
ATOM     31  H   LIG d   1      11.609   7.584  -5.873  0.00  0.00     0.027 H 
ENDROOT
BRANCH   1  32
ATOM     32  O   LIG d   1       9.363   3.321 -10.241  0.00  0.00    -0.457 OA
BRANCH  32  33
ATOM     33  C   LIG d   1       9.843   2.179 -10.771  0.00  0.00     0.335 C 
ATOM     34  O   LIG d   1      10.107   2.123 -11.956  0.00  0.00    -0.245 OA
BRANCH  33  35
ATOM     35  C   LIG d   1      10.050   1.001  -9.916  0.00  0.00     0.029 C 
ATOM     36  C   LIG d   1       9.006   0.293  -9.494  0.00  0.00    -0.077 C 
ATOM     37  H   LIG d   1       9.158  -0.572  -8.865  0.00  0.00     0.057 H 
BRANCH  36  38
ATOM     38  C   LIG d   1       7.610   0.698  -9.893  0.00  0.00    -0.046 C 
ATOM     39  H   LIG d   1       7.287   1.539  -9.281  0.00  0.00     0.027 H 
ATOM     40  H   LIG d   1       7.603   0.988 -10.945  0.00  0.00     0.027 H 
ATOM     41  H   LIG d   1       6.931  -0.142  -9.744  0.00  0.00     0.027 H 
ENDBRANCH  36  38
BRANCH  35  42
ATOM     42  C   LIG d   1      11.447   0.597  -9.517  0.00  0.00    -0.033 C 
ATOM     43  H   LIG d   1      11.400  -0.285  -8.879  0.00  0.00     0.028 H 
ATOM     44  H   LIG d   1      12.028   0.369 -10.410  0.00  0.00     0.028 H 
ATOM     45  H   LIG d   1      11.920   1.414  -8.974  0.00  0.00     0.028 H 
ENDBRANCH  35  42
ENDBRANCH  33  35
ENDBRANCH  32  33
ENDBRANCH   1  32
BRANCH  23  46
ATOM     46  C   LIG d   1       8.148   5.602  -9.564  0.00  0.00    -0.054 C 
ATOM     47  H   LIG d   1       7.988   6.429  -8.872  0.00  0.00     0.024 H 
ATOM     48  H   LIG d   1       7.393   5.634 -10.350  0.00  0.00     0.024 H 
ATOM     49  H   LIG d   1       8.071   4.657  -9.025  0.00  0.00     0.024 H 
ENDBRANCH  23  46
BRANCH  23  50
ATOM     50  C   LIG d   1       9.306   5.972 -11.706  0.00  0.00    -0.054 C 
ATOM     51  H   LIG d   1       8.299   6.360 -11.857  0.00  0.00     0.024 H 
ATOM     52  H   LIG d   1      10.033   6.695 -12.072  0.00  0.00     0.024 H 
ATOM     53  H   LIG d   1       9.419   5.035 -12.251  0.00  0.00     0.024 H 
ENDBRANCH  23  50
BRANCH  22  54
ATOM     54  C   LIG d   1      11.195   7.481 -10.764  0.00  0.00     0.075 C 
ATOM     55  H   LIG d   1      12.216   7.518 -10.387  0.00  0.00     0.041 H 
ATOM     56  H   LIG d   1      11.151   6.818 -11.630  0.00  0.00     0.041 H 
BRANCH  54  57
ATOM     57  C   LIG d   1      10.757   8.864 -11.170  0.00  0.00     0.310 C 
ATOM     58  O   LIG d   1      11.251   9.833 -10.642  0.00  0.00    -0.251 OA
BRANCH  57  59
ATOM     59  O   LIG d   1       9.820   9.022 -12.118  0.00  0.00    -0.468 OA
BRANCH  59  60
ATOM     60  C   LIG d   1      10.270   9.426 -13.413  0.00  0.00     0.082 C 
ATOM     61  H   LIG d   1      10.868   8.629 -13.855  0.00  0.00     0.066 H 
ATOM     62  H   LIG d   1       9.408   9.629 -14.049  0.00  0.00     0.066 H 
ATOM     63  H   LIG d   1      10.875  10.328 -13.323  0.00  0.00     0.066 H 
ENDBRANCH  59  60
ENDBRANCH  57  59
ENDBRANCH  54  57
ENDBRANCH  22  54
BRANCH  22  64
ATOM     64  O   LIG d   1       9.283   7.976  -9.407  0.00  0.00    -0.386 OA
ATOM     65  H   LIG d   1       8.389   7.752  -9.701  0.00  0.00     0.210 HD
ENDBRANCH  22  64
BRANCH  19  66
ATOM     66  C   LIG d   1      12.057   7.934  -8.254  0.00  0.00    -0.050 C 
ATOM     67  H   LIG d   1      12.619   8.054  -9.180  0.00  0.00     0.024 H 
ATOM     68  H   LIG d   1      11.490   8.843  -8.052  0.00  0.00     0.024 H 
ATOM     69  H   LIG d   1      12.748   7.746  -7.433  0.00  0.00     0.024 H 
ENDBRANCH  19  66
BRANCH  14  70
ATOM     70  C   LIG d   1      11.718   6.029  -3.822  0.00  0.00    -0.052 C 
ATOM     71  H   LIG d   1      11.776   5.861  -2.746  0.00  0.00     0.024 H 
ATOM     72  H   LIG d   1      12.321   5.283  -4.338  0.00  0.00     0.024 H 
ATOM     73  H   LIG d   1      12.094   7.025  -4.054  0.00  0.00     0.024 H 
ENDBRANCH  14  70
BRANCH  12  74
ATOM     74  C   LIG d   1       9.825   6.404  -1.893  0.00  0.00     0.031 A 
ATOM     75  C   LIG d   1      10.576   6.036  -0.840  0.00  0.00     0.098 A 
ATOM     76  O   LIG d   1      10.709   7.094  -0.023  0.00  0.00    -0.471 OA
ATOM     77  H   LIG d   1      11.004   5.058  -0.680  0.00  0.00     0.103 H 
ATOM     78  C   LIG d   1      10.041   8.141  -0.534  0.00  0.00     0.092 A 
ATOM     79  C   LIG d   1       9.477   7.760  -1.695  0.00  0.00    -0.017 A 
ATOM     80  H   LIG d   1       9.970   9.123  -0.090  0.00  0.00     0.103 H 
ATOM     81  H   LIG d   1       8.874   8.372  -2.349  0.00  0.00     0.065 H 
ENDBRANCH  12  74
TORSDOF 15
ENDMDL
MODEL 8
REMARK VINA RESULT:      -5.2      5.121      8.920
REMARK  15 active torsions:
REMARK  status: ('A' for Active; 'I' for Inactive)
REMARK    1  A    between atoms: C_1  and  C_2 
REMARK    2  A    between atoms: C_3  and  C_4 
REMARK    3  A    between atoms: C_3  and  C_5 
REMARK    4  A    between atoms: C_5  and  O_7 
REMARK    5  A    between atoms: O_7  and  C_8 
REMARK    6  A    between atoms: C_19  and  C_41 
REMARK    7  A    between atoms: C_21  and  C_40 
REMARK    8  A    between atoms: C_26  and  C_39 
REMARK    9  A    between atoms: C_29  and  C_33 
REMARK   10  A    between atoms: C_29  and  O_38 
REMARK   11  A    between atoms: C_30  and  C_31 
REMARK   12  A    between atoms: C_30  and  C_32 
REMARK   13  A    between atoms: C_33  and  C_34 
REMARK   14  A    between atoms: C_34  and  O_36 
REMARK   15  A    between atoms: O_36  and  C_37 
ROOT
ATOM      1  C   LIG d   1       5.966  -2.622  -6.414  0.00  0.00     0.121 C 
ATOM      2  H   LIG d   1       6.014  -1.942  -7.286  0.00  0.00     0.075 H 
ATOM      3  C   LIG d   1       7.035  -3.692  -6.591  0.00  0.00     0.059 C 
ATOM      4  H   LIG d   1       6.991  -4.098  -7.617  0.00  0.00     0.042 H 
ATOM      5  C   LIG d   1       6.851  -4.826  -5.588  0.00  0.00    -0.018 C 
ATOM      6  C   LIG d   1       7.978  -4.856  -4.573  0.00  0.00    -0.064 C 
ATOM      7  C   LIG d   1       8.430  -6.051  -4.244  0.00  0.00    -0.050 C 
ATOM      8  C   LIG d   1       7.731  -7.244  -4.863  0.00  0.00     0.067 C 
ATOM      9  C   LIG d   1       7.816  -8.430  -3.933  0.00  0.00     0.312 C 
ATOM     10  O   LIG d   1       6.884  -9.189  -3.805  0.00  0.00    -0.251 OA
ATOM     11  O   LIG d   1       8.962  -8.617  -3.248  0.00  0.00    -0.455 OA
ATOM     12  C   LIG d   1       9.375  -7.517  -2.440  0.00  0.00     0.140 C 
ATOM     13  H   LIG d   1       8.623  -7.323  -1.680  0.00  0.00     0.080 H 
ATOM     14  C   LIG d   1       9.566  -6.264  -3.290  0.00  0.00     0.031 C 
ATOM     15  C   LIG d   1       9.711  -5.055  -2.365  0.00  0.00    -0.040 C 
ATOM     16  C   LIG d   1       9.791  -3.784  -3.214  0.00  0.00    -0.045 C 
ATOM     17  C   LIG d   1       8.479  -3.584  -3.961  0.00  0.00    -0.005 C 
ATOM     18  H   LIG d   1       7.743  -3.290  -3.196  0.00  0.00     0.036 H 
ATOM     19  C   LIG d   1       8.592  -2.458  -4.984  0.00  0.00     0.063 C 
ATOM     20  C   LIG d   1       8.391  -3.058  -6.363  0.00  0.00     0.149 C 
ATOM     21  O   LIG d   1       9.249  -3.031  -7.211  0.00  0.00    -0.296 OA
ATOM     22  C   LIG d   1       7.513  -1.398  -4.756  0.00  0.00     0.097 C 
ATOM     23  C   LIG d   1       6.105  -1.788  -5.156  0.00  0.00     0.033 C 
ATOM     24  H   LIG d   1       5.891  -4.760  -5.084  0.00  0.00     0.032 H 
ATOM     25  H   LIG d   1       6.858  -5.767  -6.160  0.00  0.00     0.032 H 
ATOM     26  H   LIG d   1       6.673  -7.011  -5.014  0.00  0.00     0.042 H 
ATOM     27  H   LIG d   1       8.191  -7.489  -5.818  0.00  0.00     0.042 H 
ATOM     28  H   LIG d   1       8.849  -4.990  -1.700  0.00  0.00     0.028 H 
ATOM     29  H   LIG d   1      10.622  -5.139  -1.772  0.00  0.00     0.028 H 
ATOM     30  H   LIG d   1       9.957  -2.939  -2.542  0.00  0.00     0.027 H 
ATOM     31  H   LIG d   1      10.622  -3.885  -3.902  0.00  0.00     0.027 H 
ENDROOT
BRANCH   1  32
ATOM     32  O   LIG d   1       4.668  -3.235  -6.438  0.00  0.00    -0.457 OA
BRANCH  32  33
ATOM     33  C   LIG d   1       4.090  -3.396  -7.645  0.00  0.00     0.335 C 
ATOM     34  O   LIG d   1       3.604  -4.468  -7.948  0.00  0.00    -0.245 OA
BRANCH  33  35
ATOM     35  C   LIG d   1       4.047  -2.275  -8.594  0.00  0.00     0.029 C 
ATOM     36  C   LIG d   1       4.782  -2.311  -9.702  0.00  0.00    -0.077 C 
ATOM     37  H   LIG d   1       4.751  -1.487 -10.399  0.00  0.00     0.057 H 
BRANCH  36  38
ATOM     38  C   LIG d   1       5.661  -3.503  -9.985  0.00  0.00    -0.046 C 
ATOM     39  H   LIG d   1       5.554  -3.794 -11.029  0.00  0.00     0.027 H 
ATOM     40  H   LIG d   1       6.701  -3.244  -9.783  0.00  0.00     0.027 H 
ATOM     41  H   LIG d   1       5.363  -4.333  -9.344  0.00  0.00     0.027 H 
ENDBRANCH  36  38
BRANCH  35  42
ATOM     42  C   LIG d   1       3.168  -1.082  -8.312  0.00  0.00    -0.033 C 
ATOM     43  H   LIG d   1       2.397  -1.010  -9.078  0.00  0.00     0.028 H 
ATOM     44  H   LIG d   1       2.700  -1.199  -7.335  0.00  0.00     0.028 H 
ATOM     45  H   LIG d   1       3.774  -0.177  -8.318  0.00  0.00     0.028 H 
ENDBRANCH  35  42
ENDBRANCH  33  35
ENDBRANCH  32  33
ENDBRANCH   1  32
BRANCH  23  46
ATOM     46  C   LIG d   1       5.379  -2.458  -3.983  0.00  0.00    -0.054 C 
ATOM     47  H   LIG d   1       5.774  -3.463  -3.838  0.00  0.00     0.024 H 
ATOM     48  H   LIG d   1       5.536  -1.872  -3.076  0.00  0.00     0.024 H 
ATOM     49  H   LIG d   1       4.312  -2.513  -4.199  0.00  0.00     0.024 H 
ENDBRANCH  23  46
BRANCH  23  50
ATOM     50  C   LIG d   1       5.342  -0.460  -5.423  0.00  0.00    -0.054 C 
ATOM     51  H   LIG d   1       5.811   0.068  -6.253  0.00  0.00     0.024 H 
ATOM     52  H   LIG d   1       4.305  -0.681  -5.672  0.00  0.00     0.024 H 
ATOM     53  H   LIG d   1       5.376   0.165  -4.530  0.00  0.00     0.024 H 
ENDBRANCH  23  50
BRANCH  22  54
ATOM     54  C   LIG d   1       7.912  -0.134  -5.544  0.00  0.00     0.075 C 
ATOM     55  H   LIG d   1       8.835  -0.323  -6.091  0.00  0.00     0.041 H 
ATOM     56  H   LIG d   1       7.118   0.122  -6.247  0.00  0.00     0.041 H 
BRANCH  54  57
ATOM     57  C   LIG d   1       8.121   1.010  -4.586  0.00  0.00     0.310 C 
ATOM     58  O   LIG d   1       7.172   1.644  -4.187  0.00  0.00    -0.251 OA
BRANCH  57  59
ATOM     59  O   LIG d   1       9.359   1.325  -4.175  0.00  0.00    -0.468 OA
BRANCH  59  60
ATOM     60  C   LIG d   1       9.508   2.540  -3.437  0.00  0.00     0.082 C 
ATOM     61  H   LIG d   1      10.383   2.467  -2.790  0.00  0.00     0.066 H 
ATOM     62  H   LIG d   1       9.635   3.371  -4.130  0.00  0.00     0.066 H 
ATOM     63  H   LIG d   1       8.619   2.707  -2.829  0.00  0.00     0.066 H 
ENDBRANCH  59  60
ENDBRANCH  57  59
ENDBRANCH  54  57
ENDBRANCH  22  54
BRANCH  22  64
ATOM     64  O   LIG d   1       7.512  -1.040  -3.362  0.00  0.00    -0.386 OA
ATOM     65  H   LIG d   1       7.259  -0.122  -3.191  0.00  0.00     0.210 HD
ENDBRANCH  22  64
BRANCH  19  66
ATOM     66  C   LIG d   1       9.966  -1.765  -4.937  0.00  0.00    -0.050 C 
ATOM     67  H   LIG d   1      10.185  -1.326  -5.910  0.00  0.00     0.024 H 
ATOM     68  H   LIG d   1       9.952  -0.980  -4.179  0.00  0.00     0.024 H 
ATOM     69  H   LIG d   1      10.734  -2.496  -4.688  0.00  0.00     0.024 H 
ENDBRANCH  19  66
BRANCH  14  70
ATOM     70  C   LIG d   1      10.856  -6.444  -4.095  0.00  0.00    -0.052 C 
ATOM     71  H   LIG d   1      10.609  -6.703  -5.124  0.00  0.00     0.024 H 
ATOM     72  H   LIG d   1      11.426  -5.516  -4.081  0.00  0.00     0.024 H 
ATOM     73  H   LIG d   1      11.452  -7.243  -3.652  0.00  0.00     0.024 H 
ENDBRANCH  14  70
BRANCH  12  74
ATOM     74  C   LIG d   1      10.682  -7.871  -1.776  0.00  0.00     0.031 A 
ATOM     75  C   LIG d   1      11.043  -7.585  -0.512  0.00  0.00     0.098 A 
ATOM     76  O   LIG d   1      12.277  -8.072  -0.303  0.00  0.00    -0.471 OA
ATOM     77  H   LIG d   1      10.441  -7.057   0.212  0.00  0.00     0.103 H 
ATOM     78  C   LIG d   1      12.722  -8.662  -1.424  0.00  0.00     0.092 A 
ATOM     79  C   LIG d   1      11.766  -8.563  -2.365  0.00  0.00    -0.017 A 
ATOM     80  H   LIG d   1      13.683  -9.137  -1.549  0.00  0.00     0.103 H 
ATOM     81  H   LIG d   1      11.816  -8.939  -3.376  0.00  0.00     0.065 H 
ENDBRANCH  12  74
TORSDOF 15
ENDMDL
MODEL 9
REMARK VINA RESULT:      -5.1      5.935     10.287
REMARK  15 active torsions:
REMARK  status: ('A' for Active; 'I' for Inactive)
REMARK    1  A    between atoms: C_1  and  C_2 
REMARK    2  A    between atoms: C_3  and  C_4 
REMARK    3  A    between atoms: C_3  and  C_5 
REMARK    4  A    between atoms: C_5  and  O_7 
REMARK    5  A    between atoms: O_7  and  C_8 
REMARK    6  A    between atoms: C_19  and  C_41 
REMARK    7  A    between atoms: C_21  and  C_40 
REMARK    8  A    between atoms: C_26  and  C_39 
REMARK    9  A    between atoms: C_29  and  C_33 
REMARK   10  A    between atoms: C_29  and  O_38 
REMARK   11  A    between atoms: C_30  and  C_31 
REMARK   12  A    between atoms: C_30  and  C_32 
REMARK   13  A    between atoms: C_33  and  C_34 
REMARK   14  A    between atoms: C_34  and  O_36 
REMARK   15  A    between atoms: O_36  and  C_37 
ROOT
ATOM      1  C   LIG d   1      11.403   7.202  -5.495  0.00  0.00     0.121 C 
ATOM      2  H   LIG d   1      12.355   7.651  -5.156  0.00  0.00     0.075 H 
ATOM      3  C   LIG d   1      11.670   5.747  -5.859  0.00  0.00     0.059 C 
ATOM      4  H   LIG d   1      12.574   5.680  -6.490  0.00  0.00     0.042 H 
ATOM      5  C   LIG d   1      10.485   5.138  -6.603  0.00  0.00    -0.018 C 
ATOM      6  C   LIG d   1       9.795   4.076  -5.769  0.00  0.00    -0.064 C 
ATOM      7  C   LIG d   1       9.405   2.994  -6.416  0.00  0.00    -0.050 C 
ATOM      8  C   LIG d   1       9.630   2.971  -7.913  0.00  0.00     0.067 C 
ATOM      9  C   LIG d   1       8.575   2.122  -8.580  0.00  0.00     0.312 C 
ATOM     10  O   LIG d   1       8.097   2.442  -9.643  0.00  0.00    -0.251 OA
ATOM     11  O   LIG d   1       8.180   0.995  -7.953  0.00  0.00    -0.455 OA
ATOM     12  C   LIG d   1       7.687   1.176  -6.627  0.00  0.00     0.140 C 
ATOM     13  H   LIG d   1       6.803   1.809  -6.652  0.00  0.00     0.080 H 
ATOM     14  C   LIG d   1       8.746   1.829  -5.742  0.00  0.00     0.031 C 
ATOM     15  C   LIG d   1       8.092   2.276  -4.434  0.00  0.00    -0.040 C 
ATOM     16  C   LIG d   1       9.126   3.029  -3.592  0.00  0.00    -0.045 C 
ATOM     17  C   LIG d   1       9.540   4.306  -4.310  0.00  0.00    -0.005 C 
ATOM     18  H   LIG d   1       8.671   4.980  -4.245  0.00  0.00     0.036 H 
ATOM     19  C   LIG d   1      10.724   4.971  -3.616  0.00  0.00     0.063 C 
ATOM     20  C   LIG d   1      11.895   4.967  -4.582  0.00  0.00     0.149 C 
ATOM     21  O   LIG d   1      12.924   4.383  -4.347  0.00  0.00    -0.296 OA
ATOM     22  C   LIG d   1      10.404   6.422  -3.252  0.00  0.00     0.097 C 
ATOM     23  C   LIG d   1      10.369   7.404  -4.405  0.00  0.00     0.033 C 
ATOM     24  H   LIG d   1       9.773   5.899  -6.909  0.00  0.00     0.032 H 
ATOM     25  H   LIG d   1      10.884   4.674  -7.519  0.00  0.00     0.032 H 
ATOM     26  H   LIG d   1       9.545   3.986  -8.313  0.00  0.00     0.042 H 
ATOM     27  H   LIG d   1      10.619   2.574  -8.134  0.00  0.00     0.042 H 
ATOM     28  H   LIG d   1       7.251   2.937  -4.647  0.00  0.00     0.028 H 
ATOM     29  H   LIG d   1       7.742   1.412  -3.871  0.00  0.00     0.028 H 
ATOM     30  H   LIG d   1       8.660   3.286  -2.638  0.00  0.00     0.027 H 
ATOM     31  H   LIG d   1       9.976   2.377  -3.431  0.00  0.00     0.027 H 
ENDROOT
BRANCH   1  32
ATOM     32  O   LIG d   1      11.001   7.922  -6.671  0.00  0.00    -0.457 OA
BRANCH  32  33
ATOM     33  C   LIG d   1      11.962   8.599  -7.331  0.00  0.00     0.335 C 
ATOM     34  O   LIG d   1      12.334   8.216  -8.423  0.00  0.00    -0.245 OA
BRANCH  33  35
ATOM     35  C   LIG d   1      12.558   9.801  -6.732  0.00  0.00     0.029 C 
ATOM     36  C   LIG d   1      11.868  10.938  -6.692  0.00  0.00    -0.077 C 
ATOM     37  H   LIG d   1      12.307  11.821  -6.252  0.00  0.00     0.057 H 
BRANCH  36  38
ATOM     38  C   LIG d   1      10.473  10.993  -7.262  0.00  0.00    -0.046 C 
ATOM     39  H   LIG d   1      10.352  10.203  -8.003  0.00  0.00     0.027 H 
ATOM     40  H   LIG d   1       9.748  10.854  -6.459  0.00  0.00     0.027 H 
ATOM     41  H   LIG d   1      10.312  11.962  -7.733  0.00  0.00     0.027 H 
ENDBRANCH  36  38
BRANCH  35  42
ATOM     42  C   LIG d   1      13.953   9.746  -6.162  0.00  0.00    -0.033 C 
ATOM     43  H   LIG d   1      13.984  10.297  -5.223  0.00  0.00     0.028 H 
ATOM     44  H   LIG d   1      14.231   8.707  -5.983  0.00  0.00     0.028 H 
ATOM     45  H   LIG d   1      14.651  10.192  -6.870  0.00  0.00     0.028 H 
ENDBRANCH  35  42
ENDBRANCH  33  35
ENDBRANCH  32  33
ENDBRANCH   1  32
BRANCH  23  46
ATOM     46  C   LIG d   1       8.960   7.477  -5.005  0.00  0.00    -0.054 C 
ATOM     47  H   LIG d   1       8.289   7.966  -4.299  0.00  0.00     0.024 H 
ATOM     48  H   LIG d   1       8.990   8.048  -5.934  0.00  0.00     0.024 H 
ATOM     49  H   LIG d   1       8.599   6.469  -5.211  0.00  0.00     0.024 H 
ENDBRANCH  23  46
BRANCH  23  50
ATOM     50  C   LIG d   1      10.643   8.806  -3.795  0.00  0.00    -0.054 C 
ATOM     51  H   LIG d   1      11.106   9.445  -4.547  0.00  0.00     0.024 H 
ATOM     52  H   LIG d   1       9.705   9.250  -3.468  0.00  0.00     0.024 H 
ATOM     53  H   LIG d   1      11.314   8.707  -2.941  0.00  0.00     0.024 H 
ENDBRANCH  23  50
BRANCH  22  54
ATOM     54  C   LIG d   1      11.457   6.902  -2.234  0.00  0.00     0.075 C 
ATOM     55  H   LIG d   1      12.185   6.108  -2.062  0.00  0.00     0.041 H 
ATOM     56  H   LIG d   1      11.967   7.783  -2.625  0.00  0.00     0.041 H 
BRANCH  54  57
ATOM     57  C   LIG d   1      10.778   7.251  -0.935  0.00  0.00     0.310 C 
ATOM     58  O   LIG d   1      10.637   8.409  -0.620  0.00  0.00    -0.251 OA
BRANCH  57  59
ATOM     59  O   LIG d   1      10.330   6.277  -0.128  0.00  0.00    -0.468 OA
BRANCH  59  60
ATOM     60  C   LIG d   1      11.089   6.014   1.055  0.00  0.00     0.082 C 
ATOM     61  H   LIG d   1      12.094   6.418   0.939  0.00  0.00     0.066 H 
ATOM     62  H   LIG d   1      10.603   6.485   1.909  0.00  0.00     0.066 H 
ATOM     63  H   LIG d   1      11.145   4.937   1.218  0.00  0.00     0.066 H 
ENDBRANCH  59  60
ENDBRANCH  57  59
ENDBRANCH  54  57
ENDBRANCH  22  54
BRANCH  22  64
ATOM     64  O   LIG d   1       9.130   6.454  -2.583  0.00  0.00    -0.386 OA
ATOM     65  H   LIG d   1       8.488   5.816  -2.926  0.00  0.00     0.210 HD
ENDBRANCH  22  64
BRANCH  19  66
ATOM     66  C   LIG d   1      11.136   4.231  -2.331  0.00  0.00    -0.050 C 
ATOM     67  H   LIG d   1      10.243   3.937  -1.779  0.00  0.00     0.024 H 
ATOM     68  H   LIG d   1      11.711   3.341  -2.591  0.00  0.00     0.024 H 
ATOM     69  H   LIG d   1      11.745   4.888  -1.711  0.00  0.00     0.024 H 
ENDBRANCH  19  66
BRANCH  14  70
ATOM     70  C   LIG d   1       9.811   0.770  -5.440  0.00  0.00    -0.052 C 
ATOM     71  H   LIG d   1      10.746   1.261  -5.171  0.00  0.00     0.024 H 
ATOM     72  H   LIG d   1       9.478   0.146  -4.612  0.00  0.00     0.024 H 
ATOM     73  H   LIG d   1       9.967   0.150  -6.323  0.00  0.00     0.024 H 
ENDBRANCH  14  70
BRANCH  12  74
ATOM     74  C   LIG d   1       7.326  -0.172  -6.058  0.00  0.00     0.031 A 
ATOM     75  C   LIG d   1       7.756  -1.369  -6.497  0.00  0.00     0.098 A 
ATOM     76  O   LIG d   1       7.211  -2.324  -5.726  0.00  0.00    -0.471 OA
ATOM     77  H   LIG d   1       8.427  -1.533  -7.327  0.00  0.00     0.103 H 
ATOM     78  C   LIG d   1       6.425  -1.756  -4.797  0.00  0.00     0.092 A 
ATOM     79  C   LIG d   1       6.466  -0.422  -4.964  0.00  0.00    -0.017 A 
ATOM     80  H   LIG d   1       5.858  -2.281  -4.043  0.00  0.00     0.103 H 
ATOM     81  H   LIG d   1       5.942   0.317  -4.376  0.00  0.00     0.065 H 
ENDBRANCH  12  74
TORSDOF 15
ENDMDL
