MODEL 1
REMARK VINA RESULT:      -5.1      0.000      0.000
REMARK  10 active torsions:
REMARK  status: ('A' for Active; 'I' for Inactive)
REMARK    1  A    between atoms: C_1  and  N_2 
REMARK    2  A    between atoms: N_6  and  C_21 
REMARK    3  A    between atoms: N_9  and  C_17 
REMARK    4  A    between atoms: N_13  and  C_16 
REMARK    5  A    between atoms: C_17  and  C_18 
REMARK    6  A    between atoms: C_18  and  C_19 
REMARK    7  A    between atoms: C_19  and  N_20 
REMARK    8  A    between atoms: C_21  and  C_22 
REMARK    9  A    between atoms: C_22  and  C_23 
REMARK   10  A    between atoms: C_23  and  N_24 
ROOT
ATOM      1  N   LIG d   1       9.328   0.692  -4.667  0.00  0.00     0.234 N 
ATOM      2  C   LIG d   1       8.280  -0.324  -4.687  0.00  0.00    -0.031 C 
ATOM      3  C   LIG d   1       7.120  -0.014  -3.749  0.00  0.00     0.000 C 
ATOM      4  C   LIG d   1       6.158  -1.210  -3.736  0.00  0.00     0.004 C 
ATOM      5  N   LIG d   1       4.843  -0.754  -4.300  0.00  0.00    -0.297 N 
ATOM      6  C   LIG d   1       4.702  -1.498  -5.596  0.00  0.00     0.039 C 
ATOM      7  C   LIG d   1       3.919  -0.617  -6.568  0.00  0.00    -0.019 C 
ATOM      8  N   LIG d   1       4.530  -0.688  -7.902  0.00  0.00     0.236 N 
ATOM      9  C   LIG d   1       4.900   0.661  -8.349  0.00  0.00    -0.031 C 
ATOM     10  C   LIG d   1       6.269   0.620  -9.030  0.00  0.00     0.000 C 
ATOM     11  C   LIG d   1       7.084   1.846  -8.617  0.00  0.00     0.004 C 
ATOM     12  N   LIG d   1       8.412   1.395  -8.123  0.00  0.00    -0.300 N 
ATOM     13  C   LIG d   1       8.521   1.821  -6.701  0.00  0.00     0.039 C 
ATOM     14  C   LIG d   1       9.676   1.070  -6.046  0.00  0.00    -0.019 C 
ATOM     15  H   LIG d   1       7.897  -0.432  -5.708  0.00  0.00     0.082 H 
ATOM     16  H   LIG d   1       8.719  -1.289  -4.398  0.00  0.00     0.082 H 
ATOM     17  H   LIG d   1       7.478   0.139  -2.730  0.00  0.00     0.033 H 
ATOM     18  H   LIG d   1       6.571   0.860  -4.097  0.00  0.00     0.033 H 
ATOM     19  H   LIG d   1       6.542  -2.008  -4.357  0.00  0.00     0.043 H 
ATOM     20  H   LIG d   1       5.992  -1.542  -2.718  0.00  0.00     0.043 H 
ATOM     21  H   LIG d   1       5.693  -1.700  -5.982  0.00  0.00     0.048 H 
ATOM     22  H   LIG d   1       4.160  -2.417  -5.398  0.00  0.00     0.048 H 
ATOM     23  H   LIG d   1       2.886  -0.969  -6.627  0.00  0.00     0.083 H 
ATOM     24  H   LIG d   1       3.925   0.413  -6.216  0.00  0.00     0.083 H 
ATOM     25  H   LIG d   1       4.155   1.023  -9.058  0.00  0.00     0.082 H 
ATOM     26  H   LIG d   1       4.940   1.333  -7.494  0.00  0.00     0.082 H 
ATOM     27  H   LIG d   1       6.799  -0.285  -8.736  0.00  0.00     0.033 H 
ATOM     28  H   LIG d   1       6.134   0.624 -10.113  0.00  0.00     0.033 H 
ATOM     29  H   LIG d   1       7.234   2.498  -9.474  0.00  0.00     0.043 H 
ATOM     30  H   LIG d   1       6.578   2.381  -7.819  0.00  0.00     0.043 H 
ATOM     31  H   LIG d   1       8.710   2.893  -6.680  0.00  0.00     0.048 H 
ATOM     32  H   LIG d   1       7.582   1.590  -6.209  0.00  0.00     0.048 H 
ATOM     33  H   LIG d   1      10.564   1.704  -6.028  0.00  0.00     0.083 H 
ATOM     34  H   LIG d   1       9.896   0.166  -6.616  0.00  0.00     0.083 H 
ATOM     35  H   LIG d   1      10.162   0.289  -4.238  0.00  0.00     0.203 HD
ATOM     36  H   LIG d   1       5.353  -1.270  -7.865  0.00  0.00     0.203 HD
ENDROOT
BRANCH   8  37
ATOM     37  C   LIG d   1       3.566  -1.269  -8.848  0.00  0.00    -0.027 C 
ATOM     38  H   LIG d   1       3.965  -1.201  -9.861  0.00  0.00     0.082 H 
ATOM     39  H   LIG d   1       3.393  -2.314  -8.595  0.00  0.00     0.082 H 
BRANCH  37  40
ATOM     40  C   LIG d   1       2.246  -0.499  -8.769  0.00  0.00     0.028 C 
ATOM     41  H   LIG d   1       1.655  -0.877  -7.935  0.00  0.00     0.037 H 
ATOM     42  H   LIG d   1       2.452   0.560  -8.617  0.00  0.00     0.037 H 
BRANCH  40  43
ATOM     43  C   LIG d   1       1.468  -0.685 -10.073  0.00  0.00    -0.030 C 
ATOM     44  H   LIG d   1       0.588  -0.043 -10.065  0.00  0.00     0.082 H 
ATOM     45  H   LIG d   1       2.104  -0.418 -10.918  0.00  0.00     0.082 H 
BRANCH  43  46
ATOM     46  N   LIG d   1       1.052  -2.088 -10.198  0.00  0.00     0.219 N 
ATOM     47  H   LIG d   1       1.611  -2.661  -9.584  0.00  0.00     0.199 HD
ATOM     48  H   LIG d   1       0.079  -2.175  -9.945  0.00  0.00     0.199 HD
ATOM     49  H   LIG d   1       1.179  -2.393 -11.151  0.00  0.00     0.199 HD
ENDBRANCH  43  46
ENDBRANCH  40  43
ENDBRANCH  37  40
ENDBRANCH   8  37
BRANCH   5  50
ATOM     50  C   LIG d   1       3.814  -1.381  -3.396  0.00  0.00     0.004 C 
ATOM     51  H   LIG d   1       3.268  -2.148  -3.945  0.00  0.00     0.043 H 
ATOM     52  H   LIG d   1       4.312  -1.834  -2.538  0.00  0.00     0.043 H 
BRANCH  50  53
ATOM     53  C   LIG d   1       2.838  -0.306  -2.913  0.00  0.00     0.000 C 
ATOM     54  H   LIG d   1       2.212   0.014  -3.744  0.00  0.00     0.033 H 
ATOM     55  H   LIG d   1       2.211  -0.714  -2.120  0.00  0.00     0.033 H 
BRANCH  53  56
ATOM     56  C   LIG d   1       3.626   0.891  -2.375  0.00  0.00    -0.034 C 
ATOM     57  H   LIG d   1       3.216   1.192  -1.411  0.00  0.00     0.081 H 
ATOM     58  H   LIG d   1       4.672   0.613  -2.255  0.00  0.00     0.081 H 
BRANCH  56  59
ATOM     59  N   LIG d   1       3.520   2.010  -3.321  0.00  0.00     0.219 N 
ATOM     60  H   LIG d   1       4.356   2.054  -3.884  0.00  0.00     0.199 HD
ATOM     61  H   LIG d   1       2.719   1.870  -3.920  0.00  0.00     0.199 HD
ATOM     62  H   LIG d   1       3.413   2.873  -2.811  0.00  0.00     0.199 HD
ENDBRANCH  56  59
ENDBRANCH  53  56
ENDBRANCH  50  53
ENDBRANCH   5  50
BRANCH  12  63
ATOM     63  C   LIG d   1       9.444   2.140  -8.893  0.00  0.00    -0.013 C 
ATOM     64  H   LIG d   1       9.879   1.484  -9.648  0.00  0.00     0.039 H 
ATOM     65  H   LIG d   1       8.983   2.999  -9.382  0.00  0.00     0.039 H 
ATOM     66  H   LIG d   1      10.227   2.483  -8.217  0.00  0.00     0.039 H 
ENDBRANCH  12  63
BRANCH   1  67
ATOM     67  C   LIG d   1       8.957   1.885  -3.904  0.00  0.00    -0.043 C 
ATOM     68  H   LIG d   1       7.976   2.234  -4.230  0.00  0.00     0.078 H 
ATOM     69  H   LIG d   1       8.921   1.641  -2.843  0.00  0.00     0.078 H 
ATOM     70  H   LIG d   1       9.696   2.669  -4.073  0.00  0.00     0.078 H 
ENDBRANCH   1  67
TORSDOF 10
ENDMDL
MODEL 2
REMARK VINA RESULT:      -4.8      1.784      5.299
REMARK  10 active torsions:
REMARK  status: ('A' for Active; 'I' for Inactive)
REMARK    1  A    between atoms: C_1  and  N_2 
REMARK    2  A    between atoms: N_6  and  C_21 
REMARK    3  A    between atoms: N_9  and  C_17 
REMARK    4  A    between atoms: N_13  and  C_16 
REMARK    5  A    between atoms: C_17  and  C_18 
REMARK    6  A    between atoms: C_18  and  C_19 
REMARK    7  A    between atoms: C_19  and  N_20 
REMARK    8  A    between atoms: C_21  and  C_22 
REMARK    9  A    between atoms: C_22  and  C_23 
REMARK   10  A    between atoms: C_23  and  N_24 
ROOT
ATOM      1  N   LIG d   1       7.575   1.907  -8.985  0.00  0.00     0.234 N 
ATOM      2  C   LIG d   1       6.329   1.289  -8.540  0.00  0.00    -0.031 C 
ATOM      3  C   LIG d   1       6.198  -0.172  -8.953  0.00  0.00     0.000 C 
ATOM      4  C   LIG d   1       4.800  -0.674  -8.569  0.00  0.00     0.004 C 
ATOM      5  N   LIG d   1       4.961  -1.758  -7.543  0.00  0.00    -0.297 N 
ATOM      6  C   LIG d   1       4.381  -1.184  -6.284  0.00  0.00     0.039 C 
ATOM      7  C   LIG d   1       5.141  -1.773  -5.097  0.00  0.00    -0.019 C 
ATOM      8  N   LIG d   1       5.407  -0.720  -4.107  0.00  0.00     0.236 N 
ATOM      9  C   LIG d   1       6.852  -0.624  -3.863  0.00  0.00    -0.031 C 
ATOM     10  C   LIG d   1       7.262   0.847  -3.772  0.00  0.00     0.000 C 
ATOM     11  C   LIG d   1       8.595   1.053  -4.490  0.00  0.00     0.004 C 
ATOM     12  N   LIG d   1       8.451   2.173  -5.458  0.00  0.00    -0.300 N 
ATOM     13  C   LIG d   1       8.704   1.618  -6.816  0.00  0.00     0.039 C 
ATOM     14  C   LIG d   1       8.206   2.614  -7.859  0.00  0.00    -0.019 C 
ATOM     15  H   LIG d   1       6.257   1.361  -7.449  0.00  0.00     0.082 H 
ATOM     16  H   LIG d   1       5.486   1.852  -8.962  0.00  0.00     0.082 H 
ATOM     17  H   LIG d   1       6.307  -0.278 -10.033  0.00  0.00     0.033 H 
ATOM     18  H   LIG d   1       6.934  -0.783  -8.432  0.00  0.00     0.033 H 
ATOM     19  H   LIG d   1       4.219   0.129  -8.136  0.00  0.00     0.043 H 
ATOM     20  H   LIG d   1       4.307  -1.099  -9.435  0.00  0.00     0.043 H 
ATOM     21  H   LIG d   1       4.498  -0.109  -6.313  0.00  0.00     0.048 H 
ATOM     22  H   LIG d   1       3.334  -1.466  -6.239  0.00  0.00     0.048 H 
ATOM     23  H   LIG d   1       4.540  -2.558  -4.632  0.00  0.00     0.083 H 
ATOM     24  H   LIG d   1       6.082  -2.201  -5.440  0.00  0.00     0.083 H 
ATOM     25  H   LIG d   1       7.093  -1.125  -2.924  0.00  0.00     0.082 H 
ATOM     26  H   LIG d   1       7.395  -1.102  -4.676  0.00  0.00     0.082 H 
ATOM     27  H   LIG d   1       6.498   1.471  -4.235  0.00  0.00     0.033 H 
ATOM     28  H   LIG d   1       7.370   1.128  -2.722  0.00  0.00     0.033 H 
ATOM     29  H   LIG d   1       9.369   1.311  -3.772  0.00  0.00     0.043 H 
ATOM     30  H   LIG d   1       8.870   0.154  -5.035  0.00  0.00     0.043 H 
ATOM     31  H   LIG d   1       9.775   1.462  -6.927  0.00  0.00     0.048 H 
ATOM     32  H   LIG d   1       8.171   0.675  -6.897  0.00  0.00     0.048 H 
ATOM     33  H   LIG d   1       9.043   3.204  -8.233  0.00  0.00     0.083 H 
ATOM     34  H   LIG d   1       7.473   3.284  -7.406  0.00  0.00     0.083 H 
ATOM     35  H   LIG d   1       7.354   2.602  -9.700  0.00  0.00     0.203 HD
ATOM     36  H   LIG d   1       5.063   0.162  -4.454  0.00  0.00     0.203 HD
ENDROOT
BRANCH   8  37
ATOM     37  C   LIG d   1       4.720  -1.049  -2.850  0.00  0.00    -0.027 C 
ATOM     38  H   LIG d   1       4.455  -2.106  -2.846  0.00  0.00     0.082 H 
ATOM     39  H   LIG d   1       5.379  -0.836  -2.009  0.00  0.00     0.082 H 
BRANCH  37  40
ATOM     40  C   LIG d   1       3.449  -0.206  -2.728  0.00  0.00     0.028 C 
ATOM     41  H   LIG d   1       2.948  -0.161  -3.696  0.00  0.00     0.037 H 
ATOM     42  H   LIG d   1       2.782  -0.658  -1.995  0.00  0.00     0.037 H 
BRANCH  40  43
ATOM     43  C   LIG d   1       3.817   1.210  -2.279  0.00  0.00    -0.030 C 
ATOM     44  H   LIG d   1       3.196   1.494  -1.430  0.00  0.00     0.082 H 
ATOM     45  H   LIG d   1       4.867   1.237  -1.986  0.00  0.00     0.082 H 
BRANCH  43  46
ATOM     46  N   LIG d   1       3.594   2.149  -3.387  0.00  0.00     0.219 N 
ATOM     47  H   LIG d   1       3.364   3.058  -3.016  0.00  0.00     0.199 HD
ATOM     48  H   LIG d   1       4.431   2.215  -3.945  0.00  0.00     0.199 HD
ATOM     49  H   LIG d   1       2.833   1.817  -3.960  0.00  0.00     0.199 HD
ENDBRANCH  43  46
ENDBRANCH  40  43
ENDBRANCH  37  40
ENDBRANCH   8  37
BRANCH   5  50
ATOM     50  C   LIG d   1       3.974  -2.815  -7.962  0.00  0.00     0.004 C 
ATOM     51  H   LIG d   1       3.239  -2.959  -7.170  0.00  0.00     0.043 H 
ATOM     52  H   LIG d   1       3.468  -2.499  -8.874  0.00  0.00     0.043 H 
BRANCH  50  53
ATOM     53  C   LIG d   1       4.713  -4.130  -8.216  0.00  0.00     0.000 C 
ATOM     54  H   LIG d   1       4.783  -4.306  -9.288  0.00  0.00     0.033 H 
ATOM     55  H   LIG d   1       5.715  -4.072  -7.790  0.00  0.00     0.033 H 
BRANCH  53  56
ATOM     56  C   LIG d   1       3.947  -5.280  -7.558  0.00  0.00    -0.034 C 
ATOM     57  H   LIG d   1       3.109  -5.568  -8.193  0.00  0.00     0.081 H 
ATOM     58  H   LIG d   1       4.613  -6.132  -7.426  0.00  0.00     0.081 H 
BRANCH  56  59
ATOM     59  N   LIG d   1       3.441  -4.845  -6.249  0.00  0.00     0.219 N 
ATOM     60  H   LIG d   1       3.826  -5.434  -5.527  0.00  0.00     0.199 HD
ATOM     61  H   LIG d   1       3.715  -3.888  -6.084  0.00  0.00     0.199 HD
ATOM     62  H   LIG d   1       2.435  -4.914  -6.237  0.00  0.00     0.199 HD
ENDBRANCH  56  59
ENDBRANCH  53  56
ENDBRANCH  50  53
ENDBRANCH   5  50
BRANCH  12  63
ATOM     63  C   LIG d   1       9.535   3.149  -5.165  0.00  0.00    -0.013 C 
ATOM     64  H   LIG d   1       9.179   3.881  -4.441  0.00  0.00     0.039 H 
ATOM     65  H   LIG d   1      10.397   2.622  -4.755  0.00  0.00     0.039 H 
ATOM     66  H   LIG d   1       9.824   3.658  -6.084  0.00  0.00     0.039 H 
ENDBRANCH  12  63
BRANCH   1  67
ATOM     67  C   LIG d   1       8.519   0.948  -9.560  0.00  0.00    -0.043 C 
ATOM     68  H   LIG d   1       8.223   0.717 -10.584  0.00  0.00     0.078 H 
ATOM     69  H   LIG d   1       9.519   1.379  -9.560  0.00  0.00     0.078 H 
ATOM     70  H   LIG d   1       8.516   0.034  -8.966  0.00  0.00     0.078 H 
ENDBRANCH   1  67
TORSDOF 10
ENDMDL
MODEL 3
REMARK VINA RESULT:      -4.8      0.975      5.456
REMARK  10 active torsions:
REMARK  status: ('A' for Active; 'I' for Inactive)
REMARK    1  A    between atoms: C_1  and  N_2 
REMARK    2  A    between atoms: N_6  and  C_21 
REMARK    3  A    between atoms: N_9  and  C_17 
REMARK    4  A    between atoms: N_13  and  C_16 
REMARK    5  A    between atoms: C_17  and  C_18 
REMARK    6  A    between atoms: C_18  and  C_19 
REMARK    7  A    between atoms: C_19  and  N_20 
REMARK    8  A    between atoms: C_21  and  C_22 
REMARK    9  A    between atoms: C_22  and  C_23 
REMARK   10  A    between atoms: C_23  and  N_24 
ROOT
ATOM      1  N   LIG d   1       7.887   2.187  -9.128  0.00  0.00     0.234 N 
ATOM      2  C   LIG d   1       6.508   1.846  -8.789  0.00  0.00    -0.031 C 
ATOM      3  C   LIG d   1       6.027   0.555  -9.441  0.00  0.00     0.000 C 
ATOM      4  C   LIG d   1       4.534   0.374  -9.143  0.00  0.00     0.004 C 
ATOM      5  N   LIG d   1       4.372  -0.867  -8.313  0.00  0.00    -0.297 N 
ATOM      6  C   LIG d   1       3.906  -0.376  -6.974  0.00  0.00     0.039 C 
ATOM      7  C   LIG d   1       4.443  -1.326  -5.904  0.00  0.00    -0.019 C 
ATOM      8  N   LIG d   1       4.928  -0.552  -4.753  0.00  0.00     0.236 N 
ATOM      9  C   LIG d   1       6.339  -0.872  -4.500  0.00  0.00    -0.031 C 
ATOM     10  C   LIG d   1       7.105   0.409  -4.165  0.00  0.00     0.000 C 
ATOM     11  C   LIG d   1       8.475   0.380  -4.843  0.00  0.00     0.004 C 
ATOM     12  N   LIG d   1       8.659   1.640  -5.609  0.00  0.00    -0.300 N 
ATOM     13  C   LIG d   1       8.817   1.268  -7.041  0.00  0.00     0.039 C 
ATOM     14  C   LIG d   1       8.631   2.514  -7.901  0.00  0.00    -0.019 C 
ATOM     15  H   LIG d   1       6.413   1.756  -7.702  0.00  0.00     0.082 H 
ATOM     16  H   LIG d   1       5.853   2.668  -9.109  0.00  0.00     0.082 H 
ATOM     17  H   LIG d   1       6.150   0.602 -10.524  0.00  0.00     0.033 H 
ATOM     18  H   LIG d   1       6.562  -0.301  -9.032  0.00  0.00     0.033 H 
ATOM     19  H   LIG d   1       4.158   1.218  -8.579  0.00  0.00     0.043 H 
ATOM     20  H   LIG d   1       3.984   0.236 -10.066  0.00  0.00     0.043 H 
ATOM     21  H   LIG d   1       4.294   0.623  -6.823  0.00  0.00     0.048 H 
ATOM     22  H   LIG d   1       2.821  -0.383  -6.973  0.00  0.00     0.048 H 
ATOM     23  H   LIG d   1       3.644  -1.994  -5.576  0.00  0.00     0.083 H 
ATOM     24  H   LIG d   1       5.258  -1.919  -6.317  0.00  0.00     0.083 H 
ATOM     25  H   LIG d   1       6.407  -1.563  -3.659  0.00  0.00     0.082 H 
ATOM     26  H   LIG d   1       6.775  -1.335  -5.384  0.00  0.00     0.082 H 
ATOM     27  H   LIG d   1       6.545   1.275  -4.515  0.00  0.00     0.033 H 
ATOM     28  H   LIG d   1       7.238   0.478  -3.084  0.00  0.00     0.033 H 
ATOM     29  H   LIG d   1       9.259   0.310  -4.094  0.00  0.00     0.043 H 
ATOM     30  H   LIG d   1       8.534  -0.458  -5.532  0.00  0.00     0.043 H 
ATOM     31  H   LIG d   1       9.817   0.862  -7.180  0.00  0.00     0.048 H 
ATOM     32  H   LIG d   1       8.066   0.520  -7.278  0.00  0.00     0.048 H 
ATOM     33  H   LIG d   1       9.605   2.922  -8.174  0.00  0.00     0.083 H 
ATOM     34  H   LIG d   1       8.074   3.267  -7.341  0.00  0.00     0.083 H 
ATOM     35  H   LIG d   1       7.879   3.022  -9.716  0.00  0.00     0.203 HD
ATOM     36  H   LIG d   1       4.834   0.434  -4.946  0.00  0.00     0.203 HD
ENDROOT
BRANCH   8  37
ATOM     37  C   LIG d   1       4.130  -0.893  -3.567  0.00  0.00    -0.027 C 
ATOM     38  H   LIG d   1       3.632  -1.849  -3.726  0.00  0.00     0.082 H 
ATOM     39  H   LIG d   1       4.783  -0.964  -2.698  0.00  0.00     0.082 H 
BRANCH  37  40
ATOM     40  C   LIG d   1       3.080   0.194  -3.329  0.00  0.00     0.028 C 
ATOM     41  H   LIG d   1       2.658   0.506  -4.285  0.00  0.00     0.037 H 
ATOM     42  H   LIG d   1       2.287  -0.199  -2.693  0.00  0.00     0.037 H 
BRANCH  40  43
ATOM     43  C   LIG d   1       3.735   1.396  -2.645  0.00  0.00    -0.030 C 
ATOM     44  H   LIG d   1       4.344   1.938  -3.368  0.00  0.00     0.082 H 
ATOM     45  H   LIG d   1       2.961   2.057  -2.253  0.00  0.00     0.082 H 
BRANCH  43  46
ATOM     46  N   LIG d   1       4.583   0.927  -1.541  0.00  0.00     0.219 N 
ATOM     47  H   LIG d   1       5.075   1.711  -1.138  0.00  0.00     0.199 HD
ATOM     48  H   LIG d   1       4.008   0.492  -0.835  0.00  0.00     0.199 HD
ATOM     49  H   LIG d   1       5.250   0.257  -1.891  0.00  0.00     0.199 HD
ENDBRANCH  43  46
ENDBRANCH  40  43
ENDBRANCH  37  40
ENDBRANCH   8  37
BRANCH   5  50
ATOM     50  C   LIG d   1       3.166  -1.552  -8.900  0.00  0.00     0.004 C 
ATOM     51  H   LIG d   1       3.449  -2.052  -9.826  0.00  0.00     0.043 H 
ATOM     52  H   LIG d   1       2.785  -2.287  -8.192  0.00  0.00     0.043 H 
BRANCH  50  53
ATOM     53  C   LIG d   1       2.082  -0.512  -9.192  0.00  0.00     0.000 C 
ATOM     54  H   LIG d   1       1.392  -0.462  -8.351  0.00  0.00     0.033 H 
ATOM     55  H   LIG d   1       2.545   0.463  -9.343  0.00  0.00     0.033 H 
BRANCH  53  56
ATOM     56  C   LIG d   1       1.318  -0.916 -10.455  0.00  0.00    -0.034 C 
ATOM     57  H   LIG d   1       0.450  -0.267 -10.577  0.00  0.00     0.081 H 
ATOM     58  H   LIG d   1       1.971  -0.816 -11.322  0.00  0.00     0.081 H 
BRANCH  56  59
ATOM     59  N   LIG d   1       0.873  -2.310 -10.334  0.00  0.00     0.219 N 
ATOM     60  H   LIG d   1       1.079  -2.805 -11.188  0.00  0.00     0.199 HD
ATOM     61  H   LIG d   1       1.357  -2.751  -9.565  0.00  0.00     0.199 HD
ATOM     62  H   LIG d   1      -0.121  -2.333 -10.163  0.00  0.00     0.199 HD
ENDBRANCH  56  59
ENDBRANCH  53  56
ENDBRANCH  50  53
ENDBRANCH   5  50
BRANCH  12  63
ATOM     63  C   LIG d   1       9.943   2.244  -5.160  0.00  0.00    -0.013 C 
ATOM     64  H   LIG d   1      10.741   1.507  -5.246  0.00  0.00     0.039 H 
ATOM     65  H   LIG d   1      10.177   3.106  -5.786  0.00  0.00     0.039 H 
ATOM     66  H   LIG d   1       9.853   2.562  -4.122  0.00  0.00     0.039 H 
ENDBRANCH  12  63
BRANCH   1  67
ATOM     67  C   LIG d   1       8.579   1.124  -9.859  0.00  0.00    -0.043 C 
ATOM     68  H   LIG d   1       9.567   0.969  -9.425  0.00  0.00     0.078 H 
ATOM     69  H   LIG d   1       8.003   0.202  -9.789  0.00  0.00     0.078 H 
ATOM     70  H   LIG d   1       8.682   1.410 -10.906  0.00  0.00     0.078 H 
ENDBRANCH   1  67
TORSDOF 10
ENDMDL
MODEL 4
REMARK VINA RESULT:      -4.8      6.473      9.770
REMARK  10 active torsions:
REMARK  status: ('A' for Active; 'I' for Inactive)
REMARK    1  A    between atoms: C_1  and  N_2 
REMARK    2  A    between atoms: N_6  and  C_21 
REMARK    3  A    between atoms: N_9  and  C_17 
REMARK    4  A    between atoms: N_13  and  C_16 
REMARK    5  A    between atoms: C_17  and  C_18 
REMARK    6  A    between atoms: C_18  and  C_19 
REMARK    7  A    between atoms: C_19  and  N_20 
REMARK    8  A    between atoms: C_21  and  C_22 
REMARK    9  A    between atoms: C_22  and  C_23 
REMARK   10  A    between atoms: C_23  and  N_24 
ROOT
ATOM      1  N   LIG d   1      10.022   3.246  -5.710  0.00  0.00     0.234 N 
ATOM      2  C   LIG d   1       9.677   4.192  -4.652  0.00  0.00    -0.031 C 
ATOM      3  C   LIG d   1      10.844   4.515  -3.726  0.00  0.00     0.000 C 
ATOM      4  C   LIG d   1      10.336   5.391  -2.574  0.00  0.00     0.004 C 
ATOM      5  N   LIG d   1      11.018   6.725  -2.669  0.00  0.00    -0.297 N 
ATOM      6  C   LIG d   1       9.925   7.693  -3.013  0.00  0.00     0.039 C 
ATOM      7  C   LIG d   1      10.525   8.808  -3.867  0.00  0.00    -0.019 C 
ATOM      8  N   LIG d   1       9.611   9.135  -4.970  0.00  0.00     0.236 N 
ATOM      9  C   LIG d   1      10.306   8.972  -6.254  0.00  0.00    -0.031 C 
ATOM     10  C   LIG d   1       9.372   8.302  -7.263  0.00  0.00     0.000 C 
ATOM     11  C   LIG d   1      10.156   7.282  -8.089  0.00  0.00     0.004 C 
ATOM     12  N   LIG d   1       9.441   5.979  -8.048  0.00  0.00    -0.300 N 
ATOM     13  C   LIG d   1      10.357   4.993  -7.412  0.00  0.00     0.039 C 
ATOM     14  C   LIG d   1       9.554   3.761  -7.006  0.00  0.00    -0.019 C 
ATOM     15  H   LIG d   1       9.308   5.121  -5.101  0.00  0.00     0.082 H 
ATOM     16  H   LIG d   1       8.858   3.769  -4.054  0.00  0.00     0.082 H 
ATOM     17  H   LIG d   1      11.258   3.602  -3.296  0.00  0.00     0.033 H 
ATOM     18  H   LIG d   1      11.614   5.069  -4.262  0.00  0.00     0.033 H 
ATOM     19  H   LIG d   1       9.268   5.542  -2.659  0.00  0.00     0.043 H 
ATOM     20  H   LIG d   1      10.600   4.944  -1.623  0.00  0.00     0.043 H 
ATOM     21  H   LIG d   1       9.161   7.162  -3.566  0.00  0.00     0.048 H 
ATOM     22  H   LIG d   1       9.531   8.098  -2.086  0.00  0.00     0.048 H 
ATOM     23  H   LIG d   1      10.676   9.698  -3.251  0.00  0.00     0.083 H 
ATOM     24  H   LIG d   1      11.485   8.486  -4.269  0.00  0.00     0.083 H 
ATOM     25  H   LIG d   1      10.601   9.952  -6.631  0.00  0.00     0.082 H 
ATOM     26  H   LIG d   1      11.193   8.357  -6.116  0.00  0.00     0.082 H 
ATOM     27  H   LIG d   1       8.562   7.798  -6.736  0.00  0.00     0.033 H 
ATOM     28  H   LIG d   1       8.954   9.060  -7.927  0.00  0.00     0.033 H 
ATOM     29  H   LIG d   1      10.221   7.612  -9.122  0.00  0.00     0.043 H 
ATOM     30  H   LIG d   1      11.150   7.148  -7.672  0.00  0.00     0.043 H 
ATOM     31  H   LIG d   1      11.121   4.721  -8.137  0.00  0.00     0.048 H 
ATOM     32  H   LIG d   1      10.806   5.465  -6.543  0.00  0.00     0.048 H 
ATOM     33  H   LIG d   1       9.668   2.982  -7.761  0.00  0.00     0.083 H 
ATOM     34  H   LIG d   1       8.497   4.023  -6.922  0.00  0.00     0.083 H 
ATOM     35  H   LIG d   1       9.531   2.368  -5.531  0.00  0.00     0.203 HD
ATOM     36  H   LIG d   1       8.811   8.521  -4.938  0.00  0.00     0.203 HD
ENDROOT
BRANCH   8  37
ATOM     37  C   LIG d   1       9.160  10.527  -4.832  0.00  0.00    -0.027 C 
ATOM     38  H   LIG d   1       9.221  11.026  -5.799  0.00  0.00     0.082 H 
ATOM     39  H   LIG d   1       8.129  10.542  -4.480  0.00  0.00     0.082 H 
BRANCH  37  40
ATOM     40  C   LIG d   1      10.053  11.255  -3.825  0.00  0.00     0.028 C 
ATOM     41  H   LIG d   1      10.628  10.525  -3.256  0.00  0.00     0.037 H 
ATOM     42  H   LIG d   1      10.734  11.918  -4.357  0.00  0.00     0.037 H 
BRANCH  40  43
ATOM     43  C   LIG d   1       9.183  12.076  -2.871  0.00  0.00    -0.030 C 
ATOM     44  H   LIG d   1       9.595  12.019  -1.864  0.00  0.00     0.082 H 
ATOM     45  H   LIG d   1       9.165  13.116  -3.199  0.00  0.00     0.082 H 
BRANCH  43  46
ATOM     46  N   LIG d   1       7.815  11.539  -2.872  0.00  0.00     0.219 N 
ATOM     47  H   LIG d   1       7.458  11.528  -3.816  0.00  0.00     0.199 HD
ATOM     48  H   LIG d   1       7.822  10.600  -2.505  0.00  0.00     0.199 HD
ATOM     49  H   LIG d   1       7.225  12.121  -2.297  0.00  0.00     0.199 HD
ENDBRANCH  43  46
ENDBRANCH  40  43
ENDBRANCH  37  40
ENDBRANCH   8  37
BRANCH   5  50
ATOM     50  C   LIG d   1      11.379   7.060  -1.246  0.00  0.00     0.004 C 
ATOM     51  H   LIG d   1      12.439   6.861  -1.084  0.00  0.00     0.043 H 
ATOM     52  H   LIG d   1      11.174   8.113  -1.057  0.00  0.00     0.043 H 
BRANCH  50  53
ATOM     53  C   LIG d   1      10.548   6.198  -0.294  0.00  0.00     0.000 C 
ATOM     54  H   LIG d   1       9.530   6.584  -0.249  0.00  0.00     0.033 H 
ATOM     55  H   LIG d   1      10.532   5.170  -0.655  0.00  0.00     0.033 H 
BRANCH  53  56
ATOM     56  C   LIG d   1      11.171   6.238   1.104  0.00  0.00    -0.034 C 
ATOM     57  H   LIG d   1      12.257   6.233   1.018  0.00  0.00     0.081 H 
ATOM     58  H   LIG d   1      10.851   7.144   1.618  0.00  0.00     0.081 H 
BRANCH  56  59
ATOM     59  N   LIG d   1      10.735   5.061   1.867  0.00  0.00     0.219 N 
ATOM     60  H   LIG d   1      11.537   4.615   2.285  0.00  0.00     0.199 HD
ATOM     61  H   LIG d   1      10.095   5.349   2.593  0.00  0.00     0.199 HD
ATOM     62  H   LIG d   1      10.273   4.411   1.249  0.00  0.00     0.199 HD
ENDBRANCH  56  59
ENDBRANCH  53  56
ENDBRANCH  50  53
ENDBRANCH   5  50
BRANCH  12  63
ATOM     63  C   LIG d   1       9.230   5.549  -9.457  0.00  0.00    -0.013 C 
ATOM     64  H   LIG d   1      10.037   4.880  -9.757  0.00  0.00     0.039 H 
ATOM     65  H   LIG d   1       8.276   5.027  -9.537  0.00  0.00     0.039 H 
ATOM     66  H   LIG d   1       9.223   6.423 -10.107  0.00  0.00     0.039 H 
ENDBRANCH  12  63
BRANCH   1  67
ATOM     67  C   LIG d   1      11.455   2.958  -5.778  0.00  0.00    -0.043 C 
ATOM     68  H   LIG d   1      11.972   3.497  -4.983  0.00  0.00     0.078 H 
ATOM     69  H   LIG d   1      11.617   1.888  -5.656  0.00  0.00     0.078 H 
ATOM     70  H   LIG d   1      11.844   3.277  -6.746  0.00  0.00     0.078 H 
ENDBRANCH   1  67
TORSDOF 10
ENDMDL
MODEL 5
REMARK VINA RESULT:      -4.8      2.907      7.194
REMARK  10 active torsions:
REMARK  status: ('A' for Active; 'I' for Inactive)
REMARK    1  A    between atoms: C_1  and  N_2 
REMARK    2  A    between atoms: N_6  and  C_21 
REMARK    3  A    between atoms: N_9  and  C_17 
REMARK    4  A    between atoms: N_13  and  C_16 
REMARK    5  A    between atoms: C_17  and  C_18 
REMARK    6  A    between atoms: C_18  and  C_19 
REMARK    7  A    between atoms: C_19  and  N_20 
REMARK    8  A    between atoms: C_21  and  C_22 
REMARK    9  A    between atoms: C_22  and  C_23 
REMARK   10  A    between atoms: C_23  and  N_24 
ROOT
ATOM      1  N   LIG d   1       3.831  -4.755  -9.937  0.00  0.00     0.234 N 
ATOM      2  C   LIG d   1       4.243  -3.397  -9.595  0.00  0.00    -0.031 C 
ATOM      3  C   LIG d   1       3.074  -2.431  -9.441  0.00  0.00     0.000 C 
ATOM      4  C   LIG d   1       3.624  -1.014  -9.234  0.00  0.00     0.004 C 
ATOM      5  N   LIG d   1       3.212  -0.552  -7.866  0.00  0.00    -0.297 N 
ATOM      6  C   LIG d   1       4.494  -0.452  -7.092  0.00  0.00     0.039 C 
ATOM      7  C   LIG d   1       4.193  -0.769  -5.628  0.00  0.00    -0.019 C 
ATOM      8  N   LIG d   1       5.252  -1.628  -5.080  0.00  0.00     0.236 N 
ATOM      9  C   LIG d   1       4.664  -2.869  -4.560  0.00  0.00    -0.031 C 
ATOM     10  C   LIG d   1       5.548  -4.057  -4.941  0.00  0.00     0.000 C 
ATOM     11  C   LIG d   1       4.671  -5.240  -5.351  0.00  0.00     0.004 C 
ATOM     12  N   LIG d   1       5.125  -5.738  -6.676  0.00  0.00    -0.300 N 
ATOM     13  C   LIG d   1       3.987  -5.579  -7.622  0.00  0.00     0.039 C 
ATOM     14  C   LIG d   1       4.506  -5.715  -9.050  0.00  0.00    -0.019 C 
ATOM     15  H   LIG d   1       4.818  -3.415  -8.663  0.00  0.00     0.082 H 
ATOM     16  H   LIG d   1       4.909  -3.022 -10.384  0.00  0.00     0.082 H 
ATOM     17  H   LIG d   1       2.460  -2.424 -10.342  0.00  0.00     0.033 H 
ATOM     18  H   LIG d   1       2.474  -2.694  -8.571  0.00  0.00     0.033 H 
ATOM     19  H   LIG d   1       4.704  -1.019  -9.286  0.00  0.00     0.043 H 
ATOM     20  H   LIG d   1       3.193  -0.338  -9.962  0.00  0.00     0.043 H 
ATOM     21  H   LIG d   1       5.195  -1.169  -7.499  0.00  0.00     0.048 H 
ATOM     22  H   LIG d   1       4.866   0.563  -7.189  0.00  0.00     0.048 H 
ATOM     23  H   LIG d   1       4.152   0.160  -5.055  0.00  0.00     0.083 H 
ATOM     24  H   LIG d   1       3.233  -1.278  -5.553  0.00  0.00     0.083 H 
ATOM     25  H   LIG d   1       4.592  -2.806  -3.473  0.00  0.00     0.082 H 
ATOM     26  H   LIG d   1       3.669  -3.008  -4.980  0.00  0.00     0.082 H 
ATOM     27  H   LIG d   1       6.198  -3.781  -5.771  0.00  0.00     0.033 H 
ATOM     28  H   LIG d   1       6.161  -4.342  -4.083  0.00  0.00     0.033 H 
ATOM     29  H   LIG d   1       4.766  -6.043  -4.625  0.00  0.00     0.043 H 
ATOM     30  H   LIG d   1       3.634  -4.926  -5.434  0.00  0.00     0.043 H 
ATOM     31  H   LIG d   1       3.257  -6.358  -7.412  0.00  0.00     0.048 H 
ATOM     32  H   LIG d   1       3.553  -4.597  -7.461  0.00  0.00     0.048 H 
ATOM     33  H   LIG d   1       4.322  -6.727  -9.414  0.00  0.00     0.083 H 
ATOM     34  H   LIG d   1       5.580  -5.520  -9.070  0.00  0.00     0.083 H 
ATOM     35  H   LIG d   1       4.132  -4.954 -10.892  0.00  0.00     0.203 HD
ATOM     36  H   LIG d   1       5.917  -1.847  -5.805  0.00  0.00     0.203 HD
ENDROOT
BRANCH   8  37
ATOM     37  C   LIG d   1       5.938  -0.919  -3.990  0.00  0.00    -0.027 C 
ATOM     38  H   LIG d   1       6.919  -1.366  -3.826  0.00  0.00     0.082 H 
ATOM     39  H   LIG d   1       6.057   0.131  -4.258  0.00  0.00     0.082 H 
BRANCH  37  40
ATOM     40  C   LIG d   1       5.108  -1.028  -2.709  0.00  0.00     0.028 C 
ATOM     41  H   LIG d   1       4.166  -1.530  -2.929  0.00  0.00     0.037 H 
ATOM     42  H   LIG d   1       5.661  -1.601  -1.966  0.00  0.00     0.037 H 
BRANCH  40  43
ATOM     43  C   LIG d   1       4.825   0.374  -2.164  0.00  0.00    -0.030 C 
ATOM     44  H   LIG d   1       3.750   0.556  -2.173  0.00  0.00     0.082 H 
ATOM     45  H   LIG d   1       5.198   0.449  -1.142  0.00  0.00     0.082 H 
BRANCH  43  46
ATOM     46  N   LIG d   1       5.499   1.372  -3.006  0.00  0.00     0.219 N 
ATOM     47  H   LIG d   1       5.563   1.026  -3.952  0.00  0.00     0.199 HD
ATOM     48  H   LIG d   1       4.971   2.231  -2.996  0.00  0.00     0.199 HD
ATOM     49  H   LIG d   1       6.426   1.542  -2.647  0.00  0.00     0.199 HD
ENDBRANCH  43  46
ENDBRANCH  40  43
ENDBRANCH  37  40
ENDBRANCH   8  37
BRANCH   5  50
ATOM     50  C   LIG d   1       2.786   0.879  -8.070  0.00  0.00     0.004 C 
ATOM     51  H   LIG d   1       1.705   0.954  -7.958  0.00  0.00     0.043 H 
ATOM     52  H   LIG d   1       3.274   1.512  -7.330  0.00  0.00     0.043 H 
BRANCH  50  53
ATOM     53  C   LIG d   1       3.187   1.333  -9.475  0.00  0.00     0.000 C 
ATOM     54  H   LIG d   1       3.806   0.567  -9.941  0.00  0.00     0.033 H 
ATOM     55  H   LIG d   1       2.291   1.492 -10.075  0.00  0.00     0.033 H 
BRANCH  53  56
ATOM     56  C   LIG d   1       3.976   2.641  -9.381  0.00  0.00    -0.034 C 
ATOM     57  H   LIG d   1       3.963   3.143 -10.349  0.00  0.00     0.081 H 
ATOM     58  H   LIG d   1       3.523   3.286  -8.630  0.00  0.00     0.081 H 
BRANCH  56  59
ATOM     59  N   LIG d   1       5.365   2.347  -9.002  0.00  0.00     0.219 N 
ATOM     60  H   LIG d   1       5.373   1.768  -8.177  0.00  0.00     0.199 HD
ATOM     61  H   LIG d   1       5.824   1.862  -9.759  0.00  0.00     0.199 HD
ATOM     62  H   LIG d   1       5.851   3.210  -8.812  0.00  0.00     0.199 HD
ENDBRANCH  56  59
ENDBRANCH  53  56
ENDBRANCH  50  53
ENDBRANCH   5  50
BRANCH  12  63
ATOM     63  C   LIG d   1       5.385  -7.196  -6.531  0.00  0.00    -0.013 C 
ATOM     64  H   LIG d   1       4.452  -7.746  -6.656  0.00  0.00     0.039 H 
ATOM     65  H   LIG d   1       6.098  -7.515  -7.293  0.00  0.00     0.039 H 
ATOM     66  H   LIG d   1       5.795  -7.397  -5.542  0.00  0.00     0.039 H 
ENDBRANCH  12  63
BRANCH   1  67
ATOM     67  C   LIG d   1       2.382  -4.951  -9.868  0.00  0.00    -0.043 C 
ATOM     68  H   LIG d   1       1.902  -4.398 -10.676  0.00  0.00     0.078 H 
ATOM     69  H   LIG d   1       2.153  -6.011  -9.967  0.00  0.00     0.078 H 
ATOM     70  H   LIG d   1       2.012  -4.587  -8.909  0.00  0.00     0.078 H 
ENDBRANCH   1  67
TORSDOF 10
ENDMDL
MODEL 6
REMARK VINA RESULT:      -4.6      9.060     12.151
REMARK  10 active torsions:
REMARK  status: ('A' for Active; 'I' for Inactive)
REMARK    1  A    between atoms: C_1  and  N_2 
REMARK    2  A    between atoms: N_6  and  C_21 
REMARK    3  A    between atoms: N_9  and  C_17 
REMARK    4  A    between atoms: N_13  and  C_16 
REMARK    5  A    between atoms: C_17  and  C_18 
REMARK    6  A    between atoms: C_18  and  C_19 
REMARK    7  A    between atoms: C_19  and  N_20 
REMARK    8  A    between atoms: C_21  and  C_22 
REMARK    9  A    between atoms: C_22  and  C_23 
REMARK   10  A    between atoms: C_23  and  N_24 
ROOT
ATOM      1  N   LIG d   1      10.739  10.988   0.397  0.00  0.00     0.234 N 
ATOM      2  C   LIG d   1       9.924  11.220  -0.793  0.00  0.00    -0.031 C 
ATOM      3  C   LIG d   1      10.584  12.148  -1.806  0.00  0.00     0.000 C 
ATOM      4  C   LIG d   1       9.587  12.441  -2.934  0.00  0.00     0.004 C 
ATOM      5  N   LIG d   1      10.149  11.879  -4.208  0.00  0.00    -0.297 N 
ATOM      6  C   LIG d   1       9.223  10.756  -4.574  0.00  0.00     0.039 C 
ATOM      7  C   LIG d   1      10.036   9.683  -5.295  0.00  0.00    -0.019 C 
ATOM      8  N   LIG d   1       9.630   8.353  -4.821  0.00  0.00     0.236 N 
ATOM      9  C   LIG d   1      10.799   7.639  -4.288  0.00  0.00    -0.031 C 
ATOM     10  C   LIG d   1      10.410   6.900  -3.007  0.00  0.00     0.000 C 
ATOM     11  C   LIG d   1      11.536   7.027  -1.980  0.00  0.00     0.004 C 
ATOM     12  N   LIG d   1      10.965   7.520  -0.699  0.00  0.00    -0.300 N 
ATOM     13  C   LIG d   1      11.610   8.827  -0.402  0.00  0.00     0.039 C 
ATOM     14  C   LIG d   1      10.804   9.545   0.676  0.00  0.00    -0.019 C 
ATOM     15  H   LIG d   1       9.704  10.262  -1.275  0.00  0.00     0.082 H 
ATOM     16  H   LIG d   1       8.966  11.659  -0.483  0.00  0.00     0.082 H 
ATOM     17  H   LIG d   1      10.852  13.098  -1.340  0.00  0.00     0.033 H 
ATOM     18  H   LIG d   1      11.463  11.674  -2.242  0.00  0.00     0.033 H 
ATOM     19  H   LIG d   1       8.639  11.961  -2.733  0.00  0.00     0.043 H 
ATOM     20  H   LIG d   1       9.472  13.511  -3.060  0.00  0.00     0.043 H 
ATOM     21  H   LIG d   1       8.793  10.359  -3.664  0.00  0.00     0.048 H 
ATOM     22  H   LIG d   1       8.457  11.154  -5.231  0.00  0.00     0.048 H 
ATOM     23  H   LIG d   1       9.857   9.751  -6.370  0.00  0.00     0.083 H 
ATOM     24  H   LIG d   1      11.097   9.834  -5.100  0.00  0.00     0.083 H 
ATOM     25  H   LIG d   1      11.149   6.918  -5.029  0.00  0.00     0.082 H 
ATOM     26  H   LIG d   1      11.595   8.349  -4.071  0.00  0.00     0.082 H 
ATOM     27  H   LIG d   1       9.495   7.328  -2.599  0.00  0.00     0.033 H 
ATOM     28  H   LIG d   1      10.245   5.845  -3.234  0.00  0.00     0.033 H 
ATOM     29  H   LIG d   1      11.993   6.056  -1.807  0.00  0.00     0.043 H 
ATOM     30  H   LIG d   1      12.280   7.738  -2.327  0.00  0.00     0.043 H 
ATOM     31  H   LIG d   1      12.622   8.636  -0.050  0.00  0.00     0.048 H 
ATOM     32  H   LIG d   1      11.630   9.408  -1.320  0.00  0.00     0.048 H 
ATOM     33  H   LIG d   1      11.274   9.392   1.649  0.00  0.00     0.083 H 
ATOM     34  H   LIG d   1       9.790   9.144   0.704  0.00  0.00     0.083 H 
ATOM     35  H   LIG d   1      10.284  11.436   1.193  0.00  0.00     0.203 HD
ATOM     36  H   LIG d   1       8.935   8.450  -4.097  0.00  0.00     0.203 HD
ENDROOT
BRANCH   8  37
ATOM     37  C   LIG d   1       9.061   7.590  -5.941  0.00  0.00    -0.027 C 
ATOM     38  H   LIG d   1       8.968   6.541  -5.657  0.00  0.00     0.082 H 
ATOM     39  H   LIG d   1       8.078   7.987  -6.189  0.00  0.00     0.082 H 
BRANCH  37  40
ATOM     40  C   LIG d   1       9.981   7.708  -7.158  0.00  0.00     0.028 C 
ATOM     41  H   LIG d   1      10.585   8.611  -7.070  0.00  0.00     0.037 H 
ATOM     42  H   LIG d   1      10.634   6.838  -7.206  0.00  0.00     0.037 H 
BRANCH  40  43
ATOM     43  C   LIG d   1       9.135   7.782  -8.431  0.00  0.00    -0.030 C 
ATOM     44  H   LIG d   1       9.775   7.633  -9.301  0.00  0.00     0.082 H 
ATOM     45  H   LIG d   1       8.371   7.004  -8.405  0.00  0.00     0.082 H 
BRANCH  43  46
ATOM     46  N   LIG d   1       8.491   9.099  -8.515  0.00  0.00     0.219 N 
ATOM     47  H   LIG d   1       7.567   8.998  -8.906  0.00  0.00     0.199 HD
ATOM     48  H   LIG d   1       8.423   9.500  -7.592  0.00  0.00     0.199 HD
ATOM     49  H   LIG d   1       9.041   9.705  -9.105  0.00  0.00     0.199 HD
ENDBRANCH  43  46
ENDBRANCH  40  43
ENDBRANCH  37  40
ENDBRANCH   8  37
BRANCH   5  50
ATOM     50  C   LIG d   1       9.872  12.943  -5.238  0.00  0.00     0.004 C 
ATOM     51  H   LIG d   1       9.013  12.648  -5.841  0.00  0.00     0.043 H 
ATOM     52  H   LIG d   1       9.658  13.886  -4.737  0.00  0.00     0.043 H 
BRANCH  50  53
ATOM     53  C   LIG d   1      11.096  13.108  -6.141  0.00  0.00     0.000 C 
ATOM     54  H   LIG d   1      11.415  14.150  -6.132  0.00  0.00     0.033 H 
ATOM     55  H   LIG d   1      11.905  12.476  -5.775  0.00  0.00     0.033 H 
BRANCH  53  56
ATOM     56  C   LIG d   1      10.734  12.697  -7.570  0.00  0.00    -0.034 C 
ATOM     57  H   LIG d   1      11.037  13.482  -8.262  0.00  0.00     0.081 H 
ATOM     58  H   LIG d   1      11.248  11.770  -7.822  0.00  0.00     0.081 H 
BRANCH  56  59
ATOM     59  N   LIG d   1       9.282  12.495  -7.667  0.00  0.00     0.219 N 
ATOM     60  H   LIG d   1       9.091  11.531  -7.893  0.00  0.00     0.199 HD
ATOM     61  H   LIG d   1       8.851  12.724  -6.783  0.00  0.00     0.199 HD
ATOM     62  H   LIG d   1       8.907  13.090  -8.390  0.00  0.00     0.199 HD
ENDBRANCH  56  59
ENDBRANCH  53  56
ENDBRANCH  50  53
ENDBRANCH   5  50
BRANCH  12  63
ATOM     63  C   LIG d   1      11.379   6.565   0.364  0.00  0.00    -0.013 C 
ATOM     64  H   LIG d   1      12.440   6.339   0.256  0.00  0.00     0.039 H 
ATOM     65  H   LIG d   1      11.201   7.012   1.342  0.00  0.00     0.039 H 
ATOM     66  H   LIG d   1      10.801   5.646   0.273  0.00  0.00     0.039 H 
ENDBRANCH  12  63
BRANCH   1  67
ATOM     67  C   LIG d   1      12.092  11.532   0.281  0.00  0.00    -0.043 C 
ATOM     68  H   LIG d   1      12.763  10.760  -0.097  0.00  0.00     0.078 H 
ATOM     69  H   LIG d   1      12.086  12.376  -0.408  0.00  0.00     0.078 H 
ATOM     70  H   LIG d   1      12.436  11.865   1.261  0.00  0.00     0.078 H 
ENDBRANCH   1  67
TORSDOF 10
ENDMDL
MODEL 7
REMARK VINA RESULT:      -4.6      9.585     13.247
REMARK  10 active torsions:
REMARK  status: ('A' for Active; 'I' for Inactive)
REMARK    1  A    between atoms: C_1  and  N_2 
REMARK    2  A    between atoms: N_6  and  C_21 
REMARK    3  A    between atoms: N_9  and  C_17 
REMARK    4  A    between atoms: N_13  and  C_16 
REMARK    5  A    between atoms: C_17  and  C_18 
REMARK    6  A    between atoms: C_18  and  C_19 
REMARK    7  A    between atoms: C_19  and  N_20 
REMARK    8  A    between atoms: C_21  and  C_22 
REMARK    9  A    between atoms: C_22  and  C_23 
REMARK   10  A    between atoms: C_23  and  N_24 
ROOT
ATOM      1  N   LIG d   1       9.648  14.075  -3.685  0.00  0.00     0.234 N 
ATOM      2  C   LIG d   1       9.271  12.691  -3.956  0.00  0.00    -0.031 C 
ATOM      3  C   LIG d   1      10.219  11.984  -4.918  0.00  0.00     0.000 C 
ATOM      4  C   LIG d   1       9.649  10.598  -5.247  0.00  0.00     0.004 C 
ATOM      5  N   LIG d   1      10.608   9.566  -4.728  0.00  0.00    -0.297 N 
ATOM      6  C   LIG d   1       9.870   8.878  -3.618  0.00  0.00     0.039 C 
ATOM      7  C   LIG d   1      10.889   8.435  -2.569  0.00  0.00    -0.019 C 
ATOM      8  N   LIG d   1      10.364   8.706  -1.224  0.00  0.00     0.236 N 
ATOM      9  C   LIG d   1      11.298   9.574  -0.494  0.00  0.00    -0.031 C 
ATOM     10  C   LIG d   1      10.515  10.631   0.288  0.00  0.00     0.000 C 
ATOM     11  C   LIG d   1      11.235  11.976   0.194  0.00  0.00     0.004 C 
ATOM     12  N   LIG d   1      10.266  13.009  -0.256  0.00  0.00    -0.300 N 
ATOM     13  C   LIG d   1      10.761  13.544  -1.553  0.00  0.00     0.039 C 
ATOM     14  C   LIG d   1       9.634  14.316  -2.234  0.00  0.00    -0.019 C 
ATOM     15  H   LIG d   1       9.235  12.133  -3.014  0.00  0.00     0.082 H 
ATOM     16  H   LIG d   1       8.260  12.678  -4.384  0.00  0.00     0.082 H 
ATOM     17  H   LIG d   1      10.306  12.541  -5.852  0.00  0.00     0.033 H 
ATOM     18  H   LIG d   1      11.198  11.849  -4.460  0.00  0.00     0.033 H 
ATOM     19  H   LIG d   1       8.694  10.458  -4.760  0.00  0.00     0.043 H 
ATOM     20  H   LIG d   1       9.569  10.474  -6.321  0.00  0.00     0.043 H 
ATOM     21  H   LIG d   1       9.167   9.582  -3.189  0.00  0.00     0.048 H 
ATOM     22  H   LIG d   1       9.360   8.017  -4.037  0.00  0.00     0.048 H 
ATOM     23  H   LIG d   1      11.075   7.364  -2.673  0.00  0.00     0.083 H 
ATOM     24  H   LIG d   1      11.823   8.976  -2.715  0.00  0.00     0.083 H 
ATOM     25  H   LIG d   1      11.883   8.970   0.201  0.00  0.00     0.082 H 
ATOM     26  H   LIG d   1      11.969  10.065  -1.197  0.00  0.00     0.082 H 
ATOM     27  H   LIG d   1       9.512  10.725  -0.126  0.00  0.00     0.033 H 
ATOM     28  H   LIG d   1      10.448  10.329   1.334  0.00  0.00     0.033 H 
ATOM     29  H   LIG d   1      11.620  12.261   1.169  0.00  0.00     0.043 H 
ATOM     30  H   LIG d   1      12.044  11.918  -0.529  0.00  0.00     0.043 H 
ATOM     31  H   LIG d   1      11.600  14.206  -1.351  0.00  0.00     0.048 H 
ATOM     32  H   LIG d   1      11.076  12.704  -2.164  0.00  0.00     0.048 H 
ATOM     33  H   LIG d   1       9.756  15.384  -2.049  0.00  0.00     0.083 H 
ATOM     34  H   LIG d   1       8.672  13.993  -1.831  0.00  0.00     0.083 H 
ATOM     35  H   LIG d   1       8.950  14.689  -4.106  0.00  0.00     0.203 HD
ATOM     36  H   LIG d   1       9.467   9.161  -1.297  0.00  0.00     0.203 HD
ENDROOT
BRANCH   8  37
ATOM     37  C   LIG d   1      10.208   7.438  -0.498  0.00  0.00    -0.027 C 
ATOM     38  H   LIG d   1       9.407   7.535   0.235  0.00  0.00     0.082 H 
ATOM     39  H   LIG d   1       9.962   6.644  -1.202  0.00  0.00     0.082 H 
BRANCH  37  40
ATOM     40  C   LIG d   1      11.516   7.096   0.220  0.00  0.00     0.028 C 
ATOM     41  H   LIG d   1      12.347   7.182  -0.481  0.00  0.00     0.037 H 
ATOM     42  H   LIG d   1      11.666   7.787   1.049  0.00  0.00     0.037 H 
BRANCH  40  43
ATOM     43  C   LIG d   1      11.445   5.664   0.754  0.00  0.00    -0.030 C 
ATOM     44  H   LIG d   1      12.315   5.467   1.380  0.00  0.00     0.082 H 
ATOM     45  H   LIG d   1      10.537   5.542   1.346  0.00  0.00     0.082 H 
BRANCH  43  46
ATOM     46  N   LIG d   1      11.427   4.722  -0.372  0.00  0.00     0.219 N 
ATOM     47  H   LIG d   1      10.966   3.869  -0.090  0.00  0.00     0.199 HD
ATOM     48  H   LIG d   1      10.928   5.133  -1.147  0.00  0.00     0.199 HD
ATOM     49  H   LIG d   1      12.373   4.515  -0.653  0.00  0.00     0.199 HD
ENDBRANCH  43  46
ENDBRANCH  40  43
ENDBRANCH  37  40
ENDBRANCH   8  37
BRANCH   5  50
ATOM     50  C   LIG d   1      10.676   8.536  -5.825  0.00  0.00     0.004 C 
ATOM     51  H   LIG d   1      11.340   8.890  -6.614  0.00  0.00     0.043 H 
ATOM     52  H   LIG d   1      11.058   7.599  -5.421  0.00  0.00     0.043 H 
BRANCH  50  53
ATOM     53  C   LIG d   1       9.275   8.312  -6.400  0.00  0.00     0.000 C 
ATOM     54  H   LIG d   1       8.828   7.435  -5.935  0.00  0.00     0.033 H 
ATOM     55  H   LIG d   1       8.656   9.187  -6.199  0.00  0.00     0.033 H 
BRANCH  53  56
ATOM     56  C   LIG d   1       9.375   8.094  -7.912  0.00  0.00    -0.034 C 
ATOM     57  H   LIG d   1      10.395   8.295  -8.241  0.00  0.00     0.081 H 
ATOM     58  H   LIG d   1       9.112   7.064  -8.148  0.00  0.00     0.081 H 
BRANCH  56  59
ATOM     59  N   LIG d   1       8.451   9.006  -8.599  0.00  0.00     0.219 N 
ATOM     60  H   LIG d   1       7.587   9.062  -8.082  0.00  0.00     0.199 HD
ATOM     61  H   LIG d   1       8.867   9.924  -8.659  0.00  0.00     0.199 HD
ATOM     62  H   LIG d   1       8.265   8.659  -9.528  0.00  0.00     0.199 HD
ENDBRANCH  56  59
ENDBRANCH  53  56
ENDBRANCH  50  53
ENDBRANCH   5  50
BRANCH  12  63
ATOM     63  C   LIG d   1      10.316  14.119   0.734  0.00  0.00    -0.013 C 
ATOM     64  H   LIG d   1      10.870  14.958   0.312  0.00  0.00     0.039 H 
ATOM     65  H   LIG d   1       9.300  14.439   0.972  0.00  0.00     0.039 H 
ATOM     66  H   LIG d   1      10.811  13.776   1.641  0.00  0.00     0.039 H 
ENDBRANCH  12  63
BRANCH   1  67
ATOM     67  C   LIG d   1      10.957  14.432  -4.234  0.00  0.00    -0.043 C 
ATOM     68  H   LIG d   1      11.741  13.978  -3.628  0.00  0.00     0.078 H 
ATOM     69  H   LIG d   1      11.032  14.068  -5.258  0.00  0.00     0.078 H 
ATOM     70  H   LIG d   1      11.072  15.516  -4.225  0.00  0.00     0.078 H 
ENDBRANCH   1  67
TORSDOF 10
ENDMDL
MODEL 8
REMARK VINA RESULT:      -4.6      3.644      7.150
REMARK  10 active torsions:
REMARK  status: ('A' for Active; 'I' for Inactive)
REMARK    1  A    between atoms: C_1  and  N_2 
REMARK    2  A    between atoms: N_6  and  C_21 
REMARK    3  A    between atoms: N_9  and  C_17 
REMARK    4  A    between atoms: N_13  and  C_16 
REMARK    5  A    between atoms: C_17  and  C_18 
REMARK    6  A    between atoms: C_18  and  C_19 
REMARK    7  A    between atoms: C_19  and  N_20 
REMARK    8  A    between atoms: C_21  and  C_22 
REMARK    9  A    between atoms: C_22  and  C_23 
REMARK   10  A    between atoms: C_23  and  N_24 
ROOT
ATOM      1  N   LIG d   1       3.330  -3.583 -10.289  0.00  0.00     0.234 N 
ATOM      2  C   LIG d   1       3.311  -4.299  -9.016  0.00  0.00    -0.031 C 
ATOM      3  C   LIG d   1       4.629  -4.992  -8.693  0.00  0.00     0.000 C 
ATOM      4  C   LIG d   1       4.450  -5.832  -7.422  0.00  0.00     0.004 C 
ATOM      5  N   LIG d   1       5.351  -5.267  -6.361  0.00  0.00    -0.297 N 
ATOM      6  C   LIG d   1       4.421  -4.703  -5.327  0.00  0.00     0.039 C 
ATOM      7  C   LIG d   1       5.101  -3.498  -4.681  0.00  0.00    -0.019 C 
ATOM      8  N   LIG d   1       4.126  -2.412  -4.510  0.00  0.00     0.236 N 
ATOM      9  C   LIG d   1       4.602  -1.205  -5.199  0.00  0.00    -0.031 C 
ATOM     10  C   LIG d   1       3.435  -0.530  -5.921  0.00  0.00     0.000 C 
ATOM     11  C   LIG d   1       3.899  -0.027  -7.288  0.00  0.00     0.004 C 
ATOM     12  N   LIG d   1       2.966  -0.532  -8.329  0.00  0.00    -0.300 N 
ATOM     13  C   LIG d   1       3.757  -1.390  -9.252  0.00  0.00     0.039 C 
ATOM     14  C   LIG d   1       2.799  -2.223 -10.098  0.00  0.00    -0.019 C 
ATOM     15  H   LIG d   1       3.065  -3.601  -8.209  0.00  0.00     0.082 H 
ATOM     16  H   LIG d   1       2.514  -5.055  -9.050  0.00  0.00     0.082 H 
ATOM     17  H   LIG d   1       4.919  -5.665  -9.501  0.00  0.00     0.033 H 
ATOM     18  H   LIG d   1       5.411  -4.257  -8.508  0.00  0.00     0.033 H 
ATOM     19  H   LIG d   1       3.428  -5.774  -7.074  0.00  0.00     0.043 H 
ATOM     20  H   LIG d   1       4.749  -6.856  -7.608  0.00  0.00     0.043 H 
ATOM     21  H   LIG d   1       3.505  -4.402  -5.820  0.00  0.00     0.048 H 
ATOM     22  H   LIG d   1       4.236  -5.474  -4.587  0.00  0.00     0.048 H 
ATOM     23  H   LIG d   1       5.495  -3.783  -3.703  0.00  0.00     0.083 H 
ATOM     24  H   LIG d   1       5.922  -3.158  -5.311  0.00  0.00     0.083 H 
ATOM     25  H   LIG d   1       5.023  -0.514  -4.468  0.00  0.00     0.082 H 
ATOM     26  H   LIG d   1       5.370  -1.475  -5.923  0.00  0.00     0.082 H 
ATOM     27  H   LIG d   1       2.622  -1.244  -6.053  0.00  0.00     0.033 H 
ATOM     28  H   LIG d   1       3.082   0.314  -5.326  0.00  0.00     0.033 H 
ATOM     29  H   LIG d   1       3.887   1.060  -7.307  0.00  0.00     0.043 H 
ATOM     30  H   LIG d   1       4.897  -0.397  -7.505  0.00  0.00     0.043 H 
ATOM     31  H   LIG d   1       4.355  -0.742  -9.891  0.00  0.00     0.048 H 
ATOM     32  H   LIG d   1       4.397  -2.028  -8.651  0.00  0.00     0.048 H 
ATOM     33  H   LIG d   1       2.666  -1.754 -11.074  0.00  0.00     0.083 H 
ATOM     34  H   LIG d   1       1.831  -2.289  -9.599  0.00  0.00     0.083 H 
ATOM     35  H   LIG d   1       2.712  -4.066 -10.942  0.00  0.00     0.203 HD
ATOM     36  H   LIG d   1       3.237  -2.693  -4.896  0.00  0.00     0.203 HD
ENDROOT
BRANCH   8  37
ATOM     37  C   LIG d   1       3.964  -2.124  -3.078  0.00  0.00    -0.027 C 
ATOM     38  H   LIG d   1       3.003  -1.638  -2.911  0.00  0.00     0.082 H 
ATOM     39  H   LIG d   1       4.004  -3.054  -2.513  0.00  0.00     0.082 H 
BRANCH  37  40
ATOM     40  C   LIG d   1       5.090  -1.197  -2.614  0.00  0.00     0.028 C 
ATOM     41  H   LIG d   1       5.785  -1.756  -1.987  0.00  0.00     0.037 H 
ATOM     42  H   LIG d   1       5.619  -0.805  -3.482  0.00  0.00     0.037 H 
BRANCH  40  43
ATOM     43  C   LIG d   1       4.497  -0.037  -1.811  0.00  0.00    -0.030 C 
ATOM     44  H   LIG d   1       3.410  -0.112  -1.813  0.00  0.00     0.082 H 
ATOM     45  H   LIG d   1       4.862  -0.082  -0.784  0.00  0.00     0.082 H 
BRANCH  43  46
ATOM     46  N   LIG d   1       4.903   1.237  -2.419  0.00  0.00     0.219 N 
ATOM     47  H   LIG d   1       4.264   1.964  -2.134  0.00  0.00     0.199 HD
ATOM     48  H   LIG d   1       5.836   1.472  -2.118  0.00  0.00     0.199 HD
ATOM     49  H   LIG d   1       4.886   1.150  -3.424  0.00  0.00     0.199 HD
ENDBRANCH  43  46
ENDBRANCH  40  43
ENDBRANCH  37  40
ENDBRANCH   8  37
BRANCH   5  50
ATOM     50  C   LIG d   1       5.953  -6.479  -5.701  0.00  0.00     0.004 C 
ATOM     51  H   LIG d   1       6.858  -6.771  -6.234  0.00  0.00     0.043 H 
ATOM     52  H   LIG d   1       6.199  -6.245  -4.666  0.00  0.00     0.043 H 
BRANCH  50  53
ATOM     53  C   LIG d   1       4.946  -7.632  -5.738  0.00  0.00     0.000 C 
ATOM     54  H   LIG d   1       3.990  -7.291  -5.342  0.00  0.00     0.033 H 
ATOM     55  H   LIG d   1       4.816  -7.967  -6.767  0.00  0.00     0.033 H 
BRANCH  53  56
ATOM     56  C   LIG d   1       5.468  -8.791  -4.885  0.00  0.00    -0.034 C 
ATOM     57  H   LIG d   1       5.979  -9.511  -5.525  0.00  0.00     0.081 H 
ATOM     58  H   LIG d   1       6.164  -8.408  -4.140  0.00  0.00     0.081 H 
BRANCH  56  59
ATOM     59  N   LIG d   1       4.340  -9.448  -4.212  0.00  0.00     0.219 N 
ATOM     60  H   LIG d   1       4.159 -10.338  -4.651  0.00  0.00     0.199 HD
ATOM     61  H   LIG d   1       4.568  -9.593  -3.239  0.00  0.00     0.199 HD
ATOM     62  H   LIG d   1       3.520  -8.866  -4.283  0.00  0.00     0.199 HD
ENDBRANCH  56  59
ENDBRANCH  53  56
ENDBRANCH  50  53
ENDBRANCH   5  50
BRANCH  12  63
ATOM     63  C   LIG d   1       2.494   0.646  -9.106  0.00  0.00    -0.013 C 
ATOM     64  H   LIG d   1       2.310   0.349 -10.139  0.00  0.00     0.039 H 
ATOM     65  H   LIG d   1       1.570   1.023  -8.667  0.00  0.00     0.039 H 
ATOM     66  H   LIG d   1       3.254   1.426  -9.082  0.00  0.00     0.039 H 
ENDBRANCH  12  63
BRANCH   1  67
ATOM     67  C   LIG d   1       4.663  -3.515 -10.889  0.00  0.00    -0.043 C 
ATOM     68  H   LIG d   1       5.248  -4.379 -10.574  0.00  0.00     0.078 H 
ATOM     69  H   LIG d   1       4.572  -3.515 -11.975  0.00  0.00     0.078 H 
ATOM     70  H   LIG d   1       5.161  -2.601 -10.566  0.00  0.00     0.078 H 
ENDBRANCH   1  67
TORSDOF 10
ENDMDL
MODEL 9
REMARK VINA RESULT:      -4.6      3.666      6.097
REMARK  10 active torsions:
REMARK  status: ('A' for Active; 'I' for Inactive)
REMARK    1  A    between atoms: C_1  and  N_2 
REMARK    2  A    between atoms: N_6  and  C_21 
REMARK    3  A    between atoms: N_9  and  C_17 
REMARK    4  A    between atoms: N_13  and  C_16 
REMARK    5  A    between atoms: C_17  and  C_18 
REMARK    6  A    between atoms: C_18  and  C_19 
REMARK    7  A    between atoms: C_19  and  N_20 
REMARK    8  A    between atoms: C_21  and  C_22 
REMARK    9  A    between atoms: C_22  and  C_23 
REMARK   10  A    between atoms: C_23  and  N_24 
ROOT
ATOM      1  N   LIG d   1      10.041   3.268  -4.233  0.00  0.00     0.234 N 
ATOM      2  C   LIG d   1       9.143   2.295  -3.617  0.00  0.00    -0.031 C 
ATOM      3  C   LIG d   1       7.857   2.075  -4.405  0.00  0.00     0.000 C 
ATOM      4  C   LIG d   1       6.929   1.159  -3.598  0.00  0.00     0.004 C 
ATOM      5  N   LIG d   1       6.738  -0.111  -4.376  0.00  0.00    -0.297 N 
ATOM      6  C   LIG d   1       7.414  -1.171  -3.555  0.00  0.00     0.039 C 
ATOM      7  C   LIG d   1       7.968  -2.230  -4.507  0.00  0.00    -0.019 C 
ATOM      8  N   LIG d   1       9.311  -2.635  -4.068  0.00  0.00     0.236 N 
ATOM      9  C   LIG d   1      10.274  -2.413  -5.154  0.00  0.00    -0.031 C 
ATOM     10  C   LIG d   1      11.567  -1.826  -4.584  0.00  0.00     0.000 C 
ATOM     11  C   LIG d   1      12.097  -0.743  -5.523  0.00  0.00     0.004 C 
ATOM     12  N   LIG d   1      12.349   0.493  -4.736  0.00  0.00    -0.300 N 
ATOM     13  C   LIG d   1      11.463   1.555  -5.286  0.00  0.00     0.039 C 
ATOM     14  C   LIG d   1      11.402   2.713  -4.294  0.00  0.00    -0.019 C 
ATOM     15  H   LIG d   1       9.664   1.338  -3.506  0.00  0.00     0.082 H 
ATOM     16  H   LIG d   1       8.883   2.645  -2.608  0.00  0.00     0.082 H 
ATOM     17  H   LIG d   1       7.338   3.021  -4.566  0.00  0.00     0.033 H 
ATOM     18  H   LIG d   1       8.071   1.590  -5.357  0.00  0.00     0.033 H 
ATOM     19  H   LIG d   1       7.378   0.915  -2.644  0.00  0.00     0.043 H 
ATOM     20  H   LIG d   1       5.961   1.627  -3.473  0.00  0.00     0.043 H 
ATOM     21  H   LIG d   1       8.215  -0.708  -2.995  0.00  0.00     0.048 H 
ATOM     22  H   LIG d   1       6.671  -1.607  -2.896  0.00  0.00     0.048 H 
ATOM     23  H   LIG d   1       7.311  -3.102  -4.503  0.00  0.00     0.083 H 
ATOM     24  H   LIG d   1       8.018  -1.825  -5.516  0.00  0.00     0.083 H 
ATOM     25  H   LIG d   1      10.493  -3.363  -5.642  0.00  0.00     0.082 H 
ATOM     26  H   LIG d   1       9.853  -1.722  -5.883  0.00  0.00     0.082 H 
ATOM     27  H   LIG d   1      11.373  -1.395  -3.602  0.00  0.00     0.033 H 
ATOM     28  H   LIG d   1      12.312  -2.619  -4.489  0.00  0.00     0.033 H 
ATOM     29  H   LIG d   1      13.031  -1.066  -5.974  0.00  0.00     0.043 H 
ATOM     30  H   LIG d   1      11.362  -0.522  -6.292  0.00  0.00     0.043 H 
ATOM     31  H   LIG d   1      11.882   1.893  -6.231  0.00  0.00     0.048 H 
ATOM     32  H   LIG d   1      10.478   1.125  -5.438  0.00  0.00     0.048 H 
ATOM     33  H   LIG d   1      12.093   3.499  -4.603  0.00  0.00     0.083 H 
ATOM     34  H   LIG d   1      11.686   2.360  -3.301  0.00  0.00     0.083 H 
ATOM     35  H   LIG d   1      10.073   4.099  -3.641  0.00  0.00     0.203 HD
ATOM     36  H   LIG d   1       9.580  -2.092  -3.261  0.00  0.00     0.203 HD
ENDROOT
BRANCH   8  37
ATOM     37  C   LIG d   1       9.297  -4.061  -3.712  0.00  0.00    -0.027 C 
ATOM     38  H   LIG d   1       8.308  -4.475  -3.910  0.00  0.00     0.082 H 
ATOM     39  H   LIG d   1      10.039  -4.591  -4.307  0.00  0.00     0.082 H 
BRANCH  37  40
ATOM     40  C   LIG d   1       9.626  -4.218  -2.226  0.00  0.00     0.028 C 
ATOM     41  H   LIG d   1      10.476  -3.585  -1.974  0.00  0.00     0.037 H 
ATOM     42  H   LIG d   1       8.764  -3.923  -1.629  0.00  0.00     0.037 H 
BRANCH  40  43
ATOM     43  C   LIG d   1       9.973  -5.679  -1.932  0.00  0.00    -0.030 C 
ATOM     44  H   LIG d   1      10.054  -5.824  -0.856  0.00  0.00     0.082 H 
ATOM     45  H   LIG d   1       9.189  -6.326  -2.328  0.00  0.00     0.082 H 
BRANCH  43  46
ATOM     46  N   LIG d   1      11.253  -6.016  -2.571  0.00  0.00     0.219 N 
ATOM     47  H   LIG d   1      11.940  -6.218  -1.861  0.00  0.00     0.199 HD
ATOM     48  H   LIG d   1      11.132  -6.824  -3.162  0.00  0.00     0.199 HD
ATOM     49  H   LIG d   1      11.566  -5.235  -3.128  0.00  0.00     0.199 HD
ENDBRANCH  43  46
ENDBRANCH  40  43
ENDBRANCH  37  40
ENDBRANCH   8  37
BRANCH   5  50
ATOM     50  C   LIG d   1       5.269  -0.413  -4.239  0.00  0.00     0.004 C 
ATOM     51  H   LIG d   1       4.691   0.378  -4.717  0.00  0.00     0.043 H 
ATOM     52  H   LIG d   1       5.047  -1.366  -4.719  0.00  0.00     0.043 H 
BRANCH  50  53
ATOM     53  C   LIG d   1       4.901  -0.489  -2.756  0.00  0.00     0.000 C 
ATOM     54  H   LIG d   1       5.794  -0.707  -2.171  0.00  0.00     0.033 H 
ATOM     55  H   LIG d   1       4.480   0.465  -2.437  0.00  0.00     0.033 H 
BRANCH  53  56
ATOM     56  C   LIG d   1       3.868  -1.598  -2.544  0.00  0.00    -0.034 C 
ATOM     57  H   LIG d   1       4.288  -2.366  -1.895  0.00  0.00     0.081 H 
ATOM     58  H   LIG d   1       2.974  -1.179  -2.083  0.00  0.00     0.081 H 
BRANCH  56  59
ATOM     59  N   LIG d   1       3.517  -2.193  -3.841  0.00  0.00     0.219 N 
ATOM     60  H   LIG d   1       4.291  -2.090  -4.479  0.00  0.00     0.199 HD
ATOM     61  H   LIG d   1       3.313  -3.174  -3.716  0.00  0.00     0.199 HD
ATOM     62  H   LIG d   1       2.706  -1.725  -4.217  0.00  0.00     0.199 HD
ENDBRANCH  56  59
ENDBRANCH  53  56
ENDBRANCH  50  53
ENDBRANCH   5  50
BRANCH  12  63
ATOM     63  C   LIG d   1      13.755   0.903  -5.000  0.00  0.00    -0.013 C 
ATOM     64  H   LIG d   1      14.146   0.336  -5.845  0.00  0.00     0.039 H 
ATOM     65  H   LIG d   1      13.785   1.968  -5.232  0.00  0.00     0.039 H 
ATOM     66  H   LIG d   1      14.363   0.706  -4.117  0.00  0.00     0.039 H 
ENDBRANCH  12  63
BRANCH   1  67
ATOM     67  C   LIG d   1       9.612   3.678  -5.570  0.00  0.00    -0.043 C 
ATOM     68  H   LIG d   1       8.943   2.924  -5.985  0.00  0.00     0.078 H 
ATOM     69  H   LIG d   1       9.089   4.632  -5.507  0.00  0.00     0.078 H 
ATOM     70  H   LIG d   1      10.485   3.784  -6.215  0.00  0.00     0.078 H 
ENDBRANCH   1  67
TORSDOF 10
ENDMDL
MODEL 10
REMARK VINA RESULT:      -4.5      9.005     12.065
REMARK  10 active torsions:
REMARK  status: ('A' for Active; 'I' for Inactive)
REMARK    1  A    between atoms: C_1  and  N_2 
REMARK    2  A    between atoms: N_6  and  C_21 
REMARK    3  A    between atoms: N_9  and  C_17 
REMARK    4  A    between atoms: N_13  and  C_16 
REMARK    5  A    between atoms: C_17  and  C_18 
REMARK    6  A    between atoms: C_18  and  C_19 
REMARK    7  A    between atoms: C_19  and  N_20 
REMARK    8  A    between atoms: C_21  and  C_22 
REMARK    9  A    between atoms: C_22  and  C_23 
REMARK   10  A    between atoms: C_23  and  N_24 
ROOT
ATOM      1  N   LIG d   1      11.912   6.439  -1.355  0.00  0.00     0.234 N 
ATOM      2  C   LIG d   1      11.856   7.057  -2.677  0.00  0.00    -0.031 C 
ATOM      3  C   LIG d   1      10.672   6.589  -3.513  0.00  0.00     0.000 C 
ATOM      4  C   LIG d   1      10.795   7.180  -4.924  0.00  0.00     0.004 C 
ATOM      5  N   LIG d   1       9.628   8.098  -5.146  0.00  0.00    -0.297 N 
ATOM      6  C   LIG d   1      10.228   9.470  -5.233  0.00  0.00     0.039 C 
ATOM      7  C   LIG d   1       9.214  10.470  -4.681  0.00  0.00    -0.019 C 
ATOM      8  N   LIG d   1       9.901  11.458  -3.837  0.00  0.00     0.236 N 
ATOM      9  C   LIG d   1       9.315  11.453  -2.491  0.00  0.00    -0.031 C 
ATOM     10  C   LIG d   1      10.427  11.556  -1.445  0.00  0.00     0.000 C 
ATOM     11  C   LIG d   1      10.114  10.630  -0.270  0.00  0.00     0.004 C 
ATOM     12  N   LIG d   1      11.298   9.769  -0.009  0.00  0.00    -0.300 N 
ATOM     13  C   LIG d   1      10.872   8.358  -0.215  0.00  0.00     0.039 C 
ATOM     14  C   LIG d   1      12.112   7.478  -0.332  0.00  0.00    -0.019 C 
ATOM     15  H   LIG d   1      11.809   8.146  -2.567  0.00  0.00     0.082 H 
ATOM     16  H   LIG d   1      12.784   6.822  -3.215  0.00  0.00     0.082 H 
ATOM     17  H   LIG d   1      10.671   5.502  -3.605  0.00  0.00     0.033 H 
ATOM     18  H   LIG d   1       9.736   6.937  -3.079  0.00  0.00     0.033 H 
ATOM     19  H   LIG d   1      11.708   7.754  -5.012  0.00  0.00     0.043 H 
ATOM     20  H   LIG d   1      10.749   6.390  -5.663  0.00  0.00     0.043 H 
ATOM     21  H   LIG d   1      11.134   9.483  -4.641  0.00  0.00     0.048 H 
ATOM     22  H   LIG d   1      10.436   9.680  -6.277  0.00  0.00     0.048 H 
ATOM     23  H   LIG d   1       8.723  10.986  -5.509  0.00  0.00     0.083 H 
ATOM     24  H   LIG d   1       8.463   9.945  -4.092  0.00  0.00     0.083 H 
ATOM     25  H   LIG d   1       8.641  12.304  -2.387  0.00  0.00     0.082 H 
ATOM     26  H   LIG d   1       8.757  10.531  -2.337  0.00  0.00     0.082 H 
ATOM     27  H   LIG d   1      11.379  11.270  -1.891  0.00  0.00     0.033 H 
ATOM     28  H   LIG d   1      10.491  12.586  -1.087  0.00  0.00     0.033 H 
ATOM     29  H   LIG d   1       9.907  11.217   0.621  0.00  0.00     0.043 H 
ATOM     30  H   LIG d   1       9.267   9.994  -0.510  0.00  0.00     0.043 H 
ATOM     31  H   LIG d   1      10.274   8.054   0.642  0.00  0.00     0.048 H 
ATOM     32  H   LIG d   1      10.281   8.316  -1.126  0.00  0.00     0.048 H 
ATOM     33  H   LIG d   1      12.314   6.998   0.627  0.00  0.00     0.083 H 
ATOM     34  H   LIG d   1      12.971   8.089  -0.612  0.00  0.00     0.083 H 
ATOM     35  H   LIG d   1      12.719   5.815  -1.323  0.00  0.00     0.203 HD
ATOM     36  H   LIG d   1      10.882  11.229  -3.781  0.00  0.00     0.203 HD
ENDROOT
BRANCH   8  37
ATOM     37  C   LIG d   1       9.749  12.794  -4.431  0.00  0.00    -0.027 C 
ATOM     38  H   LIG d   1       8.700  12.968  -4.672  0.00  0.00     0.082 H 
ATOM     39  H   LIG d   1      10.088  13.548  -3.721  0.00  0.00     0.082 H 
BRANCH  37  40
ATOM     40  C   LIG d   1      10.586  12.883  -5.708  0.00  0.00     0.028 C 
ATOM     41  H   LIG d   1      11.460  13.510  -5.527  0.00  0.00     0.037 H 
ATOM     42  H   LIG d   1      10.910  11.885  -6.001  0.00  0.00     0.037 H 
BRANCH  40  43
ATOM     43  C   LIG d   1       9.743  13.495  -6.829  0.00  0.00    -0.030 C 
ATOM     44  H   LIG d   1       8.893  14.022  -6.397  0.00  0.00     0.082 H 
ATOM     45  H   LIG d   1      10.353  14.196  -7.401  0.00  0.00     0.082 H 
BRANCH  43  46
ATOM     46  N   LIG d   1       9.261  12.428  -7.716  0.00  0.00     0.219 N 
ATOM     47  H   LIG d   1       8.560  12.801  -8.339  0.00  0.00     0.199 HD
ATOM     48  H   LIG d   1      10.031  12.065  -8.256  0.00  0.00     0.199 HD
ATOM     49  H   LIG d   1       8.859  11.687  -7.162  0.00  0.00     0.199 HD
ENDBRANCH  43  46
ENDBRANCH  40  43
ENDBRANCH  37  40
ENDBRANCH   8  37
BRANCH   5  50
ATOM     50  C   LIG d   1       9.181   7.796  -6.553  0.00  0.00     0.004 C 
ATOM     51  H   LIG d   1       8.825   6.767  -6.607  0.00  0.00     0.043 H 
ATOM     52  H   LIG d   1       8.376   8.475  -6.832  0.00  0.00     0.043 H 
BRANCH  50  53
ATOM     53  C   LIG d   1      10.360   7.979  -7.511  0.00  0.00     0.000 C 
ATOM     54  H   LIG d   1      11.087   8.658  -7.066  0.00  0.00     0.033 H 
ATOM     55  H   LIG d   1      10.829   7.014  -7.699  0.00  0.00     0.033 H 
BRANCH  53  56
ATOM     56  C   LIG d   1       9.855   8.566  -8.832  0.00  0.00    -0.034 C 
ATOM     57  H   LIG d   1      10.496   9.397  -9.128  0.00  0.00     0.081 H 
ATOM     58  H   LIG d   1       9.878   7.797  -9.603  0.00  0.00     0.081 H 
BRANCH  56  59
ATOM     59  N   LIG d   1       8.479   9.047  -8.659  0.00  0.00     0.219 N 
ATOM     60  H   LIG d   1       8.460  10.052  -8.743  0.00  0.00     0.199 HD
ATOM     61  H   LIG d   1       7.888   8.639  -9.369  0.00  0.00     0.199 HD
ATOM     62  H   LIG d   1       8.141   8.781  -7.746  0.00  0.00     0.199 HD
ENDBRANCH  56  59
ENDBRANCH  53  56
ENDBRANCH  50  53
ENDBRANCH   5  50
BRANCH  12  63
ATOM     63  C   LIG d   1      11.646   9.925   1.429  0.00  0.00    -0.013 C 
ATOM     64  H   LIG d   1      12.731   9.940   1.541  0.00  0.00     0.039 H 
ATOM     65  H   LIG d   1      11.230  10.861   1.804  0.00  0.00     0.039 H 
ATOM     66  H   LIG d   1      11.234   9.091   1.996  0.00  0.00     0.039 H 
ENDBRANCH  12  63
BRANCH   1  67
ATOM     67  C   LIG d   1      10.719   5.654  -1.037  0.00  0.00    -0.043 C 
ATOM     68  H   LIG d   1      10.049   6.246  -0.413  0.00  0.00     0.078 H 
ATOM     69  H   LIG d   1      10.207   5.381  -1.960  0.00  0.00     0.078 H 
ATOM     70  H   LIG d   1      11.010   4.750  -0.502  0.00  0.00     0.078 H 
ENDBRANCH   1  67
TORSDOF 10
ENDMDL
