MODEL 1
REMARK VINA RESULT:      -6.5      0.000      0.000
REMARK  6 active torsions:
REMARK  status: ('A' for Active; 'I' for Inactive)
REMARK    1  A    between atoms: C_1  and  C_2 
REMARK    2  A    between atoms: C_2  and  C_3 
REMARK    3  A    between atoms: C_2  and  C_4 
REMARK    4  A    between atoms: C_6  and  C_9 
REMARK    5  A    between atoms: C_18  and  C_19 
REMARK    6  A    between atoms: C_18  and  N_44 
ROOT
ATOM      1  C   LIG d   1       4.025  -0.608  -7.622  0.00  0.00     0.068 C 
ATOM      2  H   LIG d   1       4.642   0.036  -8.248  0.00  0.00     0.096 H 
ATOM      3  C   LIG d   1       2.542  -0.323  -7.901  0.00  0.00     0.065 C 
ATOM      4  C   LIG d   1       2.218  -0.863  -9.271  0.00  0.00     0.156 A 
ATOM      5  C   LIG d   1       3.008  -1.735  -9.935  0.00  0.00     0.190 A 
ATOM      6  C   LIG d   1       1.313  -1.328 -11.198  0.00  0.00     0.243 A 
ATOM      7  N   LIG d   1       1.147  -0.605 -10.066  0.00  0.00    -0.247 N 
ATOM      8  H   LIG d   1       0.381   0.003  -9.855  0.00  0.00     0.310 HD
ATOM      9  C   LIG d   1       4.303  -2.270  -9.376  0.00  0.00     0.036 C 
ATOM     10  H   LIG d   1       2.362   0.752  -7.876  0.00  0.00     0.041 H 
ATOM     11  H   LIG d   1       1.924  -0.819  -7.153  0.00  0.00     0.041 H 
ATOM     12  H   LIG d   1       0.634  -1.347 -12.038  0.00  0.00     0.158 H 
ATOM     13  H   LIG d   1       5.144  -1.763  -9.849  0.00  0.00     0.090 H 
ATOM     14  H   LIG d   1       4.369  -3.342  -9.561  0.00  0.00     0.090 H 
ATOM     15  N   LIG d   1       4.300  -2.034  -7.911  0.00  0.00     0.254 N 
ATOM     16  H   LIG d   1       3.562  -2.607  -7.485  0.00  0.00     0.205 HD
ATOM     17  N   LIG d   1       2.431  -2.000 -11.106  0.00  0.00    -0.243 N 
ATOM     18  H   LIG d   1       2.805  -2.632 -11.824  0.00  0.00     0.311 HD
ENDROOT
BRANCH   1  19
ATOM     19  C   LIG d   1       4.325  -0.334  -6.171  0.00  0.00     0.276 A 
ATOM     20  N   LIG d   1       3.581  -0.669  -5.144  0.00  0.00    -0.191 NA
ATOM     21  C   LIG d   1       4.242  -0.227  -4.059  0.00  0.00     0.174 A 
ATOM     22  N   LIG d   1       5.329   0.350  -4.475  0.00  0.00    -0.061 NA
ATOM     23  O   LIG d   1       5.396   0.299  -5.686  0.00  0.00    -0.332 OA
BRANCH  21  24
ATOM     24  C   LIG d   1       3.800  -0.369  -2.626  0.00  0.00     0.017 C 
ATOM     25  H   LIG d   1       2.728  -0.187  -2.557  0.00  0.00     0.037 H 
BRANCH  24  26
ATOM     26  C   LIG d   1       4.109  -1.785  -2.134  0.00  0.00    -0.056 C 
ATOM     27  H   LIG d   1       5.078  -2.101  -2.521  0.00  0.00     0.024 H 
ATOM     28  H   LIG d   1       4.133  -1.794  -1.044  0.00  0.00     0.024 H 
ATOM     29  H   LIG d   1       3.337  -2.468  -2.487  0.00  0.00     0.024 H 
ENDBRANCH  24  26
BRANCH  24  30
ATOM     30  C   LIG d   1       4.546   0.646  -1.758  0.00  0.00    -0.056 C 
ATOM     31  H   LIG d   1       4.485   0.346  -0.712  0.00  0.00     0.024 H 
ATOM     32  H   LIG d   1       5.592   0.686  -2.064  0.00  0.00     0.024 H 
ATOM     33  H   LIG d   1       4.095   1.630  -1.881  0.00  0.00     0.024 H 
ENDBRANCH  24  30
ENDBRANCH  21  24
ENDBRANCH   1  19
BRANCH  15  34
ATOM     34  C   LIG d   1       5.604  -2.422  -7.336  0.00  0.00    -0.005 C 
ATOM     35  H   LIG d   1       5.846  -1.745  -6.516  0.00  0.00     0.087 H 
ATOM     36  H   LIG d   1       6.388  -2.373  -8.091  0.00  0.00     0.087 H 
BRANCH  34  37
ATOM     37  C   LIG d   1       5.501  -3.831  -6.809  0.00  0.00    -0.003 A 
ATOM     38  C   LIG d   1       6.257  -4.838  -7.380  0.00  0.00    -0.051 A 
ATOM     39  C   LIG d   1       6.163  -6.131  -6.899  0.00  0.00    -0.026 A 
ATOM     40  H   LIG d   1       6.920  -4.616  -8.203  0.00  0.00     0.062 H 
ATOM     41  C   LIG d   1       5.316  -6.415  -5.841  0.00  0.00     0.123 A 
ATOM     42  H   LIG d   1       6.753  -6.917  -7.344  0.00  0.00     0.065 H 
ATOM     43  C   LIG d   1       4.556  -5.406  -5.273  0.00  0.00    -0.026 A 
ATOM     44  F   LIG d   1       5.228  -7.676  -5.364  0.00  0.00    -0.205 F 
ATOM     45  C   LIG d   1       4.651  -4.115  -5.757  0.00  0.00    -0.051 A 
ATOM     46  H   LIG d   1       3.892  -5.626  -4.450  0.00  0.00     0.065 H 
ATOM     47  H   LIG d   1       4.061  -3.327  -5.312  0.00  0.00     0.062 H 
ENDBRANCH  34  37
ENDBRANCH  15  34
TORSDOF 6
ENDMDL
MODEL 2
REMARK VINA RESULT:      -6.5      4.329      6.601
REMARK  6 active torsions:
REMARK  status: ('A' for Active; 'I' for Inactive)
REMARK    1  A    between atoms: C_1  and  C_2 
REMARK    2  A    between atoms: C_2  and  C_3 
REMARK    3  A    between atoms: C_2  and  C_4 
REMARK    4  A    between atoms: C_6  and  C_9 
REMARK    5  A    between atoms: C_18  and  C_19 
REMARK    6  A    between atoms: C_18  and  N_44 
ROOT
ATOM      1  C   LIG d   1       8.189   1.147  -4.923  0.00  0.00     0.068 C 
ATOM      2  H   LIG d   1       9.143   0.620  -4.949  0.00  0.00     0.096 H 
ATOM      3  C   LIG d   1       8.387   2.531  -4.289  0.00  0.00     0.065 C 
ATOM      4  C   LIG d   1       9.155   3.382  -5.269  0.00  0.00     0.156 A 
ATOM      5  C   LIG d   1       9.302   3.066  -6.575  0.00  0.00     0.190 A 
ATOM      6  C   LIG d   1      10.344   4.922  -6.251  0.00  0.00     0.243 A 
ATOM      7  N   LIG d   1       9.811   4.553  -5.063  0.00  0.00    -0.247 N 
ATOM      8  H   LIG d   1       9.885   5.049  -4.198  0.00  0.00     0.310 HD
ATOM      9  C   LIG d   1       8.710   1.826  -7.199  0.00  0.00     0.036 C 
ATOM     10  H   LIG d   1       8.953   2.436  -3.362  0.00  0.00     0.041 H 
ATOM     11  H   LIG d   1       7.418   2.987  -4.086  0.00  0.00     0.041 H 
ATOM     12  H   LIG d   1      10.930   5.812  -6.429  0.00  0.00     0.158 H 
ATOM     13  H   LIG d   1       9.491   1.078  -7.341  0.00  0.00     0.090 H 
ATOM     14  H   LIG d   1       8.262   2.076  -8.160  0.00  0.00     0.090 H 
ATOM     15  N   LIG d   1       7.652   1.320  -6.292  0.00  0.00     0.254 N 
ATOM     16  H   LIG d   1       6.885   2.003  -6.263  0.00  0.00     0.205 HD
ATOM     17  N   LIG d   1      10.032   4.023  -7.148  0.00  0.00    -0.243 N 
ATOM     18  H   LIG d   1      10.306   4.049  -8.137  0.00  0.00     0.311 HD
ENDROOT
BRANCH   1  19
ATOM     19  C   LIG d   1       7.201   0.356  -4.103  0.00  0.00     0.276 A 
ATOM     20  N   LIG d   1       6.090   0.807  -3.573  0.00  0.00    -0.191 NA
ATOM     21  C   LIG d   1       5.538  -0.244  -2.941  0.00  0.00     0.174 A 
ATOM     22  N   LIG d   1       6.332  -1.259  -3.110  0.00  0.00    -0.061 NA
ATOM     23  O   LIG d   1       7.293  -0.935  -3.775  0.00  0.00    -0.332 OA
BRANCH  21  24
ATOM     24  C   LIG d   1       4.241  -0.243  -2.174  0.00  0.00     0.017 C 
ATOM     25  H   LIG d   1       4.442  -0.441  -1.121  0.00  0.00     0.037 H 
BRANCH  24  26
ATOM     26  C   LIG d   1       3.565   1.122  -2.316  0.00  0.00    -0.056 C 
ATOM     27  H   LIG d   1       4.324   1.893  -2.440  0.00  0.00     0.024 H 
ATOM     28  H   LIG d   1       2.909   1.113  -3.187  0.00  0.00     0.024 H 
ATOM     29  H   LIG d   1       2.977   1.331  -1.421  0.00  0.00     0.024 H 
ENDBRANCH  24  26
BRANCH  24  30
ATOM     30  C   LIG d   1       3.319  -1.330  -2.729  0.00  0.00    -0.056 C 
ATOM     31  H   LIG d   1       3.920  -2.144  -3.135  0.00  0.00     0.024 H 
ATOM     32  H   LIG d   1       2.683  -1.710  -1.930  0.00  0.00     0.024 H 
ATOM     33  H   LIG d   1       2.697  -0.909  -3.519  0.00  0.00     0.024 H 
ENDBRANCH  24  30
ENDBRANCH  21  24
ENDBRANCH   1  19
BRANCH  15  34
ATOM     34  C   LIG d   1       7.130   0.033  -6.794  0.00  0.00    -0.005 C 
ATOM     35  H   LIG d   1       7.054  -0.668  -5.963  0.00  0.00     0.087 H 
ATOM     36  H   LIG d   1       7.791  -0.379  -7.557  0.00  0.00     0.087 H 
BRANCH  34  37
ATOM     37  C   LIG d   1       5.763   0.262  -7.386  0.00  0.00    -0.003 A 
ATOM     38  C   LIG d   1       4.648  -0.290  -6.782  0.00  0.00    -0.051 A 
ATOM     39  C   LIG d   1       3.393  -0.082  -7.323  0.00  0.00    -0.026 A 
ATOM     40  H   LIG d   1       4.758  -0.886  -5.887  0.00  0.00     0.062 H 
ATOM     41  C   LIG d   1       3.253   0.686  -8.467  0.00  0.00     0.123 A 
ATOM     42  H   LIG d   1       2.523  -0.512  -6.851  0.00  0.00     0.065 H 
ATOM     43  C   LIG d   1       4.371   1.235  -9.074  0.00  0.00    -0.026 A 
ATOM     44  F   LIG d   1       2.027   0.897  -8.993  0.00  0.00    -0.205 F 
ATOM     45  C   LIG d   1       5.624   1.023  -8.530  0.00  0.00    -0.051 A 
ATOM     46  H   LIG d   1       4.263   1.831  -9.968  0.00  0.00     0.065 H 
ATOM     47  H   LIG d   1       6.496   1.454  -9.001  0.00  0.00     0.062 H 
ENDBRANCH  34  37
ENDBRANCH  15  34
TORSDOF 6
ENDMDL
MODEL 3
REMARK VINA RESULT:      -6.4      2.989      6.544
REMARK  6 active torsions:
REMARK  status: ('A' for Active; 'I' for Inactive)
REMARK    1  A    between atoms: C_1  and  C_2 
REMARK    2  A    between atoms: C_2  and  C_3 
REMARK    3  A    between atoms: C_2  and  C_4 
REMARK    4  A    between atoms: C_6  and  C_9 
REMARK    5  A    between atoms: C_18  and  C_19 
REMARK    6  A    between atoms: C_18  and  N_44 
ROOT
ATOM      1  C   LIG d   1       5.158  -2.700  -4.742  0.00  0.00     0.068 C 
ATOM      2  H   LIG d   1       6.238  -2.643  -4.604  0.00  0.00     0.096 H 
ATOM      3  C   LIG d   1       4.459  -2.516  -3.388  0.00  0.00     0.065 C 
ATOM      4  C   LIG d   1       4.618  -1.073  -2.978  0.00  0.00     0.156 A 
ATOM      5  C   LIG d   1       4.992  -0.093  -3.831  0.00  0.00     0.190 A 
ATOM      6  C   LIG d   1       4.703   0.820  -1.903  0.00  0.00     0.243 A 
ATOM      7  N   LIG d   1       4.435  -0.499  -1.761  0.00  0.00    -0.247 N 
ATOM      8  H   LIG d   1       4.154  -0.962  -0.921  0.00  0.00     0.310 HD
ATOM      9  C   LIG d   1       5.289  -0.334  -5.290  0.00  0.00     0.036 C 
ATOM     10  H   LIG d   1       4.922  -3.163  -2.642  0.00  0.00     0.041 H 
ATOM     11  H   LIG d   1       3.401  -2.758  -3.482  0.00  0.00     0.041 H 
ATOM     12  H   LIG d   1       4.652   1.561  -1.118  0.00  0.00     0.158 H 
ATOM     13  H   LIG d   1       6.367  -0.337  -5.450  0.00  0.00     0.090 H 
ATOM     14  H   LIG d   1       4.830   0.449  -5.893  0.00  0.00     0.090 H 
ATOM     15  N   LIG d   1       4.695  -1.641  -5.667  0.00  0.00     0.254 N 
ATOM     16  H   LIG d   1       3.672  -1.570  -5.605  0.00  0.00     0.205 HD
ATOM     17  N   LIG d   1       5.036   1.049  -3.147  0.00  0.00    -0.243 N 
ATOM     18  H   LIG d   1       5.290   1.965  -3.535  0.00  0.00     0.311 HD
ENDROOT
BRANCH   1  19
ATOM     19  C   LIG d   1       4.795  -4.046  -5.315  0.00  0.00     0.276 A 
ATOM     20  N   LIG d   1       5.580  -5.093  -5.406  0.00  0.00    -0.191 NA
ATOM     21  C   LIG d   1       4.834  -6.056  -5.976  0.00  0.00     0.174 A 
ATOM     22  N   LIG d   1       3.658  -5.552  -6.204  0.00  0.00    -0.061 NA
ATOM     23  O   LIG d   1       3.615  -4.398  -5.832  0.00  0.00    -0.332 OA
BRANCH  21  24
ATOM     24  C   LIG d   1       5.281  -7.459  -6.295  0.00  0.00     0.017 C 
ATOM     25  H   LIG d   1       6.346  -7.457  -6.527  0.00  0.00     0.037 H 
BRANCH  24  26
ATOM     26  C   LIG d   1       5.024  -8.364  -5.088  0.00  0.00    -0.056 C 
ATOM     27  H   LIG d   1       5.650  -9.253  -5.159  0.00  0.00     0.024 H 
ATOM     28  H   LIG d   1       5.262  -7.823  -4.171  0.00  0.00     0.024 H 
ATOM     29  H   LIG d   1       3.974  -8.659  -5.073  0.00  0.00     0.024 H 
ENDBRANCH  24  26
BRANCH  24  30
ATOM     30  C   LIG d   1       4.498  -7.982  -7.500  0.00  0.00    -0.056 C 
ATOM     31  H   LIG d   1       4.716  -9.041  -7.644  0.00  0.00     0.024 H 
ATOM     32  H   LIG d   1       3.430  -7.851  -7.324  0.00  0.00     0.024 H 
ATOM     33  H   LIG d   1       4.789  -7.427  -8.391  0.00  0.00     0.024 H 
ENDBRANCH  24  30
ENDBRANCH  21  24
ENDBRANCH   1  19
BRANCH  15  34
ATOM     34  C   LIG d   1       5.070  -1.983  -7.054  0.00  0.00    -0.005 C 
ATOM     35  H   LIG d   1       5.251  -3.057  -7.118  0.00  0.00     0.087 H 
ATOM     36  H   LIG d   1       5.970  -1.446  -7.353  0.00  0.00     0.087 H 
BRANCH  34  37
ATOM     37  C   LIG d   1       3.933  -1.610  -7.970  0.00  0.00    -0.003 A 
ATOM     38  C   LIG d   1       3.418  -2.546  -8.848  0.00  0.00    -0.051 A 
ATOM     39  C   LIG d   1       2.375  -2.205  -9.689  0.00  0.00    -0.026 A 
ATOM     40  H   LIG d   1       3.831  -3.543  -8.877  0.00  0.00     0.062 H 
ATOM     41  C   LIG d   1       1.843  -0.927  -9.647  0.00  0.00     0.123 A 
ATOM     42  H   LIG d   1       1.972  -2.935 -10.374  0.00  0.00     0.065 H 
ATOM     43  C   LIG d   1       2.363   0.011  -8.770  0.00  0.00    -0.026 A 
ATOM     44  F   LIG d   1       0.819  -0.594 -10.463  0.00  0.00    -0.205 F 
ATOM     45  C   LIG d   1       3.406  -0.333  -7.931  0.00  0.00    -0.051 A 
ATOM     46  H   LIG d   1       1.951   1.009  -8.739  0.00  0.00     0.065 H 
ATOM     47  H   LIG d   1       3.810   0.397  -7.245  0.00  0.00     0.062 H 
ENDBRANCH  34  37
ENDBRANCH  15  34
TORSDOF 6
ENDMDL
MODEL 4
REMARK VINA RESULT:      -6.3      5.192      7.781
REMARK  6 active torsions:
REMARK  status: ('A' for Active; 'I' for Inactive)
REMARK    1  A    between atoms: C_1  and  C_2 
REMARK    2  A    between atoms: C_2  and  C_3 
REMARK    3  A    between atoms: C_2  and  C_4 
REMARK    4  A    between atoms: C_6  and  C_9 
REMARK    5  A    between atoms: C_18  and  C_19 
REMARK    6  A    between atoms: C_18  and  N_44 
ROOT
ATOM      1  C   LIG d   1       8.090  -3.031  -4.381  0.00  0.00     0.068 C 
ATOM      2  H   LIG d   1       8.117  -3.700  -5.242  0.00  0.00     0.096 H 
ATOM      3  C   LIG d   1       8.783  -3.703  -3.188  0.00  0.00     0.065 C 
ATOM      4  C   LIG d   1      10.263  -3.739  -3.474  0.00  0.00     0.156 A 
ATOM      5  C   LIG d   1      10.855  -2.992  -4.433  0.00  0.00     0.190 A 
ATOM      6  C   LIG d   1      12.402  -4.154  -3.488  0.00  0.00     0.243 A 
ATOM      7  N   LIG d   1      11.237  -4.472  -2.876  0.00  0.00    -0.247 N 
ATOM      8  H   LIG d   1      11.118  -5.122  -2.126  0.00  0.00     0.310 HD
ATOM      9  C   LIG d   1      10.100  -2.037  -5.322  0.00  0.00     0.036 C 
ATOM     10  H   LIG d   1       8.407  -4.719  -3.067  0.00  0.00     0.041 H 
ATOM     11  H   LIG d   1       8.596  -3.130  -2.280  0.00  0.00     0.041 H 
ATOM     12  H   LIG d   1      13.372  -4.565  -3.248  0.00  0.00     0.158 H 
ATOM     13  H   LIG d   1       9.967  -2.481  -6.309  0.00  0.00     0.090 H 
ATOM     14  H   LIG d   1      10.653  -1.102  -5.411  0.00  0.00     0.090 H 
ATOM     15  N   LIG d   1       8.788  -1.761  -4.686  0.00  0.00     0.254 N 
ATOM     16  H   LIG d   1       8.945  -1.250  -3.810  0.00  0.00     0.205 HD
ATOM     17  N   LIG d   1      12.159  -3.267  -4.418  0.00  0.00    -0.243 N 
ATOM     18  H   LIG d   1      12.862  -2.849  -5.039  0.00  0.00     0.311 HD
ENDROOT
BRANCH   1  19
ATOM     19  C   LIG d   1       6.656  -2.729  -4.025  0.00  0.00     0.276 A 
ATOM     20  N   LIG d   1       6.241  -1.899  -3.099  0.00  0.00    -0.191 NA
ATOM     21  C   LIG d   1       4.897  -1.952  -3.141  0.00  0.00     0.174 A 
ATOM     22  N   LIG d   1       4.572  -2.803  -4.068  0.00  0.00    -0.061 NA
ATOM     23  O   LIG d   1       5.568  -3.261  -4.588  0.00  0.00    -0.332 OA
BRANCH  21  24
ATOM     24  C   LIG d   1       3.946  -1.174  -2.270  0.00  0.00     0.017 C 
ATOM     25  H   LIG d   1       3.693  -1.765  -1.390  0.00  0.00     0.037 H 
BRANCH  24  26
ATOM     26  C   LIG d   1       4.608   0.135  -1.833  0.00  0.00    -0.056 C 
ATOM     27  H   LIG d   1       5.504  -0.087  -1.254  0.00  0.00     0.024 H 
ATOM     28  H   LIG d   1       4.879   0.716  -2.715  0.00  0.00     0.024 H 
ATOM     29  H   LIG d   1       3.911   0.707  -1.221  0.00  0.00     0.024 H 
ENDBRANCH  24  26
BRANCH  24  30
ATOM     30  C   LIG d   1       2.672  -0.863  -3.058  0.00  0.00    -0.056 C 
ATOM     31  H   LIG d   1       2.850  -1.035  -4.120  0.00  0.00     0.024 H 
ATOM     32  H   LIG d   1       1.865  -1.509  -2.714  0.00  0.00     0.024 H 
ATOM     33  H   LIG d   1       2.394   0.179  -2.901  0.00  0.00     0.024 H 
ENDBRANCH  24  30
ENDBRANCH  21  24
ENDBRANCH   1  19
BRANCH  15  34
ATOM     34  C   LIG d   1       7.957  -0.932  -5.583  0.00  0.00    -0.005 C 
ATOM     35  H   LIG d   1       6.905  -1.130  -5.376  0.00  0.00     0.087 H 
ATOM     36  H   LIG d   1       8.171  -1.162  -6.627  0.00  0.00     0.087 H 
BRANCH  34  37
ATOM     37  C   LIG d   1       8.258   0.520  -5.317  0.00  0.00    -0.003 A 
ATOM     38  C   LIG d   1       8.716   1.330  -6.340  0.00  0.00    -0.051 A 
ATOM     39  C   LIG d   1       8.993   2.662  -6.097  0.00  0.00    -0.026 A 
ATOM     40  H   LIG d   1       8.859   0.921  -7.329  0.00  0.00     0.062 H 
ATOM     41  C   LIG d   1       8.804   3.187  -4.830  0.00  0.00     0.123 A 
ATOM     42  H   LIG d   1       9.350   3.294  -6.896  0.00  0.00     0.065 H 
ATOM     43  C   LIG d   1       8.349   2.375  -3.805  0.00  0.00    -0.026 A 
ATOM     44  F   LIG d   1       9.067   4.491  -4.592  0.00  0.00    -0.205 F 
ATOM     45  C   LIG d   1       8.074   1.042  -4.051  0.00  0.00    -0.051 A 
ATOM     46  H   LIG d   1       8.204   2.782  -2.815  0.00  0.00     0.065 H 
ATOM     47  H   LIG d   1       7.716   0.409  -3.252  0.00  0.00     0.062 H 
ENDBRANCH  34  37
ENDBRANCH  15  34
TORSDOF 6
ENDMDL
MODEL 5
REMARK VINA RESULT:      -6.1      2.995      6.037
REMARK  6 active torsions:
REMARK  status: ('A' for Active; 'I' for Inactive)
REMARK    1  A    between atoms: C_1  and  C_2 
REMARK    2  A    between atoms: C_2  and  C_3 
REMARK    3  A    between atoms: C_2  and  C_4 
REMARK    4  A    between atoms: C_6  and  C_9 
REMARK    5  A    between atoms: C_18  and  C_19 
REMARK    6  A    between atoms: C_18  and  N_44 
ROOT
ATOM      1  C   LIG d   1       4.961  -2.710  -7.401  0.00  0.00     0.068 C 
ATOM      2  H   LIG d   1       5.764  -2.897  -8.113  0.00  0.00     0.096 H 
ATOM      3  C   LIG d   1       3.977  -3.888  -7.417  0.00  0.00     0.065 C 
ATOM      4  C   LIG d   1       4.659  -5.068  -6.771  0.00  0.00     0.156 A 
ATOM      5  C   LIG d   1       5.777  -4.963  -6.018  0.00  0.00     0.190 A 
ATOM      6  C   LIG d   1       5.245  -7.048  -6.076  0.00  0.00     0.243 A 
ATOM      7  N   LIG d   1       4.321  -6.383  -6.808  0.00  0.00    -0.247 N 
ATOM      8  H   LIG d   1       3.539  -6.783  -7.285  0.00  0.00     0.310 HD
ATOM      9  C   LIG d   1       6.465  -3.650  -5.737  0.00  0.00     0.036 C 
ATOM     10  H   LIG d   1       3.711  -4.133  -8.445  0.00  0.00     0.041 H 
ATOM     11  H   LIG d   1       3.080  -3.628  -6.855  0.00  0.00     0.041 H 
ATOM     12  H   LIG d   1       5.265  -8.115  -5.907  0.00  0.00     0.158 H 
ATOM     13  H   LIG d   1       7.356  -3.562  -6.359  0.00  0.00     0.090 H 
ATOM     14  H   LIG d   1       6.745  -3.600  -4.685  0.00  0.00     0.090 H 
ATOM     15  N   LIG d   1       5.504  -2.559  -6.031  0.00  0.00     0.254 N 
ATOM     16  H   LIG d   1       4.729  -2.609  -5.359  0.00  0.00     0.205 HD
ATOM     17  N   LIG d   1       6.111  -6.186  -5.609  0.00  0.00    -0.243 N 
ATOM     18  H   LIG d   1       6.920  -6.416  -5.020  0.00  0.00     0.311 HD
ENDROOT
BRANCH   1  19
ATOM     19  C   LIG d   1       4.236  -1.445  -7.783  0.00  0.00     0.276 A 
ATOM     20  N   LIG d   1       4.436  -0.726  -8.862  0.00  0.00    -0.191 NA
ATOM     21  C   LIG d   1       3.568   0.298  -8.781  0.00  0.00     0.174 A 
ATOM     22  N   LIG d   1       2.902   0.156  -7.674  0.00  0.00    -0.061 NA
ATOM     23  O   LIG d   1       3.271  -0.839  -7.086  0.00  0.00    -0.332 OA
BRANCH  21  24
ATOM     24  C   LIG d   1       3.402   1.408  -9.786  0.00  0.00     0.017 C 
ATOM     25  H   LIG d   1       2.341   1.611  -9.931  0.00  0.00     0.037 H 
BRANCH  24  26
ATOM     26  C   LIG d   1       4.097   2.670  -9.272  0.00  0.00    -0.056 C 
ATOM     27  H   LIG d   1       3.721   3.539  -9.813  0.00  0.00     0.024 H 
ATOM     28  H   LIG d   1       3.893   2.789  -8.208  0.00  0.00     0.024 H 
ATOM     29  H   LIG d   1       5.172   2.582  -9.429  0.00  0.00     0.024 H 
ENDBRANCH  24  26
BRANCH  24  30
ATOM     30  C   LIG d   1       4.027   0.988 -11.118  0.00  0.00    -0.056 C 
ATOM     31  H   LIG d   1       3.267   0.525 -11.747  0.00  0.00     0.024 H 
ATOM     32  H   LIG d   1       4.431   1.866 -11.622  0.00  0.00     0.024 H 
ATOM     33  H   LIG d   1       4.830   0.275 -10.934  0.00  0.00     0.024 H 
ENDBRANCH  24  30
ENDBRANCH  21  24
ENDBRANCH   1  19
BRANCH  15  34
ATOM     34  C   LIG d   1       6.173  -1.249  -5.896  0.00  0.00    -0.005 C 
ATOM     35  H   LIG d   1       5.874  -0.610  -6.727  0.00  0.00     0.087 H 
ATOM     36  H   LIG d   1       7.256  -1.367  -5.901  0.00  0.00     0.087 H 
BRANCH  34  37
ATOM     37  C   LIG d   1       5.742  -0.617  -4.597  0.00  0.00    -0.003 A 
ATOM     38  C   LIG d   1       4.707  -1.173  -3.869  0.00  0.00    -0.051 A 
ATOM     39  C   LIG d   1       4.311  -0.595  -2.677  0.00  0.00    -0.026 A 
ATOM     40  H   LIG d   1       4.207  -2.060  -4.231  0.00  0.00     0.062 H 
ATOM     41  C   LIG d   1       4.955   0.538  -2.211  0.00  0.00     0.123 A 
ATOM     42  H   LIG d   1       3.503  -1.030  -2.108  0.00  0.00     0.065 H 
ATOM     43  C   LIG d   1       5.989   1.098  -2.944  0.00  0.00    -0.026 A 
ATOM     44  F   LIG d   1       4.574   1.101  -1.044  0.00  0.00    -0.205 F 
ATOM     45  C   LIG d   1       6.382   0.517  -4.135  0.00  0.00    -0.051 A 
ATOM     46  H   LIG d   1       6.490   1.983  -2.583  0.00  0.00     0.065 H 
ATOM     47  H   LIG d   1       7.191   0.951  -4.706  0.00  0.00     0.062 H 
ENDBRANCH  34  37
ENDBRANCH  15  34
TORSDOF 6
ENDMDL
MODEL 6
REMARK VINA RESULT:      -6.0      3.613      5.399
REMARK  6 active torsions:
REMARK  status: ('A' for Active; 'I' for Inactive)
REMARK    1  A    between atoms: C_1  and  C_2 
REMARK    2  A    between atoms: C_2  and  C_3 
REMARK    3  A    between atoms: C_2  and  C_4 
REMARK    4  A    between atoms: C_6  and  C_9 
REMARK    5  A    between atoms: C_18  and  C_19 
REMARK    6  A    between atoms: C_18  and  N_44 
ROOT
ATOM      1  C   LIG d   1       7.593   0.077  -6.059  0.00  0.00     0.068 C 
ATOM      2  H   LIG d   1       8.470  -0.545  -6.241  0.00  0.00     0.096 H 
ATOM      3  C   LIG d   1       8.029   1.538  -5.882  0.00  0.00     0.065 C 
ATOM      4  C   LIG d   1       8.469   2.055  -7.228  0.00  0.00     0.156 A 
ATOM      5  C   LIG d   1       8.179   1.438  -8.395  0.00  0.00     0.190 A 
ATOM      6  C   LIG d   1       9.328   3.193  -8.876  0.00  0.00     0.243 A 
ATOM      7  N   LIG d   1       9.194   3.164  -7.529  0.00  0.00    -0.247 N 
ATOM      8  H   LIG d   1       9.558   3.831  -6.880  0.00  0.00     0.310 HD
ATOM      9  C   LIG d   1       7.378   0.162  -8.480  0.00  0.00     0.036 C 
ATOM     10  H   LIG d   1       8.859   1.593  -5.177  0.00  0.00     0.041 H 
ATOM     11  H   LIG d   1       7.192   2.131  -5.514  0.00  0.00     0.041 H 
ATOM     12  H   LIG d   1       9.855   3.950  -9.439  0.00  0.00     0.158 H 
ATOM     13  H   LIG d   1       8.047  -0.680  -8.661  0.00  0.00     0.090 H 
ATOM     14  H   LIG d   1       6.653   0.236  -9.291  0.00  0.00     0.090 H 
ATOM     15  N   LIG d   1       6.651  -0.006  -7.198  0.00  0.00     0.254 N 
ATOM     16  H   LIG d   1       5.956   0.745  -7.110  0.00  0.00     0.205 HD
ATOM     17  N   LIG d   1       8.716   2.154  -9.381  0.00  0.00    -0.243 N 
ATOM     18  H   LIG d   1       8.659   1.926 -10.381  0.00  0.00     0.311 HD
ENDROOT
BRANCH   1  19
ATOM     19  C   LIG d   1       6.895  -0.395  -4.809  0.00  0.00     0.276 A 
ATOM     20  N   LIG d   1       5.828   0.137  -4.263  0.00  0.00    -0.191 NA
ATOM     21  C   LIG d   1       5.566  -0.610  -3.176  0.00  0.00     0.174 A 
ATOM     22  N   LIG d   1       6.475  -1.537  -3.114  0.00  0.00    -0.061 NA
ATOM     23  O   LIG d   1       7.249  -1.431  -4.043  0.00  0.00    -0.332 OA
BRANCH  21  24
ATOM     24  C   LIG d   1       4.431  -0.408  -2.206  0.00  0.00     0.017 C 
ATOM     25  H   LIG d   1       4.581  -1.044  -1.335  0.00  0.00     0.037 H 
BRANCH  24  26
ATOM     26  C   LIG d   1       4.390   1.058  -1.768  0.00  0.00    -0.056 C 
ATOM     27  H   LIG d   1       5.248   1.586  -2.182  0.00  0.00     0.024 H 
ATOM     28  H   LIG d   1       3.470   1.519  -2.129  0.00  0.00     0.024 H 
ATOM     29  H   LIG d   1       4.420   1.111  -0.679  0.00  0.00     0.024 H 
ENDBRANCH  24  26
BRANCH  24  30
ATOM     30  C   LIG d   1       3.110  -0.774  -2.884  0.00  0.00    -0.056 C 
ATOM     31  H   LIG d   1       3.229  -1.709  -3.433  0.00  0.00     0.024 H 
ATOM     32  H   LIG d   1       2.334  -0.893  -2.127  0.00  0.00     0.024 H 
ATOM     33  H   LIG d   1       2.824   0.018  -3.575  0.00  0.00     0.024 H 
ENDBRANCH  24  30
ENDBRANCH  21  24
ENDBRANCH   1  19
BRANCH  15  34
ATOM     34  C   LIG d   1       5.954  -1.309  -7.182  0.00  0.00    -0.005 C 
ATOM     35  H   LIG d   1       5.807  -1.620  -6.147  0.00  0.00     0.087 H 
ATOM     36  H   LIG d   1       6.537  -2.063  -7.709  0.00  0.00     0.087 H 
BRANCH  34  37
ATOM     37  C   LIG d   1       4.614  -1.150  -7.852  0.00  0.00    -0.003 A 
ATOM     38  C   LIG d   1       3.730  -0.182  -7.409  0.00  0.00    -0.051 A 
ATOM     39  C   LIG d   1       2.500  -0.035  -8.023  0.00  0.00    -0.026 A 
ATOM     40  H   LIG d   1       4.001   0.458  -6.583  0.00  0.00     0.062 H 
ATOM     41  C   LIG d   1       2.157  -0.853  -9.087  0.00  0.00     0.123 A 
ATOM     42  H   LIG d   1       1.811   0.720  -7.678  0.00  0.00     0.065 H 
ATOM     43  C   LIG d   1       3.040  -1.825  -9.526  0.00  0.00    -0.026 A 
ATOM     44  F   LIG d   1       0.958  -0.706  -9.692  0.00  0.00    -0.205 F 
ATOM     45  C   LIG d   1       4.269  -1.970  -8.910  0.00  0.00    -0.051 A 
ATOM     46  H   LIG d   1       2.772  -2.465 -10.353  0.00  0.00     0.065 H 
ATOM     47  H   LIG d   1       4.959  -2.725  -9.255  0.00  0.00     0.062 H 
ENDBRANCH  34  37
ENDBRANCH  15  34
TORSDOF 6
ENDMDL
MODEL 7
REMARK VINA RESULT:      -5.9      3.744      6.662
REMARK  6 active torsions:
REMARK  status: ('A' for Active; 'I' for Inactive)
REMARK    1  A    between atoms: C_1  and  C_2 
REMARK    2  A    between atoms: C_2  and  C_3 
REMARK    3  A    between atoms: C_2  and  C_4 
REMARK    4  A    between atoms: C_6  and  C_9 
REMARK    5  A    between atoms: C_18  and  C_19 
REMARK    6  A    between atoms: C_18  and  N_44 
ROOT
ATOM      1  C   LIG d   1       7.991   0.169  -6.830  0.00  0.00     0.068 C 
ATOM      2  H   LIG d   1       8.517   1.124  -6.822  0.00  0.00     0.096 H 
ATOM      3  C   LIG d   1       8.857  -0.887  -7.530  0.00  0.00     0.065 C 
ATOM      4  C   LIG d   1      10.017  -1.209  -6.621  0.00  0.00     0.156 A 
ATOM      5  C   LIG d   1      10.051  -0.881  -5.311  0.00  0.00     0.190 A 
ATOM      6  C   LIG d   1      11.899  -1.889  -5.759  0.00  0.00     0.243 A 
ATOM      7  N   LIG d   1      11.182  -1.846  -6.906  0.00  0.00    -0.247 N 
ATOM      8  H   LIG d   1      11.458  -2.214  -7.794  0.00  0.00     0.310 HD
ATOM      9  C   LIG d   1       8.928  -0.157  -4.609  0.00  0.00     0.036 C 
ATOM     10  H   LIG d   1       9.229  -0.492  -8.475  0.00  0.00     0.041 H 
ATOM     11  H   LIG d   1       8.270  -1.787  -7.711  0.00  0.00     0.041 H 
ATOM     12  H   LIG d   1      12.878  -2.330  -5.645  0.00  0.00     0.158 H 
ATOM     13  H   LIG d   1       9.197   0.890  -4.469  0.00  0.00     0.090 H 
ATOM     14  H   LIG d   1       8.740  -0.621  -3.641  0.00  0.00     0.090 H 
ATOM     15  N   LIG d   1       7.710  -0.283  -5.448  0.00  0.00     0.254 N 
ATOM     16  H   LIG d   1       7.425  -1.269  -5.472  0.00  0.00     0.205 HD
ATOM     17  N   LIG d   1      11.210  -1.307  -4.812  0.00  0.00    -0.243 N 
ATOM     18  H   LIG d   1      11.514  -1.197  -3.837  0.00  0.00     0.311 HD
ENDROOT
BRANCH   1  19
ATOM     19  C   LIG d   1       6.687   0.320  -7.571  0.00  0.00     0.276 A 
ATOM     20  N   LIG d   1       6.209   1.425  -8.092  0.00  0.00    -0.191 NA
ATOM     21  C   LIG d   1       5.033   1.083  -8.649  0.00  0.00     0.174 A 
ATOM     22  N   LIG d   1       4.857  -0.187  -8.436  0.00  0.00    -0.061 NA
ATOM     23  O   LIG d   1       5.796  -0.644  -7.818  0.00  0.00    -0.332 OA
BRANCH  21  24
ATOM     24  C   LIG d   1       4.092   2.004  -9.382  0.00  0.00     0.017 C 
ATOM     25  H   LIG d   1       4.543   2.992  -9.465  0.00  0.00     0.037 H 
BRANCH  24  26
ATOM     26  C   LIG d   1       3.820   1.448 -10.781  0.00  0.00    -0.056 C 
ATOM     27  H   LIG d   1       4.742   1.461 -11.363  0.00  0.00     0.024 H 
ATOM     28  H   LIG d   1       3.456   0.424 -10.701  0.00  0.00     0.024 H 
ATOM     29  H   LIG d   1       3.069   2.064 -11.276  0.00  0.00     0.024 H 
ENDBRANCH  24  26
BRANCH  24  30
ATOM     30  C   LIG d   1       2.776   2.107  -8.610  0.00  0.00    -0.056 C 
ATOM     31  H   LIG d   1       2.968   2.511  -7.615  0.00  0.00     0.024 H 
ATOM     32  H   LIG d   1       2.092   2.766  -9.144  0.00  0.00     0.024 H 
ATOM     33  H   LIG d   1       2.329   1.117  -8.519  0.00  0.00     0.024 H 
ENDBRANCH  24  30
ENDBRANCH  21  24
ENDBRANCH   1  19
BRANCH  15  34
ATOM     34  C   LIG d   1       6.614   0.520  -4.868  0.00  0.00    -0.005 C 
ATOM     35  H   LIG d   1       6.024   0.952  -5.677  0.00  0.00     0.087 H 
ATOM     36  H   LIG d   1       7.012   1.319  -4.242  0.00  0.00     0.087 H 
BRANCH  34  37
ATOM     37  C   LIG d   1       5.740  -0.383  -4.036  0.00  0.00    -0.003 A 
ATOM     38  C   LIG d   1       5.458  -1.664  -4.472  0.00  0.00    -0.051 A 
ATOM     39  C   LIG d   1       4.656  -2.494  -3.710  0.00  0.00    -0.026 A 
ATOM     40  H   LIG d   1       5.864  -2.017  -5.409  0.00  0.00     0.062 H 
ATOM     41  C   LIG d   1       4.141  -2.042  -2.507  0.00  0.00     0.123 A 
ATOM     42  H   LIG d   1       4.437  -3.494  -4.050  0.00  0.00     0.065 H 
ATOM     43  C   LIG d   1       4.420  -0.757  -2.073  0.00  0.00    -0.026 A 
ATOM     44  F   LIG d   1       3.363  -2.853  -1.757  0.00  0.00    -0.205 F 
ATOM     45  C   LIG d   1       5.222   0.070  -2.838  0.00  0.00    -0.051 A 
ATOM     46  H   LIG d   1       4.017  -0.402  -1.136  0.00  0.00     0.065 H 
ATOM     47  H   LIG d   1       5.443   1.072  -2.498  0.00  0.00     0.062 H 
ENDBRANCH  34  37
ENDBRANCH  15  34
TORSDOF 6
ENDMDL
MODEL 8
REMARK VINA RESULT:      -5.9      3.380      5.683
REMARK  6 active torsions:
REMARK  status: ('A' for Active; 'I' for Inactive)
REMARK    1  A    between atoms: C_1  and  C_2 
REMARK    2  A    between atoms: C_2  and  C_3 
REMARK    3  A    between atoms: C_2  and  C_4 
REMARK    4  A    between atoms: C_6  and  C_9 
REMARK    5  A    between atoms: C_18  and  C_19 
REMARK    6  A    between atoms: C_18  and  N_44 
ROOT
ATOM      1  C   LIG d   1       6.178  -2.900  -5.379  0.00  0.00     0.068 C 
ATOM      2  H   LIG d   1       6.107  -3.987  -5.343  0.00  0.00     0.096 H 
ATOM      3  C   LIG d   1       7.592  -2.466  -4.967  0.00  0.00     0.065 C 
ATOM      4  C   LIG d   1       8.535  -2.850  -6.079  0.00  0.00     0.156 A 
ATOM      5  C   LIG d   1       8.125  -3.179  -7.325  0.00  0.00     0.190 A 
ATOM      6  C   LIG d   1      10.273  -3.325  -7.305  0.00  0.00     0.243 A 
ATOM      7  N   LIG d   1       9.890  -2.941  -6.065  0.00  0.00    -0.247 N 
ATOM      8  H   LIG d   1      10.491  -2.757  -5.287  0.00  0.00     0.310 HD
ATOM      9  C   LIG d   1       6.676  -3.195  -7.742  0.00  0.00     0.036 C 
ATOM     10  H   LIG d   1       7.881  -2.974  -4.047  0.00  0.00     0.041 H 
ATOM     11  H   LIG d   1       7.618  -1.387  -4.818  0.00  0.00     0.041 H 
ATOM     12  H   LIG d   1      11.291  -3.490  -7.627  0.00  0.00     0.158 H 
ATOM     13  H   LIG d   1       6.317  -4.224  -7.782  0.00  0.00     0.090 H 
ATOM     14  H   LIG d   1       6.570  -2.730  -8.722  0.00  0.00     0.090 H 
ATOM     15  N   LIG d   1       5.907  -2.406  -6.749  0.00  0.00     0.254 N 
ATOM     16  H   LIG d   1       6.196  -1.423  -6.810  0.00  0.00     0.205 HD
ATOM     17  N   LIG d   1       9.207  -3.465  -8.049  0.00  0.00    -0.243 N 
ATOM     18  H   LIG d   1       9.203  -3.749  -9.036  0.00  0.00     0.311 HD
ENDROOT
BRANCH   1  19
ATOM     19  C   LIG d   1       5.172  -2.299  -4.432  0.00  0.00     0.276 A 
ATOM     20  N   LIG d   1       5.100  -1.042  -4.065  0.00  0.00    -0.191 NA
ATOM     21  C   LIG d   1       4.055  -0.970  -3.221  0.00  0.00     0.174 A 
ATOM     22  N   LIG d   1       3.560  -2.167  -3.114  0.00  0.00    -0.061 NA
ATOM     23  O   LIG d   1       4.187  -2.945  -3.802  0.00  0.00    -0.332 OA
BRANCH  21  24
ATOM     24  C   LIG d   1       3.555   0.268  -2.523  0.00  0.00     0.017 C 
ATOM     25  H   LIG d   1       2.661   0.025  -1.949  0.00  0.00     0.037 H 
BRANCH  24  26
ATOM     26  C   LIG d   1       4.639   0.797  -1.582  0.00  0.00    -0.056 C 
ATOM     27  H   LIG d   1       4.215   0.952  -0.590  0.00  0.00     0.024 H 
ATOM     28  H   LIG d   1       5.451   0.073  -1.520  0.00  0.00     0.024 H 
ATOM     29  H   LIG d   1       5.023   1.742  -1.965  0.00  0.00     0.024 H 
ENDBRANCH  24  26
BRANCH  24  30
ATOM     30  C   LIG d   1       3.216   1.338  -3.563  0.00  0.00    -0.056 C 
ATOM     31  H   LIG d   1       2.856   2.235  -3.058  0.00  0.00     0.024 H 
ATOM     32  H   LIG d   1       4.109   1.579  -4.140  0.00  0.00     0.024 H 
ATOM     33  H   LIG d   1       2.443   0.962  -4.232  0.00  0.00     0.024 H 
ENDBRANCH  24  30
ENDBRANCH  21  24
ENDBRANCH   1  19
BRANCH  15  34
ATOM     34  C   LIG d   1       4.461  -2.500  -7.041  0.00  0.00    -0.005 C 
ATOM     35  H   LIG d   1       3.919  -2.647  -6.106  0.00  0.00     0.087 H 
ATOM     36  H   LIG d   1       4.258  -3.333  -7.713  0.00  0.00     0.087 H 
BRANCH  34  37
ATOM     37  C   LIG d   1       4.013  -1.213  -7.684  0.00  0.00    -0.003 A 
ATOM     38  C   LIG d   1       4.264  -0.987  -9.025  0.00  0.00    -0.051 A 
ATOM     39  C   LIG d   1       3.854   0.193  -9.616  0.00  0.00    -0.026 A 
ATOM     40  H   LIG d   1       4.783  -1.732  -9.610  0.00  0.00     0.062 H 
ATOM     41  C   LIG d   1       3.184   1.145  -8.867  0.00  0.00     0.123 A 
ATOM     42  H   LIG d   1       4.049   0.369 -10.663  0.00  0.00     0.065 H 
ATOM     43  C   LIG d   1       2.937   0.920  -7.523  0.00  0.00    -0.026 A 
ATOM     44  F   LIG d   1       2.776   2.297  -9.445  0.00  0.00    -0.205 F 
ATOM     45  C   LIG d   1       3.350  -0.261  -6.934  0.00  0.00    -0.051 A 
ATOM     46  H   LIG d   1       2.418   1.664  -6.936  0.00  0.00     0.065 H 
ATOM     47  H   LIG d   1       3.154  -0.438  -5.887  0.00  0.00     0.062 H 
ENDBRANCH  34  37
ENDBRANCH  15  34
TORSDOF 6
ENDMDL
MODEL 9
REMARK VINA RESULT:      -5.9      4.555      7.747
REMARK  6 active torsions:
REMARK  status: ('A' for Active; 'I' for Inactive)
REMARK    1  A    between atoms: C_1  and  C_2 
REMARK    2  A    between atoms: C_2  and  C_3 
REMARK    3  A    between atoms: C_2  and  C_4 
REMARK    4  A    between atoms: C_6  and  C_9 
REMARK    5  A    between atoms: C_18  and  C_19 
REMARK    6  A    between atoms: C_18  and  N_44 
ROOT
ATOM      1  C   LIG d   1       8.978   1.368  -5.802  0.00  0.00     0.068 C 
ATOM      2  H   LIG d   1       9.178   2.388  -6.132  0.00  0.00     0.096 H 
ATOM      3  C   LIG d   1      10.238   0.512  -5.992  0.00  0.00     0.065 C 
ATOM      4  C   LIG d   1      11.252   0.949  -4.965  0.00  0.00     0.156 A 
ATOM      5  C   LIG d   1      10.941   1.694  -3.881  0.00  0.00     0.190 A 
ATOM      6  C   LIG d   1      13.058   1.310  -3.801  0.00  0.00     0.243 A 
ATOM      7  N   LIG d   1      12.587   0.704  -4.916  0.00  0.00    -0.247 N 
ATOM      8  H   LIG d   1      13.120   0.176  -5.577  0.00  0.00     0.310 HD
ATOM      9  C   LIG d   1       9.542   2.171  -3.577  0.00  0.00     0.036 C 
ATOM     10  H   LIG d   1      10.640   0.664  -6.994  0.00  0.00     0.041 H 
ATOM     11  H   LIG d   1       9.995  -0.540  -5.847  0.00  0.00     0.041 H 
ATOM     12  H   LIG d   1      14.086   1.308  -3.470  0.00  0.00     0.158 H 
ATOM     13  H   LIG d   1       9.450   3.226  -3.835  0.00  0.00     0.090 H 
ATOM     14  H   LIG d   1       9.328   2.031  -2.517  0.00  0.00     0.090 H 
ATOM     15  N   LIG d   1       8.598   1.348  -4.371  0.00  0.00     0.254 N 
ATOM     16  H   LIG d   1       8.635   0.380  -4.032  0.00  0.00     0.205 HD
ATOM     17  N   LIG d   1      12.062   1.899  -3.191  0.00  0.00    -0.243 N 
ATOM     18  H   LIG d   1      12.133   2.435  -2.318  0.00  0.00     0.311 HD
ENDROOT
BRANCH   1  19
ATOM     19  C   LIG d   1       7.850   0.790  -6.618  0.00  0.00     0.276 A 
ATOM     20  N   LIG d   1       6.948   1.463  -7.291  0.00  0.00    -0.191 NA
ATOM     21  C   LIG d   1       6.154   0.538  -7.859  0.00  0.00     0.174 A 
ATOM     22  N   LIG d   1       6.602  -0.629  -7.504  0.00  0.00    -0.061 NA
ATOM     23  O   LIG d   1       7.576  -0.506  -6.791  0.00  0.00    -0.332 OA
BRANCH  21  24
ATOM     24  C   LIG d   1       4.962   0.806  -8.741  0.00  0.00     0.017 C 
ATOM     25  H   LIG d   1       4.989   0.135  -9.599  0.00  0.00     0.037 H 
BRANCH  24  26
ATOM     26  C   LIG d   1       3.676   0.568  -7.947  0.00  0.00    -0.056 C 
ATOM     27  H   LIG d   1       3.888   0.640  -6.880  0.00  0.00     0.024 H 
ATOM     28  H   LIG d   1       2.935   1.319  -8.222  0.00  0.00     0.024 H 
ATOM     29  H   LIG d   1       3.288  -0.425  -8.175  0.00  0.00     0.024 H 
ENDBRANCH  24  26
BRANCH  24  30
ATOM     30  C   LIG d   1       5.001   2.256  -9.226  0.00  0.00    -0.056 C 
ATOM     31  H   LIG d   1       4.025   2.716  -9.074  0.00  0.00     0.024 H 
ATOM     32  H   LIG d   1       5.754   2.807  -8.662  0.00  0.00     0.024 H 
ATOM     33  H   LIG d   1       5.253   2.278 -10.286  0.00  0.00     0.024 H 
ENDBRANCH  24  30
ENDBRANCH  21  24
ENDBRANCH   1  19
BRANCH  15  34
ATOM     34  C   LIG d   1       7.222   1.862  -4.208  0.00  0.00    -0.005 C 
ATOM     35  H   LIG d   1       6.789   2.035  -5.194  0.00  0.00     0.087 H 
ATOM     36  H   LIG d   1       7.224   2.794  -3.644  0.00  0.00     0.087 H 
BRANCH  34  37
ATOM     37  C   LIG d   1       6.404   0.831  -3.473  0.00  0.00    -0.003 A 
ATOM     38  C   LIG d   1       5.339   1.228  -2.685  0.00  0.00    -0.051 A 
ATOM     39  C   LIG d   1       4.588   0.284  -2.010  0.00  0.00    -0.026 A 
ATOM     40  H   LIG d   1       5.095   2.277  -2.596  0.00  0.00     0.062 H 
ATOM     41  C   LIG d   1       4.899  -1.060  -2.129  0.00  0.00     0.123 A 
ATOM     42  H   LIG d   1       3.757   0.594  -1.395  0.00  0.00     0.065 H 
ATOM     43  C   LIG d   1       5.968  -1.456  -2.915  0.00  0.00    -0.026 A 
ATOM     44  F   LIG d   1       4.162  -1.984  -1.475  0.00  0.00    -0.205 F 
ATOM     45  C   LIG d   1       6.718  -0.510  -3.588  0.00  0.00    -0.051 A 
ATOM     46  H   LIG d   1       6.214  -2.504  -3.006  0.00  0.00     0.065 H 
ATOM     47  H   LIG d   1       7.550  -0.819  -4.203  0.00  0.00     0.062 H 
ENDBRANCH  34  37
ENDBRANCH  15  34
TORSDOF 6
ENDMDL
MODEL 10
REMARK VINA RESULT:      -5.8      3.247      4.862
REMARK  6 active torsions:
REMARK  status: ('A' for Active; 'I' for Inactive)
REMARK    1  A    between atoms: C_1  and  C_2 
REMARK    2  A    between atoms: C_2  and  C_3 
REMARK    3  A    between atoms: C_2  and  C_4 
REMARK    4  A    between atoms: C_6  and  C_9 
REMARK    5  A    between atoms: C_18  and  C_19 
REMARK    6  A    between atoms: C_18  and  N_44 
ROOT
ATOM      1  C   LIG d   1       5.734  -0.724  -7.250  0.00  0.00     0.068 C 
ATOM      2  H   LIG d   1       6.366  -1.568  -6.974  0.00  0.00     0.096 H 
ATOM      3  C   LIG d   1       6.613   0.500  -7.542  0.00  0.00     0.065 C 
ATOM      4  C   LIG d   1       7.336   0.250  -8.842  0.00  0.00     0.156 A 
ATOM      5  C   LIG d   1       6.977  -0.712  -9.721  0.00  0.00     0.190 A 
ATOM      6  C   LIG d   1       8.690   0.295 -10.548  0.00  0.00     0.243 A 
ATOM      7  N   LIG d   1       8.416   0.887  -9.362  0.00  0.00    -0.247 N 
ATOM      8  H   LIG d   1       8.915   1.649  -8.948  0.00  0.00     0.310 HD
ATOM      9  C   LIG d   1       5.808  -1.640  -9.502  0.00  0.00     0.036 C 
ATOM     10  H   LIG d   1       7.336   0.635  -6.738  0.00  0.00     0.041 H 
ATOM     11  H   LIG d   1       5.990   1.390  -7.632  0.00  0.00     0.041 H 
ATOM     12  H   LIG d   1       9.495   0.567 -11.216  0.00  0.00     0.158 H 
ATOM     13  H   LIG d   1       6.171  -2.620  -9.189  0.00  0.00     0.090 H 
ATOM     14  H   LIG d   1       5.237  -1.738 -10.425  0.00  0.00     0.090 H 
ATOM     15  N   LIG d   1       4.940  -1.042  -8.459  0.00  0.00     0.254 N 
ATOM     16  H   LIG d   1       4.532  -0.173  -8.825  0.00  0.00     0.205 HD
ATOM     17  N   LIG d   1       7.821  -0.660 -10.751  0.00  0.00    -0.243 N 
ATOM     18  H   LIG d   1       7.793  -1.274 -11.574  0.00  0.00     0.311 HD
ENDROOT
BRANCH   1  19
ATOM     19  C   LIG d   1       4.795  -0.408  -6.114  0.00  0.00     0.276 A 
ATOM     20  N   LIG d   1       4.829  -0.920  -4.907  0.00  0.00    -0.191 NA
ATOM     21  C   LIG d   1       3.811  -0.347  -4.241  0.00  0.00     0.174 A 
ATOM     22  N   LIG d   1       3.216   0.463  -5.065  0.00  0.00    -0.061 NA
ATOM     23  O   LIG d   1       3.765   0.443  -6.146  0.00  0.00    -0.332 OA
BRANCH  21  24
ATOM     24  C   LIG d   1       3.427  -0.602  -2.807  0.00  0.00     0.017 C 
ATOM     25  H   LIG d   1       2.354  -0.455  -2.686  0.00  0.00     0.037 H 
BRANCH  24  26
ATOM     26  C   LIG d   1       3.791  -2.039  -2.428  0.00  0.00    -0.056 C 
ATOM     27  H   LIG d   1       3.949  -2.625  -3.334  0.00  0.00     0.024 H 
ATOM     28  H   LIG d   1       4.704  -2.038  -1.832  0.00  0.00     0.024 H 
ATOM     29  H   LIG d   1       2.979  -2.478  -1.848  0.00  0.00     0.024 H 
ENDBRANCH  24  26
BRANCH  24  30
ATOM     30  C   LIG d   1       4.180   0.371  -1.897  0.00  0.00    -0.056 C 
ATOM     31  H   LIG d   1       5.008   0.818  -2.448  0.00  0.00     0.024 H 
ATOM     32  H   LIG d   1       3.501   1.154  -1.562  0.00  0.00     0.024 H 
ATOM     33  H   LIG d   1       4.569  -0.167  -1.033  0.00  0.00     0.024 H 
ENDBRANCH  24  30
ENDBRANCH  21  24
ENDBRANCH   1  19
BRANCH  15  34
ATOM     34  C   LIG d   1       3.849  -1.977  -8.113  0.00  0.00    -0.005 C 
ATOM     35  H   LIG d   1       3.375  -1.644  -7.190  0.00  0.00     0.087 H 
ATOM     36  H   LIG d   1       4.236  -2.986  -7.980  0.00  0.00     0.087 H 
BRANCH  34  37
ATOM     37  C   LIG d   1       2.835  -1.971  -9.228  0.00  0.00    -0.003 A 
ATOM     38  C   LIG d   1       2.272  -0.778  -9.643  0.00  0.00    -0.051 A 
ATOM     39  C   LIG d   1       1.341  -0.771 -10.665  0.00  0.00    -0.026 A 
ATOM     40  H   LIG d   1       2.558   0.149  -9.168  0.00  0.00     0.062 H 
ATOM     41  C   LIG d   1       0.978  -1.958 -11.278  0.00  0.00     0.123 A 
ATOM     42  H   LIG d   1       0.902   0.161 -10.989  0.00  0.00     0.065 H 
ATOM     43  C   LIG d   1       1.539  -3.153 -10.859  0.00  0.00    -0.026 A 
ATOM     44  F   LIG d   1       0.074  -1.952 -12.282  0.00  0.00    -0.205 F 
ATOM     45  C   LIG d   1       2.469  -3.157  -9.836  0.00  0.00    -0.051 A 
ATOM     46  H   LIG d   1       1.255  -4.080 -11.333  0.00  0.00     0.065 H 
ATOM     47  H   LIG d   1       2.909  -4.088  -9.511  0.00  0.00     0.062 H 
ENDBRANCH  34  37
ENDBRANCH  15  34
TORSDOF 6
ENDMDL
