MODEL 1
REMARK VINA RESULT:      -5.7      0.000      0.000
REMARK  8 active torsions:
REMARK  status: ('A' for Active; 'I' for Inactive)
REMARK    1  A    between atoms: C_1  and  C_2 
REMARK    2  A    between atoms: C_2  and  C_3 
REMARK    3  A    between atoms: C_3  and  O_5 
REMARK    4  A    between atoms: O_5  and  C_6 
REMARK    5  A    between atoms: C_6  and  C_7 
REMARK    6  A    between atoms: C_19  and  C_29 
REMARK    7  A    between atoms: C_22  and  C_24 
REMARK    8  A    between atoms: C_26  and  C_28 
ROOT
ATOM      1  C   LIG d   1       5.444  -1.844  -7.883  0.00  0.00     0.034 C 
ATOM      2  C   LIG d   1       3.967  -1.429  -7.744  0.00  0.00     0.058 C 
ATOM      3  O   LIG d   1       3.776  -0.275  -6.854  0.00  0.00    -0.371 OA
ATOM      4  C   LIG d   1       4.057  -0.861  -5.569  0.00  0.00     0.094 C 
ATOM      5  H   LIG d   1       3.248  -1.531  -5.548  0.00  0.00     0.065 H 
ATOM      6  C   LIG d   1       4.122  -0.185  -4.221  0.00  0.00     0.023 A 
ATOM      7  C   LIG d   1       3.344   0.874  -3.856  0.00  0.00    -0.053 A 
ATOM      8  C   LIG d   1       3.485   1.433  -2.595  0.00  0.00    -0.061 A 
ATOM      9  C   LIG d   1       4.426   0.916  -1.723  0.00  0.00    -0.058 A 
ATOM     10  C   LIG d   1       5.216  -0.153  -2.089  0.00  0.00    -0.020 A 
ATOM     11  C   LIG d   1       5.076  -0.747  -3.338  0.00  0.00     0.127 A 
ATOM     12  O   LIG d   1       5.913  -1.832  -3.612  0.00  0.00    -0.485 OA
ATOM     13  C   LIG d   1       5.899  -2.252  -4.941  0.00  0.00     0.114 C 
ATOM     14  C   LIG d   1       5.575  -0.977  -5.675  0.00  0.00     0.032 C 
ATOM     15  H   LIG d   1       6.042  -0.122  -5.085  0.00  0.00     0.037 H 
ATOM     16  C   LIG d   1       6.234  -0.841  -7.004  0.00  0.00    -0.024 C 
ATOM     17  H   LIG d   1       7.275  -1.180  -6.917  0.00  0.00     0.031 H 
ATOM     18  C   LIG d   1       6.569  -3.151  -5.910  0.00  0.00    -0.009 C 
ATOM     19  C   LIG d   1       5.792  -3.205  -7.248  0.00  0.00    -0.029 C 
ATOM     20  H   LIG d   1       4.889  -3.794  -7.152  0.00  0.00     0.031 H 
ATOM     21  H   LIG d   1       3.582  -1.161  -8.730  0.00  0.00     0.057 H 
ATOM     22  H   LIG d   1       3.387  -2.266  -7.362  0.00  0.00     0.057 H 
ATOM     23  H   LIG d   1       2.617   1.274  -4.548  0.00  0.00     0.062 H 
ATOM     24  H   LIG d   1       2.862   2.261  -2.295  0.00  0.00     0.062 H 
ATOM     25  H   LIG d   1       4.542   1.359  -0.744  0.00  0.00     0.062 H 
ATOM     26  H   LIG d   1       5.954  -0.541  -1.402  0.00  0.00     0.065 H 
ATOM     27  H   LIG d   1       6.607  -4.157  -5.483  0.00  0.00     0.031 H 
ATOM     28  H   LIG d   1       7.584  -2.803  -6.088  0.00  0.00     0.031 H 
ENDROOT
BRANCH   1  29
ATOM     29  C   LIG d   1       5.902  -1.788  -9.336  0.00  0.00     0.101 C 
ATOM     30  H   LIG d   1       6.722  -1.076  -9.432  0.00  0.00     0.070 H 
ATOM     31  H   LIG d   1       6.242  -2.776  -9.648  0.00  0.00     0.070 H 
BRANCH  29  32
ATOM     32  O   LIG d   1       4.796  -1.368 -10.177  0.00  0.00    -0.464 OA
BRANCH  32  33
ATOM     33  C   LIG d   1       5.047  -0.409 -11.082  0.00  0.00     0.307 C 
ATOM     34  O   LIG d   1       6.107  -0.391 -11.663  0.00  0.00    -0.251 OA
BRANCH  33  35
ATOM     35  C   LIG d   1       4.008   0.642 -11.374  0.00  0.00     0.042 C 
ATOM     36  H   LIG d   1       4.249   1.140 -12.314  0.00  0.00     0.037 H 
ATOM     37  H   LIG d   1       3.028   0.173 -11.452  0.00  0.00     0.037 H 
BRANCH  35  38
ATOM     38  C   LIG d   1       3.993   1.671 -10.242  0.00  0.00    -0.055 C 
ATOM     39  H   LIG d   1       5.008   1.823  -9.876  0.00  0.00     0.024 H 
ATOM     40  H   LIG d   1       3.595   2.615 -10.614  0.00  0.00     0.024 H 
ATOM     41  H   LIG d   1       3.364   1.308  -9.429  0.00  0.00     0.024 H 
ENDBRANCH  35  38
ENDBRANCH  33  35
ENDBRANCH  32  33
ENDBRANCH  29  32
ENDBRANCH   1  29
BRANCH  16  42
ATOM     42  C   LIG d   1       6.216   0.574  -7.547  0.00  0.00    -0.061 C 
ATOM     43  H   LIG d   1       6.594   1.259  -6.788  0.00  0.00     0.023 H 
ATOM     44  H   LIG d   1       6.847   0.632  -8.434  0.00  0.00     0.023 H 
ATOM     45  H   LIG d   1       5.194   0.849  -7.809  0.00  0.00     0.023 H 
ENDBRANCH  16  42
BRANCH  19  46
ATOM     46  C   LIG d   1       6.689  -3.951  -8.254  0.00  0.00    -0.062 C 
ATOM     47  H   LIG d   1       7.192  -3.229  -8.898  0.00  0.00     0.023 H 
ATOM     48  H   LIG d   1       7.433  -4.537  -7.715  0.00  0.00     0.023 H 
ATOM     49  H   LIG d   1       6.076  -4.615  -8.864  0.00  0.00     0.023 H 
ENDBRANCH  19  46
BRANCH  13  50
ATOM     50  C   LIG d   1       4.619  -3.029  -4.849  0.00  0.00    -0.025 C 
ATOM     51  H   LIG d   1       4.813  -4.076  -5.079  0.00  0.00     0.027 H 
ATOM     52  H   LIG d   1       4.217  -2.947  -3.839  0.00  0.00     0.027 H 
ATOM     53  H   LIG d   1       3.898  -2.627  -5.561  0.00  0.00     0.027 H 
ENDBRANCH  13  50
TORSDOF 8
ENDMDL
MODEL 2
REMARK VINA RESULT:      -5.7      2.219      7.107
REMARK  8 active torsions:
REMARK  status: ('A' for Active; 'I' for Inactive)
REMARK    1  A    between atoms: C_1  and  C_2 
REMARK    2  A    between atoms: C_2  and  C_3 
REMARK    3  A    between atoms: C_3  and  O_5 
REMARK    4  A    between atoms: O_5  and  C_6 
REMARK    5  A    between atoms: C_6  and  C_7 
REMARK    6  A    between atoms: C_19  and  C_29 
REMARK    7  A    between atoms: C_22  and  C_24 
REMARK    8  A    between atoms: C_26  and  C_28 
ROOT
ATOM      1  C   LIG d   1       4.328  -0.253  -7.876  0.00  0.00     0.034 C 
ATOM      2  C   LIG d   1       2.836   0.123  -7.946  0.00  0.00     0.058 C 
ATOM      3  O   LIG d   1       2.057  -0.776  -8.810  0.00  0.00    -0.371 OA
ATOM      4  C   LIG d   1       2.536  -0.397 -10.114  0.00  0.00     0.094 C 
ATOM      5  H   LIG d   1       2.167   0.586 -10.112  0.00  0.00     0.065 H 
ATOM      6  C   LIG d   1       2.196  -1.005 -11.454  0.00  0.00     0.023 A 
ATOM      7  C   LIG d   1       0.980  -1.533 -11.770  0.00  0.00    -0.053 A 
ATOM      8  C   LIG d   1       0.768  -2.078 -13.027  0.00  0.00    -0.061 A 
ATOM      9  C   LIG d   1       1.802  -2.091 -13.945  0.00  0.00    -0.058 A 
ATOM     10  C   LIG d   1       3.034  -1.560 -13.629  0.00  0.00    -0.020 A 
ATOM     11  C   LIG d   1       3.264  -0.985 -12.385  0.00  0.00     0.127 A 
ATOM     12  O   LIG d   1       4.540  -0.462 -12.163  0.00  0.00    -0.485 OA
ATOM     13  C   LIG d   1       4.796  -0.102 -10.840  0.00  0.00     0.114 C 
ATOM     14  C   LIG d   1       3.913  -1.053 -10.075  0.00  0.00     0.032 C 
ATOM     15  H   LIG d   1       3.866  -2.022 -10.671  0.00  0.00     0.037 H 
ATOM     16  C   LIG d   1       4.475  -1.510  -8.772  0.00  0.00    -0.024 C 
ATOM     17  H   LIG d   1       5.541  -1.733  -8.909  0.00  0.00     0.031 H 
ATOM     18  C   LIG d   1       5.866   0.337  -9.914  0.00  0.00    -0.009 C 
ATOM     19  C   LIG d   1       5.279   0.759  -8.546  0.00  0.00    -0.029 C 
ATOM     20  H   LIG d   1       4.784   1.720  -8.612  0.00  0.00     0.031 H 
ATOM     21  H   LIG d   1       2.412   0.074  -6.942  0.00  0.00     0.057 H 
ATOM     22  H   LIG d   1       2.732   1.141  -8.316  0.00  0.00     0.057 H 
ATOM     23  H   LIG d   1       0.181  -1.524 -11.042  0.00  0.00     0.062 H 
ATOM     24  H   LIG d   1      -0.197  -2.485 -13.288  0.00  0.00     0.062 H 
ATOM     25  H   LIG d   1       1.639  -2.525 -14.923  0.00  0.00     0.062 H 
ATOM     26  H   LIG d   1       3.836  -1.585 -14.353  0.00  0.00     0.065 H 
ATOM     27  H   LIG d   1       6.380   1.194 -10.357  0.00  0.00     0.031 H 
ATOM     28  H   LIG d   1       6.580  -0.472  -9.774  0.00  0.00     0.031 H 
ENDROOT
BRANCH   1  29
ATOM     29  C   LIG d   1       4.762  -0.542  -6.443  0.00  0.00     0.101 C 
ATOM     30  H   LIG d   1       5.176  -1.548  -6.384  0.00  0.00     0.070 H 
ATOM     31  H   LIG d   1       5.519   0.181  -6.140  0.00  0.00     0.070 H 
BRANCH  29  32
ATOM     32  O   LIG d   1       3.613  -0.439  -5.560  0.00  0.00    -0.464 OA
BRANCH  32  33
ATOM     33  C   LIG d   1       3.856  -0.129  -4.277  0.00  0.00     0.307 C 
ATOM     34  O   LIG d   1       4.759   0.625  -3.998  0.00  0.00    -0.251 OA
BRANCH  33  35
ATOM     35  C   LIG d   1       3.004  -0.721  -3.184  0.00  0.00     0.042 C 
ATOM     36  H   LIG d   1       2.806   0.038  -2.427  0.00  0.00     0.037 H 
ATOM     37  H   LIG d   1       2.061  -1.068  -3.607  0.00  0.00     0.037 H 
BRANCH  35  38
ATOM     38  C   LIG d   1       3.741  -1.899  -2.544  0.00  0.00    -0.055 C 
ATOM     39  H   LIG d   1       4.560  -1.524  -1.929  0.00  0.00     0.024 H 
ATOM     40  H   LIG d   1       3.049  -2.466  -1.922  0.00  0.00     0.024 H 
ATOM     41  H   LIG d   1       4.141  -2.546  -3.326  0.00  0.00     0.024 H 
ENDBRANCH  35  38
ENDBRANCH  33  35
ENDBRANCH  32  33
ENDBRANCH  29  32
ENDBRANCH   1  29
BRANCH  16  42
ATOM     42  C   LIG d   1       3.779  -2.733  -8.209  0.00  0.00    -0.061 C 
ATOM     43  H   LIG d   1       2.894  -2.954  -8.804  0.00  0.00     0.023 H 
ATOM     44  H   LIG d   1       4.460  -3.584  -8.239  0.00  0.00     0.023 H 
ATOM     45  H   LIG d   1       3.485  -2.539  -7.177  0.00  0.00     0.023 H 
ENDBRANCH  16  42
BRANCH  19  46
ATOM     46  C   LIG d   1       6.471   0.952  -7.589  0.00  0.00    -0.062 C 
ATOM     47  H   LIG d   1       6.434   1.953  -7.159  0.00  0.00     0.023 H 
ATOM     48  H   LIG d   1       6.421   0.211  -6.791  0.00  0.00     0.023 H 
ATOM     49  H   LIG d   1       7.403   0.829  -8.141  0.00  0.00     0.023 H 
ENDBRANCH  19  46
BRANCH  13  50
ATOM     50  C   LIG d   1       4.069   1.209 -10.890  0.00  0.00    -0.025 C 
ATOM     51  H   LIG d   1       3.043   1.044 -11.220  0.00  0.00     0.027 H 
ATOM     52  H   LIG d   1       4.062   1.659  -9.897  0.00  0.00     0.027 H 
ATOM     53  H   LIG d   1       4.572   1.878 -11.589  0.00  0.00     0.027 H 
ENDBRANCH  13  50
TORSDOF 8
ENDMDL
MODEL 3
REMARK VINA RESULT:      -5.6      1.386      5.958
REMARK  8 active torsions:
REMARK  status: ('A' for Active; 'I' for Inactive)
REMARK    1  A    between atoms: C_1  and  C_2 
REMARK    2  A    between atoms: C_2  and  C_3 
REMARK    3  A    between atoms: C_3  and  O_5 
REMARK    4  A    between atoms: O_5  and  C_6 
REMARK    5  A    between atoms: C_6  and  C_7 
REMARK    6  A    between atoms: C_19  and  C_29 
REMARK    7  A    between atoms: C_22  and  C_24 
REMARK    8  A    between atoms: C_26  and  C_28 
ROOT
ATOM      1  C   LIG d   1       5.653  -1.533  -5.518  0.00  0.00     0.034 C 
ATOM      2  C   LIG d   1       6.478  -0.379  -6.117  0.00  0.00     0.058 C 
ATOM      3  O   LIG d   1       5.709   0.451  -7.055  0.00  0.00    -0.371 OA
ATOM      4  C   LIG d   1       5.570  -0.446  -8.174  0.00  0.00     0.094 C 
ATOM      5  H   LIG d   1       6.588  -0.506  -8.424  0.00  0.00     0.065 H 
ATOM      6  C   LIG d   1       4.800  -0.237  -9.456  0.00  0.00     0.023 A 
ATOM      7  C   LIG d   1       4.651   0.969 -10.073  0.00  0.00    -0.053 A 
ATOM      8  C   LIG d   1       3.915   1.060 -11.245  0.00  0.00    -0.061 A 
ATOM      9  C   LIG d   1       3.329  -0.078 -11.769  0.00  0.00    -0.058 A 
ATOM     10  C   LIG d   1       3.476  -1.299 -11.147  0.00  0.00    -0.020 A 
ATOM     11  C   LIG d   1       4.229  -1.421  -9.985  0.00  0.00     0.127 A 
ATOM     12  O   LIG d   1       4.331  -2.701  -9.436  0.00  0.00    -0.485 OA
ATOM     13  C   LIG d   1       4.899  -2.742  -8.164  0.00  0.00     0.114 C 
ATOM     14  C   LIG d   1       4.522  -1.396  -7.603  0.00  0.00     0.032 C 
ATOM     15  H   LIG d   1       3.509  -1.120  -8.045  0.00  0.00     0.037 H 
ATOM     16  C   LIG d   1       4.240  -1.390  -6.139  0.00  0.00    -0.024 C 
ATOM     17  H   LIG d   1       3.645  -2.279  -5.893  0.00  0.00     0.031 H 
ATOM     18  C   LIG d   1       5.168  -3.632  -7.011  0.00  0.00    -0.009 C 
ATOM     19  C   LIG d   1       6.088  -2.940  -5.976  0.00  0.00    -0.029 C 
ATOM     20  H   LIG d   1       7.110  -2.898  -6.327  0.00  0.00     0.031 H 
ATOM     21  H   LIG d   1       6.825   0.264  -5.306  0.00  0.00     0.057 H 
ATOM     22  H   LIG d   1       7.347  -0.781  -6.635  0.00  0.00     0.057 H 
ATOM     23  H   LIG d   1       5.107   1.852  -9.650  0.00  0.00     0.062 H 
ATOM     24  H   LIG d   1       3.806   2.009 -11.746  0.00  0.00     0.062 H 
ATOM     25  H   LIG d   1       2.747  -0.005 -12.678  0.00  0.00     0.062 H 
ATOM     26  H   LIG d   1       3.005  -2.178 -11.563  0.00  0.00     0.065 H 
ATOM     27  H   LIG d   1       5.664  -4.535  -7.376  0.00  0.00     0.031 H 
ATOM     28  H   LIG d   1       4.228  -3.910  -6.539  0.00  0.00     0.031 H 
ENDROOT
BRANCH   1  29
ATOM     29  C   LIG d   1       5.600  -1.448  -3.997  0.00  0.00     0.101 C 
ATOM     30  H   LIG d   1       4.577  -1.245  -3.679  0.00  0.00     0.070 H 
ATOM     31  H   LIG d   1       5.932  -2.393  -3.568  0.00  0.00     0.070 H 
BRANCH  29  32
ATOM     32  O   LIG d   1       6.469  -0.377  -3.541  0.00  0.00    -0.464 OA
BRANCH  32  33
ATOM     33  C   LIG d   1       5.883   0.668  -2.936  0.00  0.00     0.307 C 
ATOM     34  O   LIG d   1       6.245   1.793  -3.190  0.00  0.00    -0.251 OA
BRANCH  33  35
ATOM     35  C   LIG d   1       4.775   0.439  -1.941  0.00  0.00     0.042 C 
ATOM     36  H   LIG d   1       4.477  -0.609  -1.965  0.00  0.00     0.037 H 
ATOM     37  H   LIG d   1       5.126   0.695  -0.942  0.00  0.00     0.037 H 
BRANCH  35  38
ATOM     38  C   LIG d   1       3.576   1.318  -2.302  0.00  0.00    -0.055 C 
ATOM     39  H   LIG d   1       3.207   1.814  -1.405  0.00  0.00     0.024 H 
ATOM     40  H   LIG d   1       3.881   2.067  -3.033  0.00  0.00     0.024 H 
ATOM     41  H   LIG d   1       2.785   0.698  -2.726  0.00  0.00     0.024 H 
ENDBRANCH  35  38
ENDBRANCH  33  35
ENDBRANCH  32  33
ENDBRANCH  29  32
ENDBRANCH   1  29
BRANCH  16  42
ATOM     42  C   LIG d   1       3.502  -0.152  -5.670  0.00  0.00    -0.061 C 
ATOM     43  H   LIG d   1       3.799   0.701  -6.279  0.00  0.00     0.023 H 
ATOM     44  H   LIG d   1       2.427  -0.311  -5.768  0.00  0.00     0.023 H 
ATOM     45  H   LIG d   1       3.747   0.043  -4.626  0.00  0.00     0.023 H 
ENDBRANCH  16  42
BRANCH  19  46
ATOM     46  C   LIG d   1       6.099  -3.834  -4.721  0.00  0.00    -0.062 C 
ATOM     47  H   LIG d   1       5.339  -4.610  -4.820  0.00  0.00     0.023 H 
ATOM     48  H   LIG d   1       7.079  -4.297  -4.612  0.00  0.00     0.023 H 
ATOM     49  H   LIG d   1       5.884  -3.227  -3.841  0.00  0.00     0.023 H 
ENDBRANCH  19  46
BRANCH  13  50
ATOM     50  C   LIG d   1       6.323  -2.628  -8.623  0.00  0.00    -0.025 C 
ATOM     51  H   LIG d   1       6.348  -2.543  -9.710  0.00  0.00     0.027 H 
ATOM     52  H   LIG d   1       6.779  -1.743  -8.179  0.00  0.00     0.027 H 
ATOM     53  H   LIG d   1       6.876  -3.516  -8.316  0.00  0.00     0.027 H 
ENDBRANCH  13  50
TORSDOF 8
ENDMDL
MODEL 4
REMARK VINA RESULT:      -5.5      3.065      4.577
REMARK  8 active torsions:
REMARK  status: ('A' for Active; 'I' for Inactive)
REMARK    1  A    between atoms: C_1  and  C_2 
REMARK    2  A    between atoms: C_2  and  C_3 
REMARK    3  A    between atoms: C_3  and  O_5 
REMARK    4  A    between atoms: O_5  and  C_6 
REMARK    5  A    between atoms: C_6  and  C_7 
REMARK    6  A    between atoms: C_19  and  C_29 
REMARK    7  A    between atoms: C_22  and  C_24 
REMARK    8  A    between atoms: C_26  and  C_28 
ROOT
ATOM      1  C   LIG d   1       5.962  -4.199  -6.111  0.00  0.00     0.034 C 
ATOM      2  C   LIG d   1       5.028  -4.547  -4.937  0.00  0.00     0.058 C 
ATOM      3  O   LIG d   1       4.179  -3.420  -4.524  0.00  0.00    -0.371 OA
ATOM      4  C   LIG d   1       5.147  -2.552  -3.905  0.00  0.00     0.094 C 
ATOM      5  H   LIG d   1       5.403  -3.184  -3.106  0.00  0.00     0.065 H 
ATOM      6  C   LIG d   1       4.943  -1.167  -3.339  0.00  0.00     0.023 A 
ATOM      7  C   LIG d   1       3.796  -0.749  -2.732  0.00  0.00    -0.053 A 
ATOM      8  C   LIG d   1       3.702   0.548  -2.252  0.00  0.00    -0.061 A 
ATOM      9  C   LIG d   1       4.772   1.411  -2.408  0.00  0.00    -0.058 A 
ATOM     10  C   LIG d   1       5.932   0.992  -3.023  0.00  0.00    -0.020 A 
ATOM     11  C   LIG d   1       6.061  -0.311  -3.490  0.00  0.00     0.127 A 
ATOM     12  O   LIG d   1       7.279  -0.644  -4.088  0.00  0.00    -0.485 OA
ATOM     13  C   LIG d   1       7.286  -1.878  -4.737  0.00  0.00     0.114 C 
ATOM     14  C   LIG d   1       5.847  -2.027  -5.155  0.00  0.00     0.032 C 
ATOM     15  H   LIG d   1       5.451  -0.982  -5.374  0.00  0.00     0.037 H 
ATOM     16  C   LIG d   1       5.647  -2.721  -6.458  0.00  0.00    -0.024 C 
ATOM     17  H   LIG d   1       6.395  -2.350  -7.172  0.00  0.00     0.031 H 
ATOM     18  C   LIG d   1       8.089  -2.745  -5.630  0.00  0.00    -0.009 C 
ATOM     19  C   LIG d   1       7.461  -4.154  -5.750  0.00  0.00    -0.029 C 
ATOM     20  H   LIG d   1       7.626  -4.734  -4.851  0.00  0.00     0.031 H 
ATOM     21  H   LIG d   1       4.374  -5.368  -5.238  0.00  0.00     0.057 H 
ATOM     22  H   LIG d   1       5.619  -4.872  -4.084  0.00  0.00     0.057 H 
ATOM     23  H   LIG d   1       2.964  -1.429  -2.622  0.00  0.00     0.062 H 
ATOM     24  H   LIG d   1       2.803   0.881  -1.757  0.00  0.00     0.062 H 
ATOM     25  H   LIG d   1       4.694   2.425  -2.042  0.00  0.00     0.062 H 
ATOM     26  H   LIG d   1       6.757   1.679  -3.147  0.00  0.00     0.065 H 
ATOM     27  H   LIG d   1       9.094  -2.841  -5.212  0.00  0.00     0.031 H 
ATOM     28  H   LIG d   1       8.157  -2.288  -6.616  0.00  0.00     0.031 H 
ENDROOT
BRANCH   1  29
ATOM     29  C   LIG d   1       5.717  -5.113  -7.307  0.00  0.00     0.101 C 
ATOM     30  H   LIG d   1       5.542  -4.508  -8.197  0.00  0.00     0.070 H 
ATOM     31  H   LIG d   1       6.589  -5.747  -7.464  0.00  0.00     0.070 H 
BRANCH  29  32
ATOM     32  O   LIG d   1       4.554  -5.944  -7.050  0.00  0.00    -0.464 OA
BRANCH  32  33
ATOM     33  C   LIG d   1       4.724  -7.273  -7.136  0.00  0.00     0.307 C 
ATOM     34  O   LIG d   1       3.835  -7.968  -7.569  0.00  0.00    -0.251 OA
BRANCH  33  35
ATOM     35  C   LIG d   1       6.021  -7.897  -6.694  0.00  0.00     0.042 C 
ATOM     36  H   LIG d   1       6.168  -8.841  -7.219  0.00  0.00     0.037 H 
ATOM     37  H   LIG d   1       6.846  -7.222  -6.922  0.00  0.00     0.037 H 
BRANCH  35  38
ATOM     38  C   LIG d   1       5.976  -8.155  -5.186  0.00  0.00    -0.055 C 
ATOM     39  H   LIG d   1       6.986  -8.110  -4.779  0.00  0.00     0.024 H 
ATOM     40  H   LIG d   1       5.356  -7.397  -4.706  0.00  0.00     0.024 H 
ATOM     41  H   LIG d   1       5.552  -9.142  -4.999  0.00  0.00     0.024 H 
ENDBRANCH  35  38
ENDBRANCH  33  35
ENDBRANCH  32  33
ENDBRANCH  29  32
ENDBRANCH   1  29
BRANCH  16  42
ATOM     42  C   LIG d   1       4.263  -2.524  -7.043  0.00  0.00    -0.061 C 
ATOM     43  H   LIG d   1       4.210  -1.554  -7.536  0.00  0.00     0.023 H 
ATOM     44  H   LIG d   1       4.060  -3.312  -7.769  0.00  0.00     0.023 H 
ATOM     45  H   LIG d   1       3.522  -2.567  -6.244  0.00  0.00     0.023 H 
ENDBRANCH  16  42
BRANCH  19  46
ATOM     46  C   LIG d   1       8.213  -4.885  -6.879  0.00  0.00    -0.062 C 
ATOM     47  H   LIG d   1       7.501  -5.439  -7.491  0.00  0.00     0.023 H 
ATOM     48  H   LIG d   1       8.736  -4.156  -7.498  0.00  0.00     0.023 H 
ATOM     49  H   LIG d   1       8.934  -5.577  -6.445  0.00  0.00     0.023 H 
ENDBRANCH  19  46
BRANCH  13  50
ATOM     50  C   LIG d   1       7.459  -2.707  -3.499  0.00  0.00    -0.025 C 
ATOM     51  H   LIG d   1       6.481  -2.952  -3.086  0.00  0.00     0.027 H 
ATOM     52  H   LIG d   1       7.988  -3.627  -3.749  0.00  0.00     0.027 H 
ATOM     53  H   LIG d   1       8.034  -2.145  -2.763  0.00  0.00     0.027 H 
ENDBRANCH  13  50
TORSDOF 8
ENDMDL
MODEL 5
REMARK VINA RESULT:      -5.4      3.044      5.431
REMARK  8 active torsions:
REMARK  status: ('A' for Active; 'I' for Inactive)
REMARK    1  A    between atoms: C_1  and  C_2 
REMARK    2  A    between atoms: C_2  and  C_3 
REMARK    3  A    between atoms: C_3  and  O_5 
REMARK    4  A    between atoms: O_5  and  C_6 
REMARK    5  A    between atoms: C_6  and  C_7 
REMARK    6  A    between atoms: C_19  and  C_29 
REMARK    7  A    between atoms: C_22  and  C_24 
REMARK    8  A    between atoms: C_26  and  C_28 
ROOT
ATOM      1  C   LIG d   1       5.187  -2.167  -4.336  0.00  0.00     0.034 C 
ATOM      2  C   LIG d   1       5.118  -1.600  -5.765  0.00  0.00     0.058 C 
ATOM      3  O   LIG d   1       6.398  -1.042  -6.225  0.00  0.00    -0.371 OA
ATOM      4  C   LIG d   1       6.491   0.149  -5.421  0.00  0.00     0.094 C 
ATOM      5  H   LIG d   1       5.660   0.649  -5.826  0.00  0.00     0.065 H 
ATOM      6  C   LIG d   1       7.623   1.144  -5.342  0.00  0.00     0.023 A 
ATOM      7  C   LIG d   1       8.423   1.481  -6.393  0.00  0.00    -0.053 A 
ATOM      8  C   LIG d   1       9.446   2.401  -6.217  0.00  0.00    -0.061 A 
ATOM      9  C   LIG d   1       9.650   2.959  -4.968  0.00  0.00    -0.058 A 
ATOM     10  C   LIG d   1       8.844   2.620  -3.903  0.00  0.00    -0.020 A 
ATOM     11  C   LIG d   1       7.797   1.720  -4.059  0.00  0.00     0.127 A 
ATOM     12  O   LIG d   1       7.029   1.450  -2.924  0.00  0.00    -0.485 OA
ATOM     13  C   LIG d   1       6.141   0.384  -3.067  0.00  0.00     0.114 C 
ATOM     14  C   LIG d   1       6.843  -0.483  -4.078  0.00  0.00     0.032 C 
ATOM     15  H   LIG d   1       7.963  -0.359  -3.907  0.00  0.00     0.037 H 
ATOM     16  C   LIG d   1       6.653  -1.948  -3.880  0.00  0.00    -0.024 C 
ATOM     17  H   LIG d   1       6.735  -2.170  -2.808  0.00  0.00     0.031 H 
ATOM     18  C   LIG d   1       5.205  -0.490  -2.322  0.00  0.00    -0.009 C 
ATOM     19  C   LIG d   1       4.380  -1.374  -3.288  0.00  0.00    -0.029 C 
ATOM     20  H   LIG d   1       3.617  -0.795  -3.794  0.00  0.00     0.031 H 
ATOM     21  H   LIG d   1       4.836  -2.402  -6.450  0.00  0.00     0.057 H 
ATOM     22  H   LIG d   1       4.359  -0.821  -5.814  0.00  0.00     0.057 H 
ATOM     23  H   LIG d   1       8.259   1.032  -7.362  0.00  0.00     0.062 H 
ATOM     24  H   LIG d   1      10.073   2.682  -7.048  0.00  0.00     0.062 H 
ATOM     25  H   LIG d   1      10.454   3.669  -4.829  0.00  0.00     0.062 H 
ATOM     26  H   LIG d   1       9.021   3.057  -2.930  0.00  0.00     0.065 H 
ATOM     27  H   LIG d   1       4.520   0.141  -1.749  0.00  0.00     0.031 H 
ATOM     28  H   LIG d   1       5.765  -1.121  -1.635  0.00  0.00     0.031 H 
ENDROOT
BRANCH   1  29
ATOM     29  C   LIG d   1       4.814  -3.645  -4.305  0.00  0.00     0.101 C 
ATOM     30  H   LIG d   1       5.703  -4.241  -4.099  0.00  0.00     0.070 H 
ATOM     31  H   LIG d   1       4.073  -3.817  -3.524  0.00  0.00     0.070 H 
BRANCH  29  32
ATOM     32  O   LIG d   1       4.260  -4.031  -5.591  0.00  0.00    -0.464 OA
BRANCH  32  33
ATOM     33  C   LIG d   1       4.463  -5.297  -5.987  0.00  0.00     0.307 C 
ATOM     34  O   LIG d   1       3.591  -5.893  -6.576  0.00  0.00    -0.251 OA
BRANCH  33  35
ATOM     35  C   LIG d   1       5.777  -5.976  -5.699  0.00  0.00     0.042 C 
ATOM     36  H   LIG d   1       6.439  -5.864  -6.557  0.00  0.00     0.037 H 
ATOM     37  H   LIG d   1       6.236  -5.520  -4.822  0.00  0.00     0.037 H 
BRANCH  35  38
ATOM     38  C   LIG d   1       5.535  -7.463  -5.433  0.00  0.00    -0.055 C 
ATOM     39  H   LIG d   1       5.504  -7.639  -4.358  0.00  0.00     0.024 H 
ATOM     40  H   LIG d   1       4.586  -7.762  -5.878  0.00  0.00     0.024 H 
ATOM     41  H   LIG d   1       6.343  -8.047  -5.874  0.00  0.00     0.024 H 
ENDBRANCH  35  38
ENDBRANCH  33  35
ENDBRANCH  32  33
ENDBRANCH  29  32
ENDBRANCH   1  29
BRANCH  16  42
ATOM     42  C   LIG d   1       7.651  -2.796  -4.641  0.00  0.00    -0.061 C 
ATOM     43  H   LIG d   1       7.991  -2.254  -5.523  0.00  0.00     0.023 H 
ATOM     44  H   LIG d   1       8.504  -3.018  -3.999  0.00  0.00     0.023 H 
ATOM     45  H   LIG d   1       7.175  -3.728  -4.948  0.00  0.00     0.023 H 
ENDBRANCH  16  42
BRANCH  19  46
ATOM     46  C   LIG d   1       3.635  -2.407  -2.422  0.00  0.00    -0.062 C 
ATOM     47  H   LIG d   1       2.906  -2.937  -3.036  0.00  0.00     0.023 H 
ATOM     48  H   LIG d   1       4.349  -3.120  -2.011  0.00  0.00     0.023 H 
ATOM     49  H   LIG d   1       3.121  -1.896  -1.609  0.00  0.00     0.023 H 
ENDBRANCH  19  46
BRANCH  13  50
ATOM     50  C   LIG d   1       5.093   1.151  -3.817  0.00  0.00    -0.025 C 
ATOM     51  H   LIG d   1       4.159   0.588  -3.816  0.00  0.00     0.027 H 
ATOM     52  H   LIG d   1       4.934   2.116  -3.335  0.00  0.00     0.027 H 
ATOM     53  H   LIG d   1       5.422   1.308  -4.844  0.00  0.00     0.027 H 
ENDBRANCH  13  50
TORSDOF 8
ENDMDL
MODEL 6
REMARK VINA RESULT:      -5.4      1.773      6.896
REMARK  8 active torsions:
REMARK  status: ('A' for Active; 'I' for Inactive)
REMARK    1  A    between atoms: C_1  and  C_2 
REMARK    2  A    between atoms: C_2  and  C_3 
REMARK    3  A    between atoms: C_3  and  O_5 
REMARK    4  A    between atoms: O_5  and  C_6 
REMARK    5  A    between atoms: C_6  and  C_7 
REMARK    6  A    between atoms: C_19  and  C_29 
REMARK    7  A    between atoms: C_22  and  C_24 
REMARK    8  A    between atoms: C_26  and  C_28 
ROOT
ATOM      1  C   LIG d   1       4.292  -0.795  -6.594  0.00  0.00     0.034 C 
ATOM      2  C   LIG d   1       4.301  -2.262  -7.062  0.00  0.00     0.058 C 
ATOM      3  O   LIG d   1       5.094  -2.471  -8.282  0.00  0.00    -0.371 OA
ATOM      4  C   LIG d   1       4.262  -1.832  -9.270  0.00  0.00     0.094 C 
ATOM      5  H   LIG d   1       3.444  -2.487  -9.199  0.00  0.00     0.065 H 
ATOM      6  C   LIG d   1       4.543  -1.616 -10.738  0.00  0.00     0.023 A 
ATOM      7  C   LIG d   1       5.254  -2.479 -11.518  0.00  0.00    -0.053 A 
ATOM      8  C   LIG d   1       5.466  -2.186 -12.856  0.00  0.00    -0.061 A 
ATOM      9  C   LIG d   1       4.964  -1.010 -13.383  0.00  0.00    -0.058 A 
ATOM     10  C   LIG d   1       4.247  -0.134 -12.597  0.00  0.00    -0.020 A 
ATOM     11  C   LIG d   1       3.999  -0.417 -11.259  0.00  0.00     0.127 A 
ATOM     12  O   LIG d   1       3.253   0.526 -10.548  0.00  0.00    -0.485 OA
ATOM     13  C   LIG d   1       3.218   0.317  -9.170  0.00  0.00     0.114 C 
ATOM     14  C   LIG d   1       4.533  -0.372  -8.919  0.00  0.00     0.032 C 
ATOM     15  H   LIG d   1       5.280   0.044  -9.671  0.00  0.00     0.037 H 
ATOM     16  C   LIG d   1       5.173  -0.034  -7.617  0.00  0.00    -0.024 C 
ATOM     17  H   LIG d   1       5.074   1.046  -7.447  0.00  0.00     0.031 H 
ATOM     18  C   LIG d   1       2.795   0.924  -7.886  0.00  0.00    -0.009 C 
ATOM     19  C   LIG d   1       2.928  -0.086  -6.722  0.00  0.00    -0.029 C 
ATOM     20  H   LIG d   1       2.144  -0.832  -6.759  0.00  0.00     0.031 H 
ATOM     21  H   LIG d   1       4.730  -2.882  -6.273  0.00  0.00     0.057 H 
ATOM     22  H   LIG d   1       3.281  -2.593  -7.246  0.00  0.00     0.057 H 
ATOM     23  H   LIG d   1       5.647  -3.391 -11.094  0.00  0.00     0.062 H 
ATOM     24  H   LIG d   1       6.015  -2.872 -13.482  0.00  0.00     0.062 H 
ATOM     25  H   LIG d   1       5.139  -0.777 -14.424  0.00  0.00     0.062 H 
ATOM     26  H   LIG d   1       3.869   0.787 -13.019  0.00  0.00     0.065 H 
ATOM     27  H   LIG d   1       1.748   1.228  -7.972  0.00  0.00     0.031 H 
ATOM     28  H   LIG d   1       3.403   1.803  -7.682  0.00  0.00     0.031 H 
ENDROOT
BRANCH   1  29
ATOM     29  C   LIG d   1       4.844  -0.660  -5.179  0.00  0.00     0.101 C 
ATOM     30  H   LIG d   1       5.920  -0.487  -5.223  0.00  0.00     0.070 H 
ATOM     31  H   LIG d   1       4.362   0.179  -4.678  0.00  0.00     0.070 H 
BRANCH  29  32
ATOM     32  O   LIG d   1       4.581  -1.881  -4.438  0.00  0.00    -0.464 OA
BRANCH  32  33
ATOM     33  C   LIG d   1       4.409  -1.765  -3.112  0.00  0.00     0.307 C 
ATOM     34  O   LIG d   1       3.689  -2.539  -2.526  0.00  0.00    -0.251 OA
BRANCH  33  35
ATOM     35  C   LIG d   1       5.114  -0.671  -2.353  0.00  0.00     0.042 C 
ATOM     36  H   LIG d   1       5.600  -1.093  -1.474  0.00  0.00     0.037 H 
ATOM     37  H   LIG d   1       5.864  -0.208  -2.996  0.00  0.00     0.037 H 
BRANCH  35  38
ATOM     38  C   LIG d   1       4.096   0.384  -1.916  0.00  0.00    -0.055 C 
ATOM     39  H   LIG d   1       4.602   1.162  -1.344  0.00  0.00     0.024 H 
ATOM     40  H   LIG d   1       3.630   0.826  -2.797  0.00  0.00     0.024 H 
ATOM     41  H   LIG d   1       3.331  -0.084  -1.296  0.00  0.00     0.024 H 
ENDBRANCH  35  38
ENDBRANCH  33  35
ENDBRANCH  32  33
ENDBRANCH  29  32
ENDBRANCH   1  29
BRANCH  16  42
ATOM     42  C   LIG d   1       6.639  -0.415  -7.546  0.00  0.00    -0.061 C 
ATOM     43  H   LIG d   1       7.108  -0.238  -8.513  0.00  0.00     0.023 H 
ATOM     44  H   LIG d   1       7.135   0.190  -6.786  0.00  0.00     0.023 H 
ATOM     45  H   LIG d   1       6.727  -1.470  -7.286  0.00  0.00     0.023 H 
ENDBRANCH  16  42
BRANCH  19  46
ATOM     46  C   LIG d   1       2.712   0.704  -5.417  0.00  0.00    -0.062 C 
ATOM     47  H   LIG d   1       3.672   0.865  -4.926  0.00  0.00     0.023 H 
ATOM     48  H   LIG d   1       2.255   1.667  -5.646  0.00  0.00     0.023 H 
ATOM     49  H   LIG d   1       2.056   0.139  -4.755  0.00  0.00     0.023 H 
ENDBRANCH  19  46
BRANCH  13  50
ATOM     50  C   LIG d   1       2.171  -0.757  -9.199  0.00  0.00    -0.025 C 
ATOM     51  H   LIG d   1       1.413  -0.506  -9.941  0.00  0.00     0.027 H 
ATOM     52  H   LIG d   1       2.635  -1.709  -9.463  0.00  0.00     0.027 H 
ATOM     53  H   LIG d   1       1.706  -0.839  -8.217  0.00  0.00     0.027 H 
ENDBRANCH  13  50
TORSDOF 8
ENDMDL
MODEL 7
REMARK VINA RESULT:      -5.3      1.499      6.509
REMARK  8 active torsions:
REMARK  status: ('A' for Active; 'I' for Inactive)
REMARK    1  A    between atoms: C_1  and  C_2 
REMARK    2  A    between atoms: C_2  and  C_3 
REMARK    3  A    between atoms: C_3  and  O_5 
REMARK    4  A    between atoms: O_5  and  C_6 
REMARK    5  A    between atoms: C_6  and  C_7 
REMARK    6  A    between atoms: C_19  and  C_29 
REMARK    7  A    between atoms: C_22  and  C_24 
REMARK    8  A    between atoms: C_26  and  C_28 
ROOT
ATOM      1  C   LIG d   1       5.048  -0.839  -6.245  0.00  0.00     0.034 C 
ATOM      2  C   LIG d   1       3.655  -0.258  -6.550  0.00  0.00     0.058 C 
ATOM      3  O   LIG d   1       3.056  -0.813  -7.773  0.00  0.00    -0.371 OA
ATOM      4  C   LIG d   1       3.877  -0.204  -8.788  0.00  0.00     0.094 C 
ATOM      5  H   LIG d   1       3.593   0.791  -8.611  0.00  0.00     0.065 H 
ATOM      6  C   LIG d   1       3.845  -0.426 -10.281  0.00  0.00     0.023 A 
ATOM      7  C   LIG d   1       2.713  -0.694 -10.992  0.00  0.00    -0.053 A 
ATOM      8  C   LIG d   1       2.788  -0.892 -12.363  0.00  0.00    -0.061 A 
ATOM      9  C   LIG d   1       4.018  -0.827 -12.993  0.00  0.00    -0.058 A 
ATOM     10  C   LIG d   1       5.165  -0.558 -12.277  0.00  0.00    -0.020 A 
ATOM     11  C   LIG d   1       5.113  -0.332 -10.907  0.00  0.00     0.127 A 
ATOM     12  O   LIG d   1       6.326  -0.054 -10.272  0.00  0.00    -0.485 OA
ATOM     13  C   LIG d   1       6.263  -0.056  -8.879  0.00  0.00     0.114 C 
ATOM     14  C   LIG d   1       5.148  -1.031  -8.611  0.00  0.00     0.032 C 
ATOM     15  H   LIG d   1       5.182  -1.816  -9.436  0.00  0.00     0.037 H 
ATOM     16  C   LIG d   1       5.325  -1.856  -7.382  0.00  0.00    -0.024 C 
ATOM     17  H   LIG d   1       6.372  -2.183  -7.327  0.00  0.00     0.031 H 
ATOM     18  C   LIG d   1       7.092   0.003  -7.652  0.00  0.00    -0.009 C 
ATOM     19  C   LIG d   1       6.210   0.164  -6.391  0.00  0.00    -0.029 C 
ATOM     20  H   LIG d   1       5.820   1.171  -6.313  0.00  0.00     0.031 H 
ATOM     21  H   LIG d   1       2.987  -0.485  -5.717  0.00  0.00     0.057 H 
ATOM     22  H   LIG d   1       3.724   0.823  -6.653  0.00  0.00     0.057 H 
ATOM     23  H   LIG d   1       1.759  -0.749 -10.488  0.00  0.00     0.062 H 
ATOM     24  H   LIG d   1       1.894  -1.090 -12.933  0.00  0.00     0.062 H 
ATOM     25  H   LIG d   1       4.077  -0.991 -14.060  0.00  0.00     0.062 H 
ATOM     26  H   LIG d   1       6.120  -0.520 -12.780  0.00  0.00     0.065 H 
ATOM     27  H   LIG d   1       7.764   0.862  -7.726  0.00  0.00     0.031 H 
ATOM     28  H   LIG d   1       7.686  -0.906  -7.571  0.00  0.00     0.031 H 
ENDROOT
BRANCH   1  29
ATOM     29  C   LIG d   1       5.081  -1.515  -4.878  0.00  0.00     0.101 C 
ATOM     30  H   LIG d   1       5.369  -2.559  -4.996  0.00  0.00     0.070 H 
ATOM     31  H   LIG d   1       5.805  -1.008  -4.240  0.00  0.00     0.070 H 
BRANCH  29  32
ATOM     32  O   LIG d   1       3.764  -1.441  -4.270  0.00  0.00    -0.464 OA
BRANCH  32  33
ATOM     33  C   LIG d   1       3.712  -1.142  -2.963  0.00  0.00     0.307 C 
ATOM     34  O   LIG d   1       3.919  -2.001  -2.138  0.00  0.00    -0.251 OA
BRANCH  33  35
ATOM     35  C   LIG d   1       3.396   0.264  -2.523  0.00  0.00     0.042 C 
ATOM     36  H   LIG d   1       3.208   0.884  -3.399  0.00  0.00     0.037 H 
ATOM     37  H   LIG d   1       2.511   0.255  -1.887  0.00  0.00     0.037 H 
BRANCH  35  38
ATOM     38  C   LIG d   1       4.582   0.832  -1.741  0.00  0.00    -0.055 C 
ATOM     39  H   LIG d   1       5.499   0.677  -2.309  0.00  0.00     0.024 H 
ATOM     40  H   LIG d   1       4.431   1.899  -1.577  0.00  0.00     0.024 H 
ATOM     41  H   LIG d   1       4.659   0.324  -0.779  0.00  0.00     0.024 H 
ENDBRANCH  35  38
ENDBRANCH  33  35
ENDBRANCH  32  33
ENDBRANCH  29  32
ENDBRANCH   1  29
BRANCH  16  42
ATOM     42  C   LIG d   1       4.421  -3.071  -7.333  0.00  0.00    -0.061 C 
ATOM     43  H   LIG d   1       4.155  -3.368  -8.347  0.00  0.00     0.023 H 
ATOM     44  H   LIG d   1       4.942  -3.892  -6.839  0.00  0.00     0.023 H 
ATOM     45  H   LIG d   1       3.516  -2.828  -6.776  0.00  0.00     0.023 H 
ENDBRANCH  16  42
BRANCH  19  46
ATOM     46  C   LIG d   1       7.131  -0.039  -5.173  0.00  0.00    -0.062 C 
ATOM     47  H   LIG d   1       6.614  -0.637  -4.422  0.00  0.00     0.023 H 
ATOM     48  H   LIG d   1       8.039  -0.553  -5.485  0.00  0.00     0.023 H 
ATOM     49  H   LIG d   1       7.389   0.931  -4.748  0.00  0.00     0.023 H 
ENDBRANCH  19  46
BRANCH  13  50
ATOM     50  C   LIG d   1       5.671   1.316  -8.746  0.00  0.00    -0.025 C 
ATOM     51  H   LIG d   1       5.897   1.898  -9.640  0.00  0.00     0.027 H 
ATOM     52  H   LIG d   1       4.590   1.236  -8.629  0.00  0.00     0.027 H 
ATOM     53  H   LIG d   1       6.096   1.813  -7.873  0.00  0.00     0.027 H 
ENDBRANCH  13  50
TORSDOF 8
ENDMDL
MODEL 8
REMARK VINA RESULT:      -5.3     10.896     14.302
REMARK  8 active torsions:
REMARK  status: ('A' for Active; 'I' for Inactive)
REMARK    1  A    between atoms: C_1  and  C_2 
REMARK    2  A    between atoms: C_2  and  C_3 
REMARK    3  A    between atoms: C_3  and  O_5 
REMARK    4  A    between atoms: O_5  and  C_6 
REMARK    5  A    between atoms: C_6  and  C_7 
REMARK    6  A    between atoms: C_19  and  C_29 
REMARK    7  A    between atoms: C_22  and  C_24 
REMARK    8  A    between atoms: C_26  and  C_28 
ROOT
ATOM      1  C   LIG d   1      11.702   9.146   0.859  0.00  0.00     0.034 C 
ATOM      2  C   LIG d   1      11.156   7.818   1.417  0.00  0.00     0.058 C 
ATOM      3  O   LIG d   1      11.372   6.681   0.510  0.00  0.00    -0.371 OA
ATOM      4  C   LIG d   1      10.439   6.983  -0.545  0.00  0.00     0.094 C 
ATOM      5  H   LIG d   1       9.560   6.890   0.023  0.00  0.00     0.065 H 
ATOM      6  C   LIG d   1      10.219   6.247  -1.844  0.00  0.00     0.023 A 
ATOM      7  C   LIG d   1      10.348   4.898  -1.993  0.00  0.00    -0.053 A 
ATOM      8  C   LIG d   1      10.133   4.315  -3.232  0.00  0.00    -0.061 A 
ATOM      9  C   LIG d   1       9.802   5.114  -4.312  0.00  0.00    -0.058 A 
ATOM     10  C   LIG d   1       9.673   6.479  -4.166  0.00  0.00    -0.020 A 
ATOM     11  C   LIG d   1       9.859   7.084  -2.929  0.00  0.00     0.127 A 
ATOM     12  O   LIG d   1       9.694   8.471  -2.879  0.00  0.00    -0.485 OA
ATOM     13  C   LIG d   1      10.104   9.060  -1.684  0.00  0.00     0.114 C 
ATOM     14  C   LIG d   1      11.191   8.124  -1.224  0.00  0.00     0.032 C 
ATOM     15  H   LIG d   1      11.698   7.713  -2.158  0.00  0.00     0.037 H 
ATOM     16  C   LIG d   1      12.322   8.787  -0.515  0.00  0.00    -0.024 C 
ATOM     17  H   LIG d   1      12.578   9.712  -1.049  0.00  0.00     0.031 H 
ATOM     18  C   LIG d   1      10.347  10.364  -1.024  0.00  0.00    -0.009 C 
ATOM     19  C   LIG d   1      10.621  10.181   0.488  0.00  0.00    -0.029 C 
ATOM     20  H   LIG d   1       9.710   9.950   1.025  0.00  0.00     0.031 H 
ATOM     21  H   LIG d   1      11.662   7.596   2.359  0.00  0.00     0.057 H 
ATOM     22  H   LIG d   1      10.090   7.914   1.612  0.00  0.00     0.057 H 
ATOM     23  H   LIG d   1      10.613   4.284  -1.144  0.00  0.00     0.062 H 
ATOM     24  H   LIG d   1      10.219   3.246  -3.353  0.00  0.00     0.062 H 
ATOM     25  H   LIG d   1       9.645   4.661  -5.280  0.00  0.00     0.062 H 
ATOM     26  H   LIG d   1       9.424   7.093  -5.020  0.00  0.00     0.065 H 
ATOM     27  H   LIG d   1       9.459  10.989  -1.149  0.00  0.00     0.031 H 
ATOM     28  H   LIG d   1      11.196  10.856  -1.494  0.00  0.00     0.031 H 
ENDROOT
BRANCH   1  29
ATOM     29  C   LIG d   1      12.742   9.756   1.793  0.00  0.00     0.101 C 
ATOM     30  H   LIG d   1      13.729   9.681   1.337  0.00  0.00     0.070 H 
ATOM     31  H   LIG d   1      12.502  10.804   1.969  0.00  0.00     0.070 H 
BRANCH  29  32
ATOM     32  O   LIG d   1      12.736   9.039   3.057  0.00  0.00    -0.464 OA
BRANCH  32  33
ATOM     33  C   LIG d   1      12.498   9.759   4.165  0.00  0.00     0.307 C 
ATOM     34  O   LIG d   1      12.508  10.966   4.114  0.00  0.00    -0.251 OA
BRANCH  33  35
ATOM     35  C   LIG d   1      12.216   9.061   5.470  0.00  0.00     0.042 C 
ATOM     36  H   LIG d   1      13.153   8.896   6.003  0.00  0.00     0.037 H 
ATOM     37  H   LIG d   1      11.556   9.680   6.078  0.00  0.00     0.037 H 
BRANCH  35  38
ATOM     38  C   LIG d   1      11.543   7.715   5.194  0.00  0.00    -0.055 C 
ATOM     39  H   LIG d   1      10.481   7.873   5.006  0.00  0.00     0.024 H 
ATOM     40  H   LIG d   1      12.002   7.252   4.321  0.00  0.00     0.024 H 
ATOM     41  H   LIG d   1      11.666   7.063   6.059  0.00  0.00     0.024 H 
ENDBRANCH  35  38
ENDBRANCH  33  35
ENDBRANCH  32  33
ENDBRANCH  29  32
ENDBRANCH   1  29
BRANCH  16  42
ATOM     42  C   LIG d   1      13.560   7.918  -0.406  0.00  0.00    -0.061 C 
ATOM     43  H   LIG d   1      14.437   8.550  -0.269  0.00  0.00     0.023 H 
ATOM     44  H   LIG d   1      13.459   7.247   0.448  0.00  0.00     0.023 H 
ATOM     45  H   LIG d   1      13.673   7.332  -1.318  0.00  0.00     0.023 H 
ENDBRANCH  16  42
BRANCH  19  46
ATOM     46  C   LIG d   1      11.104  11.542   1.023  0.00  0.00    -0.062 C 
ATOM     47  H   LIG d   1      11.848  11.957   0.342  0.00  0.00     0.023 H 
ATOM     48  H   LIG d   1      10.259  12.225   1.097  0.00  0.00     0.023 H 
ATOM     49  H   LIG d   1      11.551  11.408   2.008  0.00  0.00     0.023 H 
ENDBRANCH  19  46
BRANCH  13  50
ATOM     50  C   LIG d   1       8.875   8.703  -0.902  0.00  0.00    -0.025 C 
ATOM     51  H   LIG d   1       8.661   7.641  -1.025  0.00  0.00     0.027 H 
ATOM     52  H   LIG d   1       9.040   8.920   0.154  0.00  0.00     0.027 H 
ATOM     53  H   LIG d   1       8.030   9.288  -1.265  0.00  0.00     0.027 H 
ENDBRANCH  13  50
TORSDOF 8
ENDMDL
MODEL 9
REMARK VINA RESULT:      -5.2     10.663     13.312
REMARK  8 active torsions:
REMARK  status: ('A' for Active; 'I' for Inactive)
REMARK    1  A    between atoms: C_1  and  C_2 
REMARK    2  A    between atoms: C_2  and  C_3 
REMARK    3  A    between atoms: C_3  and  O_5 
REMARK    4  A    between atoms: O_5  and  C_6 
REMARK    5  A    between atoms: C_6  and  C_7 
REMARK    6  A    between atoms: C_19  and  C_29 
REMARK    7  A    between atoms: C_22  and  C_24 
REMARK    8  A    between atoms: C_26  and  C_28 
ROOT
ATOM      1  C   LIG d   1      11.017   9.407  -0.028  0.00  0.00     0.034 C 
ATOM      2  C   LIG d   1      11.649   9.718  -1.397  0.00  0.00     0.058 C 
ATOM      3  O   LIG d   1      10.862   9.200  -2.525  0.00  0.00    -0.371 OA
ATOM      4  C   LIG d   1      11.083   7.783  -2.395  0.00  0.00     0.094 C 
ATOM      5  H   LIG d   1      12.116   7.791  -2.589  0.00  0.00     0.065 H 
ATOM      6  C   LIG d   1      10.479   6.659  -3.202  0.00  0.00     0.023 A 
ATOM      7  C   LIG d   1      10.162   6.749  -4.524  0.00  0.00    -0.053 A 
ATOM      8  C   LIG d   1       9.601   5.661  -5.176  0.00  0.00    -0.061 A 
ATOM      9  C   LIG d   1       9.358   4.497  -4.471  0.00  0.00    -0.058 A 
ATOM     10  C   LIG d   1       9.676   4.403  -3.133  0.00  0.00    -0.020 A 
ATOM     11  C   LIG d   1      10.262   5.470  -2.463  0.00  0.00     0.127 A 
ATOM     12  O   LIG d   1      10.559   5.274  -1.112  0.00  0.00    -0.485 OA
ATOM     13  C   LIG d   1      10.933   6.430  -0.428  0.00  0.00     0.114 C 
ATOM     14  C   LIG d   1      10.195   7.502  -1.186  0.00  0.00     0.032 C 
ATOM     15  H   LIG d   1       9.221   7.042  -1.557  0.00  0.00     0.037 H 
ATOM     16  C   LIG d   1       9.711   8.635  -0.347  0.00  0.00    -0.024 C 
ATOM     17  H   LIG d   1       9.295   8.229   0.584  0.00  0.00     0.031 H 
ATOM     18  C   LIG d   1      11.220   6.972   0.920  0.00  0.00    -0.009 C 
ATOM     19  C   LIG d   1      11.808   8.401   0.832  0.00  0.00    -0.029 C 
ATOM     20  H   LIG d   1      12.837   8.381   0.497  0.00  0.00     0.031 H 
ATOM     21  H   LIG d   1      11.727  10.801  -1.512  0.00  0.00     0.057 H 
ATOM     22  H   LIG d   1      12.650   9.293  -1.444  0.00  0.00     0.057 H 
ATOM     23  H   LIG d   1      10.350   7.666  -5.064  0.00  0.00     0.062 H 
ATOM     24  H   LIG d   1       9.361   5.722  -6.227  0.00  0.00     0.062 H 
ATOM     25  H   LIG d   1       8.911   3.652  -4.977  0.00  0.00     0.062 H 
ATOM     26  H   LIG d   1       9.472   3.490  -2.591  0.00  0.00     0.065 H 
ATOM     27  H   LIG d   1      11.948   6.320   1.411  0.00  0.00     0.031 H 
ATOM     28  H   LIG d   1      10.305   6.987   1.508  0.00  0.00     0.031 H 
ENDROOT
BRANCH   1  29
ATOM     29  C   LIG d   1      10.728  10.683   0.754  0.00  0.00     0.101 C 
ATOM     30  H   LIG d   1       9.654  10.773   0.920  0.00  0.00     0.070 H 
ATOM     31  H   LIG d   1      11.242  10.645   1.715  0.00  0.00     0.070 H 
BRANCH  29  32
ATOM     32  O   LIG d   1      11.198  11.831  -0.002  0.00  0.00    -0.464 OA
BRANCH  32  33
ATOM     33  C   LIG d   1      10.510  12.975   0.137  0.00  0.00     0.307 C 
ATOM     34  O   LIG d   1      10.162  13.341   1.235  0.00  0.00    -0.251 OA
BRANCH  33  35
ATOM     35  C   LIG d   1      10.173  13.803  -1.076  0.00  0.00     0.042 C 
ATOM     36  H   LIG d   1       9.297  14.416  -0.865  0.00  0.00     0.037 H 
ATOM     37  H   LIG d   1      11.017  14.447  -1.322  0.00  0.00     0.037 H 
BRANCH  35  38
ATOM     38  C   LIG d   1       9.875  12.878  -2.258  0.00  0.00    -0.055 C 
ATOM     39  H   LIG d   1       8.825  12.971  -2.536  0.00  0.00     0.024 H 
ATOM     40  H   LIG d   1      10.502  13.157  -3.105  0.00  0.00     0.024 H 
ATOM     41  H   LIG d   1      10.085  11.846  -1.974  0.00  0.00     0.024 H 
ENDBRANCH  35  38
ENDBRANCH  33  35
ENDBRANCH  32  33
ENDBRANCH  29  32
ENDBRANCH   1  29
BRANCH  16  42
ATOM     42  C   LIG d   1       8.662   9.488  -1.031  0.00  0.00    -0.061 C 
ATOM     43  H   LIG d   1       9.134  10.099  -1.799  0.00  0.00     0.023 H 
ATOM     44  H   LIG d   1       7.911   8.844  -1.490  0.00  0.00     0.023 H 
ATOM     45  H   LIG d   1       8.184  10.135  -0.295  0.00  0.00     0.023 H 
ENDBRANCH  16  42
BRANCH  19  46
ATOM     46  C   LIG d   1      11.833   8.963   2.267  0.00  0.00    -0.062 C 
ATOM     47  H   LIG d   1      12.332   9.932   2.269  0.00  0.00     0.023 H 
ATOM     48  H   LIG d   1      10.812   9.080   2.629  0.00  0.00     0.023 H 
ATOM     49  H   LIG d   1      12.373   8.276   2.917  0.00  0.00     0.023 H 
ENDBRANCH  19  46
BRANCH  13  50
ATOM     50  C   LIG d   1      12.349   6.455  -0.923  0.00  0.00    -0.025 C 
ATOM     51  H   LIG d   1      12.411   7.076  -1.817  0.00  0.00     0.027 H 
ATOM     52  H   LIG d   1      12.997   6.867  -0.149  0.00  0.00     0.027 H 
ATOM     53  H   LIG d   1      12.668   5.440  -1.163  0.00  0.00     0.027 H 
ENDBRANCH  13  50
TORSDOF 8
ENDMDL
