MODEL 1
REMARK VINA RESULT:      -6.9      0.000      0.000
REMARK  5 active torsions:
REMARK  status: ('A' for Active; 'I' for Inactive)
REMARK    1  A    between atoms: C_1  and  C_2 
REMARK    2  A    between atoms: C_2  and  C_3 
REMARK    3  A    between atoms: N_23  and  C_26 
REMARK    4  A    between atoms: C_29  and  O_32 
REMARK    5  A    between atoms: O_32  and  C_33 
ROOT
ATOM      1  C   LIG d   1       5.613  -2.640  -4.968  0.00  0.00     0.033 C 
ATOM      2  C   LIG d   1       7.165  -2.527  -4.888  0.00  0.00    -0.032 A 
ATOM      3  C   LIG d   1       7.989  -3.565  -4.599  0.00  0.00    -0.057 A 
ATOM      4  C   LIG d   1       9.362  -3.341  -4.618  0.00  0.00    -0.061 A 
ATOM      5  C   LIG d   1       9.851  -2.087  -4.935  0.00  0.00    -0.061 A 
ATOM      6  C   LIG d   1       8.994  -1.032  -5.207  0.00  0.00    -0.058 A 
ATOM      7  C   LIG d   1       7.636  -1.244  -5.155  0.00  0.00    -0.035 A 
ATOM      8  C   LIG d   1       6.624  -0.114  -5.266  0.00  0.00     0.022 C 
ATOM      9  C   LIG d   1       5.790  -0.331  -3.988  0.00  0.00    -0.035 A 
ATOM     10  C   LIG d   1       5.246  -1.624  -3.876  0.00  0.00    -0.032 A 
ATOM     11  C   LIG d   1       4.418  -1.946  -2.831  0.00  0.00    -0.057 A 
ATOM     12  C   LIG d   1       4.174  -0.996  -1.849  0.00  0.00    -0.061 A 
ATOM     13  C   LIG d   1       4.755   0.257  -1.915  0.00  0.00    -0.061 A 
ATOM     14  C   LIG d   1       5.577   0.619  -3.037  0.00  0.00    -0.058 A 
ATOM     15  C   LIG d   1       5.521  -0.462  -6.266  0.00  0.00     0.059 C 
ATOM     16  H   LIG d   1       4.559  -0.092  -5.915  0.00  0.00     0.041 H 
ATOM     17  C   LIG d   1       5.495  -1.996  -6.322  0.00  0.00     0.062 C 
ATOM     18  H   LIG d   1       6.486  -2.146  -6.752  0.00  0.00     0.041 H 
ATOM     19  C   LIG d   1       4.630  -2.240  -7.473  0.00  0.00     0.231 C 
ATOM     20  O   LIG d   1       3.844  -3.147  -7.644  0.00  0.00    -0.275 OA
ATOM     21  N   LIG d   1       4.922  -1.193  -8.318  0.00  0.00    -0.210 N 
ATOM     22  C   LIG d   1       5.686  -0.197  -7.733  0.00  0.00     0.231 C 
ATOM     23  O   LIG d   1       6.298   0.710  -8.254  0.00  0.00    -0.275 OA
ATOM     24  H   LIG d   1       7.590  -4.540  -4.360  0.00  0.00     0.062 H 
ATOM     25  H   LIG d   1      10.045  -4.145  -4.387  0.00  0.00     0.062 H 
ATOM     26  H   LIG d   1      10.918  -1.926  -4.969  0.00  0.00     0.062 H 
ATOM     27  H   LIG d   1       9.386  -0.057  -5.456  0.00  0.00     0.062 H 
ATOM     28  H   LIG d   1       7.062   0.877  -5.380  0.00  0.00     0.041 H 
ATOM     29  H   LIG d   1       3.964  -2.924  -2.772  0.00  0.00     0.062 H 
ATOM     30  H   LIG d   1       3.521  -1.239  -1.024  0.00  0.00     0.062 H 
ATOM     31  H   LIG d   1       4.571   0.978  -1.132  0.00  0.00     0.062 H 
ATOM     32  H   LIG d   1       6.035   1.593  -3.116  0.00  0.00     0.062 H 
ENDROOT
BRANCH  21  33
ATOM     33  C   LIG d   1       4.523  -1.151  -9.663  0.00  0.00     0.044 A 
ATOM     34  C   LIG d   1       5.267  -1.814 -10.629  0.00  0.00    -0.036 A 
ATOM     35  C   LIG d   1       4.870  -1.777 -11.951  0.00  0.00    -0.018 A 
ATOM     36  H   LIG d   1       6.153  -2.361 -10.346  0.00  0.00     0.064 H 
ATOM     37  C   LIG d   1       3.734  -1.070 -12.315  0.00  0.00     0.120 A 
ATOM     38  H   LIG d   1       5.447  -2.296 -12.702  0.00  0.00     0.066 H 
ATOM     39  C   LIG d   1       2.992  -0.403 -11.350  0.00  0.00    -0.018 A 
ATOM     40  C   LIG d   1       3.386  -0.444 -10.028  0.00  0.00    -0.036 A 
ATOM     41  H   LIG d   1       2.108   0.147 -11.634  0.00  0.00     0.066 H 
ATOM     42  H   LIG d   1       2.807   0.075  -9.277  0.00  0.00     0.064 H 
BRANCH  37  43
ATOM     43  O   LIG d   1       3.347  -1.030 -13.618  0.00  0.00    -0.495 OA
BRANCH  43  44
ATOM     44  C   LIG d   1       4.313  -0.579 -14.568  0.00  0.00     0.079 C 
ATOM     45  H   LIG d   1       3.837   0.096 -15.279  0.00  0.00     0.066 H 
ATOM     46  H   LIG d   1       5.115  -0.053 -14.050  0.00  0.00     0.066 H 
ATOM     47  H   LIG d   1       4.726  -1.436 -15.101  0.00  0.00     0.066 H 
ENDBRANCH  43  44
ENDBRANCH  37  43
ENDBRANCH  21  33
BRANCH   1  48
ATOM     48  C   LIG d   1       4.995  -4.032  -4.824  0.00  0.00    -0.041 C 
ATOM     49  H   LIG d   1       3.957  -4.006  -5.153  0.00  0.00     0.027 H 
ATOM     50  H   LIG d   1       5.037  -4.342  -3.780  0.00  0.00     0.027 H 
BRANCH  48  51
ATOM     51  C   LIG d   1       5.777  -5.028  -5.683  0.00  0.00    -0.064 C 
ATOM     52  H   LIG d   1       6.377  -5.671  -5.039  0.00  0.00     0.023 H 
ATOM     53  H   LIG d   1       5.080  -5.638  -6.259  0.00  0.00     0.023 H 
ATOM     54  H   LIG d   1       6.431  -4.484  -6.364  0.00  0.00     0.023 H 
ENDBRANCH  48  51
ENDBRANCH   1  48
TORSDOF 5
ENDMDL
MODEL 2
REMARK VINA RESULT:      -6.6      3.337      7.241
REMARK  5 active torsions:
REMARK  status: ('A' for Active; 'I' for Inactive)
REMARK    1  A    between atoms: C_1  and  C_2 
REMARK    2  A    between atoms: C_2  and  C_3 
REMARK    3  A    between atoms: N_23  and  C_26 
REMARK    4  A    between atoms: C_29  and  O_32 
REMARK    5  A    between atoms: O_32  and  C_33 
ROOT
ATOM      1  C   LIG d   1       6.959  -0.277  -5.096  0.00  0.00     0.033 C 
ATOM      2  C   LIG d   1       5.962  -0.987  -6.061  0.00  0.00    -0.032 A 
ATOM      3  C   LIG d   1       5.523  -0.453  -7.228  0.00  0.00    -0.057 A 
ATOM      4  C   LIG d   1       4.678  -1.219  -8.027  0.00  0.00    -0.061 A 
ATOM      5  C   LIG d   1       4.317  -2.491  -7.624  0.00  0.00    -0.061 A 
ATOM      6  C   LIG d   1       4.758  -3.013  -6.418  0.00  0.00    -0.058 A 
ATOM      7  C   LIG d   1       5.565  -2.244  -5.613  0.00  0.00    -0.035 A 
ATOM      8  C   LIG d   1       5.953  -2.661  -4.203  0.00  0.00     0.022 C 
ATOM      9  C   LIG d   1       5.511  -1.428  -3.392  0.00  0.00    -0.035 A 
ATOM     10  C   LIG d   1       6.072  -0.219  -3.843  0.00  0.00    -0.032 A 
ATOM     11  C   LIG d   1       5.832   0.956  -3.176  0.00  0.00    -0.057 A 
ATOM     12  C   LIG d   1       4.975   0.946  -2.084  0.00  0.00    -0.061 A 
ATOM     13  C   LIG d   1       4.367  -0.225  -1.671  0.00  0.00    -0.061 A 
ATOM     14  C   LIG d   1       4.660  -1.468  -2.330  0.00  0.00    -0.058 A 
ATOM     15  C   LIG d   1       7.457  -2.499  -3.978  0.00  0.00     0.059 C 
ATOM     16  H   LIG d   1       7.654  -2.143  -2.967  0.00  0.00     0.041 H 
ATOM     17  C   LIG d   1       7.907  -1.441  -4.994  0.00  0.00     0.062 C 
ATOM     18  H   LIG d   1       7.698  -2.007  -5.901  0.00  0.00     0.041 H 
ATOM     19  C   LIG d   1       9.361  -1.539  -4.908  0.00  0.00     0.231 C 
ATOM     20  O   LIG d   1      10.183  -0.655  -5.022  0.00  0.00    -0.275 OA
ATOM     21  N   LIG d   1       9.575  -2.878  -4.667  0.00  0.00    -0.210 N 
ATOM     22  C   LIG d   1       8.424  -3.581  -4.355  0.00  0.00     0.231 C 
ATOM     23  O   LIG d   1       8.237  -4.779  -4.328  0.00  0.00    -0.275 OA
ATOM     24  H   LIG d   1       5.820   0.541  -7.530  0.00  0.00     0.062 H 
ATOM     25  H   LIG d   1       4.306  -0.820  -8.959  0.00  0.00     0.062 H 
ATOM     26  H   LIG d   1       3.679  -3.088  -8.259  0.00  0.00     0.062 H 
ATOM     27  H   LIG d   1       4.473  -4.009  -6.114  0.00  0.00     0.062 H 
ATOM     28  H   LIG d   1       5.533  -3.613  -3.880  0.00  0.00     0.041 H 
ATOM     29  H   LIG d   1       6.301   1.875  -3.496  0.00  0.00     0.062 H 
ATOM     30  H   LIG d   1       4.783   1.864  -1.550  0.00  0.00     0.062 H 
ATOM     31  H   LIG d   1       3.688  -0.212  -0.831  0.00  0.00     0.062 H 
ATOM     32  H   LIG d   1       4.205  -2.397  -2.022  0.00  0.00     0.062 H 
ENDROOT
BRANCH  21  33
ATOM     33  C   LIG d   1      10.834  -3.489  -4.768  0.00  0.00     0.044 A 
ATOM     34  C   LIG d   1      11.297  -3.924  -6.003  0.00  0.00    -0.036 A 
ATOM     35  C   LIG d   1      12.539  -4.520  -6.103  0.00  0.00    -0.018 A 
ATOM     36  H   LIG d   1      10.689  -3.791  -6.885  0.00  0.00     0.064 H 
ATOM     37  C   LIG d   1      13.318  -4.695  -4.969  0.00  0.00     0.120 A 
ATOM     38  H   LIG d   1      12.901  -4.854  -7.064  0.00  0.00     0.066 H 
ATOM     39  C   LIG d   1      12.853  -4.265  -3.734  0.00  0.00    -0.018 A 
ATOM     40  C   LIG d   1      11.614  -3.664  -3.634  0.00  0.00    -0.036 A 
ATOM     41  H   LIG d   1      13.460  -4.401  -2.852  0.00  0.00     0.066 H 
ATOM     42  H   LIG d   1      11.253  -3.329  -2.673  0.00  0.00     0.064 H 
BRANCH  37  43
ATOM     43  O   LIG d   1      14.538  -5.287  -5.067  0.00  0.00    -0.495 OA
BRANCH  43  44
ATOM     44  C   LIG d   1      15.165  -5.686  -3.848  0.00  0.00     0.079 C 
ATOM     45  H   LIG d   1      14.730  -5.132  -3.016  0.00  0.00     0.066 H 
ATOM     46  H   LIG d   1      15.011  -6.754  -3.692  0.00  0.00     0.066 H 
ATOM     47  H   LIG d   1      16.234  -5.477  -3.904  0.00  0.00     0.066 H 
ENDBRANCH  43  44
ENDBRANCH  37  43
ENDBRANCH  21  33
BRANCH   1  48
ATOM     48  C   LIG d   1       7.563   1.052  -5.553  0.00  0.00    -0.041 C 
ATOM     49  H   LIG d   1       8.415   1.301  -4.921  0.00  0.00     0.027 H 
ATOM     50  H   LIG d   1       6.812   1.838  -5.477  0.00  0.00     0.027 H 
BRANCH  48  51
ATOM     51  C   LIG d   1       8.027   0.928  -7.006  0.00  0.00    -0.064 C 
ATOM     52  H   LIG d   1       8.166   1.922  -7.429  0.00  0.00     0.023 H 
ATOM     53  H   LIG d   1       8.969   0.382  -7.042  0.00  0.00     0.023 H 
ATOM     54  H   LIG d   1       7.274   0.391  -7.583  0.00  0.00     0.023 H 
ENDBRANCH  48  51
ENDBRANCH   1  48
TORSDOF 5
ENDMDL
MODEL 3
REMARK VINA RESULT:      -6.5      1.181      4.113
REMARK  5 active torsions:
REMARK  status: ('A' for Active; 'I' for Inactive)
REMARK    1  A    between atoms: C_1  and  C_2 
REMARK    2  A    between atoms: C_2  and  C_3 
REMARK    3  A    between atoms: N_23  and  C_26 
REMARK    4  A    between atoms: C_29  and  O_32 
REMARK    5  A    between atoms: O_32  and  C_33 
ROOT
ATOM      1  C   LIG d   1       6.733  -0.598  -5.262  0.00  0.00     0.033 C 
ATOM      2  C   LIG d   1       5.855  -0.888  -4.007  0.00  0.00    -0.032 A 
ATOM      3  C   LIG d   1       5.586   0.023  -3.039  0.00  0.00    -0.057 A 
ATOM      4  C   LIG d   1       4.738  -0.349  -2.001  0.00  0.00    -0.061 A 
ATOM      5  C   LIG d   1       4.188  -1.618  -1.982  0.00  0.00    -0.061 A 
ATOM      6  C   LIG d   1       4.490  -2.544  -2.968  0.00  0.00    -0.058 A 
ATOM      7  C   LIG d   1       5.355  -2.188  -3.976  0.00  0.00    -0.035 A 
ATOM      8  C   LIG d   1       5.879  -3.185  -4.998  0.00  0.00     0.022 C 
ATOM      9  C   LIG d   1       7.401  -2.988  -4.858  0.00  0.00    -0.035 A 
ATOM     10  C   LIG d   1       7.822  -1.658  -5.037  0.00  0.00    -0.032 A 
ATOM     11  C   LIG d   1       9.156  -1.337  -5.016  0.00  0.00    -0.057 A 
ATOM     12  C   LIG d   1      10.083  -2.335  -4.752  0.00  0.00    -0.061 A 
ATOM     13  C   LIG d   1       9.677  -3.634  -4.510  0.00  0.00    -0.061 A 
ATOM     14  C   LIG d   1       8.285  -3.987  -4.588  0.00  0.00    -0.058 A 
ATOM     15  C   LIG d   1       5.753  -2.632  -6.418  0.00  0.00     0.059 C 
ATOM     16  H   LIG d   1       6.615  -2.922  -7.017  0.00  0.00     0.041 H 
ATOM     17  C   LIG d   1       5.727  -1.106  -6.258  0.00  0.00     0.062 C 
ATOM     18  H   LIG d   1       4.784  -1.030  -5.715  0.00  0.00     0.041 H 
ATOM     19  C   LIG d   1       5.337  -0.668  -7.595  0.00  0.00     0.231 C 
ATOM     20  O   LIG d   1       5.679   0.331  -8.190  0.00  0.00    -0.275 OA
ATOM     21  N   LIG d   1       4.486  -1.665  -8.019  0.00  0.00    -0.210 N 
ATOM     22  C   LIG d   1       4.487  -2.786  -7.206  0.00  0.00     0.231 C 
ATOM     23  O   LIG d   1       3.699  -3.707  -7.165  0.00  0.00    -0.275 OA
ATOM     24  H   LIG d   1       6.020   1.012  -3.073  0.00  0.00     0.062 H 
ATOM     25  H   LIG d   1       4.509   0.351  -1.211  0.00  0.00     0.062 H 
ATOM     26  H   LIG d   1       3.514  -1.892  -1.185  0.00  0.00     0.062 H 
ATOM     27  H   LIG d   1       4.053  -3.531  -2.946  0.00  0.00     0.062 H 
ATOM     28  H   LIG d   1       5.521  -4.205  -4.861  0.00  0.00     0.041 H 
ATOM     29  H   LIG d   1       9.480  -0.324  -5.201  0.00  0.00     0.062 H 
ATOM     30  H   LIG d   1      11.136  -2.094  -4.738  0.00  0.00     0.062 H 
ATOM     31  H   LIG d   1      10.409  -4.396  -4.287  0.00  0.00     0.062 H 
ATOM     32  H   LIG d   1       7.943  -4.995  -4.411  0.00  0.00     0.062 H 
ENDROOT
BRANCH  21  33
ATOM     33  C   LIG d   1       3.659  -1.546  -9.147  0.00  0.00     0.044 A 
ATOM     34  C   LIG d   1       2.424  -0.921  -9.039  0.00  0.00    -0.036 A 
ATOM     35  C   LIG d   1       1.614  -0.799 -10.151  0.00  0.00    -0.018 A 
ATOM     36  H   LIG d   1       2.100  -0.527  -8.088  0.00  0.00     0.064 H 
ATOM     37  C   LIG d   1       2.028  -1.311 -11.371  0.00  0.00     0.120 A 
ATOM     38  H   LIG d   1       0.655  -0.310 -10.068  0.00  0.00     0.066 H 
ATOM     39  C   LIG d   1       3.261  -1.940 -11.479  0.00  0.00    -0.018 A 
ATOM     40  C   LIG d   1       4.074  -2.057 -10.369  0.00  0.00    -0.036 A 
ATOM     41  H   LIG d   1       3.583  -2.337 -12.429  0.00  0.00     0.066 H 
ATOM     42  H   LIG d   1       5.033  -2.546 -10.453  0.00  0.00     0.064 H 
BRANCH  37  43
ATOM     43  O   LIG d   1       1.227  -1.195 -12.464  0.00  0.00    -0.495 OA
BRANCH  43  44
ATOM     44  C   LIG d   1       0.422  -2.326 -12.801  0.00  0.00     0.079 C 
ATOM     45  H   LIG d   1      -0.626  -2.029 -12.837  0.00  0.00     0.066 H 
ATOM     46  H   LIG d   1       0.723  -2.710 -13.775  0.00  0.00     0.066 H 
ATOM     47  H   LIG d   1       0.554  -3.102 -12.047  0.00  0.00     0.066 H 
ENDBRANCH  43  44
ENDBRANCH  37  43
ENDBRANCH  21  33
BRANCH   1  48
ATOM     48  C   LIG d   1       7.224   0.837  -5.466  0.00  0.00    -0.041 C 
ATOM     49  H   LIG d   1       6.387   1.469  -5.760  0.00  0.00     0.027 H 
ATOM     50  H   LIG d   1       7.984   0.853  -6.248  0.00  0.00     0.027 H 
BRANCH  48  51
ATOM     51  C   LIG d   1       7.824   1.361  -4.160  0.00  0.00    -0.064 C 
ATOM     52  H   LIG d   1       7.555   2.409  -4.031  0.00  0.00     0.023 H 
ATOM     53  H   LIG d   1       7.437   0.780  -3.322  0.00  0.00     0.023 H 
ATOM     54  H   LIG d   1       8.909   1.267  -4.196  0.00  0.00     0.023 H 
ENDBRANCH  48  51
ENDBRANCH   1  48
TORSDOF 5
ENDMDL
MODEL 4
REMARK VINA RESULT:      -6.5      4.011      7.437
REMARK  5 active torsions:
REMARK  status: ('A' for Active; 'I' for Inactive)
REMARK    1  A    between atoms: C_1  and  C_2 
REMARK    2  A    between atoms: C_2  and  C_3 
REMARK    3  A    between atoms: N_23  and  C_26 
REMARK    4  A    between atoms: C_29  and  O_32 
REMARK    5  A    between atoms: O_32  and  C_33 
ROOT
ATOM      1  C   LIG d   1       8.034  -6.644  -5.524  0.00  0.00     0.033 C 
ATOM      2  C   LIG d   1       7.361  -7.856  -4.811  0.00  0.00    -0.032 A 
ATOM      3  C   LIG d   1       7.936  -8.563  -3.807  0.00  0.00    -0.057 A 
ATOM      4  C   LIG d   1       7.201  -9.586  -3.217  0.00  0.00    -0.061 A 
ATOM      5  C   LIG d   1       5.915  -9.851  -3.653  0.00  0.00    -0.061 A 
ATOM      6  C   LIG d   1       5.351  -9.131  -4.695  0.00  0.00    -0.058 A 
ATOM      7  C   LIG d   1       6.089  -8.143  -5.301  0.00  0.00    -0.035 A 
ATOM      8  C   LIG d   1       5.623  -7.423  -6.557  0.00  0.00     0.022 C 
ATOM      9  C   LIG d   1       6.827  -7.639  -7.493  0.00  0.00    -0.035 A 
ATOM     10  C   LIG d   1       8.050  -7.194  -6.958  0.00  0.00    -0.032 A 
ATOM     11  C   LIG d   1       9.202  -7.250  -7.702  0.00  0.00    -0.057 A 
ATOM     12  C   LIG d   1       9.155  -7.811  -8.971  0.00  0.00    -0.061 A 
ATOM     13  C   LIG d   1       7.972  -8.310  -9.482  0.00  0.00    -0.061 A 
ATOM     14  C   LIG d   1       6.752  -8.202  -8.730  0.00  0.00    -0.058 A 
ATOM     15  C   LIG d   1       5.774  -5.909  -6.410  0.00  0.00     0.059 C 
ATOM     16  H   LIG d   1       6.093  -5.465  -7.351  0.00  0.00     0.041 H 
ATOM     17  C   LIG d   1       6.866  -5.712  -5.350  0.00  0.00     0.062 C 
ATOM     18  H   LIG d   1       6.332  -6.145  -4.503  0.00  0.00     0.041 H 
ATOM     19  C   LIG d   1       6.762  -4.283  -5.070  0.00  0.00     0.231 C 
ATOM     20  O   LIG d   1       7.647  -3.505  -4.787  0.00  0.00    -0.275 OA
ATOM     21  N   LIG d   1       5.415  -4.031  -5.207  0.00  0.00    -0.210 N 
ATOM     22  C   LIG d   1       4.703  -5.077  -5.770  0.00  0.00     0.231 C 
ATOM     23  O   LIG d   1       3.505  -5.263  -5.801  0.00  0.00    -0.275 OA
ATOM     24  H   LIG d   1       8.939  -8.339  -3.475  0.00  0.00     0.062 H 
ATOM     25  H   LIG d   1       7.632 -10.173  -2.419  0.00  0.00     0.062 H 
ATOM     26  H   LIG d   1       5.343 -10.632  -3.176  0.00  0.00     0.062 H 
ATOM     27  H   LIG d   1       4.345  -9.344  -5.026  0.00  0.00     0.062 H 
ATOM     28  H   LIG d   1       4.661  -7.761  -6.942  0.00  0.00     0.041 H 
ATOM     29  H   LIG d   1      10.130  -6.864  -7.308  0.00  0.00     0.062 H 
ATOM     30  H   LIG d   1      10.054  -7.856  -9.567  0.00  0.00     0.062 H 
ATOM     31  H   LIG d   1       7.956  -8.762 -10.464  0.00  0.00     0.062 H 
ATOM     32  H   LIG d   1       5.814  -8.577  -9.110  0.00  0.00     0.062 H 
ENDROOT
BRANCH  21  33
ATOM     33  C   LIG d   1       4.805  -2.842  -4.777  0.00  0.00     0.044 A 
ATOM     34  C   LIG d   1       4.644  -1.785  -5.663  0.00  0.00    -0.036 A 
ATOM     35  C   LIG d   1       4.037  -0.618  -5.241  0.00  0.00    -0.018 A 
ATOM     36  H   LIG d   1       4.987  -1.878  -6.682  0.00  0.00     0.064 H 
ATOM     37  C   LIG d   1       3.601  -0.498  -3.931  0.00  0.00     0.120 A 
ATOM     38  H   LIG d   1       3.908   0.202  -5.931  0.00  0.00     0.066 H 
ATOM     39  C   LIG d   1       3.766  -1.552  -3.043  0.00  0.00    -0.018 A 
ATOM     40  C   LIG d   1       4.367  -2.721  -3.466  0.00  0.00    -0.036 A 
ATOM     41  H   LIG d   1       3.425  -1.457  -2.023  0.00  0.00     0.066 H 
ATOM     42  H   LIG d   1       4.495  -3.541  -2.775  0.00  0.00     0.064 H 
BRANCH  37  43
ATOM     43  O   LIG d   1       3.009   0.654  -3.515  0.00  0.00    -0.495 OA
BRANCH  43  44
ATOM     44  C   LIG d   1       3.713   1.431  -2.544  0.00  0.00     0.079 C 
ATOM     45  H   LIG d   1       2.998   1.938  -1.896  0.00  0.00     0.066 H 
ATOM     46  H   LIG d   1       4.345   0.777  -1.944  0.00  0.00     0.066 H 
ATOM     47  H   LIG d   1       4.333   2.171  -3.051  0.00  0.00     0.066 H 
ENDBRANCH  43  44
ENDBRANCH  37  43
ENDBRANCH  21  33
BRANCH   1  48
ATOM     48  C   LIG d   1       9.377  -6.157  -4.976  0.00  0.00    -0.041 C 
ATOM     49  H   LIG d   1       9.612  -5.182  -5.402  0.00  0.00     0.027 H 
ATOM     50  H   LIG d   1      10.158  -6.868  -5.245  0.00  0.00     0.027 H 
BRANCH  48  51
ATOM     51  C   LIG d   1       9.294  -6.041  -3.453  0.00  0.00    -0.064 C 
ATOM     52  H   LIG d   1       8.953  -5.042  -3.183  0.00  0.00     0.023 H 
ATOM     53  H   LIG d   1       8.593  -6.782  -3.069  0.00  0.00     0.023 H 
ATOM     54  H   LIG d   1      10.280  -6.217  -3.021  0.00  0.00     0.023 H 
ENDBRANCH  48  51
ENDBRANCH   1  48
TORSDOF 5
ENDMDL
MODEL 5
REMARK VINA RESULT:      -6.4      3.227      4.430
REMARK  5 active torsions:
REMARK  status: ('A' for Active; 'I' for Inactive)
REMARK    1  A    between atoms: C_1  and  C_2 
REMARK    2  A    between atoms: C_2  and  C_3 
REMARK    3  A    between atoms: N_23  and  C_26 
REMARK    4  A    between atoms: C_29  and  O_32 
REMARK    5  A    between atoms: O_32  and  C_33 
ROOT
ATOM      1  C   LIG d   1       5.154  -0.830  -5.973  0.00  0.00     0.033 C 
ATOM      2  C   LIG d   1       5.970  -2.053  -5.456  0.00  0.00    -0.032 A 
ATOM      3  C   LIG d   1       5.659  -3.345  -5.727  0.00  0.00    -0.057 A 
ATOM      4  C   LIG d   1       6.506  -4.341  -5.251  0.00  0.00    -0.061 A 
ATOM      5  C   LIG d   1       7.635  -3.999  -4.530  0.00  0.00    -0.061 A 
ATOM      6  C   LIG d   1       7.927  -2.674  -4.244  0.00  0.00    -0.058 A 
ATOM      7  C   LIG d   1       7.072  -1.691  -4.685  0.00  0.00    -0.035 A 
ATOM      8  C   LIG d   1       7.215  -0.234  -4.274  0.00  0.00     0.022 C 
ATOM      9  C   LIG d   1       5.810   0.060  -3.715  0.00  0.00    -0.035 A 
ATOM     10  C   LIG d   1       4.768  -0.216  -4.620  0.00  0.00    -0.032 A 
ATOM     11  C   LIG d   1       3.465   0.066  -4.294  0.00  0.00    -0.057 A 
ATOM     12  C   LIG d   1       3.182   0.569  -3.032  0.00  0.00    -0.061 A 
ATOM     13  C   LIG d   1       4.190   0.783  -2.111  0.00  0.00    -0.061 A 
ATOM     14  C   LIG d   1       5.562   0.544  -2.467  0.00  0.00    -0.058 A 
ATOM     15  C   LIG d   1       7.126   0.690  -5.488  0.00  0.00     0.059 C 
ATOM     16  H   LIG d   1       6.585   1.600  -5.236  0.00  0.00     0.041 H 
ATOM     17  C   LIG d   1       6.341  -0.102  -6.543  0.00  0.00     0.062 C 
ATOM     18  H   LIG d   1       7.066  -0.900  -6.701  0.00  0.00     0.041 H 
ATOM     19  C   LIG d   1       6.531   0.715  -7.738  0.00  0.00     0.231 C 
ATOM     20  O   LIG d   1       5.757   0.905  -8.651  0.00  0.00    -0.275 OA
ATOM     21  N   LIG d   1       7.803   1.219  -7.578  0.00  0.00    -0.210 N 
ATOM     22  C   LIG d   1       8.335   1.007  -6.317  0.00  0.00     0.231 C 
ATOM     23  O   LIG d   1       9.483   1.107  -5.940  0.00  0.00    -0.275 OA
ATOM     24  H   LIG d   1       4.775  -3.595  -6.297  0.00  0.00     0.062 H 
ATOM     25  H   LIG d   1       6.282  -5.380  -5.444  0.00  0.00     0.062 H 
ATOM     26  H   LIG d   1       8.299  -4.775  -4.183  0.00  0.00     0.062 H 
ATOM     27  H   LIG d   1       8.813  -2.416  -3.683  0.00  0.00     0.062 H 
ATOM     28  H   LIG d   1       8.043  -0.034  -3.595  0.00  0.00     0.041 H 
ATOM     29  H   LIG d   1       2.672  -0.102  -5.008  0.00  0.00     0.062 H 
ATOM     30  H   LIG d   1       2.160   0.798  -2.767  0.00  0.00     0.062 H 
ATOM     31  H   LIG d   1       3.951   1.156  -1.126  0.00  0.00     0.062 H 
ATOM     32  H   LIG d   1       6.368   0.711  -1.769  0.00  0.00     0.062 H 
ENDROOT
BRANCH  21  33
ATOM     33  C   LIG d   1       8.518   1.851  -8.607  0.00  0.00     0.044 A 
ATOM     34  C   LIG d   1       8.602   3.237  -8.644  0.00  0.00    -0.036 A 
ATOM     35  C   LIG d   1       9.311   3.858  -9.653  0.00  0.00    -0.018 A 
ATOM     36  H   LIG d   1       8.118   3.827  -7.881  0.00  0.00     0.064 H 
ATOM     37  C   LIG d   1       9.928   3.099 -10.636  0.00  0.00     0.120 A 
ATOM     38  H   LIG d   1       9.380   4.935  -9.679  0.00  0.00     0.066 H 
ATOM     39  C   LIG d   1       9.840   1.715 -10.603  0.00  0.00    -0.018 A 
ATOM     40  C   LIG d   1       9.137   1.093  -9.591  0.00  0.00    -0.036 A 
ATOM     41  H   LIG d   1      10.322   1.125 -11.368  0.00  0.00     0.066 H 
ATOM     42  H   LIG d   1       9.069   0.015  -9.565  0.00  0.00     0.064 H 
BRANCH  37  43
ATOM     43  O   LIG d   1      10.622   3.713 -11.633  0.00  0.00    -0.495 OA
BRANCH  43  44
ATOM     44  C   LIG d   1      10.194   5.022 -12.009  0.00  0.00     0.079 C 
ATOM     45  H   LIG d   1      10.690   5.315 -12.935  0.00  0.00     0.066 H 
ATOM     46  H   LIG d   1       9.114   5.022 -12.161  0.00  0.00     0.066 H 
ATOM     47  H   LIG d   1      10.450   5.729 -11.220  0.00  0.00     0.066 H 
ENDBRANCH  43  44
ENDBRANCH  37  43
ENDBRANCH  21  33
BRANCH   1  48
ATOM     48  C   LIG d   1       4.001  -1.106  -6.939  0.00  0.00    -0.041 C 
ATOM     49  H   LIG d   1       3.418  -1.954  -6.578  0.00  0.00     0.027 H 
ATOM     50  H   LIG d   1       4.400  -1.336  -7.927  0.00  0.00     0.027 H 
BRANCH  48  51
ATOM     51  C   LIG d   1       3.102   0.129  -7.026  0.00  0.00    -0.064 C 
ATOM     52  H   LIG d   1       2.258  -0.081  -7.683  0.00  0.00     0.023 H 
ATOM     53  H   LIG d   1       2.736   0.384  -6.032  0.00  0.00     0.023 H 
ATOM     54  H   LIG d   1       3.673   0.966  -7.428  0.00  0.00     0.023 H 
ENDBRANCH  48  51
ENDBRANCH   1  48
TORSDOF 5
ENDMDL
MODEL 6
REMARK VINA RESULT:      -6.4      3.652      5.778
REMARK  5 active torsions:
REMARK  status: ('A' for Active; 'I' for Inactive)
REMARK    1  A    between atoms: C_1  and  C_2 
REMARK    2  A    between atoms: C_2  and  C_3 
REMARK    3  A    between atoms: N_23  and  C_26 
REMARK    4  A    between atoms: C_29  and  O_32 
REMARK    5  A    between atoms: O_32  and  C_33 
ROOT
ATOM      1  C   LIG d   1       5.844  -0.621  -5.875  0.00  0.00     0.033 C 
ATOM      2  C   LIG d   1       6.566  -1.888  -5.325  0.00  0.00    -0.032 A 
ATOM      3  C   LIG d   1       6.559  -3.096  -5.941  0.00  0.00    -0.057 A 
ATOM      4  C   LIG d   1       7.295  -4.131  -5.372  0.00  0.00    -0.061 A 
ATOM      5  C   LIG d   1       8.015  -3.907  -4.213  0.00  0.00    -0.061 A 
ATOM      6  C   LIG d   1       7.995  -2.671  -3.585  0.00  0.00    -0.058 A 
ATOM      7  C   LIG d   1       7.241  -1.658  -4.128  0.00  0.00    -0.035 A 
ATOM      8  C   LIG d   1       7.019  -0.330  -3.420  0.00  0.00     0.022 C 
ATOM      9  C   LIG d   1       5.480  -0.245  -3.415  0.00  0.00    -0.035 A 
ATOM     10  C   LIG d   1       4.900  -0.356  -4.693  0.00  0.00    -0.032 A 
ATOM     11  C   LIG d   1       3.545  -0.224  -4.859  0.00  0.00    -0.057 A 
ATOM     12  C   LIG d   1       2.745  -0.042  -3.740  0.00  0.00    -0.061 A 
ATOM     13  C   LIG d   1       3.297   0.004  -2.474  0.00  0.00    -0.061 A 
ATOM     14  C   LIG d   1       4.721  -0.076  -2.298  0.00  0.00    -0.058 A 
ATOM     15  C   LIG d   1       7.265   0.844  -4.368  0.00  0.00     0.059 C 
ATOM     16  H   LIG d   1       6.549   1.643  -4.179  0.00  0.00     0.041 H 
ATOM     17  C   LIG d   1       7.046   0.279  -5.778  0.00  0.00     0.062 C 
ATOM     18  H   LIG d   1       7.880  -0.424  -5.788  0.00  0.00     0.041 H 
ATOM     19  C   LIG d   1       7.555   1.359  -6.619  0.00  0.00     0.231 C 
ATOM     20  O   LIG d   1       7.160   1.715  -7.708  0.00  0.00    -0.275 OA
ATOM     21  N   LIG d   1       8.593   1.876  -5.876  0.00  0.00    -0.210 N 
ATOM     22  C   LIG d   1       8.640   1.405  -4.574  0.00  0.00     0.231 C 
ATOM     23  O   LIG d   1       9.539   1.473  -3.764  0.00  0.00    -0.275 OA
ATOM     24  H   LIG d   1       5.995  -3.251  -6.849  0.00  0.00     0.062 H 
ATOM     25  H   LIG d   1       7.304  -5.106  -5.834  0.00  0.00     0.062 H 
ATOM     26  H   LIG d   1       8.601  -4.708  -3.789  0.00  0.00     0.062 H 
ATOM     27  H   LIG d   1       8.563  -2.506  -2.681  0.00  0.00     0.062 H 
ATOM     28  H   LIG d   1       7.498  -0.251  -2.445  0.00  0.00     0.041 H 
ATOM     29  H   LIG d   1       3.107  -0.262  -5.846  0.00  0.00     0.062 H 
ATOM     30  H   LIG d   1       1.677   0.067  -3.861  0.00  0.00     0.062 H 
ATOM     31  H   LIG d   1       2.658   0.127  -1.611  0.00  0.00     0.062 H 
ATOM     32  H   LIG d   1       5.178  -0.035  -1.321  0.00  0.00     0.062 H 
ENDROOT
BRANCH  21  33
ATOM     33  C   LIG d   1       9.547   2.764  -6.397  0.00  0.00     0.044 A 
ATOM     34  C   LIG d   1      10.538   2.298  -7.249  0.00  0.00    -0.036 A 
ATOM     35  C   LIG d   1      11.472   3.174  -7.766  0.00  0.00    -0.018 A 
ATOM     36  H   LIG d   1      10.575   1.252  -7.513  0.00  0.00     0.064 H 
ATOM     37  C   LIG d   1      11.427   4.517  -7.423  0.00  0.00     0.120 A 
ATOM     38  H   LIG d   1      12.240   2.812  -8.433  0.00  0.00     0.066 H 
ATOM     39  C   LIG d   1      10.440   4.983  -6.567  0.00  0.00    -0.018 A 
ATOM     40  C   LIG d   1       9.502   4.109  -6.055  0.00  0.00    -0.036 A 
ATOM     41  H   LIG d   1      10.405   6.029  -6.301  0.00  0.00     0.066 H 
ATOM     42  H   LIG d   1       8.733   4.472  -5.389  0.00  0.00     0.064 H 
BRANCH  37  43
ATOM     43  O   LIG d   1      12.351   5.379  -7.928  0.00  0.00    -0.495 OA
BRANCH  43  44
ATOM     44  C   LIG d   1      11.861   6.589  -8.507  0.00  0.00     0.079 C 
ATOM     45  H   LIG d   1      10.778   6.526  -8.619  0.00  0.00     0.066 H 
ATOM     46  H   LIG d   1      12.110   7.429  -7.860  0.00  0.00     0.066 H 
ATOM     47  H   LIG d   1      12.319   6.735  -9.486  0.00  0.00     0.066 H 
ENDBRANCH  43  44
ENDBRANCH  37  43
ENDBRANCH  21  33
BRANCH   1  48
ATOM     48  C   LIG d   1       5.184  -0.724  -7.251  0.00  0.00    -0.041 C 
ATOM     49  H   LIG d   1       4.930   0.274  -7.608  0.00  0.00     0.027 H 
ATOM     50  H   LIG d   1       4.277  -1.324  -7.175  0.00  0.00     0.027 H 
BRANCH  48  51
ATOM     51  C   LIG d   1       6.153  -1.385  -8.234  0.00  0.00    -0.064 C 
ATOM     52  H   LIG d   1       6.109  -0.867  -9.191  0.00  0.00     0.023 H 
ATOM     53  H   LIG d   1       7.167  -1.331  -7.837  0.00  0.00     0.023 H 
ATOM     54  H   LIG d   1       5.873  -2.429  -8.373  0.00  0.00     0.023 H 
ENDBRANCH  48  51
ENDBRANCH   1  48
TORSDOF 5
ENDMDL
MODEL 7
REMARK VINA RESULT:      -6.4      2.871      5.687
REMARK  5 active torsions:
REMARK  status: ('A' for Active; 'I' for Inactive)
REMARK    1  A    between atoms: C_1  and  C_2 
REMARK    2  A    between atoms: C_2  and  C_3 
REMARK    3  A    between atoms: N_23  and  C_26 
REMARK    4  A    between atoms: C_29  and  O_32 
REMARK    5  A    between atoms: O_32  and  C_33 
ROOT
ATOM      1  C   LIG d   1       6.659  -0.947  -4.804  0.00  0.00     0.033 C 
ATOM      2  C   LIG d   1       6.477  -0.153  -6.132  0.00  0.00    -0.032 A 
ATOM      3  C   LIG d   1       7.431   0.639  -6.682  0.00  0.00    -0.057 A 
ATOM      4  C   LIG d   1       7.160   1.246  -7.905  0.00  0.00    -0.061 A 
ATOM      5  C   LIG d   1       5.946   1.026  -8.529  0.00  0.00    -0.061 A 
ATOM      6  C   LIG d   1       4.974   0.230  -7.942  0.00  0.00    -0.058 A 
ATOM      7  C   LIG d   1       5.228  -0.342  -6.718  0.00  0.00    -0.035 A 
ATOM      8  C   LIG d   1       4.164  -1.082  -5.922  0.00  0.00     0.022 C 
ATOM      9  C   LIG d   1       4.229  -0.341  -4.572  0.00  0.00    -0.035 A 
ATOM     10  C   LIG d   1       5.512  -0.319  -3.996  0.00  0.00    -0.032 A 
ATOM     11  C   LIG d   1       5.715   0.238  -2.759  0.00  0.00    -0.057 A 
ATOM     12  C   LIG d   1       4.645   0.838  -2.109  0.00  0.00    -0.061 A 
ATOM     13  C   LIG d   1       3.393   0.879  -2.694  0.00  0.00    -0.061 A 
ATOM     14  C   LIG d   1       3.163   0.247  -3.964  0.00  0.00    -0.058 A 
ATOM     15  C   LIG d   1       4.692  -2.426  -5.419  0.00  0.00     0.059 C 
ATOM     16  H   LIG d   1       4.313  -2.634  -4.419  0.00  0.00     0.041 H 
ATOM     17  C   LIG d   1       6.218  -2.269  -5.369  0.00  0.00     0.062 C 
ATOM     18  H   LIG d   1       6.390  -2.148  -6.439  0.00  0.00     0.041 H 
ATOM     19  C   LIG d   1       6.656  -3.645  -5.150  0.00  0.00     0.231 C 
ATOM     20  O   LIG d   1       7.607  -4.039  -4.510  0.00  0.00    -0.275 OA
ATOM     21  N   LIG d   1       5.728  -4.387  -5.847  0.00  0.00    -0.210 N 
ATOM     22  C   LIG d   1       4.632  -3.657  -6.273  0.00  0.00     0.231 C 
ATOM     23  O   LIG d   1       3.785  -3.947  -7.091  0.00  0.00    -0.275 OA
ATOM     24  H   LIG d   1       8.377   0.795  -6.184  0.00  0.00     0.062 H 
ATOM     25  H   LIG d   1       7.897   1.887  -8.366  0.00  0.00     0.062 H 
ATOM     26  H   LIG d   1       5.751   1.482  -9.487  0.00  0.00     0.062 H 
ATOM     27  H   LIG d   1       4.029   0.062  -8.439  0.00  0.00     0.062 H 
ATOM     28  H   LIG d   1       3.183  -1.114  -6.395  0.00  0.00     0.041 H 
ATOM     29  H   LIG d   1       6.691   0.212  -2.298  0.00  0.00     0.062 H 
ATOM     30  H   LIG d   1       4.792   1.276  -1.133  0.00  0.00     0.062 H 
ATOM     31  H   LIG d   1       2.575   1.368  -2.184  0.00  0.00     0.062 H 
ATOM     32  H   LIG d   1       2.193   0.258  -4.438  0.00  0.00     0.062 H 
ENDROOT
BRANCH  21  33
ATOM     33  C   LIG d   1       5.893  -5.750  -6.139  0.00  0.00     0.044 A 
ATOM     34  C   LIG d   1       6.808  -6.147  -7.105  0.00  0.00    -0.036 A 
ATOM     35  C   LIG d   1       6.973  -7.489  -7.387  0.00  0.00    -0.018 A 
ATOM     36  H   LIG d   1       7.393  -5.408  -7.630  0.00  0.00     0.064 H 
ATOM     37  C   LIG d   1       6.218  -8.438  -6.715  0.00  0.00     0.120 A 
ATOM     38  H   LIG d   1       7.688  -7.798  -8.135  0.00  0.00     0.066 H 
ATOM     39  C   LIG d   1       5.299  -8.041  -5.754  0.00  0.00    -0.018 A 
ATOM     40  C   LIG d   1       5.137  -6.701  -5.467  0.00  0.00    -0.036 A 
ATOM     41  H   LIG d   1       4.712  -8.781  -5.231  0.00  0.00     0.066 H 
ATOM     42  H   LIG d   1       4.423  -6.392  -4.717  0.00  0.00     0.064 H 
BRANCH  37  43
ATOM     43  O   LIG d   1       6.378  -9.759  -6.999  0.00  0.00    -0.495 OA
BRANCH  43  44
ATOM     44  C   LIG d   1       5.545 -10.678  -6.292  0.00  0.00     0.079 C 
ATOM     45  H   LIG d   1       5.990 -11.673  -6.326  0.00  0.00     0.066 H 
ATOM     46  H   LIG d   1       5.449 -10.359  -5.254  0.00  0.00     0.066 H 
ATOM     47  H   LIG d   1       4.558 -10.706  -6.755  0.00  0.00     0.066 H 
ENDBRANCH  43  44
ENDBRANCH  37  43
ENDBRANCH  21  33
BRANCH   1  48
ATOM     48  C   LIG d   1       8.039  -0.918  -4.144  0.00  0.00    -0.041 C 
ATOM     49  H   LIG d   1       8.090  -1.686  -3.373  0.00  0.00     0.027 H 
ATOM     50  H   LIG d   1       8.206   0.061  -3.694  0.00  0.00     0.027 H 
BRANCH  48  51
ATOM     51  C   LIG d   1       9.114  -1.184  -5.200  0.00  0.00    -0.064 C 
ATOM     52  H   LIG d   1       8.668  -1.700  -6.050  0.00  0.00     0.023 H 
ATOM     53  H   LIG d   1       9.540  -0.237  -5.533  0.00  0.00     0.023 H 
ATOM     54  H   LIG d   1       9.899  -1.805  -4.770  0.00  0.00     0.023 H 
ENDBRANCH  48  51
ENDBRANCH   1  48
TORSDOF 5
ENDMDL
MODEL 8
REMARK VINA RESULT:      -6.3      3.194      5.649
REMARK  5 active torsions:
REMARK  status: ('A' for Active; 'I' for Inactive)
REMARK    1  A    between atoms: C_1  and  C_2 
REMARK    2  A    between atoms: C_2  and  C_3 
REMARK    3  A    between atoms: N_23  and  C_26 
REMARK    4  A    between atoms: C_29  and  O_32 
REMARK    5  A    between atoms: O_32  and  C_33 
ROOT
ATOM      1  C   LIG d   1       6.573  -2.280  -4.364  0.00  0.00     0.033 C 
ATOM      2  C   LIG d   1       5.293  -1.667  -3.720  0.00  0.00    -0.032 A 
ATOM      3  C   LIG d   1       5.078  -1.585  -2.384  0.00  0.00    -0.057 A 
ATOM      4  C   LIG d   1       3.917  -0.960  -1.940  0.00  0.00    -0.061 A 
ATOM      5  C   LIG d   1       3.024  -0.435  -2.856  0.00  0.00    -0.061 A 
ATOM      6  C   LIG d   1       3.249  -0.546  -4.219  0.00  0.00    -0.058 A 
ATOM      7  C   LIG d   1       4.380  -1.194  -4.659  0.00  0.00    -0.035 A 
ATOM      8  C   LIG d   1       4.623  -1.517  -6.125  0.00  0.00     0.022 C 
ATOM      9  C   LIG d   1       4.878  -3.035  -6.062  0.00  0.00    -0.035 A 
ATOM     10  C   LIG d   1       5.912  -3.401  -5.180  0.00  0.00    -0.032 A 
ATOM     11  C   LIG d   1       6.307  -4.710  -5.071  0.00  0.00    -0.057 A 
ATOM     12  C   LIG d   1       5.629  -5.680  -5.796  0.00  0.00    -0.061 A 
ATOM     13  C   LIG d   1       4.569  -5.340  -6.616  0.00  0.00    -0.061 A 
ATOM     14  C   LIG d   1       4.188  -3.963  -6.779  0.00  0.00    -0.058 A 
ATOM     15  C   LIG d   1       6.034  -1.111  -6.549  0.00  0.00     0.059 C 
ATOM     16  H   LIG d   1       6.448  -1.841  -7.243  0.00  0.00     0.041 H 
ATOM     17  C   LIG d   1       6.859  -1.103  -5.256  0.00  0.00     0.062 C 
ATOM     18  H   LIG d   1       6.342  -0.284  -4.754  0.00  0.00     0.041 H 
ATOM     19  C   LIG d   1       8.094  -0.455  -5.689  0.00  0.00     0.231 C 
ATOM     20  O   LIG d   1       9.227  -0.666  -5.312  0.00  0.00    -0.275 OA
ATOM     21  N   LIG d   1       7.663   0.454  -6.629  0.00  0.00    -0.210 N 
ATOM     22  C   LIG d   1       6.341   0.284  -7.007  0.00  0.00     0.231 C 
ATOM     23  O   LIG d   1       5.610   1.040  -7.610  0.00  0.00    -0.275 OA
ATOM     24  H   LIG d   1       5.790  -1.995  -1.682  0.00  0.00     0.062 H 
ATOM     25  H   LIG d   1       3.714  -0.884  -0.882  0.00  0.00     0.062 H 
ATOM     26  H   LIG d   1       2.137   0.068  -2.504  0.00  0.00     0.062 H 
ATOM     27  H   LIG d   1       2.547  -0.131  -4.927  0.00  0.00     0.062 H 
ATOM     28  H   LIG d   1       3.825  -1.201  -6.797  0.00  0.00     0.041 H 
ATOM     29  H   LIG d   1       7.133  -4.983  -4.430  0.00  0.00     0.062 H 
ATOM     30  H   LIG d   1       5.935  -6.713  -5.721  0.00  0.00     0.062 H 
ATOM     31  H   LIG d   1       4.039  -6.109  -7.159  0.00  0.00     0.062 H 
ATOM     32  H   LIG d   1       3.370  -3.671  -7.418  0.00  0.00     0.062 H 
ENDROOT
BRANCH  21  33
ATOM     33  C   LIG d   1       8.469   1.486  -7.132  0.00  0.00     0.044 A 
ATOM     34  C   LIG d   1       8.947   1.422  -8.435  0.00  0.00    -0.036 A 
ATOM     35  C   LIG d   1       9.734   2.442  -8.931  0.00  0.00    -0.018 A 
ATOM     36  H   LIG d   1       8.697   0.579  -9.060  0.00  0.00     0.064 H 
ATOM     37  C   LIG d   1      10.059   3.523  -8.125  0.00  0.00     0.120 A 
ATOM     38  H   LIG d   1      10.102   2.394  -9.945  0.00  0.00     0.066 H 
ATOM     39  C   LIG d   1       9.586   3.585  -6.822  0.00  0.00    -0.018 A 
ATOM     40  C   LIG d   1       8.794   2.569  -6.327  0.00  0.00    -0.036 A 
ATOM     41  H   LIG d   1       9.839   4.427  -6.196  0.00  0.00     0.066 H 
ATOM     42  H   LIG d   1       8.425   2.618  -5.313  0.00  0.00     0.064 H 
BRANCH  37  43
ATOM     43  O   LIG d   1      10.840   4.524  -8.613  0.00  0.00    -0.495 OA
BRANCH  43  44
ATOM     44  C   LIG d   1      10.495   5.858  -8.238  0.00  0.00     0.079 C 
ATOM     45  H   LIG d   1      11.089   6.565  -8.816  0.00  0.00     0.066 H 
ATOM     46  H   LIG d   1       9.436   6.028  -8.435  0.00  0.00     0.066 H 
ATOM     47  H   LIG d   1      10.694   5.999  -7.175  0.00  0.00     0.066 H 
ENDBRANCH  43  44
ENDBRANCH  37  43
ENDBRANCH  21  33
BRANCH   1  48
ATOM     48  C   LIG d   1       7.702  -2.710  -3.425  0.00  0.00    -0.041 C 
ATOM     49  H   LIG d   1       7.282  -3.233  -2.567  0.00  0.00     0.027 H 
ATOM     50  H   LIG d   1       8.245  -1.829  -3.083  0.00  0.00     0.027 H 
BRANCH  48  51
ATOM     51  C   LIG d   1       8.659  -3.641  -4.171  0.00  0.00    -0.064 C 
ATOM     52  H   LIG d   1       8.772  -4.570  -3.612  0.00  0.00     0.023 H 
ATOM     53  H   LIG d   1       8.258  -3.858  -5.161  0.00  0.00     0.023 H 
ATOM     54  H   LIG d   1       9.631  -3.158  -4.271  0.00  0.00     0.023 H 
ENDBRANCH  48  51
ENDBRANCH   1  48
TORSDOF 5
ENDMDL
MODEL 9
REMARK VINA RESULT:      -6.2      2.951      6.160
REMARK  5 active torsions:
REMARK  status: ('A' for Active; 'I' for Inactive)
REMARK    1  A    between atoms: C_1  and  C_2 
REMARK    2  A    between atoms: C_2  and  C_3 
REMARK    3  A    between atoms: N_23  and  C_26 
REMARK    4  A    between atoms: C_29  and  O_32 
REMARK    5  A    between atoms: O_32  and  C_33 
ROOT
ATOM      1  C   LIG d   1       4.747  -1.027  -4.971  0.00  0.00     0.033 C 
ATOM      2  C   LIG d   1       6.022  -0.170  -4.707  0.00  0.00    -0.032 A 
ATOM      3  C   LIG d   1       6.222   0.574  -3.591  0.00  0.00    -0.057 A 
ATOM      4  C   LIG d   1       7.432   1.246  -3.454  0.00  0.00    -0.061 A 
ATOM      5  C   LIG d   1       8.396   1.137  -4.440  0.00  0.00    -0.061 A 
ATOM      6  C   LIG d   1       8.166   0.389  -5.585  0.00  0.00    -0.058 A 
ATOM      7  C   LIG d   1       6.957  -0.248  -5.736  0.00  0.00    -0.035 A 
ATOM      8  C   LIG d   1       6.551  -0.942  -7.027  0.00  0.00     0.022 C 
ATOM      9  C   LIG d   1       5.201  -0.262  -7.323  0.00  0.00    -0.035 A 
ATOM     10  C   LIG d   1       4.274  -0.353  -6.268  0.00  0.00    -0.032 A 
ATOM     11  C   LIG d   1       3.002   0.140  -6.409  0.00  0.00    -0.057 A 
ATOM     12  C   LIG d   1       2.659   0.787  -7.588  0.00  0.00    -0.061 A 
ATOM     13  C   LIG d   1       3.581   0.940  -8.607  0.00  0.00    -0.061 A 
ATOM     14  C   LIG d   1       4.897   0.375  -8.487  0.00  0.00    -0.058 A 
ATOM     15  C   LIG d   1       5.995  -2.338  -6.747  0.00  0.00     0.059 C 
ATOM     16  H   LIG d   1       5.164  -2.559  -7.415  0.00  0.00     0.041 H 
ATOM     17  C   LIG d   1       5.493  -2.291  -5.298  0.00  0.00     0.062 C 
ATOM     18  H   LIG d   1       6.456  -2.140  -4.811  0.00  0.00     0.041 H 
ATOM     19  C   LIG d   1       5.236  -3.702  -5.021  0.00  0.00     0.231 C 
ATOM     20  O   LIG d   1       4.370  -4.187  -4.325  0.00  0.00    -0.275 OA
ATOM     21  N   LIG d   1       6.215  -4.350  -5.741  0.00  0.00    -0.210 N 
ATOM     22  C   LIG d   1       6.900  -3.528  -6.620  0.00  0.00     0.231 C 
ATOM     23  O   LIG d   1       7.945  -3.725  -7.203  0.00  0.00    -0.275 OA
ATOM     24  H   LIG d   1       5.460   0.643  -2.828  0.00  0.00     0.062 H 
ATOM     25  H   LIG d   1       7.620   1.851  -2.580  0.00  0.00     0.062 H 
ATOM     26  H   LIG d   1       9.341   1.643  -4.318  0.00  0.00     0.062 H 
ATOM     27  H   LIG d   1       8.926   0.307  -6.348  0.00  0.00     0.062 H 
ATOM     28  H   LIG d   1       7.291  -0.886  -7.824  0.00  0.00     0.041 H 
ATOM     29  H   LIG d   1       2.277   0.027  -5.616  0.00  0.00     0.062 H 
ATOM     30  H   LIG d   1       1.658   1.175  -7.712  0.00  0.00     0.062 H 
ATOM     31  H   LIG d   1       3.304   1.463  -9.511  0.00  0.00     0.062 H 
ATOM     32  H   LIG d   1       5.632   0.474  -9.271  0.00  0.00     0.062 H 
ENDROOT
BRANCH  21  33
ATOM     33  C   LIG d   1       6.526  -5.708  -5.573  0.00  0.00     0.044 A 
ATOM     34  C   LIG d   1       7.718  -6.078  -4.965  0.00  0.00    -0.036 A 
ATOM     35  C   LIG d   1       8.019  -7.414  -4.795  0.00  0.00    -0.018 A 
ATOM     36  H   LIG d   1       8.405  -5.320  -4.620  0.00  0.00     0.064 H 
ATOM     37  C   LIG d   1       7.138  -8.387  -5.242  0.00  0.00     0.120 A 
ATOM     38  H   LIG d   1       8.945  -7.701  -4.317  0.00  0.00     0.066 H 
ATOM     39  C   LIG d   1       5.949  -8.018  -5.855  0.00  0.00    -0.018 A 
ATOM     40  C   LIG d   1       5.644  -6.682  -6.020  0.00  0.00    -0.036 A 
ATOM     41  H   LIG d   1       5.263  -8.776  -6.202  0.00  0.00     0.066 H 
ATOM     42  H   LIG d   1       4.718  -6.396  -6.497  0.00  0.00     0.064 H 
BRANCH  37  43
ATOM     43  O   LIG d   1       7.439  -9.703  -5.079  0.00  0.00    -0.495 OA
BRANCH  43  44
ATOM     44  C   LIG d   1       6.344 -10.600  -4.891  0.00  0.00     0.079 C 
ATOM     45  H   LIG d   1       6.721 -11.616  -4.772  0.00  0.00     0.066 H 
ATOM     46  H   LIG d   1       5.788 -10.314  -3.999  0.00  0.00     0.066 H 
ATOM     47  H   LIG d   1       5.686 -10.557  -5.759  0.00  0.00     0.066 H 
ENDBRANCH  43  44
ENDBRANCH  37  43
ENDBRANCH  21  33
BRANCH   1  48
ATOM     48  C   LIG d   1       3.712  -1.121  -3.847  0.00  0.00    -0.041 C 
ATOM     49  H   LIG d   1       2.991  -1.903  -4.082  0.00  0.00     0.027 H 
ATOM     50  H   LIG d   1       3.194  -0.167  -3.750  0.00  0.00     0.027 H 
BRANCH  48  51
ATOM     51  C   LIG d   1       4.418  -1.456  -2.532  0.00  0.00    -0.064 C 
ATOM     52  H   LIG d   1       5.493  -1.517  -2.701  0.00  0.00     0.023 H 
ATOM     53  H   LIG d   1       4.208  -0.678  -1.798  0.00  0.00     0.023 H 
ATOM     54  H   LIG d   1       4.055  -2.414  -2.159  0.00  0.00     0.023 H 
ENDBRANCH  48  51
ENDBRANCH   1  48
TORSDOF 5
ENDMDL
MODEL 10
REMARK VINA RESULT:      -6.2      2.815      6.421
REMARK  5 active torsions:
REMARK  status: ('A' for Active; 'I' for Inactive)
REMARK    1  A    between atoms: C_1  and  C_2 
REMARK    2  A    between atoms: C_2  and  C_3 
REMARK    3  A    between atoms: N_23  and  C_26 
REMARK    4  A    between atoms: C_29  and  O_32 
REMARK    5  A    between atoms: O_32  and  C_33 
ROOT
ATOM      1  C   LIG d   1       5.084  -1.526  -6.250  0.00  0.00     0.033 C 
ATOM      2  C   LIG d   1       4.714  -3.032  -6.401  0.00  0.00    -0.032 A 
ATOM      3  C   LIG d   1       4.096  -3.559  -7.487  0.00  0.00    -0.057 A 
ATOM      4  C   LIG d   1       3.876  -4.933  -7.519  0.00  0.00    -0.061 A 
ATOM      5  C   LIG d   1       4.293  -5.722  -6.463  0.00  0.00    -0.061 A 
ATOM      6  C   LIG d   1       4.904  -5.164  -5.350  0.00  0.00    -0.058 A 
ATOM      7  C   LIG d   1       5.091  -3.802  -5.303  0.00  0.00    -0.035 A 
ATOM      8  C   LIG d   1       5.590  -3.085  -4.059  0.00  0.00     0.022 C 
ATOM      9  C   LIG d   1       4.489  -2.027  -3.859  0.00  0.00    -0.035 A 
ATOM     10  C   LIG d   1       4.273  -1.210  -4.984  0.00  0.00    -0.032 A 
ATOM     11  C   LIG d   1       3.376  -0.173  -4.935  0.00  0.00    -0.057 A 
ATOM     12  C   LIG d   1       2.637   0.021  -3.777  0.00  0.00    -0.061 A 
ATOM     13  C   LIG d   1       2.793  -0.815  -2.687  0.00  0.00    -0.061 A 
ATOM     14  C   LIG d   1       3.772  -1.867  -2.713  0.00  0.00    -0.058 A 
ATOM     15  C   LIG d   1       6.719  -2.113  -4.402  0.00  0.00     0.059 C 
ATOM     16  H   LIG d   1       6.636  -1.206  -3.803  0.00  0.00     0.041 H 
ATOM     17  C   LIG d   1       6.522  -1.771  -5.885  0.00  0.00     0.062 C 
ATOM     18  H   LIG d   1       6.713  -2.764  -6.293  0.00  0.00     0.041 H 
ATOM     19  C   LIG d   1       7.766  -1.074  -6.201  0.00  0.00     0.231 C 
ATOM     20  O   LIG d   1       7.937  -0.152  -6.970  0.00  0.00    -0.275 OA
ATOM     21  N   LIG d   1       8.698  -1.716  -5.417  0.00  0.00    -0.210 N 
ATOM     22  C   LIG d   1       8.146  -2.568  -4.475  0.00  0.00     0.231 C 
ATOM     23  O   LIG d   1       8.679  -3.435  -3.816  0.00  0.00    -0.275 OA
ATOM     24  H   LIG d   1       3.782  -2.929  -8.306  0.00  0.00     0.062 H 
ATOM     25  H   LIG d   1       3.381  -5.382  -8.367  0.00  0.00     0.062 H 
ATOM     26  H   LIG d   1       4.139  -6.789  -6.504  0.00  0.00     0.062 H 
ATOM     27  H   LIG d   1       5.229  -5.789  -4.532  0.00  0.00     0.062 H 
ATOM     28  H   LIG d   1       5.779  -3.736  -3.205  0.00  0.00     0.041 H 
ATOM     29  H   LIG d   1       3.247   0.482  -5.784  0.00  0.00     0.062 H 
ATOM     30  H   LIG d   1       1.931   0.837  -3.726  0.00  0.00     0.062 H 
ATOM     31  H   LIG d   1       2.195  -0.663  -1.800  0.00  0.00     0.062 H 
ATOM     32  H   LIG d   1       3.919  -2.528  -1.873  0.00  0.00     0.062 H 
ENDROOT
BRANCH  21  33
ATOM     33  C   LIG d   1      10.083  -1.560  -5.580  0.00  0.00     0.044 A 
ATOM     34  C   LIG d   1      10.792  -2.445  -6.380  0.00  0.00    -0.036 A 
ATOM     35  C   LIG d   1      12.154  -2.287  -6.545  0.00  0.00    -0.018 A 
ATOM     36  H   LIG d   1      10.278  -3.253  -6.878  0.00  0.00     0.064 H 
ATOM     37  C   LIG d   1      12.815  -1.251  -5.902  0.00  0.00     0.120 A 
ATOM     38  H   LIG d   1      12.705  -2.973  -7.171  0.00  0.00     0.066 H 
ATOM     39  C   LIG d   1      12.108  -0.369  -5.097  0.00  0.00    -0.018 A 
ATOM     40  C   LIG d   1      10.745  -0.523  -4.937  0.00  0.00    -0.036 A 
ATOM     41  H   LIG d   1      12.623   0.437  -4.597  0.00  0.00     0.066 H 
ATOM     42  H   LIG d   1      10.195   0.164  -4.311  0.00  0.00     0.064 H 
BRANCH  37  43
ATOM     43  O   LIG d   1      14.158  -1.100  -6.060  0.00  0.00    -0.495 OA
BRANCH  43  44
ATOM     44  C   LIG d   1      15.002  -1.943  -5.275  0.00  0.00     0.079 C 
ATOM     45  H   LIG d   1      15.807  -1.350  -4.842  0.00  0.00     0.066 H 
ATOM     46  H   LIG d   1      14.418  -2.401  -4.477  0.00  0.00     0.066 H 
ATOM     47  H   LIG d   1      15.426  -2.723  -5.908  0.00  0.00     0.066 H 
ENDBRANCH  43  44
ENDBRANCH  37  43
ENDBRANCH  21  33
BRANCH   1  48
ATOM     48  C   LIG d   1       4.836  -0.612  -7.452  0.00  0.00    -0.041 C 
ATOM     49  H   LIG d   1       5.368   0.328  -7.310  0.00  0.00     0.027 H 
ATOM     50  H   LIG d   1       3.768  -0.414  -7.543  0.00  0.00     0.027 H 
BRANCH  48  51
ATOM     51  C   LIG d   1       5.339  -1.296  -8.725  0.00  0.00    -0.064 C 
ATOM     52  H   LIG d   1       4.492  -1.690  -9.285  0.00  0.00     0.023 H 
ATOM     53  H   LIG d   1       5.877  -0.573  -9.338  0.00  0.00     0.023 H 
ATOM     54  H   LIG d   1       6.009  -2.113  -8.457  0.00  0.00     0.023 H 
ENDBRANCH  48  51
ENDBRANCH   1  48
TORSDOF 5
ENDMDL
