MODEL 1
REMARK VINA RESULT:      -5.7      0.000      0.000
REMARK  8 active torsions:
REMARK  status: ('A' for Active; 'I' for Inactive)
REMARK    1  A    between atoms: C_1  and  C_2 
REMARK    2  A    between atoms: C_7  and  N_9 
REMARK    3  A    between atoms: N_9  and  C_10 
REMARK    4  A    between atoms: C_12  and  C_33 
REMARK    5  A    between atoms: C_15  and  O_32 
REMARK    6  A    between atoms: C_17  and  C_21 
REMARK    7  A    between atoms: C_21  and  C_23 
REMARK    8  A    between atoms: C_21  and  C_24 
REMARK       I    between atoms: C_24  and  N_26 
ROOT
ATOM      1  C   LIG d   1      10.056   6.984  -6.543  0.00  0.00     0.005 C 
ATOM      2  H   LIG d   1      11.121   7.216  -6.562  0.00  0.00     0.036 H 
ATOM      3  C   LIG d   1       9.677   6.241  -7.815  0.00  0.00     0.057 A 
ATOM      4  C   LIG d   1       9.519   4.894  -7.796  0.00  0.00     0.015 A 
ATOM      5  S   LIG d   1       9.095   4.528  -9.478  0.00  0.00    -0.057 SA
ATOM      6  C   LIG d   1       9.155   6.159 -10.074  0.00  0.00     0.158 A 
ATOM      7  N   LIG d   1       9.481   6.837  -8.991  0.00  0.00    -0.229 NA
ATOM      8  C   LIG d   1       9.670   3.976  -6.636  0.00  0.00    -0.014 C 
ATOM      9  C   LIG d   1      10.387   4.724  -5.494  0.00  0.00    -0.022 C 
ATOM     10  C   LIG d   1       9.747   6.104  -5.325  0.00  0.00    -0.001 C 
ATOM     11  H   LIG d   1       8.668   6.002  -5.213  0.00  0.00     0.034 H 
ATOM     12  C   LIG d   1      10.327   6.806  -4.093  0.00  0.00     0.063 C 
ATOM     13  H   LIG d   1      11.396   6.958  -4.233  0.00  0.00     0.060 H 
ATOM     14  C   LIG d   1      10.097   5.961  -2.842  0.00  0.00    -0.004 C 
ATOM     15  H   LIG d   1       9.028   5.797  -2.702  0.00  0.00     0.033 H 
ATOM     16  C   LIG d   1      10.806   4.615  -3.019  0.00  0.00    -0.047 C 
ATOM     17  C   LIG d   1      10.197   3.894  -4.220  0.00  0.00    -0.047 C 
ATOM     18  H   LIG d   1       8.685   3.652  -6.297  0.00  0.00     0.032 H 
ATOM     19  H   LIG d   1      10.259   3.108  -6.930  0.00  0.00     0.032 H 
ATOM     20  H   LIG d   1      11.869   4.782  -3.195  0.00  0.00     0.027 H 
ATOM     21  H   LIG d   1      10.671   4.009  -2.123  0.00  0.00     0.027 H 
ATOM     22  H   LIG d   1       9.132   3.739  -4.046  0.00  0.00     0.027 H 
ATOM     23  H   LIG d   1      10.685   2.927  -4.343  0.00  0.00     0.027 H 
ENDROOT
BRANCH  14  24
ATOM     24  C   LIG d   1      10.668   6.684  -1.621  0.00  0.00     0.038 C 
ATOM     25  H   LIG d   1      11.644   7.102  -1.870  0.00  0.00     0.040 H 
BRANCH  24  26
ATOM     26  C   LIG d   1      10.818   5.693  -0.465  0.00  0.00    -0.054 C 
ATOM     27  H   LIG d   1      11.819   5.264  -0.481  0.00  0.00     0.024 H 
ATOM     28  H   LIG d   1      10.660   6.212   0.481  0.00  0.00     0.024 H 
ATOM     29  H   LIG d   1      10.079   4.898  -0.570  0.00  0.00     0.024 H 
ENDBRANCH  24  26
BRANCH  24  30
ATOM     30  C   LIG d   1       9.736   7.795  -1.212  0.00  0.00     0.219 C 
ATOM     31  O   LIG d   1       8.550   7.577  -1.090  0.00  0.00    -0.275 OA
ATOM     32  N   LIG d   1      10.221   9.032  -0.982  0.00  0.00    -0.300 N 
ATOM     33  C   LIG d   1      11.666   9.261  -1.027  0.00  0.00     0.024 C 
ATOM     34  C   LIG d   1       9.296  10.128  -0.691  0.00  0.00     0.024 C 
ATOM     35  C   LIG d   1      12.000  10.185  -2.203  0.00  0.00     0.009 C 
ATOM     36  H   LIG d   1      11.988   9.727  -0.096  0.00  0.00     0.047 H 
ATOM     37  H   LIG d   1      12.182   8.309  -1.154  0.00  0.00     0.047 H 
ATOM     38  S   LIG d   1      11.063  11.731  -2.013  0.00  0.00    -0.158 SA
ATOM     39  H   LIG d   1      11.721   9.701  -3.139  0.00  0.00     0.039 H 
ATOM     40  H   LIG d   1      13.069  10.403  -2.205  0.00  0.00     0.039 H 
ATOM     41  C   LIG d   1       9.349  11.156  -1.828  0.00  0.00     0.009 C 
ATOM     42  H   LIG d   1       8.703  12.000  -1.587  0.00  0.00     0.039 H 
ATOM     43  H   LIG d   1       9.015  10.693  -2.757  0.00  0.00     0.039 H 
ATOM     44  H   LIG d   1       9.584  10.607   0.245  0.00  0.00     0.047 H 
ATOM     45  H   LIG d   1       8.284   9.735  -0.602  0.00  0.00     0.047 H 
ENDBRANCH  24  30
ENDBRANCH  14  24
BRANCH  12  46
ATOM     46  O   LIG d   1       9.690   8.076  -3.928  0.00  0.00    -0.391 OA
ATOM     47  H   LIG d   1       9.119   8.131  -3.150  0.00  0.00     0.210 HD
ENDBRANCH  12  46
BRANCH   1  48
ATOM     48  C   LIG d   1       9.254   8.282  -6.451  0.00  0.00    -0.057 C 
ATOM     49  H   LIG d   1       9.586   8.970  -7.229  0.00  0.00     0.024 H 
ATOM     50  H   LIG d   1       8.195   8.065  -6.586  0.00  0.00     0.024 H 
ATOM     51  H   LIG d   1       9.409   8.737  -5.473  0.00  0.00     0.024 H 
ENDBRANCH   1  48
BRANCH   9  52
ATOM     52  C   LIG d   1      11.874   4.873  -5.819  0.00  0.00    -0.059 C 
ATOM     53  H   LIG d   1      12.468   4.512  -4.979  0.00  0.00     0.024 H 
ATOM     54  H   LIG d   1      12.112   4.290  -6.709  0.00  0.00     0.024 H 
ATOM     55  H   LIG d   1      12.102   5.923  -6.001  0.00  0.00     0.024 H 
ENDBRANCH   9  52
BRANCH   6  56
ATOM     56  N   LIG d   1       8.922   6.628 -11.357  0.00  0.00    -0.327 N 
ATOM     57  H   LIG d   1       8.428   7.452 -11.491  0.00  0.00     0.148 HD
BRANCH  56  58
ATOM     58  C   LIG d   1       9.419   5.877 -12.513  0.00  0.00    -0.001 C 
ATOM     59  H   LIG d   1      10.266   6.405 -12.951  0.00  0.00     0.043 H 
ATOM     60  H   LIG d   1       9.735   4.885 -12.192  0.00  0.00     0.043 H 
ATOM     61  H   LIG d   1       8.625   5.784 -13.254  0.00  0.00     0.043 H 
ENDBRANCH  56  58
ENDBRANCH   6  56
TORSDOF 8
ENDMDL
MODEL 2
REMARK VINA RESULT:      -5.5     16.261     18.341
REMARK  8 active torsions:
REMARK  status: ('A' for Active; 'I' for Inactive)
REMARK    1  A    between atoms: C_1  and  C_2 
REMARK    2  A    between atoms: C_7  and  N_9 
REMARK    3  A    between atoms: N_9  and  C_10 
REMARK    4  A    between atoms: C_12  and  C_33 
REMARK    5  A    between atoms: C_15  and  O_32 
REMARK    6  A    between atoms: C_17  and  C_21 
REMARK    7  A    between atoms: C_21  and  C_23 
REMARK    8  A    between atoms: C_21  and  C_24 
REMARK       I    between atoms: C_24  and  N_26 
ROOT
ATOM      1  C   LIG d   1      -3.624   2.301 -13.378  0.00  0.00     0.005 C 
ATOM      2  H   LIG d   1      -3.429   2.690 -12.379  0.00  0.00     0.036 H 
ATOM      3  C   LIG d   1      -4.032   0.838 -13.282  0.00  0.00     0.057 A 
ATOM      4  C   LIG d   1      -5.339   0.489 -13.372  0.00  0.00     0.015 A 
ATOM      5  S   LIG d   1      -5.284  -1.275 -13.201  0.00  0.00    -0.057 SA
ATOM      6  C   LIG d   1      -3.560  -1.418 -13.027  0.00  0.00     0.158 A 
ATOM      7  N   LIG d   1      -3.169  -0.163 -13.108  0.00  0.00    -0.229 NA
ATOM      8  C   LIG d   1      -6.510   1.385 -13.568  0.00  0.00    -0.014 C 
ATOM      9  C   LIG d   1      -6.077   2.842 -13.303  0.00  0.00    -0.022 C 
ATOM     10  C   LIG d   1      -4.756   3.107 -14.028  0.00  0.00    -0.001 C 
ATOM     11  H   LIG d   1      -4.846   2.828 -15.078  0.00  0.00     0.034 H 
ATOM     12  C   LIG d   1      -4.383   4.589 -13.920  0.00  0.00     0.063 C 
ATOM     13  H   LIG d   1      -4.238   4.850 -12.872  0.00  0.00     0.060 H 
ATOM     14  C   LIG d   1      -5.493   5.459 -14.508  0.00  0.00    -0.004 C 
ATOM     15  H   LIG d   1      -5.650   5.195 -15.554  0.00  0.00     0.033 H 
ATOM     16  C   LIG d   1      -6.781   5.217 -13.715  0.00  0.00    -0.047 C 
ATOM     17  C   LIG d   1      -7.178   3.750 -13.861  0.00  0.00    -0.047 C 
ATOM     18  H   LIG d   1      -6.873   1.294 -14.592  0.00  0.00     0.032 H 
ATOM     19  H   LIG d   1      -7.302   1.108 -12.873  0.00  0.00     0.032 H 
ATOM     20  H   LIG d   1      -6.612   5.447 -12.663  0.00  0.00     0.027 H 
ATOM     21  H   LIG d   1      -7.577   5.851 -14.108  0.00  0.00     0.027 H 
ATOM     22  H   LIG d   1      -7.334   3.521 -14.915  0.00  0.00     0.027 H 
ATOM     23  H   LIG d   1      -8.103   3.572 -13.313  0.00  0.00     0.027 H 
ENDROOT
BRANCH  14  24
ATOM     24  C   LIG d   1      -5.098   6.934 -14.405  0.00  0.00     0.038 C 
ATOM     25  H   LIG d   1      -4.210   7.029 -13.779  0.00  0.00     0.040 H 
BRANCH  24  26
ATOM     26  C   LIG d   1      -6.248   7.728 -13.783  0.00  0.00    -0.054 C 
ATOM     27  H   LIG d   1      -5.845   8.502 -13.131  0.00  0.00     0.024 H 
ATOM     28  H   LIG d   1      -6.839   8.190 -14.574  0.00  0.00     0.024 H 
ATOM     29  H   LIG d   1      -6.881   7.056 -13.203  0.00  0.00     0.024 H 
ENDBRANCH  24  26
BRANCH  24  30
ATOM     30  C   LIG d   1      -4.802   7.473 -15.781  0.00  0.00     0.219 C 
ATOM     31  O   LIG d   1      -5.505   7.161 -16.718  0.00  0.00    -0.275 OA
ATOM     32  N   LIG d   1      -3.756   8.302 -15.970  0.00  0.00    -0.300 N 
ATOM     33  C   LIG d   1      -2.978   8.758 -14.817  0.00  0.00     0.024 C 
ATOM     34  C   LIG d   1      -3.412   8.733 -17.325  0.00  0.00     0.024 C 
ATOM     35  C   LIG d   1      -1.556   8.191 -14.904  0.00  0.00     0.009 C 
ATOM     36  H   LIG d   1      -2.936   9.847 -14.816  0.00  0.00     0.047 H 
ATOM     37  H   LIG d   1      -3.452   8.412 -13.899  0.00  0.00     0.047 H 
ATOM     38  S   LIG d   1      -0.818   8.710 -16.482  0.00  0.00    -0.158 SA
ATOM     39  H   LIG d   1      -1.593   7.102 -14.858  0.00  0.00     0.039 H 
ATOM     40  H   LIG d   1      -0.959   8.575 -14.076  0.00  0.00     0.039 H 
ATOM     41  C   LIG d   1      -2.041   8.164 -17.710  0.00  0.00     0.009 C 
ATOM     42  H   LIG d   1      -1.758   8.530 -18.697  0.00  0.00     0.039 H 
ATOM     43  H   LIG d   1      -2.086   7.075 -17.722  0.00  0.00     0.039 H 
ATOM     44  H   LIG d   1      -3.376   9.822 -17.361  0.00  0.00     0.047 H 
ATOM     45  H   LIG d   1      -4.165   8.372 -18.024  0.00  0.00     0.047 H 
ENDBRANCH  24  30
ENDBRANCH  14  24
BRANCH  12  46
ATOM     46  O   LIG d   1      -3.169   4.826 -14.635  0.00  0.00    -0.391 OA
ATOM     47  H   LIG d   1      -2.379   4.490 -14.190  0.00  0.00     0.210 HD
ENDBRANCH  12  46
BRANCH   1  48
ATOM     48  C   LIG d   1      -2.358   2.423 -14.227  0.00  0.00    -0.057 C 
ATOM     49  H   LIG d   1      -1.591   2.952 -13.662  0.00  0.00     0.024 H 
ATOM     50  H   LIG d   1      -1.997   1.428 -14.486  0.00  0.00     0.024 H 
ATOM     51  H   LIG d   1      -2.584   2.975 -15.140  0.00  0.00     0.024 H 
ENDBRANCH   1  48
BRANCH   9  52
ATOM     52  C   LIG d   1      -5.904   3.071 -11.800  0.00  0.00    -0.059 C 
ATOM     53  H   LIG d   1      -5.038   2.514 -11.444  0.00  0.00     0.024 H 
ATOM     54  H   LIG d   1      -5.754   4.135 -11.610  0.00  0.00     0.024 H 
ATOM     55  H   LIG d   1      -6.796   2.731 -11.276  0.00  0.00     0.024 H 
ENDBRANCH   9  52
BRANCH   6  56
ATOM     56  N   LIG d   1      -2.795  -2.560 -12.848  0.00  0.00    -0.327 N 
ATOM     57  H   LIG d   1      -1.845  -2.543 -13.046  0.00  0.00     0.148 HD
BRANCH  56  58
ATOM     58  C   LIG d   1      -3.419  -3.792 -12.361  0.00  0.00    -0.001 C 
ATOM     59  H   LIG d   1      -3.914  -3.596 -11.409  0.00  0.00     0.043 H 
ATOM     60  H   LIG d   1      -4.153  -4.139 -13.088  0.00  0.00     0.043 H 
ATOM     61  H   LIG d   1      -2.655  -4.556 -12.222  0.00  0.00     0.043 H 
ENDBRANCH  56  58
ENDBRANCH   6  56
TORSDOF 8
ENDMDL
MODEL 3
REMARK VINA RESULT:      -5.3      4.937      7.753
REMARK  8 active torsions:
REMARK  status: ('A' for Active; 'I' for Inactive)
REMARK    1  A    between atoms: C_1  and  C_2 
REMARK    2  A    between atoms: C_7  and  N_9 
REMARK    3  A    between atoms: N_9  and  C_10 
REMARK    4  A    between atoms: C_12  and  C_33 
REMARK    5  A    between atoms: C_15  and  O_32 
REMARK    6  A    between atoms: C_17  and  C_21 
REMARK    7  A    between atoms: C_21  and  C_23 
REMARK    8  A    between atoms: C_21  and  C_24 
REMARK       I    between atoms: C_24  and  N_26 
ROOT
ATOM      1  C   LIG d   1      10.296   4.243  -4.425  0.00  0.00     0.005 C 
ATOM      2  H   LIG d   1      11.179   3.611  -4.330  0.00  0.00     0.036 H 
ATOM      3  C   LIG d   1      10.692   5.576  -5.042  0.00  0.00     0.057 A 
ATOM      4  C   LIG d   1      10.458   5.814  -6.356  0.00  0.00     0.015 A 
ATOM      5  S   LIG d   1      11.087   7.458  -6.572  0.00  0.00    -0.057 SA
ATOM      6  C   LIG d   1      11.604   7.706  -4.932  0.00  0.00     0.158 A 
ATOM      7  N   LIG d   1      11.273   6.564  -4.362  0.00  0.00    -0.229 NA
ATOM      8  C   LIG d   1       9.827   4.904  -7.348  0.00  0.00    -0.014 C 
ATOM      9  C   LIG d   1       9.780   3.478  -6.762  0.00  0.00    -0.022 C 
ATOM     10  C   LIG d   1       9.264   3.549  -5.324  0.00  0.00    -0.001 C 
ATOM     11  H   LIG d   1       8.324   4.100  -5.292  0.00  0.00     0.034 H 
ATOM     12  C   LIG d   1       9.050   2.136  -4.770  0.00  0.00     0.063 C 
ATOM     13  H   LIG d   1      10.003   1.609  -4.749  0.00  0.00     0.060 H 
ATOM     14  C   LIG d   1       8.065   1.366  -5.646  0.00  0.00    -0.004 C 
ATOM     15  H   LIG d   1       7.113   1.896  -5.679  0.00  0.00     0.033 H 
ATOM     16  C   LIG d   1       8.644   1.257  -7.060  0.00  0.00    -0.047 C 
ATOM     17  C   LIG d   1       8.814   2.664  -7.630  0.00  0.00    -0.047 C 
ATOM     18  H   LIG d   1       8.813   5.243  -7.562  0.00  0.00     0.032 H 
ATOM     19  H   LIG d   1      10.412   4.901  -8.267  0.00  0.00     0.032 H 
ATOM     20  H   LIG d   1       9.613   0.760  -7.021  0.00  0.00     0.027 H 
ATOM     21  H   LIG d   1       7.962   0.688  -7.692  0.00  0.00     0.027 H 
ATOM     22  H   LIG d   1       7.845   3.162  -7.656  0.00  0.00     0.027 H 
ATOM     23  H   LIG d   1       9.211   2.595  -8.643  0.00  0.00     0.027 H 
ENDROOT
BRANCH  14  24
ATOM     24  C   LIG d   1       7.853  -0.036  -5.071  0.00  0.00     0.038 C 
ATOM     25  H   LIG d   1       8.020  -0.015  -3.994  0.00  0.00     0.040 H 
BRANCH  24  26
ATOM     26  C   LIG d   1       8.838  -1.009  -5.721  0.00  0.00    -0.054 C 
ATOM     27  H   LIG d   1       8.787  -1.971  -5.213  0.00  0.00     0.024 H 
ATOM     28  H   LIG d   1       8.579  -1.139  -6.773  0.00  0.00     0.024 H 
ATOM     29  H   LIG d   1       9.849  -0.609  -5.643  0.00  0.00     0.024 H 
ENDBRANCH  24  26
BRANCH  24  30
ATOM     30  C   LIG d   1       6.442  -0.486  -5.352  0.00  0.00     0.219 C 
ATOM     31  O   LIG d   1       6.119  -0.802  -6.477  0.00  0.00    -0.275 OA
ATOM     32  N   LIG d   1       5.539  -0.539  -4.352  0.00  0.00    -0.300 N 
ATOM     33  C   LIG d   1       5.965  -0.260  -2.979  0.00  0.00     0.024 C 
ATOM     34  C   LIG d   1       4.147  -0.873  -4.652  0.00  0.00     0.024 C 
ATOM     35  C   LIG d   1       5.290   1.026  -2.487  0.00  0.00     0.009 C 
ATOM     36  H   LIG d   1       5.678  -1.091  -2.335  0.00  0.00     0.047 H 
ATOM     37  H   LIG d   1       7.047  -0.135  -2.952  0.00  0.00     0.047 H 
ATOM     38  S   LIG d   1       3.488   0.826  -2.623  0.00  0.00    -0.158 SA
ATOM     39  H   LIG d   1       5.612   1.866  -3.102  0.00  0.00     0.039 H 
ATOM     40  H   LIG d   1       5.561   1.205  -1.446  0.00  0.00     0.039 H 
ATOM     41  C   LIG d   1       3.256   0.340  -4.359  0.00  0.00     0.009 C 
ATOM     42  H   LIG d   1       2.212   0.075  -4.528  0.00  0.00     0.039 H 
ATOM     43  H   LIG d   1       3.535   1.167  -5.011  0.00  0.00     0.039 H 
ATOM     44  H   LIG d   1       3.833  -1.713  -4.033  0.00  0.00     0.047 H 
ATOM     45  H   LIG d   1       4.057  -1.144  -5.704  0.00  0.00     0.047 H 
ENDBRANCH  24  30
ENDBRANCH  14  24
BRANCH  12  46
ATOM     46  O   LIG d   1       8.532   2.222  -3.440  0.00  0.00    -0.391 OA
ATOM     47  H   LIG d   1       7.614   1.933  -3.357  0.00  0.00     0.210 HD
ENDBRANCH  12  46
BRANCH   1  48
ATOM     48  C   LIG d   1       9.690   4.480  -3.041  0.00  0.00    -0.057 C 
ATOM     49  H   LIG d   1       9.614   5.552  -2.857  0.00  0.00     0.024 H 
ATOM     50  H   LIG d   1       8.697   4.033  -2.998  0.00  0.00     0.024 H 
ATOM     51  H   LIG d   1      10.326   4.025  -2.282  0.00  0.00     0.024 H 
ENDBRANCH   1  48
BRANCH   9  52
ATOM     52  C   LIG d   1      11.177   2.855  -6.787  0.00  0.00    -0.059 C 
ATOM     53  H   LIG d   1      11.431   2.490  -5.793  0.00  0.00     0.024 H 
ATOM     54  H   LIG d   1      11.192   2.024  -7.494  0.00  0.00     0.024 H 
ATOM     55  H   LIG d   1      11.903   3.607  -7.095  0.00  0.00     0.024 H 
ENDBRANCH   9  52
BRANCH   6  56
ATOM     56  N   LIG d   1      12.209   8.818  -4.367  0.00  0.00    -0.327 N 
ATOM     57  H   LIG d   1      13.004   9.197  -4.775  0.00  0.00     0.148 HD
BRANCH  56  58
ATOM     58  C   LIG d   1      11.650   9.420  -3.155  0.00  0.00    -0.001 C 
ATOM     59  H   LIG d   1      10.728   9.946  -3.403  0.00  0.00     0.043 H 
ATOM     60  H   LIG d   1      11.438   8.639  -2.426  0.00  0.00     0.043 H 
ATOM     61  H   LIG d   1      12.369  10.124  -2.735  0.00  0.00     0.043 H 
ENDBRANCH  56  58
ENDBRANCH   6  56
TORSDOF 8
ENDMDL
MODEL 4
REMARK VINA RESULT:      -5.3      9.554     11.350
REMARK  8 active torsions:
REMARK  status: ('A' for Active; 'I' for Inactive)
REMARK    1  A    between atoms: C_1  and  C_2 
REMARK    2  A    between atoms: C_7  and  N_9 
REMARK    3  A    between atoms: N_9  and  C_10 
REMARK    4  A    between atoms: C_12  and  C_33 
REMARK    5  A    between atoms: C_15  and  O_32 
REMARK    6  A    between atoms: C_17  and  C_21 
REMARK    7  A    between atoms: C_21  and  C_23 
REMARK    8  A    between atoms: C_21  and  C_24 
REMARK       I    between atoms: C_24  and  N_26 
ROOT
ATOM      1  C   LIG d   1       3.736  -2.387 -10.227  0.00  0.00     0.005 C 
ATOM      2  H   LIG d   1       2.723  -2.713  -9.994  0.00  0.00     0.036 H 
ATOM      3  C   LIG d   1       3.824  -2.024 -11.702  0.00  0.00     0.057 A 
ATOM      4  C   LIG d   1       3.792  -0.724 -12.086  0.00  0.00     0.015 A 
ATOM      5  S   LIG d   1       3.918  -0.835 -13.851  0.00  0.00    -0.057 SA
ATOM      6  C   LIG d   1       4.005  -2.568 -13.949  0.00  0.00     0.158 A 
ATOM      7  N   LIG d   1       3.934  -2.921 -12.681  0.00  0.00    -0.229 NA
ATOM      8  C   LIG d   1       3.678   0.480 -11.219  0.00  0.00    -0.014 C 
ATOM      9  C   LIG d   1       3.242   0.041  -9.807  0.00  0.00    -0.022 C 
ATOM     10  C   LIG d   1       4.087  -1.159  -9.376  0.00  0.00    -0.001 C 
ATOM     11  H   LIG d   1       5.146  -0.928  -9.489  0.00  0.00     0.034 H 
ATOM     12  C   LIG d   1       3.792  -1.515  -7.915  0.00  0.00     0.063 C 
ATOM     13  H   LIG d   1       2.745  -1.802  -7.818  0.00  0.00     0.060 H 
ATOM     14  C   LIG d   1       4.074  -0.318  -7.010  0.00  0.00    -0.004 C 
ATOM     15  H   LIG d   1       5.118  -0.021  -7.111  0.00  0.00     0.033 H 
ATOM     16  C   LIG d   1       3.164   0.841  -7.427  0.00  0.00    -0.047 C 
ATOM     17  C   LIG d   1       3.491   1.227  -8.868  0.00  0.00    -0.047 C 
ATOM     18  H   LIG d   1       4.645   0.981 -11.163  0.00  0.00     0.032 H 
ATOM     19  H   LIG d   1       2.937   1.161 -11.635  0.00  0.00     0.032 H 
ATOM     20  H   LIG d   1       2.122   0.531  -7.359  0.00  0.00     0.027 H 
ATOM     21  H   LIG d   1       3.338   1.696  -6.773  0.00  0.00     0.027 H 
ATOM     22  H   LIG d   1       4.537   1.525  -8.934  0.00  0.00     0.027 H 
ATOM     23  H   LIG d   1       2.858   2.062  -9.167  0.00  0.00     0.027 H 
ENDROOT
BRANCH  14  24
ATOM     24  C   LIG d   1       3.788  -0.696  -5.555  0.00  0.00     0.038 C 
ATOM     25  H   LIG d   1       3.508  -1.748  -5.501  0.00  0.00     0.040 H 
BRANCH  24  26
ATOM     26  C   LIG d   1       2.642   0.165  -5.020  0.00  0.00    -0.054 C 
ATOM     27  H   LIG d   1       2.986   1.191  -4.896  0.00  0.00     0.024 H 
ATOM     28  H   LIG d   1       1.811   0.143  -5.726  0.00  0.00     0.024 H 
ATOM     29  H   LIG d   1       2.312  -0.227  -4.058  0.00  0.00     0.024 H 
ENDBRANCH  24  26
BRANCH  24  30
ATOM     30  C   LIG d   1       5.023  -0.461  -4.722  0.00  0.00     0.219 C 
ATOM     31  O   LIG d   1       5.441   0.665  -4.562  0.00  0.00    -0.275 OA
ATOM     32  N   LIG d   1       5.661  -1.505  -4.155  0.00  0.00    -0.300 N 
ATOM     33  C   LIG d   1       5.089  -2.848  -4.264  0.00  0.00     0.024 C 
ATOM     34  C   LIG d   1       6.917  -1.280  -3.440  0.00  0.00     0.024 C 
ATOM     35  C   LIG d   1       6.015  -3.731  -5.108  0.00  0.00     0.009 C 
ATOM     36  H   LIG d   1       4.984  -3.279  -3.268  0.00  0.00     0.047 H 
ATOM     37  H   LIG d   1       4.110  -2.789  -4.740  0.00  0.00     0.047 H 
ATOM     38  S   LIG d   1       7.664  -3.744  -4.341  0.00  0.00    -0.158 SA
ATOM     39  H   LIG d   1       6.085  -3.327  -6.118  0.00  0.00     0.039 H 
ATOM     40  H   LIG d   1       5.620  -4.747  -5.143  0.00  0.00     0.039 H 
ATOM     41  C   LIG d   1       8.062  -1.977  -4.185  0.00  0.00     0.009 C 
ATOM     42  H   LIG d   1       8.989  -1.859  -3.624  0.00  0.00     0.039 H 
ATOM     43  H   LIG d   1       8.175  -1.539  -5.177  0.00  0.00     0.039 H 
ATOM     44  H   LIG d   1       6.839  -1.688  -2.431  0.00  0.00     0.047 H 
ATOM     45  H   LIG d   1       7.118  -0.211  -3.384  0.00  0.00     0.047 H 
ENDBRANCH  24  30
ENDBRANCH  14  24
BRANCH  12  46
ATOM     46  O   LIG d   1       4.617  -2.612  -7.519  0.00  0.00    -0.391 OA
ATOM     47  H   LIG d   1       4.170  -3.470  -7.544  0.00  0.00     0.210 HD
ENDBRANCH  12  46
BRANCH   1  48
ATOM     48  C   LIG d   1       4.718  -3.518  -9.921  0.00  0.00    -0.057 C 
ATOM     49  H   LIG d   1       5.522  -3.140  -9.290  0.00  0.00     0.024 H 
ATOM     50  H   LIG d   1       4.196  -4.321  -9.401  0.00  0.00     0.024 H 
ATOM     51  H   LIG d   1       5.135  -3.900 -10.853  0.00  0.00     0.024 H 
ENDBRANCH   1  48
BRANCH   9  52
ATOM     52  C   LIG d   1       1.759  -0.337  -9.810  0.00  0.00    -0.059 C 
ATOM     53  H   LIG d   1       1.435  -0.548  -8.792  0.00  0.00     0.024 H 
ATOM     54  H   LIG d   1       1.174   0.491 -10.213  0.00  0.00     0.024 H 
ATOM     55  H   LIG d   1       1.612  -1.221 -10.430  0.00  0.00     0.024 H 
ENDBRANCH   9  52
BRANCH   6  56
ATOM     56  N   LIG d   1       4.119  -3.373 -15.072  0.00  0.00    -0.327 N 
ATOM     57  H   LIG d   1       3.678  -4.238 -15.096  0.00  0.00     0.148 HD
BRANCH  56  58
ATOM     58  C   LIG d   1       4.905  -2.920 -16.222  0.00  0.00    -0.001 C 
ATOM     59  H   LIG d   1       4.232  -2.601 -17.019  0.00  0.00     0.043 H 
ATOM     60  H   LIG d   1       5.536  -2.083 -15.923  0.00  0.00     0.043 H 
ATOM     61  H   LIG d   1       5.531  -3.737 -16.579  0.00  0.00     0.043 H 
ENDBRANCH  56  58
ENDBRANCH   6  56
TORSDOF 8
ENDMDL
MODEL 5
REMARK VINA RESULT:      -5.3     11.961     15.600
REMARK  8 active torsions:
REMARK  status: ('A' for Active; 'I' for Inactive)
REMARK    1  A    between atoms: C_1  and  C_2 
REMARK    2  A    between atoms: C_7  and  N_9 
REMARK    3  A    between atoms: N_9  and  C_10 
REMARK    4  A    between atoms: C_12  and  C_33 
REMARK    5  A    between atoms: C_15  and  O_32 
REMARK    6  A    between atoms: C_17  and  C_21 
REMARK    7  A    between atoms: C_21  and  C_23 
REMARK    8  A    between atoms: C_21  and  C_24 
REMARK       I    between atoms: C_24  and  N_26 
ROOT
ATOM      1  C   LIG d   1       3.964  -3.109  -8.551  0.00  0.00     0.005 C 
ATOM      2  H   LIG d   1       4.728  -3.063  -9.327  0.00  0.00     0.036 H 
ATOM      3  C   LIG d   1       4.416  -2.297  -7.347  0.00  0.00     0.057 A 
ATOM      4  C   LIG d   1       3.920  -1.052  -7.141  0.00  0.00     0.015 A 
ATOM      5  S   LIG d   1       4.741  -0.546  -5.653  0.00  0.00    -0.057 SA
ATOM      6  C   LIG d   1       5.665  -1.999  -5.416  0.00  0.00     0.158 A 
ATOM      7  N   LIG d   1       5.296  -2.733  -6.446  0.00  0.00    -0.229 NA
ATOM      8  C   LIG d   1       2.931  -0.316  -7.974  0.00  0.00    -0.014 C 
ATOM      9  C   LIG d   1       2.791  -1.030  -9.334  0.00  0.00    -0.022 C 
ATOM     10  C   LIG d   1       2.650  -2.534  -9.093  0.00  0.00    -0.001 C 
ATOM     11  H   LIG d   1       1.847  -2.722  -8.380  0.00  0.00     0.034 H 
ATOM     12  C   LIG d   1       2.344  -3.252 -10.412  0.00  0.00     0.063 C 
ATOM     13  H   LIG d   1       3.175  -3.109 -11.102  0.00  0.00     0.060 H 
ATOM     14  C   LIG d   1       1.067  -2.695 -11.037  0.00  0.00    -0.004 C 
ATOM     15  H   LIG d   1       0.234  -2.826 -10.346  0.00  0.00     0.033 H 
ATOM     16  C   LIG d   1       1.268  -1.204 -11.325  0.00  0.00    -0.047 C 
ATOM     17  C   LIG d   1       1.527  -0.480 -10.005  0.00  0.00    -0.047 C 
ATOM     18  H   LIG d   1       1.965  -0.304  -7.468  0.00  0.00     0.032 H 
ATOM     19  H   LIG d   1       3.274   0.706  -8.132  0.00  0.00     0.032 H 
ATOM     20  H   LIG d   1       2.124  -1.072 -11.987  0.00  0.00     0.027 H 
ATOM     21  H   LIG d   1       0.372  -0.797 -11.794  0.00  0.00     0.027 H 
ATOM     22  H   LIG d   1       0.675  -0.625  -9.341  0.00  0.00     0.027 H 
ATOM     23  H   LIG d   1       1.656   0.584 -10.199  0.00  0.00     0.027 H 
ENDROOT
BRANCH  14  24
ATOM     24  C   LIG d   1       0.770  -3.433 -12.343  0.00  0.00     0.038 C 
ATOM     25  H   LIG d   1       1.142  -4.456 -12.276  0.00  0.00     0.040 H 
BRANCH  24  26
ATOM     26  C   LIG d   1       1.460  -2.714 -13.503  0.00  0.00    -0.054 C 
ATOM     27  H   LIG d   1       2.436  -3.166 -13.682  0.00  0.00     0.024 H 
ATOM     28  H   LIG d   1       0.848  -2.803 -14.402  0.00  0.00     0.024 H 
ATOM     29  H   LIG d   1       1.587  -1.661 -13.254  0.00  0.00     0.024 H 
ENDBRANCH  24  26
BRANCH  24  30
ATOM     30  C   LIG d   1      -0.719  -3.455 -12.582  0.00  0.00     0.219 C 
ATOM     31  O   LIG d   1      -1.251  -2.543 -13.176  0.00  0.00    -0.275 OA
ATOM     32  N   LIG d   1      -1.458  -4.489 -12.133  0.00  0.00    -0.300 N 
ATOM     33  C   LIG d   1      -0.794  -5.636 -11.511  0.00  0.00     0.024 C 
ATOM     34  C   LIG d   1      -2.914  -4.451 -12.273  0.00  0.00     0.024 C 
ATOM     35  C   LIG d   1      -1.187  -5.713 -10.031  0.00  0.00     0.009 C 
ATOM     36  H   LIG d   1      -1.101  -6.551 -12.017  0.00  0.00     0.047 H 
ATOM     37  H   LIG d   1       0.287  -5.520 -11.594  0.00  0.00     0.047 H 
ATOM     38  S   LIG d   1      -2.998  -5.819  -9.915  0.00  0.00    -0.158 SA
ATOM     39  H   LIG d   1      -0.839  -4.819  -9.514  0.00  0.00     0.039 H 
ATOM     40  H   LIG d   1      -0.738  -6.599  -9.579  0.00  0.00     0.039 H 
ATOM     41  C   LIG d   1      -3.559  -4.387 -10.883  0.00  0.00     0.009 C 
ATOM     42  H   LIG d   1      -4.644  -4.416 -10.983  0.00  0.00     0.039 H 
ATOM     43  H   LIG d   1      -3.261  -3.467 -10.382  0.00  0.00     0.039 H 
ATOM     44  H   LIG d   1      -3.253  -5.349 -12.790  0.00  0.00     0.047 H 
ATOM     45  H   LIG d   1      -3.201  -3.571 -12.848  0.00  0.00     0.047 H 
ENDBRANCH  24  30
ENDBRANCH  14  24
BRANCH  12  46
ATOM     46  O   LIG d   1       2.177  -4.650 -10.162  0.00  0.00    -0.391 OA
ATOM     47  H   LIG d   1       1.309  -4.884  -9.808  0.00  0.00     0.210 HD
ENDBRANCH  12  46
BRANCH   1  48
ATOM     48  C   LIG d   1       3.751  -4.565  -8.134  0.00  0.00    -0.057 C 
ATOM     49  H   LIG d   1       4.519  -5.190  -8.589  0.00  0.00     0.024 H 
ATOM     50  H   LIG d   1       3.813  -4.645  -7.049  0.00  0.00     0.024 H 
ATOM     51  H   LIG d   1       2.767  -4.898  -8.465  0.00  0.00     0.024 H 
ENDBRANCH   1  48
BRANCH   9  52
ATOM     52  C   LIG d   1       4.021  -0.751 -10.201  0.00  0.00    -0.059 C 
ATOM     53  H   LIG d   1       4.385   0.256 -10.003  0.00  0.00     0.024 H 
ATOM     54  H   LIG d   1       4.803  -1.473  -9.963  0.00  0.00     0.024 H 
ATOM     55  H   LIG d   1       3.751  -0.841 -11.252  0.00  0.00     0.024 H 
ENDBRANCH   9  52
BRANCH   6  56
ATOM     56  N   LIG d   1       6.561  -2.306  -4.403  0.00  0.00    -0.327 N 
ATOM     57  H   LIG d   1       6.939  -3.198  -4.344  0.00  0.00     0.148 HD
BRANCH  56  58
ATOM     58  C   LIG d   1       6.937  -1.284  -3.423  0.00  0.00    -0.001 C 
ATOM     59  H   LIG d   1       6.077  -1.050  -2.795  0.00  0.00     0.043 H 
ATOM     60  H   LIG d   1       7.749  -1.660  -2.801  0.00  0.00     0.043 H 
ATOM     61  H   LIG d   1       7.263  -0.384  -3.944  0.00  0.00     0.043 H 
ENDBRANCH  56  58
ENDBRANCH   6  56
TORSDOF 8
ENDMDL
MODEL 6
REMARK VINA RESULT:      -5.2     17.038     20.185
REMARK  8 active torsions:
REMARK  status: ('A' for Active; 'I' for Inactive)
REMARK    1  A    between atoms: C_1  and  C_2 
REMARK    2  A    between atoms: C_7  and  N_9 
REMARK    3  A    between atoms: N_9  and  C_10 
REMARK    4  A    between atoms: C_12  and  C_33 
REMARK    5  A    between atoms: C_15  and  O_32 
REMARK    6  A    between atoms: C_17  and  C_21 
REMARK    7  A    between atoms: C_21  and  C_23 
REMARK    8  A    between atoms: C_21  and  C_24 
REMARK       I    between atoms: C_24  and  N_26 
ROOT
ATOM      1  C   LIG d   1      -4.767   2.393 -14.247  0.00  0.00     0.005 C 
ATOM      2  H   LIG d   1      -4.564   1.997 -15.242  0.00  0.00     0.036 H 
ATOM      3  C   LIG d   1      -4.758   3.914 -14.296  0.00  0.00     0.057 A 
ATOM      4  C   LIG d   1      -5.926   4.601 -14.323  0.00  0.00     0.015 A 
ATOM      5  S   LIG d   1      -5.386   6.288 -14.378  0.00  0.00    -0.057 SA
ATOM      6  C   LIG d   1      -3.678   5.965 -14.358  0.00  0.00     0.158 A 
ATOM      7  N   LIG d   1      -3.646   4.649 -14.314  0.00  0.00    -0.229 NA
ATOM      8  C   LIG d   1      -7.308   4.049 -14.309  0.00  0.00    -0.014 C 
ATOM      9  C   LIG d   1      -7.248   2.539 -14.616  0.00  0.00    -0.022 C 
ATOM     10  C   LIG d   1      -6.141   1.904 -13.772  0.00  0.00    -0.001 C 
ATOM     11  H   LIG d   1      -6.278   2.164 -12.723  0.00  0.00     0.034 H 
ATOM     12  C   LIG d   1      -6.165   0.380 -13.931  0.00  0.00     0.063 C 
ATOM     13  H   LIG d   1      -5.970   0.122 -14.972  0.00  0.00     0.060 H 
ATOM     14  C   LIG d   1      -7.527  -0.175 -13.520  0.00  0.00    -0.004 C 
ATOM     15  H   LIG d   1      -7.732   0.089 -12.482  0.00  0.00     0.033 H 
ATOM     16  C   LIG d   1      -8.601   0.431 -14.428  0.00  0.00    -0.047 C 
ATOM     17  C   LIG d   1      -8.609   1.946 -14.235  0.00  0.00    -0.047 C 
ATOM     18  H   LIG d   1      -7.753   4.203 -13.326  0.00  0.00     0.032 H 
ATOM     19  H   LIG d   1      -7.910   4.551 -15.065  0.00  0.00     0.032 H 
ATOM     20  H   LIG d   1      -8.375   0.197 -15.468  0.00  0.00     0.027 H 
ATOM     21  H   LIG d   1      -9.577   0.024 -14.162  0.00  0.00     0.027 H 
ATOM     22  H   LIG d   1      -8.823   2.176 -13.191  0.00  0.00     0.027 H 
ATOM     23  H   LIG d   1      -9.382   2.383 -14.867  0.00  0.00     0.027 H 
ENDROOT
BRANCH  14  24
ATOM     24  C   LIG d   1      -7.528  -1.698 -13.671  0.00  0.00     0.038 C 
ATOM     25  H   LIG d   1      -6.565  -2.024 -14.065  0.00  0.00     0.040 H 
BRANCH  24  26
ATOM     26  C   LIG d   1      -8.640  -2.114 -14.635  0.00  0.00    -0.054 C 
ATOM     27  H   LIG d   1      -9.013  -3.099 -14.356  0.00  0.00     0.024 H 
ATOM     28  H   LIG d   1      -9.454  -1.390 -14.584  0.00  0.00     0.024 H 
ATOM     29  H   LIG d   1      -8.247  -2.147 -15.651  0.00  0.00     0.024 H 
ENDBRANCH  24  26
BRANCH  24  30
ATOM     30  C   LIG d   1      -7.764  -2.337 -12.327  0.00  0.00     0.219 C 
ATOM     31  O   LIG d   1      -8.681  -1.961 -11.629  0.00  0.00    -0.275 OA
ATOM     32  N   LIG d   1      -6.954  -3.327 -11.900  0.00  0.00    -0.300 N 
ATOM     33  C   LIG d   1      -5.917  -3.847 -12.792  0.00  0.00     0.024 C 
ATOM     34  C   LIG d   1      -7.123  -3.867 -10.550  0.00  0.00     0.024 C 
ATOM     35  C   LIG d   1      -4.535  -3.514 -12.217  0.00  0.00     0.009 C 
ATOM     36  H   LIG d   1      -6.023  -4.929 -12.879  0.00  0.00     0.047 H 
ATOM     37  H   LIG d   1      -6.021  -3.391 -13.776  0.00  0.00     0.047 H 
ATOM     38  S   LIG d   1      -4.418  -4.212 -10.543  0.00  0.00    -0.158 SA
ATOM     39  H   LIG d   1      -4.409  -2.432 -12.172  0.00  0.00     0.039 H 
ATOM     40  H   LIG d   1      -3.761  -3.950 -12.851  0.00  0.00     0.039 H 
ATOM     41  C   LIG d   1      -5.884  -3.536  -9.709  0.00  0.00     0.009 C 
ATOM     42  H   LIG d   1      -5.983  -3.986  -8.721  0.00  0.00     0.039 H 
ATOM     43  H   LIG d   1      -5.784  -2.455  -9.612  0.00  0.00     0.039 H 
ATOM     44  H   LIG d   1      -7.247  -4.949 -10.605  0.00  0.00     0.047 H 
ATOM     45  H   LIG d   1      -8.005  -3.423 -10.089  0.00  0.00     0.047 H 
ENDBRANCH  24  30
ENDBRANCH  14  24
BRANCH  12  46
ATOM     46  O   LIG d   1      -5.151  -0.198 -13.107  0.00  0.00    -0.391 OA
ATOM     47  H   LIG d   1      -4.898  -1.095 -13.366  0.00  0.00     0.210 HD
ENDBRANCH  12  46
BRANCH   1  48
ATOM     48  C   LIG d   1      -3.689   1.907 -13.277  0.00  0.00    -0.057 C 
ATOM     49  H   LIG d   1      -2.709   2.012 -13.741  0.00  0.00     0.024 H 
ATOM     50  H   LIG d   1      -3.725   2.503 -12.365  0.00  0.00     0.024 H 
ATOM     51  H   LIG d   1      -3.865   0.859 -13.032  0.00  0.00     0.024 H 
ENDBRANCH   1  48
BRANCH   9  52
ATOM     52  C   LIG d   1      -6.965   2.317 -16.103  0.00  0.00    -0.059 C 
ATOM     53  H   LIG d   1      -7.628   2.945 -16.697  0.00  0.00     0.024 H 
ATOM     54  H   LIG d   1      -5.928   2.579 -16.319  0.00  0.00     0.024 H 
ATOM     55  H   LIG d   1      -7.134   1.270 -16.353  0.00  0.00     0.024 H 
ENDBRANCH   9  52
BRANCH   6  56
ATOM     56  N   LIG d   1      -2.621   6.862 -14.384  0.00  0.00    -0.327 N 
ATOM     57  H   LIG d   1      -1.725   6.562 -14.165  0.00  0.00     0.148 HD
BRANCH  56  58
ATOM     58  C   LIG d   1      -2.858   8.263 -14.740  0.00  0.00    -0.001 C 
ATOM     59  H   LIG d   1      -3.903   8.513 -14.557  0.00  0.00     0.043 H 
ATOM     60  H   LIG d   1      -2.219   8.905 -14.134  0.00  0.00     0.043 H 
ATOM     61  H   LIG d   1      -2.628   8.413 -15.795  0.00  0.00     0.043 H 
ENDBRANCH  56  58
ENDBRANCH   6  56
TORSDOF 8
ENDMDL
MODEL 7
REMARK VINA RESULT:      -5.2     10.196     12.032
REMARK  8 active torsions:
REMARK  status: ('A' for Active; 'I' for Inactive)
REMARK    1  A    between atoms: C_1  and  C_2 
REMARK    2  A    between atoms: C_7  and  N_9 
REMARK    3  A    between atoms: N_9  and  C_10 
REMARK    4  A    between atoms: C_12  and  C_33 
REMARK    5  A    between atoms: C_15  and  O_32 
REMARK    6  A    between atoms: C_17  and  C_21 
REMARK    7  A    between atoms: C_21  and  C_23 
REMARK    8  A    between atoms: C_21  and  C_24 
REMARK       I    between atoms: C_24  and  N_26 
ROOT
ATOM      1  C   LIG d   1       3.115  -2.229  -9.581  0.00  0.00     0.005 C 
ATOM      2  H   LIG d   1       4.070  -1.910  -9.998  0.00  0.00     0.036 H 
ATOM      3  C   LIG d   1       2.267  -2.854 -10.679  0.00  0.00     0.057 A 
ATOM      4  C   LIG d   1       2.170  -4.203 -10.779  0.00  0.00     0.015 A 
ATOM      5  S   LIG d   1       1.102  -4.414 -12.178  0.00  0.00    -0.057 SA
ATOM      6  C   LIG d   1       0.864  -2.727 -12.521  0.00  0.00     0.158 A 
ATOM      7  N   LIG d   1       1.587  -2.150 -11.583  0.00  0.00    -0.229 NA
ATOM      8  C   LIG d   1       2.812  -5.229  -9.914  0.00  0.00    -0.014 C 
ATOM      9  C   LIG d   1       3.914  -4.556  -9.070  0.00  0.00    -0.022 C 
ATOM     10  C   LIG d   1       3.360  -3.261  -8.473  0.00  0.00    -0.001 C 
ATOM     11  H   LIG d   1       2.426  -3.463  -7.949  0.00  0.00     0.034 H 
ATOM     12  C   LIG d   1       4.375  -2.654  -7.498  0.00  0.00     0.063 C 
ATOM     13  H   LIG d   1       5.287  -2.401  -8.037  0.00  0.00     0.060 H 
ATOM     14  C   LIG d   1       4.705  -3.650  -6.388  0.00  0.00    -0.004 C 
ATOM     15  H   LIG d   1       3.794  -3.915  -5.851  0.00  0.00     0.033 H 
ATOM     16  C   LIG d   1       5.318  -4.905  -7.017  0.00  0.00    -0.047 C 
ATOM     17  C   LIG d   1       4.289  -5.536  -7.954  0.00  0.00    -0.047 C 
ATOM     18  H   LIG d   1       2.065  -5.669  -9.253  0.00  0.00     0.032 H 
ATOM     19  H   LIG d   1       3.253  -6.007 -10.536  0.00  0.00     0.032 H 
ATOM     20  H   LIG d   1       6.208  -4.633  -7.583  0.00  0.00     0.027 H 
ATOM     21  H   LIG d   1       5.581  -5.616  -6.233  0.00  0.00     0.027 H 
ATOM     22  H   LIG d   1       3.395  -5.795  -7.386  0.00  0.00     0.027 H 
ATOM     23  H   LIG d   1       4.711  -6.439  -8.393  0.00  0.00     0.027 H 
ENDROOT
BRANCH  14  24
ATOM     24  C   LIG d   1       5.707  -3.023  -5.417  0.00  0.00     0.038 C 
ATOM     25  H   LIG d   1       6.051  -2.068  -5.816  0.00  0.00     0.040 H 
BRANCH  24  26
ATOM     26  C   LIG d   1       6.902  -3.962  -5.240  0.00  0.00    -0.054 C 
ATOM     27  H   LIG d   1       7.746  -3.404  -4.834  0.00  0.00     0.024 H 
ATOM     28  H   LIG d   1       6.633  -4.766  -4.554  0.00  0.00     0.024 H 
ATOM     29  H   LIG d   1       7.177  -4.386  -6.206  0.00  0.00     0.024 H 
ENDBRANCH  24  26
BRANCH  24  30
ATOM     30  C   LIG d   1       5.043  -2.799  -4.082  0.00  0.00     0.219 C 
ATOM     31  O   LIG d   1       4.165  -3.547  -3.709  0.00  0.00    -0.275 OA
ATOM     32  N   LIG d   1       5.425  -1.766  -3.304  0.00  0.00    -0.300 N 
ATOM     33  C   LIG d   1       6.557  -0.934  -3.713  0.00  0.00     0.024 C 
ATOM     34  C   LIG d   1       4.702  -1.493  -2.062  0.00  0.00     0.024 C 
ATOM     35  C   LIG d   1       6.062   0.484  -4.022  0.00  0.00     0.009 C 
ATOM     36  H   LIG d   1       7.289  -0.895  -2.907  0.00  0.00     0.047 H 
ATOM     37  H   LIG d   1       7.019  -1.359  -4.604  0.00  0.00     0.047 H 
ATOM     38  S   LIG d   1       5.220   1.140  -2.550  0.00  0.00    -0.158 SA
ATOM     39  H   LIG d   1       5.364   0.454  -4.859  0.00  0.00     0.039 H 
ATOM     40  H   LIG d   1       6.911   1.122  -4.272  0.00  0.00     0.039 H 
ATOM     41  C   LIG d   1       3.987  -0.141  -2.174  0.00  0.00     0.009 C 
ATOM     42  H   LIG d   1       3.494   0.091  -1.229  0.00  0.00     0.039 H 
ATOM     43  H   LIG d   1       3.246  -0.183  -2.973  0.00  0.00     0.039 H 
ATOM     44  H   LIG d   1       5.407  -1.463  -1.230  0.00  0.00     0.047 H 
ATOM     45  H   LIG d   1       3.969  -2.279  -1.887  0.00  0.00     0.047 H 
ENDBRANCH  24  30
ENDBRANCH  14  24
BRANCH  12  46
ATOM     46  O   LIG d   1       3.826  -1.468  -6.921  0.00  0.00    -0.391 OA
ATOM     47  H   LIG d   1       3.096  -1.630  -6.308  0.00  0.00     0.210 HD
ENDBRANCH  12  46
BRANCH   1  48
ATOM     48  C   LIG d   1       2.384  -1.019  -8.998  0.00  0.00    -0.057 C 
ATOM     49  H   LIG d   1       2.059  -1.245  -7.983  0.00  0.00     0.024 H 
ATOM     50  H   LIG d   1       3.056  -0.161  -8.982  0.00  0.00     0.024 H 
ATOM     51  H   LIG d   1       1.515  -0.786  -9.615  0.00  0.00     0.024 H 
ENDBRANCH   1  48
BRANCH   9  52
ATOM     52  C   LIG d   1       5.131  -4.250  -9.946  0.00  0.00    -0.059 C 
ATOM     53  H   LIG d   1       5.280  -3.172  -9.998  0.00  0.00     0.024 H 
ATOM     54  H   LIG d   1       6.016  -4.719  -9.514  0.00  0.00     0.024 H 
ATOM     55  H   LIG d   1       4.964  -4.644 -10.948  0.00  0.00     0.024 H 
ENDBRANCH   9  52
BRANCH   6  56
ATOM     56  N   LIG d   1       0.109  -2.139 -13.525  0.00  0.00    -0.327 N 
ATOM     57  H   LIG d   1       0.520  -1.505 -14.133  0.00  0.00     0.148 HD
BRANCH  56  58
ATOM     58  C   LIG d   1      -1.309  -2.476 -13.666  0.00  0.00    -0.001 C 
ATOM     59  H   LIG d   1      -1.430  -3.217 -14.457  0.00  0.00     0.043 H 
ATOM     60  H   LIG d   1      -1.681  -2.883 -12.726  0.00  0.00     0.043 H 
ATOM     61  H   LIG d   1      -1.872  -1.577 -13.921  0.00  0.00     0.043 H 
ENDBRANCH  56  58
ENDBRANCH   6  56
TORSDOF 8
ENDMDL
MODEL 8
REMARK VINA RESULT:      -5.1      2.871      4.657
REMARK  8 active torsions:
REMARK  status: ('A' for Active; 'I' for Inactive)
REMARK    1  A    between atoms: C_1  and  C_2 
REMARK    2  A    between atoms: C_7  and  N_9 
REMARK    3  A    between atoms: N_9  and  C_10 
REMARK    4  A    between atoms: C_12  and  C_33 
REMARK    5  A    between atoms: C_15  and  O_32 
REMARK    6  A    between atoms: C_17  and  C_21 
REMARK    7  A    between atoms: C_21  and  C_23 
REMARK    8  A    between atoms: C_21  and  C_24 
REMARK       I    between atoms: C_24  and  N_26 
ROOT
ATOM      1  C   LIG d   1       9.680   9.220  -7.386  0.00  0.00     0.005 C 
ATOM      2  H   LIG d   1       8.810   9.874  -7.438  0.00  0.00     0.036 H 
ATOM      3  C   LIG d   1      10.400   9.225  -8.727  0.00  0.00     0.057 A 
ATOM      4  C   LIG d   1      11.521   9.968  -8.894  0.00  0.00     0.015 A 
ATOM      5  S   LIG d   1      11.957   9.641 -10.581  0.00  0.00    -0.057 SA
ATOM      6  C   LIG d   1      10.643   8.559 -10.935  0.00  0.00     0.158 A 
ATOM      7  N   LIG d   1       9.995   8.528  -9.788  0.00  0.00    -0.229 NA
ATOM      8  C   LIG d   1      12.198  10.834  -7.892  0.00  0.00    -0.014 C 
ATOM      9  C   LIG d   1      11.246  11.062  -6.701  0.00  0.00    -0.022 C 
ATOM     10  C   LIG d   1      10.632   9.722  -6.292  0.00  0.00    -0.001 C 
ATOM     11  H   LIG d   1      11.420   8.987  -6.129  0.00  0.00     0.034 H 
ATOM     12  C   LIG d   1       9.810   9.888  -5.010  0.00  0.00     0.063 C 
ATOM     13  H   LIG d   1       8.989  10.580  -5.194  0.00  0.00     0.060 H 
ATOM     14  C   LIG d   1      10.686  10.433  -3.884  0.00  0.00    -0.004 C 
ATOM     15  H   LIG d   1      11.516   9.749  -3.702  0.00  0.00     0.033 H 
ATOM     16  C   LIG d   1      11.229  11.803  -4.301  0.00  0.00    -0.047 C 
ATOM     17  C   LIG d   1      12.087  11.631  -5.553  0.00  0.00    -0.047 C 
ATOM     18  H   LIG d   1      13.108  10.345  -7.543  0.00  0.00     0.032 H 
ATOM     19  H   LIG d   1      12.450  11.791  -8.347  0.00  0.00     0.032 H 
ATOM     20  H   LIG d   1      10.399  12.475  -4.517  0.00  0.00     0.027 H 
ATOM     21  H   LIG d   1      11.837  12.216  -3.496  0.00  0.00     0.027 H 
ATOM     22  H   LIG d   1      12.909  10.949  -5.336  0.00  0.00     0.027 H 
ATOM     23  H   LIG d   1      12.490  12.600  -5.847  0.00  0.00     0.027 H 
ENDROOT
BRANCH  14  24
ATOM     24  C   LIG d   1       9.853  10.578  -2.609  0.00  0.00     0.038 C 
ATOM     25  H   LIG d   1       8.998   9.904  -2.656  0.00  0.00     0.040 H 
BRANCH  24  26
ATOM     26  C   LIG d   1       9.360  12.021  -2.484  0.00  0.00    -0.054 C 
ATOM     27  H   LIG d   1       8.863  12.153  -1.523  0.00  0.00     0.024 H 
ATOM     28  H   LIG d   1      10.209  12.702  -2.551  0.00  0.00     0.024 H 
ATOM     29  H   LIG d   1       8.658  12.236  -3.289  0.00  0.00     0.024 H 
ENDBRANCH  24  26
BRANCH  24  30
ATOM     30  C   LIG d   1      10.701  10.232  -1.412  0.00  0.00     0.219 C 
ATOM     31  O   LIG d   1      11.615  10.958  -1.085  0.00  0.00    -0.275 OA
ATOM     32  N   LIG d   1      10.443   9.113  -0.704  0.00  0.00    -0.300 N 
ATOM     33  C   LIG d   1       9.273   8.300  -1.040  0.00  0.00     0.024 C 
ATOM     34  C   LIG d   1      11.336   8.729   0.389  0.00  0.00     0.024 C 
ATOM     35  C   LIG d   1       9.735   6.936  -1.566  0.00  0.00     0.009 C 
ATOM     36  H   LIG d   1       8.662   8.158  -0.149  0.00  0.00     0.047 H 
ATOM     37  H   LIG d   1       8.687   8.805  -1.807  0.00  0.00     0.047 H 
ATOM     38  S   LIG d   1      10.782   6.150  -0.305  0.00  0.00    -0.158 SA
ATOM     39  H   LIG d   1      10.307   7.072  -2.483  0.00  0.00     0.039 H 
ATOM     40  H   LIG d   1       8.866   6.307  -1.763  0.00  0.00     0.039 H 
ATOM     41  C   LIG d   1      12.042   7.415   0.034  0.00  0.00     0.009 C 
ATOM     42  H   LIG d   1      12.665   7.097   0.870  0.00  0.00     0.039 H 
ATOM     43  H   LIG d   1      12.663   7.559  -0.851  0.00  0.00     0.039 H 
ATOM     44  H   LIG d   1      10.755   8.593   1.302  0.00  0.00     0.047 H 
ATOM     45  H   LIG d   1      12.079   9.511   0.544  0.00  0.00     0.047 H 
ENDBRANCH  24  30
ENDBRANCH  14  24
BRANCH  12  46
ATOM     46  O   LIG d   1       9.277   8.620  -4.622  0.00  0.00    -0.391 OA
ATOM     47  H   LIG d   1       9.785   7.864  -4.945  0.00  0.00     0.210 HD
ENDBRANCH  12  46
BRANCH   1  48
ATOM     48  C   LIG d   1       9.228   7.797  -7.055  0.00  0.00    -0.057 C 
ATOM     49  H   LIG d   1       8.208   7.820  -6.672  0.00  0.00     0.024 H 
ATOM     50  H   LIG d   1       9.265   7.185  -7.956  0.00  0.00     0.024 H 
ATOM     51  H   LIG d   1       9.890   7.371  -6.300  0.00  0.00     0.024 H 
ENDBRANCH   1  48
BRANCH   9  52
ATOM     52  C   LIG d   1      10.142  12.046  -7.094  0.00  0.00    -0.059 C 
ATOM     53  H   LIG d   1      10.590  12.972  -7.453  0.00  0.00     0.024 H 
ATOM     54  H   LIG d   1       9.531  11.608  -7.885  0.00  0.00     0.024 H 
ATOM     55  H   LIG d   1       9.517  12.255  -6.227  0.00  0.00     0.024 H 
ENDBRANCH   9  52
BRANCH   6  56
ATOM     56  N   LIG d   1      10.351   7.900 -12.119  0.00  0.00    -0.327 N 
ATOM     57  H   LIG d   1      10.677   6.997 -12.264  0.00  0.00     0.148 HD
BRANCH  56  58
ATOM     58  C   LIG d   1       9.554   8.566 -13.151  0.00  0.00    -0.001 C 
ATOM     59  H   LIG d   1       8.710   9.076 -12.685  0.00  0.00     0.043 H 
ATOM     60  H   LIG d   1      10.173   9.292 -13.676  0.00  0.00     0.043 H 
ATOM     61  H   LIG d   1       9.184   7.824 -13.859  0.00  0.00     0.043 H 
ENDBRANCH  56  58
ENDBRANCH   6  56
TORSDOF 8
ENDMDL
MODEL 9
REMARK VINA RESULT:      -5.1      2.176      3.121
REMARK  8 active torsions:
REMARK  status: ('A' for Active; 'I' for Inactive)
REMARK    1  A    between atoms: C_1  and  C_2 
REMARK    2  A    between atoms: C_7  and  N_9 
REMARK    3  A    between atoms: N_9  and  C_10 
REMARK    4  A    between atoms: C_12  and  C_33 
REMARK    5  A    between atoms: C_15  and  O_32 
REMARK    6  A    between atoms: C_17  and  C_21 
REMARK    7  A    between atoms: C_21  and  C_23 
REMARK    8  A    between atoms: C_21  and  C_24 
REMARK       I    between atoms: C_24  and  N_26 
ROOT
ATOM      1  C   LIG d   1      10.224   6.315  -4.962  0.00  0.00     0.005 C 
ATOM      2  H   LIG d   1      11.290   6.489  -5.103  0.00  0.00     0.036 H 
ATOM      3  C   LIG d   1       9.884   4.892  -5.381  0.00  0.00     0.057 A 
ATOM      4  C   LIG d   1       9.715   3.928  -4.442  0.00  0.00     0.015 A 
ATOM      5  S   LIG d   1       9.347   2.495  -5.418  0.00  0.00    -0.057 SA
ATOM      6  C   LIG d   1       9.440   3.265  -6.973  0.00  0.00     0.158 A 
ATOM      7  N   LIG d   1       9.733   4.508  -6.648  0.00  0.00    -0.229 NA
ATOM      8  C   LIG d   1       9.818   4.067  -2.965  0.00  0.00    -0.014 C 
ATOM      9  C   LIG d   1      10.500   5.410  -2.634  0.00  0.00    -0.022 C 
ATOM     10  C   LIG d   1       9.866   6.513  -3.483  0.00  0.00    -0.001 C 
ATOM     11  H   LIG d   1       8.782   6.496  -3.365  0.00  0.00     0.034 H 
ATOM     12  C   LIG d   1      10.407   7.882  -3.060  0.00  0.00     0.063 C 
ATOM     13  H   LIG d   1      11.482   7.915  -3.234  0.00  0.00     0.060 H 
ATOM     14  C   LIG d   1      10.127   8.129  -1.579  0.00  0.00    -0.004 C 
ATOM     15  H   LIG d   1       9.053   8.087  -1.397  0.00  0.00     0.033 H 
ATOM     16  C   LIG d   1      10.832   7.046  -0.756  0.00  0.00    -0.047 C 
ATOM     17  C   LIG d   1      10.259   5.685  -1.145  0.00  0.00    -0.047 C 
ATOM     18  H   LIG d   1       8.820   4.048  -2.526  0.00  0.00     0.032 H 
ATOM     19  H   LIG d   1      10.410   3.247  -2.561  0.00  0.00     0.032 H 
ATOM     20  H   LIG d   1      11.901   7.065  -0.966  0.00  0.00     0.027 H 
ATOM     21  H   LIG d   1      10.661   7.223   0.306  0.00  0.00     0.027 H 
ATOM     22  H   LIG d   1       9.188   5.673  -0.945  0.00  0.00     0.027 H 
ATOM     23  H   LIG d   1      10.745   4.909  -0.553  0.00  0.00     0.027 H 
ENDROOT
BRANCH  14  24
ATOM     24  C   LIG d   1      10.661   9.505  -1.177  0.00  0.00     0.038 C 
ATOM     25  H   LIG d   1      11.631   9.670  -1.648  0.00  0.00     0.040 H 
BRANCH  24  26
ATOM     26  C   LIG d   1      10.815   9.569   0.343  0.00  0.00    -0.054 C 
ATOM     27  H   LIG d   1      11.634   8.922   0.653  0.00  0.00     0.024 H 
ATOM     28  H   LIG d   1      11.028  10.596   0.644  0.00  0.00     0.024 H 
ATOM     29  H   LIG d   1       9.890   9.238   0.816  0.00  0.00     0.024 H 
ENDBRANCH  24  26
BRANCH  24  30
ATOM     30  C   LIG d   1       9.696  10.571  -1.630  0.00  0.00     0.219 C 
ATOM     31  O   LIG d   1       8.505  10.422  -1.459  0.00  0.00    -0.275 OA
ATOM     32  N   LIG d   1      10.157  11.690  -2.224  0.00  0.00    -0.300 N 
ATOM     33  C   LIG d   1      11.600  11.910  -2.328  0.00  0.00     0.024 C 
ATOM     34  C   LIG d   1       9.209  12.669  -2.756  0.00  0.00     0.024 C 
ATOM     35  C   LIG d   1      12.016  11.880  -3.804  0.00  0.00     0.009 C 
ATOM     36  H   LIG d   1      11.851  12.880  -1.900  0.00  0.00     0.047 H 
ATOM     37  H   LIG d   1      12.128  11.126  -1.786  0.00  0.00     0.047 H 
ATOM     38  S   LIG d   1      11.060  13.138  -4.703  0.00  0.00    -0.158 SA
ATOM     39  H   LIG d   1      11.808  10.895  -4.222  0.00  0.00     0.039 H 
ATOM     40  H   LIG d   1      13.081  12.099  -3.888  0.00  0.00     0.039 H 
ATOM     41  C   LIG d   1       9.340  12.729  -4.283  0.00  0.00     0.009 C 
ATOM     42  H   LIG d   1       8.674  13.497  -4.677  0.00  0.00     0.039 H 
ATOM     43  H   LIG d   1       9.078  11.762  -4.712  0.00  0.00     0.039 H 
ATOM     44  H   LIG d   1       9.424  13.651  -2.334  0.00  0.00     0.047 H 
ATOM     45  H   LIG d   1       8.194  12.374  -2.490  0.00  0.00     0.047 H 
ENDBRANCH  24  30
ENDBRANCH  14  24
BRANCH  12  46
ATOM     46  O   LIG d   1       9.775   8.902  -3.836  0.00  0.00    -0.391 OA
ATOM     47  H   LIG d   1       8.928   9.201  -3.478  0.00  0.00     0.210 HD
ENDBRANCH  12  46
BRANCH   1  48
ATOM     48  C   LIG d   1       9.429   7.303  -5.816  0.00  0.00    -0.057 C 
ATOM     49  H   LIG d   1       8.938   6.768  -6.629  0.00  0.00     0.024 H 
ATOM     50  H   LIG d   1       8.677   7.794  -5.199  0.00  0.00     0.024 H 
ATOM     51  H   LIG d   1      10.104   8.052  -6.230  0.00  0.00     0.024 H 
ENDBRANCH   1  48
BRANCH   9  52
ATOM     52  C   LIG d   1      12.000   5.321  -2.926  0.00  0.00    -0.059 C 
ATOM     53  H   LIG d   1      12.241   4.323  -3.288  0.00  0.00     0.024 H 
ATOM     54  H   LIG d   1      12.265   6.057  -3.686  0.00  0.00     0.024 H 
ATOM     55  H   LIG d   1      12.559   5.523  -2.013  0.00  0.00     0.024 H 
ENDBRANCH   9  52
BRANCH   6  56
ATOM     56  N   LIG d   1       9.256   2.714  -8.232  0.00  0.00    -0.327 N 
ATOM     57  H   LIG d   1       9.222   1.750  -8.339  0.00  0.00     0.148 HD
BRANCH  56  58
ATOM     58  C   LIG d   1       9.113   3.586  -9.399  0.00  0.00    -0.001 C 
ATOM     59  H   LIG d   1      10.089   3.987  -9.675  0.00  0.00     0.043 H 
ATOM     60  H   LIG d   1       8.707   3.013 -10.233  0.00  0.00     0.043 H 
ATOM     61  H   LIG d   1       8.437   4.407  -9.159  0.00  0.00     0.043 H 
ENDBRANCH  56  58
ENDBRANCH   6  56
TORSDOF 8
ENDMDL
MODEL 10
REMARK VINA RESULT:      -5.0      2.780      8.087
REMARK  8 active torsions:
REMARK  status: ('A' for Active; 'I' for Inactive)
REMARK    1  A    between atoms: C_1  and  C_2 
REMARK    2  A    between atoms: C_7  and  N_9 
REMARK    3  A    between atoms: N_9  and  C_10 
REMARK    4  A    between atoms: C_12  and  C_33 
REMARK    5  A    between atoms: C_15  and  O_32 
REMARK    6  A    between atoms: C_17  and  C_21 
REMARK    7  A    between atoms: C_21  and  C_23 
REMARK    8  A    between atoms: C_21  and  C_24 
REMARK       I    between atoms: C_24  and  N_26 
ROOT
ATOM      1  C   LIG d   1      10.188   7.532  -4.514  0.00  0.00     0.005 C 
ATOM      2  H   LIG d   1      11.264   7.360  -4.507  0.00  0.00     0.036 H 
ATOM      3  C   LIG d   1       9.898   8.954  -4.059  0.00  0.00     0.057 A 
ATOM      4  C   LIG d   1       9.611   9.916  -4.971  0.00  0.00     0.015 A 
ATOM      5  S   LIG d   1       9.364  11.351  -3.960  0.00  0.00    -0.057 SA
ATOM      6  C   LIG d   1       9.653  10.584  -2.427  0.00  0.00     0.158 A 
ATOM      7  N   LIG d   1       9.907   9.341  -2.783  0.00  0.00    -0.229 NA
ATOM      8  C   LIG d   1       9.528   9.773  -6.449  0.00  0.00    -0.014 C 
ATOM      9  C   LIG d   1      10.168   8.432  -6.860  0.00  0.00    -0.022 C 
ATOM     10  C   LIG d   1       9.648   7.329  -5.936  0.00  0.00    -0.001 C 
ATOM     11  H   LIG d   1       8.558   7.343  -5.917  0.00  0.00     0.034 H 
ATOM     12  C   LIG d   1      10.136   5.960  -6.421  0.00  0.00     0.063 C 
ATOM     13  H   LIG d   1      11.224   5.931  -6.383  0.00  0.00     0.060 H 
ATOM     14  C   LIG d   1       9.673   5.709  -7.855  0.00  0.00    -0.004 C 
ATOM     15  H   LIG d   1       8.585   5.748  -7.900  0.00  0.00     0.033 H 
ATOM     16  C   LIG d   1      10.267   6.792  -8.761  0.00  0.00    -0.047 C 
ATOM     17  C   LIG d   1       9.744   8.153  -8.306  0.00  0.00    -0.047 C 
ATOM     18  H   LIG d   1       8.483   9.789  -6.760  0.00  0.00     0.032 H 
ATOM     19  H   LIG d   1      10.063  10.594  -6.926  0.00  0.00     0.032 H 
ATOM     20  H   LIG d   1      11.354   6.776  -8.686  0.00  0.00     0.027 H 
ATOM     21  H   LIG d   1       9.965   6.611  -9.793  0.00  0.00     0.027 H 
ATOM     22  H   LIG d   1       8.655   8.161  -8.371  0.00  0.00     0.027 H 
ATOM     23  H   LIG d   1      10.148   8.928  -8.957  0.00  0.00     0.027 H 
ENDROOT
BRANCH  14  24
ATOM     24  C   LIG d   1      10.157   4.333  -8.317  0.00  0.00     0.038 C 
ATOM     25  H   LIG d   1      10.534   3.774  -7.460  0.00  0.00     0.040 H 
BRANCH  24  26
ATOM     26  C   LIG d   1      11.275   4.505  -9.346  0.00  0.00    -0.054 C 
ATOM     27  H   LIG d   1      11.871   5.381  -9.093  0.00  0.00     0.024 H 
ATOM     28  H   LIG d   1      11.911   3.619  -9.343  0.00  0.00     0.024 H 
ATOM     29  H   LIG d   1      10.840   4.635 -10.337  0.00  0.00     0.024 H 
ENDBRANCH  24  26
BRANCH  24  30
ATOM     30  C   LIG d   1       9.010   3.581  -8.942  0.00  0.00     0.219 C 
ATOM     31  O   LIG d   1       8.271   4.141  -9.722  0.00  0.00    -0.275 OA
ATOM     32  N   LIG d   1       8.806   2.284  -8.633  0.00  0.00    -0.300 N 
ATOM     33  C   LIG d   1       9.765   1.587  -7.774  0.00  0.00     0.024 C 
ATOM     34  C   LIG d   1       7.629   1.593  -9.160  0.00  0.00     0.024 C 
ATOM     35  C   LIG d   1       9.086   1.211  -6.452  0.00  0.00     0.009 C 
ATOM     36  H   LIG d   1      10.110   0.682  -8.275  0.00  0.00     0.047 H 
ATOM     37  H   LIG d   1      10.615   2.238  -7.574  0.00  0.00     0.047 H 
ATOM     38  S   LIG d   1       7.623   0.196  -6.817  0.00  0.00    -0.158 SA
ATOM     39  H   LIG d   1       8.782   2.116  -5.927  0.00  0.00     0.039 H 
ATOM     40  H   LIG d   1       9.781   0.642  -5.833  0.00  0.00     0.039 H 
ATOM     41  C   LIG d   1       6.697   1.217  -8.002  0.00  0.00     0.009 C 
ATOM     42  H   LIG d   1       5.847   0.652  -8.386  0.00  0.00     0.039 H 
ATOM     43  H   LIG d   1       6.342   2.121  -7.508  0.00  0.00     0.039 H 
ATOM     44  H   LIG d   1       7.943   0.688  -9.682  0.00  0.00     0.047 H 
ATOM     45  H   LIG d   1       7.103   2.248  -9.853  0.00  0.00     0.047 H 
ENDBRANCH  24  30
ENDBRANCH  14  24
BRANCH  12  46
ATOM     46  O   LIG d   1       9.609   4.941  -5.569  0.00  0.00    -0.391 OA
ATOM     47  H   LIG d   1       9.180   4.215  -6.043  0.00  0.00     0.210 HD
ENDBRANCH  12  46
BRANCH   1  48
ATOM     48  C   LIG d   1       9.508   6.544  -3.565  0.00  0.00    -0.057 C 
ATOM     49  H   LIG d   1       9.976   6.604  -2.583  0.00  0.00     0.024 H 
ATOM     50  H   LIG d   1       8.451   6.791  -3.479  0.00  0.00     0.024 H 
ATOM     51  H   LIG d   1       9.613   5.532  -3.957  0.00  0.00     0.024 H 
ENDBRANCH   1  48
BRANCH   9  52
ATOM     52  C   LIG d   1      11.692   8.525  -6.758  0.00  0.00    -0.059 C 
ATOM     53  H   LIG d   1      12.144   8.067  -7.637  0.00  0.00     0.024 H 
ATOM     54  H   LIG d   1      11.989   9.573  -6.701  0.00  0.00     0.024 H 
ATOM     55  H   LIG d   1      12.027   8.003  -5.862  0.00  0.00     0.024 H 
ENDBRANCH   9  52
BRANCH   6  56
ATOM     56  N   LIG d   1       9.626  11.138  -1.156  0.00  0.00    -0.327 N 
ATOM     57  H   LIG d   1       9.433  12.083  -1.043  0.00  0.00     0.148 HD
BRANCH  56  58
ATOM     58  C   LIG d   1       9.888  10.299   0.014  0.00  0.00    -0.001 C 
ATOM     59  H   LIG d   1       9.077  10.414   0.734  0.00  0.00     0.043 H 
ATOM     60  H   LIG d   1       9.955   9.255  -0.294  0.00  0.00     0.043 H 
ATOM     61  H   LIG d   1      10.829  10.602   0.475  0.00  0.00     0.043 H 
ENDBRANCH  56  58
ENDBRANCH   6  56
TORSDOF 8
ENDMDL
