MODEL 1
REMARK VINA RESULT:      -8.0      0.000      0.000
REMARK  6 active torsions:
REMARK  status: ('A' for Active; 'I' for Inactive)
REMARK    1  A    between atoms: C_6  and  C_7 
REMARK    2  A    between atoms: C_7  and  C_8 
REMARK    3  A    between atoms: C_8  and  C_10 
REMARK    4  A    between atoms: C_8  and  N_22 
REMARK    5  A    between atoms: C_10  and  C_12 
REMARK    6  A    between atoms: N_22  and  C_23 
ROOT
ATOM      1  C   LIG d   1       5.145  -1.148  -6.973  0.00  0.00     0.084 C 
ATOM      2  H   LIG d   1       4.105  -1.405  -6.775  0.00  0.00     0.058 H 
ENDROOT
BRANCH   1   3
ATOM      3  C   LIG d   1       5.206  -0.071  -8.058  0.00  0.00    -0.002 C 
ATOM      4  H   LIG d   1       6.150  -0.153  -8.597  0.00  0.00     0.034 H 
ATOM      5  H   LIG d   1       5.136   0.914  -7.597  0.00  0.00     0.034 H 
BRANCH   3   6
ATOM      6  C   LIG d   1       4.061  -0.259  -9.018  0.00  0.00    -0.045 A 
ATOM      7  C   LIG d   1       2.818  -0.637  -8.545  0.00  0.00    -0.056 A 
ATOM      8  C   LIG d   1       1.766  -0.810  -9.425  0.00  0.00    -0.026 A 
ATOM      9  H   LIG d   1       2.667  -0.791  -7.487  0.00  0.00     0.062 H 
ATOM     10  C   LIG d   1       1.958  -0.605 -10.780  0.00  0.00     0.123 A 
ATOM     11  H   LIG d   1       0.795  -1.104  -9.055  0.00  0.00     0.065 H 
ATOM     12  C   LIG d   1       3.203  -0.228 -11.254  0.00  0.00    -0.026 A 
ATOM     13  F   LIG d   1       0.930  -0.775 -11.642  0.00  0.00    -0.205 F 
ATOM     14  C   LIG d   1       4.253  -0.056 -10.372  0.00  0.00    -0.056 A 
ATOM     15  H   LIG d   1       3.354  -0.068 -12.311  0.00  0.00     0.065 H 
ATOM     16  H   LIG d   1       5.225   0.239 -10.741  0.00  0.00     0.062 H 
ENDBRANCH   3   6
ENDBRANCH   1   3
BRANCH   1  17
ATOM     17  C   LIG d   1       5.782  -0.626  -5.711  0.00  0.00     0.160 C 
ATOM     18  O   LIG d   1       6.947  -0.309  -5.709  0.00  0.00    -0.295 OA
BRANCH  17  19
ATOM     19  C   LIG d   1       4.965  -0.500  -4.451  0.00  0.00     0.032 C 
ATOM     20  C   LIG d   1       5.755   0.294  -3.409  0.00  0.00    -0.038 C 
ATOM     21  C   LIG d   1       4.925   0.422  -2.129  0.00  0.00    -0.040 C 
ATOM     22  H   LIG d   1       6.688  -0.224  -3.186  0.00  0.00     0.028 H 
ATOM     23  H   LIG d   1       5.975   1.287  -3.799  0.00  0.00     0.028 H 
ATOM     24  C   LIG d   1       4.616  -0.973  -1.581  0.00  0.00    -0.047 C 
ATOM     25  C   LIG d   1       3.616   1.149  -2.441  0.00  0.00    -0.047 C 
ATOM     26  H   LIG d   1       5.487   0.988  -1.387  0.00  0.00     0.030 H 
ATOM     27  C   LIG d   1       3.826  -1.767  -2.623  0.00  0.00    -0.040 C 
ATOM     28  H   LIG d   1       4.025  -0.881  -0.669  0.00  0.00     0.027 H 
ATOM     29  H   LIG d   1       5.549  -1.491  -1.358  0.00  0.00     0.027 H 
ATOM     30  C   LIG d   1       4.656  -1.895  -3.902  0.00  0.00    -0.038 C 
ATOM     31  C   LIG d   1       2.517  -1.039  -2.934  0.00  0.00    -0.047 C 
ATOM     32  H   LIG d   1       3.606  -2.760  -2.232  0.00  0.00     0.030 H 
ATOM     33  H   LIG d   1       4.093  -2.460  -4.645  0.00  0.00     0.028 H 
ATOM     34  H   LIG d   1       5.589  -2.413  -3.681  0.00  0.00     0.028 H 
ATOM     35  C   LIG d   1       2.826   0.355  -3.483  0.00  0.00    -0.040 C 
ATOM     36  H   LIG d   1       1.955  -1.605  -3.677  0.00  0.00     0.027 H 
ATOM     37  H   LIG d   1       1.926  -0.948  -2.023  0.00  0.00     0.027 H 
ATOM     38  C   LIG d   1       3.656   0.227  -4.762  0.00  0.00    -0.038 C 
ATOM     39  H   LIG d   1       1.893   0.874  -3.705  0.00  0.00     0.030 H 
ATOM     40  H   LIG d   1       3.876   1.221  -5.153  0.00  0.00     0.028 H 
ATOM     41  H   LIG d   1       3.094  -0.339  -5.505  0.00  0.00     0.028 H 
ATOM     42  H   LIG d   1       3.025   1.240  -1.529  0.00  0.00     0.027 H 
ATOM     43  H   LIG d   1       3.836   2.143  -2.832  0.00  0.00     0.027 H 
ENDBRANCH  17  19
ENDBRANCH   1  17
BRANCH   1  44
ATOM     44  N   LIG d   1       5.864  -2.339  -7.427  0.00  0.00    -0.334 N 
ATOM     45  H   LIG d   1       6.549  -2.263  -8.110  0.00  0.00     0.147 HD
BRANCH  44  46
ATOM     46  C   LIG d   1       5.566  -3.589  -6.875  0.00  0.00     0.028 A 
ATOM     47  C   LIG d   1       4.282  -4.109  -6.982  0.00  0.00    -0.038 A 
ATOM     48  C   LIG d   1       3.991  -5.345  -6.440  0.00  0.00    -0.025 A 
ATOM     49  H   LIG d   1       3.513  -3.547  -7.490  0.00  0.00     0.064 H 
ATOM     50  C   LIG d   1       4.976  -6.063  -5.782  0.00  0.00     0.123 A 
ATOM     51  H   LIG d   1       2.994  -5.751  -6.526  0.00  0.00     0.065 H 
ATOM     52  C   LIG d   1       6.256  -5.545  -5.671  0.00  0.00    -0.025 A 
ATOM     53  F   LIG d   1       4.689  -7.270  -5.249  0.00  0.00    -0.205 F 
ATOM     54  C   LIG d   1       6.552  -4.310  -6.216  0.00  0.00    -0.038 A 
ATOM     55  H   LIG d   1       7.022  -6.107  -5.157  0.00  0.00     0.065 H 
ATOM     56  H   LIG d   1       7.550  -3.908  -6.128  0.00  0.00     0.064 H 
ENDBRANCH  44  46
ENDBRANCH   1  44
TORSDOF 6
ENDMDL
MODEL 2
REMARK VINA RESULT:      -8.0      0.031      1.650
REMARK  6 active torsions:
REMARK  status: ('A' for Active; 'I' for Inactive)
REMARK    1  A    between atoms: C_6  and  C_7 
REMARK    2  A    between atoms: C_7  and  C_8 
REMARK    3  A    between atoms: C_8  and  C_10 
REMARK    4  A    between atoms: C_8  and  N_22 
REMARK    5  A    between atoms: C_10  and  C_12 
REMARK    6  A    between atoms: N_22  and  C_23 
ROOT
ATOM      1  C   LIG d   1       5.158  -1.117  -6.970  0.00  0.00     0.084 C 
ATOM      2  H   LIG d   1       4.119  -1.383  -6.773  0.00  0.00     0.058 H 
ENDROOT
BRANCH   1   3
ATOM      3  C   LIG d   1       5.213  -0.049  -8.063  0.00  0.00    -0.002 C 
ATOM      4  H   LIG d   1       6.154  -0.134  -8.606  0.00  0.00     0.034 H 
ATOM      5  H   LIG d   1       5.145   0.940  -7.609  0.00  0.00     0.034 H 
BRANCH   3   6
ATOM      6  C   LIG d   1       4.063  -0.245  -9.015  0.00  0.00    -0.045 A 
ATOM      7  C   LIG d   1       4.243  -0.031 -10.369  0.00  0.00    -0.056 A 
ATOM      8  C   LIG d   1       3.188  -0.211 -11.244  0.00  0.00    -0.026 A 
ATOM      9  H   LIG d   1       5.210   0.270 -10.744  0.00  0.00     0.062 H 
ATOM     10  C   LIG d   1       1.951  -0.604 -10.765  0.00  0.00     0.123 A 
ATOM     11  H   LIG d   1       3.330  -0.044 -12.302  0.00  0.00     0.065 H 
ATOM     12  C   LIG d   1       1.771  -0.817  -9.409  0.00  0.00    -0.026 A 
ATOM     13  F   LIG d   1       0.919  -0.779 -11.619  0.00  0.00    -0.205 F 
ATOM     14  C   LIG d   1       2.827  -0.637  -8.535  0.00  0.00    -0.056 A 
ATOM     15  H   LIG d   1       0.806  -1.123  -9.033  0.00  0.00     0.065 H 
ATOM     16  H   LIG d   1       2.686  -0.803  -7.477  0.00  0.00     0.062 H 
ENDBRANCH   3   6
ENDBRANCH   1   3
BRANCH   1  17
ATOM     17  C   LIG d   1       5.785  -0.580  -5.709  0.00  0.00     0.160 C 
ATOM     18  O   LIG d   1       6.944  -0.239  -5.710  0.00  0.00    -0.295 OA
BRANCH  17  19
ATOM     19  C   LIG d   1       4.968  -0.468  -4.449  0.00  0.00     0.032 C 
ATOM     20  C   LIG d   1       3.658   0.263  -4.753  0.00  0.00    -0.038 C 
ATOM     21  C   LIG d   1       2.828   0.377  -3.472  0.00  0.00    -0.040 C 
ATOM     22  H   LIG d   1       3.879   1.261  -5.133  0.00  0.00     0.028 H 
ATOM     23  H   LIG d   1       3.096  -0.294  -5.502  0.00  0.00     0.028 H 
ATOM     24  C   LIG d   1       3.618   1.160  -2.421  0.00  0.00    -0.047 C 
ATOM     25  C   LIG d   1       2.519  -1.023  -2.939  0.00  0.00    -0.047 C 
ATOM     26  H   LIG d   1       1.896   0.898  -3.689  0.00  0.00     0.030 H 
ATOM     27  C   LIG d   1       4.927   0.429  -2.117  0.00  0.00    -0.040 C 
ATOM     28  H   LIG d   1       3.025   1.241  -1.509  0.00  0.00     0.027 H 
ATOM     29  H   LIG d   1       3.838   2.158  -2.801  0.00  0.00     0.027 H 
ATOM     30  C   LIG d   1       5.757   0.316  -3.397  0.00  0.00    -0.038 C 
ATOM     31  C   LIG d   1       4.616  -0.971  -1.584  0.00  0.00    -0.047 C 
ATOM     32  H   LIG d   1       5.488   0.987  -1.368  0.00  0.00     0.030 H 
ATOM     33  H   LIG d   1       6.689  -0.206  -3.181  0.00  0.00     0.028 H 
ATOM     34  H   LIG d   1       5.977   1.313  -3.777  0.00  0.00     0.028 H 
ATOM     35  C   LIG d   1       3.828  -1.755  -2.635  0.00  0.00    -0.040 C 
ATOM     36  H   LIG d   1       5.549  -1.492  -1.367  0.00  0.00     0.027 H 
ATOM     37  H   LIG d   1       4.025  -0.890  -0.672  0.00  0.00     0.027 H 
ATOM     38  C   LIG d   1       4.658  -1.867  -3.915  0.00  0.00    -0.038 C 
ATOM     39  H   LIG d   1       3.607  -2.752  -2.255  0.00  0.00     0.030 H 
ATOM     40  H   LIG d   1       4.096  -2.426  -4.664  0.00  0.00     0.028 H 
ATOM     41  H   LIG d   1       5.590  -2.388  -3.699  0.00  0.00     0.028 H 
ATOM     42  H   LIG d   1       1.928  -0.942  -2.028  0.00  0.00     0.027 H 
ATOM     43  H   LIG d   1       1.957  -1.581  -3.689  0.00  0.00     0.027 H 
ENDBRANCH  17  19
ENDBRANCH   1  17
BRANCH   1  44
ATOM     44  N   LIG d   1       5.890  -2.306  -7.411  0.00  0.00    -0.334 N 
ATOM     45  H   LIG d   1       6.587  -2.226  -8.080  0.00  0.00     0.147 HD
BRANCH  44  46
ATOM     46  C   LIG d   1       5.585  -3.558  -6.867  0.00  0.00     0.028 A 
ATOM     47  C   LIG d   1       4.301  -4.076  -6.988  0.00  0.00    -0.038 A 
ATOM     48  C   LIG d   1       4.004  -5.314  -6.455  0.00  0.00    -0.025 A 
ATOM     49  H   LIG d   1       3.537  -3.510  -7.502  0.00  0.00     0.064 H 
ATOM     50  C   LIG d   1       4.981  -6.035  -5.790  0.00  0.00     0.123 A 
ATOM     51  H   LIG d   1       3.007  -5.718  -6.552  0.00  0.00     0.065 H 
ATOM     52  C   LIG d   1       6.260  -5.519  -5.665  0.00  0.00    -0.025 A 
ATOM     53  F   LIG d   1       4.687  -7.245  -5.265  0.00  0.00    -0.205 F 
ATOM     54  C   LIG d   1       6.563  -4.283  -6.201  0.00  0.00    -0.038 A 
ATOM     55  H   LIG d   1       7.021  -6.085  -5.146  0.00  0.00     0.065 H 
ATOM     56  H   LIG d   1       7.561  -3.882  -6.103  0.00  0.00     0.064 H 
ENDBRANCH  44  46
ENDBRANCH   1  44
TORSDOF 6
ENDMDL
MODEL 3
REMARK VINA RESULT:      -8.0      1.344      2.167
REMARK  6 active torsions:
REMARK  status: ('A' for Active; 'I' for Inactive)
REMARK    1  A    between atoms: C_6  and  C_7 
REMARK    2  A    between atoms: C_7  and  C_8 
REMARK    3  A    between atoms: C_8  and  C_10 
REMARK    4  A    between atoms: C_8  and  N_22 
REMARK    5  A    between atoms: C_10  and  C_12 
REMARK    6  A    between atoms: N_22  and  C_23 
ROOT
ATOM      1  C   LIG d   1       5.963  -1.969  -6.342  0.00  0.00     0.084 C 
ATOM      2  H   LIG d   1       4.923  -2.276  -6.233  0.00  0.00     0.058 H 
ENDROOT
BRANCH   1   3
ATOM      3  C   LIG d   1       6.194  -1.445  -7.760  0.00  0.00    -0.002 C 
ATOM      4  H   LIG d   1       6.226  -2.283  -8.456  0.00  0.00     0.034 H 
ATOM      5  H   LIG d   1       7.141  -0.906  -7.799  0.00  0.00     0.034 H 
BRANCH   3   6
ATOM      6  C   LIG d   1       5.071  -0.516  -8.141  0.00  0.00    -0.045 A 
ATOM      7  C   LIG d   1       3.769  -0.981  -8.165  0.00  0.00    -0.056 A 
ATOM      8  C   LIG d   1       2.738  -0.129  -8.516  0.00  0.00    -0.026 A 
ATOM      9  H   LIG d   1       3.557  -2.007  -7.906  0.00  0.00     0.062 H 
ATOM     10  C   LIG d   1       3.009   1.188  -8.842  0.00  0.00     0.123 A 
ATOM     11  H   LIG d   1       1.720  -0.493  -8.534  0.00  0.00     0.065 H 
ATOM     12  C   LIG d   1       4.313   1.652  -8.819  0.00  0.00    -0.026 A 
ATOM     13  F   LIG d   1       2.001   2.020  -9.185  0.00  0.00    -0.205 F 
ATOM     14  C   LIG d   1       5.343   0.799  -8.468  0.00  0.00    -0.056 A 
ATOM     15  H   LIG d   1       4.526   2.679  -9.073  0.00  0.00     0.065 H 
ATOM     16  H   LIG d   1       6.360   1.161  -8.450  0.00  0.00     0.062 H 
ENDBRANCH   3   6
ENDBRANCH   1   3
BRANCH   1  17
ATOM     17  C   LIG d   1       6.272  -0.881  -5.347  0.00  0.00     0.160 C 
ATOM     18  O   LIG d   1       7.309  -0.267  -5.425  0.00  0.00    -0.295 OA
BRANCH  17  19
ATOM     19  C   LIG d   1       5.287  -0.557  -4.254  0.00  0.00     0.032 C 
ATOM     20  C   LIG d   1       4.958  -1.829  -3.470  0.00  0.00    -0.038 C 
ATOM     21  C   LIG d   1       3.957  -1.500  -2.360  0.00  0.00    -0.040 C 
ATOM     22  H   LIG d   1       4.523  -2.568  -4.143  0.00  0.00     0.028 H 
ATOM     23  H   LIG d   1       5.869  -2.231  -3.029  0.00  0.00     0.028 H 
ATOM     24  C   LIG d   1       2.676  -0.936  -2.979  0.00  0.00    -0.047 C 
ATOM     25  C   LIG d   1       4.567  -0.462  -1.415  0.00  0.00    -0.047 C 
ATOM     26  H   LIG d   1       3.723  -2.406  -1.802  0.00  0.00     0.030 H 
ATOM     27  C   LIG d   1       3.006   0.337  -3.762  0.00  0.00    -0.040 C 
ATOM     28  H   LIG d   1       1.964  -0.701  -2.187  0.00  0.00     0.027 H 
ATOM     29  H   LIG d   1       2.241  -1.675  -3.651  0.00  0.00     0.027 H 
ATOM     30  C   LIG d   1       4.006   0.007  -4.872  0.00  0.00    -0.038 C 
ATOM     31  C   LIG d   1       3.615   1.374  -2.817  0.00  0.00    -0.047 C 
ATOM     32  H   LIG d   1       2.093   0.738  -4.203  0.00  0.00     0.030 H 
ATOM     33  H   LIG d   1       4.241   0.913  -5.430  0.00  0.00     0.028 H 
ATOM     34  H   LIG d   1       3.572  -0.732  -5.545  0.00  0.00     0.028 H 
ATOM     35  C   LIG d   1       4.896   0.810  -2.198  0.00  0.00    -0.040 C 
ATOM     36  H   LIG d   1       3.850   2.280  -3.375  0.00  0.00     0.027 H 
ATOM     37  H   LIG d   1       2.903   1.609  -2.026  0.00  0.00     0.027 H 
ATOM     38  C   LIG d   1       5.896   0.481  -3.309  0.00  0.00    -0.038 C 
ATOM     39  H   LIG d   1       5.331   1.549  -1.525  0.00  0.00     0.030 H 
ATOM     40  H   LIG d   1       6.809   0.079  -2.868  0.00  0.00     0.028 H 
ATOM     41  H   LIG d   1       6.131   1.387  -3.867  0.00  0.00     0.028 H 
ATOM     42  H   LIG d   1       3.854  -0.228  -0.625  0.00  0.00     0.027 H 
ATOM     43  H   LIG d   1       5.480  -0.864  -0.974  0.00  0.00     0.027 H 
ENDBRANCH  17  19
ENDBRANCH   1  17
BRANCH   1  44
ATOM     44  N   LIG d   1       6.838  -3.117  -6.096  0.00  0.00    -0.334 N 
ATOM     45  H   LIG d   1       7.800  -2.995  -6.060  0.00  0.00     0.147 HD
BRANCH  44  46
ATOM     46  C   LIG d   1       6.289  -4.390  -5.915  0.00  0.00     0.028 A 
ATOM     47  C   LIG d   1       7.120  -5.494  -5.776  0.00  0.00    -0.038 A 
ATOM     48  C   LIG d   1       6.576  -6.750  -5.592  0.00  0.00    -0.025 A 
ATOM     49  H   LIG d   1       8.193  -5.370  -5.809  0.00  0.00     0.064 H 
ATOM     50  C   LIG d   1       5.201  -6.910  -5.556  0.00  0.00     0.123 A 
ATOM     51  H   LIG d   1       7.222  -7.608  -5.481  0.00  0.00     0.065 H 
ATOM     52  C   LIG d   1       4.370  -5.811  -5.698  0.00  0.00    -0.025 A 
ATOM     53  F   LIG d   1       4.669  -8.139  -5.381  0.00  0.00    -0.205 F 
ATOM     54  C   LIG d   1       4.911  -4.553  -5.878  0.00  0.00    -0.038 A 
ATOM     55  H   LIG d   1       3.297  -5.939  -5.669  0.00  0.00     0.065 H 
ATOM     56  H   LIG d   1       4.262  -3.697  -5.988  0.00  0.00     0.064 H 
ENDBRANCH  44  46
ENDBRANCH   1  44
TORSDOF 6
ENDMDL
MODEL 4
REMARK VINA RESULT:      -8.0      3.676      6.433
REMARK  6 active torsions:
REMARK  status: ('A' for Active; 'I' for Inactive)
REMARK    1  A    between atoms: C_6  and  C_7 
REMARK    2  A    between atoms: C_7  and  C_8 
REMARK    3  A    between atoms: C_8  and  C_10 
REMARK    4  A    between atoms: C_8  and  N_22 
REMARK    5  A    between atoms: C_10  and  C_12 
REMARK    6  A    between atoms: N_22  and  C_23 
ROOT
ATOM      1  C   LIG d   1       7.395   0.156  -5.820  0.00  0.00     0.084 C 
ATOM      2  H   LIG d   1       6.879   1.106  -5.680  0.00  0.00     0.058 H 
ENDROOT
BRANCH   1   3
ATOM      3  C   LIG d   1       8.882   0.333  -5.512  0.00  0.00    -0.002 C 
ATOM      4  H   LIG d   1       9.467   0.102  -6.402  0.00  0.00     0.034 H 
ATOM      5  H   LIG d   1       9.169  -0.340  -4.704  0.00  0.00     0.034 H 
BRANCH   3   6
ATOM      6  C   LIG d   1       9.143   1.757  -5.096  0.00  0.00    -0.045 A 
ATOM      7  C   LIG d   1       9.298   2.740  -6.056  0.00  0.00    -0.056 A 
ATOM      8  C   LIG d   1       9.537   4.047  -5.674  0.00  0.00    -0.026 A 
ATOM      9  H   LIG d   1       9.226   2.488  -7.103  0.00  0.00     0.062 H 
ATOM     10  C   LIG d   1       9.622   4.372  -4.332  0.00  0.00     0.123 A 
ATOM     11  H   LIG d   1       9.658   4.815  -6.425  0.00  0.00     0.065 H 
ATOM     12  C   LIG d   1       9.468   3.387  -3.371  0.00  0.00    -0.026 A 
ATOM     13  F   LIG d   1       9.857   5.649  -3.959  0.00  0.00    -0.205 F 
ATOM     14  C   LIG d   1       9.229   2.081  -3.754  0.00  0.00    -0.056 A 
ATOM     15  H   LIG d   1       9.535   3.639  -2.323  0.00  0.00     0.065 H 
ATOM     16  H   LIG d   1       9.109   1.312  -3.005  0.00  0.00     0.062 H 
ENDBRANCH   3   6
ENDBRANCH   1   3
BRANCH   1  17
ATOM     17  C   LIG d   1       6.808  -0.875  -4.890  0.00  0.00     0.160 C 
ATOM     18  O   LIG d   1       7.279  -1.986  -4.847  0.00  0.00    -0.295 OA
BRANCH  17  19
ATOM     19  C   LIG d   1       5.635  -0.519  -4.015  0.00  0.00     0.032 C 
ATOM     20  C   LIG d   1       4.371  -0.419  -4.872  0.00  0.00    -0.038 C 
ATOM     21  C   LIG d   1       3.179  -0.058  -3.982  0.00  0.00    -0.040 C 
ATOM     22  H   LIG d   1       4.505   0.354  -5.629  0.00  0.00     0.028 H 
ATOM     23  H   LIG d   1       4.184  -1.375  -5.358  0.00  0.00     0.028 H 
ATOM     24  C   LIG d   1       3.441   1.286  -3.299  0.00  0.00    -0.047 C 
ATOM     25  C   LIG d   1       2.989  -1.142  -2.919  0.00  0.00    -0.047 C 
ATOM     26  H   LIG d   1       2.279   0.014  -4.592  0.00  0.00     0.030 H 
ATOM     27  C   LIG d   1       4.705   1.185  -2.442  0.00  0.00    -0.040 C 
ATOM     28  H   LIG d   1       2.591   1.543  -2.665  0.00  0.00     0.027 H 
ATOM     29  H   LIG d   1       3.576   2.059  -4.056  0.00  0.00     0.027 H 
ATOM     30  C   LIG d   1       5.896   0.825  -3.332  0.00  0.00    -0.038 C 
ATOM     31  C   LIG d   1       4.514   0.101  -1.379  0.00  0.00    -0.047 C 
ATOM     32  H   LIG d   1       4.891   2.142  -1.955  0.00  0.00     0.030 H 
ATOM     33  H   LIG d   1       6.796   0.752  -2.721  0.00  0.00     0.028 H 
ATOM     34  H   LIG d   1       6.031   1.596  -4.089  0.00  0.00     0.028 H 
ATOM     35  C   LIG d   1       4.253  -1.243  -2.062  0.00  0.00    -0.040 C 
ATOM     36  H   LIG d   1       5.415   0.029  -0.769  0.00  0.00     0.027 H 
ATOM     37  H   LIG d   1       3.666   0.358  -0.745  0.00  0.00     0.027 H 
ATOM     38  C   LIG d   1       5.444  -1.603  -2.952  0.00  0.00    -0.038 C 
ATOM     39  H   LIG d   1       4.117  -2.016  -1.305  0.00  0.00     0.030 H 
ATOM     40  H   LIG d   1       5.258  -2.561  -3.438  0.00  0.00     0.028 H 
ATOM     41  H   LIG d   1       6.345  -1.675  -2.342  0.00  0.00     0.028 H 
ATOM     42  H   LIG d   1       2.141  -0.885  -2.286  0.00  0.00     0.027 H 
ATOM     43  H   LIG d   1       2.803  -2.099  -3.406  0.00  0.00     0.027 H 
ENDBRANCH  17  19
ENDBRANCH   1  17
BRANCH   1  44
ATOM     44  N   LIG d   1       7.232  -0.288  -7.206  0.00  0.00    -0.334 N 
ATOM     45  H   LIG d   1       7.763  -1.025  -7.545  0.00  0.00     0.147 HD
BRANCH  44  46
ATOM     46  C   LIG d   1       6.311   0.351  -8.042  0.00  0.00     0.028 A 
ATOM     47  C   LIG d   1       6.512   1.673  -8.418  0.00  0.00    -0.038 A 
ATOM     48  C   LIG d   1       5.604   2.301  -9.247  0.00  0.00    -0.025 A 
ATOM     49  H   LIG d   1       7.381   2.209  -8.064  0.00  0.00     0.064 H 
ATOM     50  C   LIG d   1       4.487   1.616  -9.696  0.00  0.00     0.123 A 
ATOM     51  H   LIG d   1       5.762   3.327  -9.543  0.00  0.00     0.065 H 
ATOM     52  C   LIG d   1       4.282   0.299  -9.318  0.00  0.00    -0.025 A 
ATOM     53  F   LIG d   1       3.597   2.232 -10.504  0.00  0.00    -0.205 F 
ATOM     54  C   LIG d   1       5.191  -0.333  -8.493  0.00  0.00    -0.038 A 
ATOM     55  H   LIG d   1       3.410  -0.233  -9.670  0.00  0.00     0.065 H 
ATOM     56  H   LIG d   1       5.030  -1.360  -8.199  0.00  0.00     0.064 H 
ENDBRANCH  44  46
ENDBRANCH   1  44
TORSDOF 6
ENDMDL
MODEL 5
REMARK VINA RESULT:      -7.9      3.712      6.323
REMARK  6 active torsions:
REMARK  status: ('A' for Active; 'I' for Inactive)
REMARK    1  A    between atoms: C_6  and  C_7 
REMARK    2  A    between atoms: C_7  and  C_8 
REMARK    3  A    between atoms: C_8  and  C_10 
REMARK    4  A    between atoms: C_8  and  N_22 
REMARK    5  A    between atoms: C_10  and  C_12 
REMARK    6  A    between atoms: N_22  and  C_23 
ROOT
ATOM      1  C   LIG d   1       7.483   0.207  -5.779  0.00  0.00     0.084 C 
ATOM      2  H   LIG d   1       6.952   1.149  -5.643  0.00  0.00     0.058 H 
ENDROOT
BRANCH   1   3
ATOM      3  C   LIG d   1       8.957   0.396  -5.420  0.00  0.00    -0.002 C 
ATOM      4  H   LIG d   1       9.575   0.165  -6.287  0.00  0.00     0.034 H 
ATOM      5  H   LIG d   1       9.221  -0.271  -4.599  0.00  0.00     0.034 H 
BRANCH   3   6
ATOM      6  C   LIG d   1       9.194   1.824  -5.002  0.00  0.00    -0.045 A 
ATOM      7  C   LIG d   1       9.333   2.138  -3.663  0.00  0.00    -0.056 A 
ATOM      8  C   LIG d   1       9.550   3.448  -3.278  0.00  0.00    -0.026 A 
ATOM      9  H   LIG d   1       9.278   1.359  -2.917  0.00  0.00     0.062 H 
ATOM     10  C   LIG d   1       9.627   4.446  -4.235  0.00  0.00     0.123 A 
ATOM     11  H   LIG d   1       9.659   3.693  -2.232  0.00  0.00     0.065 H 
ATOM     12  C   LIG d   1       9.486   4.131  -5.575  0.00  0.00    -0.026 A 
ATOM     13  F   LIG d   1       9.838   5.727  -3.860  0.00  0.00    -0.205 F 
ATOM     14  C   LIG d   1       9.269   2.820  -5.957  0.00  0.00    -0.056 A 
ATOM     15  H   LIG d   1       9.546   4.908  -6.323  0.00  0.00     0.065 H 
ATOM     16  H   LIG d   1       9.160   2.575  -7.004  0.00  0.00     0.062 H 
ENDBRANCH   3   6
ENDBRANCH   1   3
BRANCH   1  17
ATOM     17  C   LIG d   1       6.878  -0.843  -4.883  0.00  0.00     0.160 C 
ATOM     18  O   LIG d   1       7.347  -1.956  -4.856  0.00  0.00    -0.295 OA
BRANCH  17  19
ATOM     19  C   LIG d   1       5.690  -0.505  -4.021  0.00  0.00     0.032 C 
ATOM     20  C   LIG d   1       5.481  -1.611  -2.984  0.00  0.00    -0.038 C 
ATOM     21  C   LIG d   1       4.273  -1.268  -2.108  0.00  0.00    -0.040 C 
ATOM     22  H   LIG d   1       5.301  -2.558  -3.493  0.00  0.00     0.028 H 
ATOM     23  H   LIG d   1       6.369  -1.697  -2.360  0.00  0.00     0.028 H 
ATOM     24  C   LIG d   1       3.025  -1.147  -2.986  0.00  0.00    -0.047 C 
ATOM     25  C   LIG d   1       4.524   0.061  -1.393  0.00  0.00    -0.047 C 
ATOM     26  H   LIG d   1       4.124  -2.055  -1.371  0.00  0.00     0.030 H 
ATOM     27  C   LIG d   1       3.235  -0.041  -4.022  0.00  0.00    -0.040 C 
ATOM     28  H   LIG d   1       2.165  -0.902  -2.361  0.00  0.00     0.027 H 
ATOM     29  H   LIG d   1       2.846  -2.094  -3.495  0.00  0.00     0.027 H 
ATOM     30  C   LIG d   1       4.441  -0.385  -4.898  0.00  0.00    -0.038 C 
ATOM     31  C   LIG d   1       3.485   1.288  -3.306  0.00  0.00    -0.047 C 
ATOM     32  H   LIG d   1       2.345   0.045  -4.646  0.00  0.00     0.030 H 
ATOM     33  H   LIG d   1       4.591   0.403  -5.635  0.00  0.00     0.028 H 
ATOM     34  H   LIG d   1       4.263  -1.331  -5.407  0.00  0.00     0.028 H 
ATOM     35  C   LIG d   1       4.734   1.168  -2.429  0.00  0.00    -0.040 C 
ATOM     36  H   LIG d   1       3.634   2.075  -4.044  0.00  0.00     0.027 H 
ATOM     37  H   LIG d   1       2.625   1.532  -2.683  0.00  0.00     0.027 H 
ATOM     38  C   LIG d   1       5.940   0.823  -3.305  0.00  0.00    -0.038 C 
ATOM     39  H   LIG d   1       4.912   2.114  -1.919  0.00  0.00     0.030 H 
ATOM     40  H   LIG d   1       6.830   0.738  -2.680  0.00  0.00     0.028 H 
ATOM     41  H   LIG d   1       6.089   1.611  -4.043  0.00  0.00     0.028 H 
ATOM     42  H   LIG d   1       3.664   0.306  -0.770  0.00  0.00     0.027 H 
ATOM     43  H   LIG d   1       5.413  -0.024  -0.769  0.00  0.00     0.027 H 
ENDBRANCH  17  19
ENDBRANCH   1  17
BRANCH   1  44
ATOM     44  N   LIG d   1       7.371  -0.219  -7.175  0.00  0.00    -0.334 N 
ATOM     45  H   LIG d   1       7.945  -0.923  -7.515  0.00  0.00     0.147 HD
BRANCH  44  46
ATOM     46  C   LIG d   1       6.436   0.388  -8.019  0.00  0.00     0.028 A 
ATOM     47  C   LIG d   1       5.343  -0.335  -8.481  0.00  0.00    -0.038 A 
ATOM     48  C   LIG d   1       4.418   0.268  -9.311  0.00  0.00    -0.025 A 
ATOM     49  H   LIG d   1       5.215  -1.367  -8.189  0.00  0.00     0.064 H 
ATOM     50  C   LIG d   1       4.586   1.589  -9.691  0.00  0.00     0.123 A 
ATOM     51  H   LIG d   1       3.567  -0.292  -9.667  0.00  0.00     0.065 H 
ATOM     52  C   LIG d   1       5.677   2.310  -9.235  0.00  0.00    -0.025 A 
ATOM     53  F   LIG d   1       3.683   2.176 -10.506  0.00  0.00    -0.205 F 
ATOM     54  C   LIG d   1       6.601   1.712  -8.401  0.00  0.00    -0.038 A 
ATOM     55  H   LIG d   1       5.805   3.341  -9.532  0.00  0.00     0.065 H 
ATOM     56  H   LIG d   1       7.451   2.275  -8.046  0.00  0.00     0.064 H 
ENDBRANCH  44  46
ENDBRANCH   1  44
TORSDOF 6
ENDMDL
MODEL 6
REMARK VINA RESULT:      -7.8      3.386      5.349
REMARK  6 active torsions:
REMARK  status: ('A' for Active; 'I' for Inactive)
REMARK    1  A    between atoms: C_6  and  C_7 
REMARK    2  A    between atoms: C_7  and  C_8 
REMARK    3  A    between atoms: C_8  and  C_10 
REMARK    4  A    between atoms: C_8  and  N_22 
REMARK    5  A    between atoms: C_10  and  C_12 
REMARK    6  A    between atoms: N_22  and  C_23 
ROOT
ATOM      1  C   LIG d   1       7.604  -2.242  -4.728  0.00  0.00     0.084 C 
ATOM      2  H   LIG d   1       7.130  -2.820  -3.935  0.00  0.00     0.058 H 
ENDROOT
BRANCH   1   3
ATOM      3  C   LIG d   1       7.337  -2.912  -6.077  0.00  0.00    -0.002 C 
ATOM      4  H   LIG d   1       8.284  -3.113  -6.577  0.00  0.00     0.034 H 
ATOM      5  H   LIG d   1       6.732  -2.251  -6.698  0.00  0.00     0.034 H 
BRANCH   3   6
ATOM      6  C   LIG d   1       6.600  -4.208  -5.857  0.00  0.00    -0.045 A 
ATOM      7  C   LIG d   1       7.293  -5.405  -5.862  0.00  0.00    -0.056 A 
ATOM      8  C   LIG d   1       6.618  -6.595  -5.661  0.00  0.00    -0.026 A 
ATOM      9  H   LIG d   1       8.361  -5.410  -6.018  0.00  0.00     0.062 H 
ATOM     10  C   LIG d   1       5.249  -6.587  -5.454  0.00  0.00     0.123 A 
ATOM     11  H   LIG d   1       7.159  -7.530  -5.665  0.00  0.00     0.065 H 
ATOM     12  C   LIG d   1       4.557  -5.388  -5.450  0.00  0.00    -0.026 A 
ATOM     13  F   LIG d   1       4.589  -7.750  -5.258  0.00  0.00    -0.205 F 
ATOM     14  C   LIG d   1       5.234  -4.200  -5.652  0.00  0.00    -0.056 A 
ATOM     15  H   LIG d   1       3.489  -5.381  -5.289  0.00  0.00     0.065 H 
ATOM     16  H   LIG d   1       4.693  -3.265  -5.649  0.00  0.00     0.062 H 
ENDBRANCH   3   6
ENDBRANCH   1   3
BRANCH   1  17
ATOM     17  C   LIG d   1       7.037  -0.846  -4.739  0.00  0.00     0.160 C 
ATOM     18  O   LIG d   1       7.578   0.021  -5.383  0.00  0.00    -0.295 OA
BRANCH  17  19
ATOM     19  C   LIG d   1       5.794  -0.531  -3.948  0.00  0.00     0.032 C 
ATOM     20  C   LIG d   1       4.586  -0.496  -4.887  0.00  0.00    -0.038 C 
ATOM     21  C   LIG d   1       3.323  -0.176  -4.083  0.00  0.00    -0.040 C 
ATOM     22  H   LIG d   1       4.738   0.272  -5.646  0.00  0.00     0.028 H 
ATOM     23  H   LIG d   1       4.473  -1.466  -5.371  0.00  0.00     0.028 H 
ATOM     24  C   LIG d   1       3.483   1.186  -3.405  0.00  0.00    -0.047 C 
ATOM     25  C   LIG d   1       3.110  -1.254  -3.019  0.00  0.00    -0.047 C 
ATOM     26  H   LIG d   1       2.464  -0.151  -4.752  0.00  0.00     0.030 H 
ATOM     27  C   LIG d   1       4.690   1.150  -2.466  0.00  0.00    -0.040 C 
ATOM     28  H   LIG d   1       2.583   1.413  -2.832  0.00  0.00     0.027 H 
ATOM     29  H   LIG d   1       3.634   1.955  -4.163  0.00  0.00     0.027 H 
ATOM     30  C   LIG d   1       5.952   0.831  -3.270  0.00  0.00    -0.038 C 
ATOM     31  C   LIG d   1       4.476   0.072  -1.401  0.00  0.00    -0.047 C 
ATOM     32  H   LIG d   1       4.803   2.121  -1.982  0.00  0.00     0.030 H 
ATOM     33  H   LIG d   1       6.812   0.805  -2.601  0.00  0.00     0.028 H 
ATOM     34  H   LIG d   1       6.104   1.598  -4.028  0.00  0.00     0.028 H 
ATOM     35  C   LIG d   1       4.318  -1.290  -2.079  0.00  0.00    -0.040 C 
ATOM     36  H   LIG d   1       5.336   0.047  -0.732  0.00  0.00     0.027 H 
ATOM     37  H   LIG d   1       3.577   0.300  -0.829  0.00  0.00     0.027 H 
ATOM     38  C   LIG d   1       5.580  -1.609  -2.884  0.00  0.00    -0.038 C 
ATOM     39  H   LIG d   1       4.165  -2.058  -1.321  0.00  0.00     0.030 H 
ATOM     40  H   LIG d   1       5.467  -2.580  -3.367  0.00  0.00     0.028 H 
ATOM     41  H   LIG d   1       6.440  -1.635  -2.215  0.00  0.00     0.028 H 
ATOM     42  H   LIG d   1       2.212  -1.026  -2.447  0.00  0.00     0.027 H 
ATOM     43  H   LIG d   1       2.997  -2.225  -3.502  0.00  0.00     0.027 H 
ENDBRANCH  17  19
ENDBRANCH   1  17
BRANCH   1  44
ATOM     44  N   LIG d   1       9.047  -2.181  -4.490  0.00  0.00    -0.334 N 
ATOM     45  H   LIG d   1       9.539  -1.371  -4.698  0.00  0.00     0.147 HD
BRANCH  44  46
ATOM     46  C   LIG d   1       9.718  -3.289  -3.964  0.00  0.00     0.028 A 
ATOM     47  C   LIG d   1       9.151  -4.019  -2.928  0.00  0.00    -0.038 A 
ATOM     48  C   LIG d   1       9.813  -5.116  -2.413  0.00  0.00    -0.025 A 
ATOM     49  H   LIG d   1       8.191  -3.729  -2.526  0.00  0.00     0.064 H 
ATOM     50  C   LIG d   1      11.047  -5.483  -2.923  0.00  0.00     0.123 A 
ATOM     51  H   LIG d   1       9.370  -5.685  -1.609  0.00  0.00     0.065 H 
ATOM     52  C   LIG d   1      11.616  -4.754  -3.954  0.00  0.00    -0.025 A 
ATOM     53  F   LIG d   1      11.695  -6.554  -2.415  0.00  0.00    -0.205 F 
ATOM     54  C   LIG d   1      10.955  -3.659  -4.474  0.00  0.00    -0.038 A 
ATOM     55  H   LIG d   1      12.579  -5.043  -4.351  0.00  0.00     0.065 H 
ATOM     56  H   LIG d   1      11.400  -3.092  -5.279  0.00  0.00     0.064 H 
ENDBRANCH  44  46
ENDBRANCH   1  44
TORSDOF 6
ENDMDL
MODEL 7
REMARK VINA RESULT:      -7.8      1.773      2.744
REMARK  6 active torsions:
REMARK  status: ('A' for Active; 'I' for Inactive)
REMARK    1  A    between atoms: C_6  and  C_7 
REMARK    2  A    between atoms: C_7  and  C_8 
REMARK    3  A    between atoms: C_8  and  C_10 
REMARK    4  A    between atoms: C_8  and  N_22 
REMARK    5  A    between atoms: C_10  and  C_12 
REMARK    6  A    between atoms: N_22  and  C_23 
ROOT
ATOM      1  C   LIG d   1       6.320  -0.666  -6.498  0.00  0.00     0.084 C 
ATOM      2  H   LIG d   1       5.505  -1.386  -6.415  0.00  0.00     0.058 H 
ENDROOT
BRANCH   1   3
ATOM      3  C   LIG d   1       6.061   0.262  -7.686  0.00  0.00    -0.002 C 
ATOM      4  H   LIG d   1       6.793   0.062  -8.469  0.00  0.00     0.034 H 
ATOM      5  H   LIG d   1       6.149   1.299  -7.364  0.00  0.00     0.034 H 
BRANCH   3   6
ATOM      6  C   LIG d   1       4.674   0.018  -8.222  0.00  0.00    -0.045 A 
ATOM      7  C   LIG d   1       3.885   1.086  -8.608  0.00  0.00    -0.056 A 
ATOM      8  C   LIG d   1       2.612   0.863  -9.099  0.00  0.00    -0.026 A 
ATOM      9  H   LIG d   1       4.265   2.093  -8.531  0.00  0.00     0.062 H 
ATOM     10  C   LIG d   1       2.128  -0.429  -9.204  0.00  0.00     0.123 A 
ATOM     11  H   LIG d   1       1.996   1.698  -9.401  0.00  0.00     0.065 H 
ATOM     12  C   LIG d   1       2.918  -1.497  -8.816  0.00  0.00    -0.026 A 
ATOM     13  F   LIG d   1       0.883  -0.647  -9.683  0.00  0.00    -0.205 F 
ATOM     14  C   LIG d   1       4.190  -1.273  -8.325  0.00  0.00    -0.056 A 
ATOM     15  H   LIG d   1       2.541  -2.506  -8.897  0.00  0.00     0.065 H 
ATOM     16  H   LIG d   1       4.806  -2.107  -8.023  0.00  0.00     0.062 H 
ENDBRANCH   3   6
ENDBRANCH   1   3
BRANCH   1  17
ATOM     17  C   LIG d   1       6.401   0.148  -5.233  0.00  0.00     0.160 C 
ATOM     18  O   LIG d   1       7.284   0.960  -5.093  0.00  0.00    -0.295 OA
BRANCH  17  19
ATOM     19  C   LIG d   1       5.380  -0.050  -4.142  0.00  0.00     0.032 C 
ATOM     20  C   LIG d   1       3.983   0.243  -4.692  0.00  0.00    -0.038 C 
ATOM     21  C   LIG d   1       2.946   0.042  -3.584  0.00  0.00    -0.040 C 
ATOM     22  H   LIG d   1       3.939   1.273  -5.047  0.00  0.00     0.028 H 
ATOM     23  H   LIG d   1       3.767  -0.435  -5.518  0.00  0.00     0.028 H 
ATOM     24  C   LIG d   1       3.248   0.994  -2.425  0.00  0.00    -0.047 C 
ATOM     25  C   LIG d   1       3.006  -1.404  -3.086  0.00  0.00    -0.047 C 
ATOM     26  H   LIG d   1       1.951   0.250  -3.976  0.00  0.00     0.030 H 
ATOM     27  C   LIG d   1       4.646   0.700  -1.875  0.00  0.00    -0.040 C 
ATOM     28  H   LIG d   1       2.509   0.850  -1.636  0.00  0.00     0.027 H 
ATOM     29  H   LIG d   1       3.205   2.024  -2.779  0.00  0.00     0.027 H 
ATOM     30  C   LIG d   1       5.682   0.902  -2.983  0.00  0.00    -0.038 C 
ATOM     31  C   LIG d   1       4.705  -0.745  -1.377  0.00  0.00    -0.047 C 
ATOM     32  H   LIG d   1       4.860   1.379  -1.049  0.00  0.00     0.030 H 
ATOM     33  H   LIG d   1       6.677   0.693  -2.592  0.00  0.00     0.028 H 
ATOM     34  H   LIG d   1       5.639   1.931  -3.338  0.00  0.00     0.028 H 
ATOM     35  C   LIG d   1       4.403  -1.697  -2.536  0.00  0.00    -0.040 C 
ATOM     36  H   LIG d   1       5.701  -0.953  -0.986  0.00  0.00     0.027 H 
ATOM     37  H   LIG d   1       3.967  -0.888  -0.588  0.00  0.00     0.027 H 
ATOM     38  C   LIG d   1       5.439  -1.495  -3.644  0.00  0.00    -0.038 C 
ATOM     39  H   LIG d   1       4.446  -2.727  -2.182  0.00  0.00     0.030 H 
ATOM     40  H   LIG d   1       5.225  -2.173  -4.470  0.00  0.00     0.028 H 
ATOM     41  H   LIG d   1       6.435  -1.704  -3.253  0.00  0.00     0.028 H 
ATOM     42  H   LIG d   1       2.268  -1.547  -2.297  0.00  0.00     0.027 H 
ATOM     43  H   LIG d   1       2.791  -2.082  -3.912  0.00  0.00     0.027 H 
ENDBRANCH  17  19
ENDBRANCH   1  17
BRANCH   1  44
ATOM     44  N   LIG d   1       7.582  -1.380  -6.702  0.00  0.00    -0.334 N 
ATOM     45  H   LIG d   1       8.199  -1.088  -7.391  0.00  0.00     0.147 HD
BRANCH  44  46
ATOM     46  C   LIG d   1       7.899  -2.483  -5.902  0.00  0.00     0.028 A 
ATOM     47  C   LIG d   1       8.958  -2.412  -5.007  0.00  0.00    -0.038 A 
ATOM     48  C   LIG d   1       9.267  -3.501  -4.216  0.00  0.00    -0.025 A 
ATOM     49  H   LIG d   1       9.539  -1.505  -4.928  0.00  0.00     0.064 H 
ATOM     50  C   LIG d   1       8.526  -4.666  -4.321  0.00  0.00     0.123 A 
ATOM     51  H   LIG d   1      10.088  -3.445  -3.517  0.00  0.00     0.065 H 
ATOM     52  C   LIG d   1       7.472  -4.741  -5.216  0.00  0.00    -0.025 A 
ATOM     53  F   LIG d   1       8.832  -5.732  -3.549  0.00  0.00    -0.205 F 
ATOM     54  C   LIG d   1       7.158  -3.652  -6.006  0.00  0.00    -0.038 A 
ATOM     55  H   LIG d   1       6.895  -5.651  -5.296  0.00  0.00     0.065 H 
ATOM     56  H   LIG d   1       6.335  -3.711  -6.703  0.00  0.00     0.064 H 
ENDBRANCH  44  46
ENDBRANCH   1  44
TORSDOF 6
ENDMDL
MODEL 8
REMARK VINA RESULT:      -7.7      1.698      2.422
REMARK  6 active torsions:
REMARK  status: ('A' for Active; 'I' for Inactive)
REMARK    1  A    between atoms: C_6  and  C_7 
REMARK    2  A    between atoms: C_7  and  C_8 
REMARK    3  A    between atoms: C_8  and  C_10 
REMARK    4  A    between atoms: C_8  and  N_22 
REMARK    5  A    between atoms: C_10  and  C_12 
REMARK    6  A    between atoms: N_22  and  C_23 
ROOT
ATOM      1  C   LIG d   1       6.342  -0.767  -6.509  0.00  0.00     0.084 C 
ATOM      2  H   LIG d   1       5.504  -1.460  -6.430  0.00  0.00     0.058 H 
ENDROOT
BRANCH   1   3
ATOM      3  C   LIG d   1       6.094   0.206  -7.662  0.00  0.00    -0.002 C 
ATOM      4  H   LIG d   1       6.826   0.029  -8.451  0.00  0.00     0.034 H 
ATOM      5  H   LIG d   1       6.190   1.230  -7.301  0.00  0.00     0.034 H 
BRANCH   3   6
ATOM      6  C   LIG d   1       4.706  -0.006  -8.209  0.00  0.00    -0.045 A 
ATOM      7  C   LIG d   1       4.175  -1.281  -8.269  0.00  0.00    -0.056 A 
ATOM      8  C   LIG d   1       2.901  -1.477  -8.770  0.00  0.00    -0.026 A 
ATOM      9  H   LIG d   1       4.753  -2.124  -7.920  0.00  0.00     0.062 H 
ATOM     10  C   LIG d   1       2.158  -0.396  -9.212  0.00  0.00     0.123 A 
ATOM     11  H   LIG d   1       2.487  -2.473  -8.817  0.00  0.00     0.065 H 
ATOM     12  C   LIG d   1       2.691   0.880  -9.152  0.00  0.00    -0.026 A 
ATOM     13  F   LIG d   1       0.914  -0.587  -9.703  0.00  0.00    -0.205 F 
ATOM     14  C   LIG d   1       3.965   1.074  -8.650  0.00  0.00    -0.056 A 
ATOM     15  H   LIG d   1       2.113   1.725  -9.496  0.00  0.00     0.065 H 
ATOM     16  H   LIG d   1       4.380   2.070  -8.604  0.00  0.00     0.062 H 
ENDBRANCH   3   6
ENDBRANCH   1   3
BRANCH   1  17
ATOM     17  C   LIG d   1       6.478   0.004  -5.221  0.00  0.00     0.160 C 
ATOM     18  O   LIG d   1       7.426   0.732  -5.051  0.00  0.00    -0.295 OA
BRANCH  17  19
ATOM     19  C   LIG d   1       5.431  -0.134  -4.146  0.00  0.00     0.032 C 
ATOM     20  C   LIG d   1       5.404  -1.578  -3.643  0.00  0.00    -0.038 C 
ATOM     21  C   LIG d   1       4.340  -1.718  -2.551  0.00  0.00    -0.040 C 
ATOM     22  H   LIG d   1       5.164  -2.247  -4.469  0.00  0.00     0.028 H 
ATOM     23  H   LIG d   1       6.379  -1.840  -3.235  0.00  0.00     0.028 H 
ATOM     24  C   LIG d   1       2.970  -1.350  -3.124  0.00  0.00    -0.047 C 
ATOM     25  C   LIG d   1       4.676  -0.779  -1.390  0.00  0.00    -0.047 C 
ATOM     26  H   LIG d   1       4.320  -2.746  -2.192  0.00  0.00     0.030 H 
ATOM     27  C   LIG d   1       2.998   0.095  -3.627  0.00  0.00    -0.040 C 
ATOM     28  H   LIG d   1       2.213  -1.449  -2.345  0.00  0.00     0.027 H 
ATOM     29  H   LIG d   1       2.730  -2.019  -3.951  0.00  0.00     0.027 H 
ATOM     30  C   LIG d   1       4.061   0.233  -4.719  0.00  0.00    -0.038 C 
ATOM     31  C   LIG d   1       3.333   1.033  -2.466  0.00  0.00    -0.047 C 
ATOM     32  H   LIG d   1       2.021   0.356  -4.035  0.00  0.00     0.030 H 
ATOM     33  H   LIG d   1       4.081   1.262  -5.077  0.00  0.00     0.028 H 
ATOM     34  H   LIG d   1       3.822  -0.435  -5.546  0.00  0.00     0.028 H 
ATOM     35  C   LIG d   1       4.704   0.666  -1.893  0.00  0.00    -0.040 C 
ATOM     36  H   LIG d   1       3.353   2.062  -2.825  0.00  0.00     0.027 H 
ATOM     37  H   LIG d   1       2.576   0.934  -1.689  0.00  0.00     0.027 H 
ATOM     38  C   LIG d   1       5.766   0.804  -2.985  0.00  0.00    -0.038 C 
ATOM     39  H   LIG d   1       4.943   1.334  -1.066  0.00  0.00     0.030 H 
ATOM     40  H   LIG d   1       6.743   0.543  -2.577  0.00  0.00     0.028 H 
ATOM     41  H   LIG d   1       5.787   1.833  -3.344  0.00  0.00     0.028 H 
ATOM     42  H   LIG d   1       3.918  -0.878  -0.613  0.00  0.00     0.027 H 
ATOM     43  H   LIG d   1       5.652  -1.040  -0.982  0.00  0.00     0.027 H 
ENDBRANCH  17  19
ENDBRANCH   1  17
BRANCH   1  44
ATOM     44  N   LIG d   1       7.573  -1.519  -6.760  0.00  0.00    -0.334 N 
ATOM     45  H   LIG d   1       8.183  -1.233  -7.459  0.00  0.00     0.147 HD
BRANCH  44  46
ATOM     46  C   LIG d   1       7.872  -2.650  -5.994  0.00  0.00     0.028 A 
ATOM     47  C   LIG d   1       7.060  -3.774  -6.066  0.00  0.00    -0.038 A 
ATOM     48  C   LIG d   1       7.359  -4.891  -5.312  0.00  0.00    -0.025 A 
ATOM     49  H   LIG d   1       6.196  -3.776  -6.714  0.00  0.00     0.064 H 
ATOM     50  C   LIG d   1       8.463  -4.887  -4.476  0.00  0.00     0.123 A 
ATOM     51  H   LIG d   1       6.730  -5.767  -5.370  0.00  0.00     0.065 H 
ATOM     52  C   LIG d   1       9.272  -3.766  -4.399  0.00  0.00    -0.025 A 
ATOM     53  F   LIG d   1       8.752  -5.979  -3.735  0.00  0.00    -0.205 F 
ATOM     54  C   LIG d   1       8.978  -2.648  -5.155  0.00  0.00    -0.038 A 
ATOM     55  H   LIG d   1      10.133  -3.765  -3.746  0.00  0.00     0.065 H 
ATOM     56  H   LIG d   1       9.610  -1.774  -5.095  0.00  0.00     0.064 H 
ENDBRANCH  44  46
ENDBRANCH   1  44
TORSDOF 6
ENDMDL
MODEL 9
REMARK VINA RESULT:      -7.7      3.432      6.265
REMARK  6 active torsions:
REMARK  status: ('A' for Active; 'I' for Inactive)
REMARK    1  A    between atoms: C_6  and  C_7 
REMARK    2  A    between atoms: C_7  and  C_8 
REMARK    3  A    between atoms: C_8  and  C_10 
REMARK    4  A    between atoms: C_8  and  N_22 
REMARK    5  A    between atoms: C_10  and  C_12 
REMARK    6  A    between atoms: N_22  and  C_23 
ROOT
ATOM      1  C   LIG d   1       6.925  -0.466  -6.288  0.00  0.00     0.084 C 
ATOM      2  H   LIG d   1       6.606   0.543  -6.027  0.00  0.00     0.058 H 
ENDROOT
BRANCH   1   3
ATOM      3  C   LIG d   1       8.449  -0.560  -6.190  0.00  0.00    -0.002 C 
ATOM      4  H   LIG d   1       8.870  -0.667  -7.190  0.00  0.00     0.034 H 
ATOM      5  H   LIG d   1       8.722  -1.425  -5.586  0.00  0.00     0.034 H 
BRANCH   3   6
ATOM      6  C   LIG d   1       8.989   0.692  -5.549  0.00  0.00    -0.045 A 
ATOM      7  C   LIG d   1       8.189   1.813  -5.442  0.00  0.00    -0.056 A 
ATOM      8  C   LIG d   1       8.684   2.962  -4.853  0.00  0.00    -0.026 A 
ATOM      9  H   LIG d   1       7.175   1.791  -5.812  0.00  0.00     0.062 H 
ATOM     10  C   LIG d   1       9.981   2.989  -4.372  0.00  0.00     0.123 A 
ATOM     11  H   LIG d   1       8.058   3.839  -4.769  0.00  0.00     0.065 H 
ATOM     12  C   LIG d   1      10.782   1.866  -4.481  0.00  0.00    -0.026 A 
ATOM     13  F   LIG d   1      10.466   4.112  -3.798  0.00  0.00    -0.205 F 
ATOM     14  C   LIG d   1      10.285   0.718  -5.070  0.00  0.00    -0.056 A 
ATOM     15  H   LIG d   1      11.795   1.885  -4.106  0.00  0.00     0.065 H 
ATOM     16  H   LIG d   1      10.911  -0.159  -5.154  0.00  0.00     0.062 H 
ENDBRANCH   3   6
ENDBRANCH   1   3
BRANCH   1  17
ATOM     17  C   LIG d   1       6.299  -1.453  -5.336  0.00  0.00     0.160 C 
ATOM     18  O   LIG d   1       6.576  -2.626  -5.413  0.00  0.00    -0.295 OA
BRANCH  17  19
ATOM     19  C   LIG d   1       5.328  -0.976  -4.287  0.00  0.00     0.032 C 
ATOM     20  C   LIG d   1       4.142  -0.288  -4.966  0.00  0.00    -0.038 C 
ATOM     21  C   LIG d   1       3.155   0.196  -3.901  0.00  0.00    -0.040 C 
ATOM     22  H   LIG d   1       4.498   0.565  -5.545  0.00  0.00     0.028 H 
ATOM     23  H   LIG d   1       3.642  -0.993  -5.630  0.00  0.00     0.028 H 
ATOM     24  C   LIG d   1       3.856   1.188  -2.970  0.00  0.00    -0.047 C 
ATOM     25  C   LIG d   1       2.654  -1.000  -3.089  0.00  0.00    -0.047 C 
ATOM     26  H   LIG d   1       2.310   0.686  -4.384  0.00  0.00     0.030 H 
ATOM     27  C   LIG d   1       5.041   0.499  -2.291  0.00  0.00    -0.040 C 
ATOM     28  H   LIG d   1       3.152   1.532  -2.211  0.00  0.00     0.027 H 
ATOM     29  H   LIG d   1       4.212   2.040  -3.548  0.00  0.00     0.027 H 
ATOM     30  C   LIG d   1       6.028   0.016  -3.356  0.00  0.00    -0.038 C 
ATOM     31  C   LIG d   1       4.540  -0.697  -1.479  0.00  0.00    -0.047 C 
ATOM     32  H   LIG d   1       5.540   1.205  -1.627  0.00  0.00     0.030 H 
ATOM     33  H   LIG d   1       6.873  -0.475  -2.873  0.00  0.00     0.028 H 
ATOM     34  H   LIG d   1       6.385   0.867  -3.935  0.00  0.00     0.028 H 
ATOM     35  C   LIG d   1       3.840  -1.689  -2.410  0.00  0.00    -0.040 C 
ATOM     36  H   LIG d   1       5.385  -1.187  -0.996  0.00  0.00     0.027 H 
ATOM     37  H   LIG d   1       3.838  -0.352  -0.720  0.00  0.00     0.027 H 
ATOM     38  C   LIG d   1       4.826  -2.172  -3.475  0.00  0.00    -0.038 C 
ATOM     39  H   LIG d   1       3.483  -2.541  -1.832  0.00  0.00     0.030 H 
ATOM     40  H   LIG d   1       4.327  -2.878  -4.139  0.00  0.00     0.028 H 
ATOM     41  H   LIG d   1       5.671  -2.662  -2.992  0.00  0.00     0.028 H 
ATOM     42  H   LIG d   1       1.952  -0.655  -2.331  0.00  0.00     0.027 H 
ATOM     43  H   LIG d   1       2.155  -1.706  -3.753  0.00  0.00     0.027 H 
ENDBRANCH  17  19
ENDBRANCH   1  17
BRANCH   1  44
ATOM     44  N   LIG d   1       6.503  -0.773  -7.656  0.00  0.00    -0.334 N 
ATOM     45  H   LIG d   1       6.779  -1.603  -8.074  0.00  0.00     0.147 HD
BRANCH  44  46
ATOM     46  C   LIG d   1       5.702   0.131  -8.360  0.00  0.00     0.028 A 
ATOM     47  C   LIG d   1       6.121   1.444  -8.535  0.00  0.00    -0.038 A 
ATOM     48  C   LIG d   1       5.330   2.334  -9.235  0.00  0.00    -0.025 A 
ATOM     49  H   LIG d   1       7.067   1.768  -8.125  0.00  0.00     0.064 H 
ATOM     50  C   LIG d   1       4.115   1.920  -9.754  0.00  0.00     0.123 A 
ATOM     51  H   LIG d   1       5.658   3.353  -9.374  0.00  0.00     0.065 H 
ATOM     52  C   LIG d   1       3.693   0.613  -9.577  0.00  0.00    -0.025 A 
ATOM     53  F   LIG d   1       3.341   2.793 -10.435  0.00  0.00    -0.205 F 
ATOM     54  C   LIG d   1       4.484  -0.281  -8.882  0.00  0.00    -0.038 A 
ATOM     55  H   LIG d   1       2.744   0.293  -9.984  0.00  0.00     0.065 H 
ATOM     56  H   LIG d   1       4.153  -1.300  -8.746  0.00  0.00     0.064 H 
ENDBRANCH  44  46
ENDBRANCH   1  44
TORSDOF 6
ENDMDL
MODEL 10
REMARK VINA RESULT:      -7.6      3.297      5.481
REMARK  6 active torsions:
REMARK  status: ('A' for Active; 'I' for Inactive)
REMARK    1  A    between atoms: C_6  and  C_7 
REMARK    2  A    between atoms: C_7  and  C_8 
REMARK    3  A    between atoms: C_8  and  C_10 
REMARK    4  A    between atoms: C_8  and  N_22 
REMARK    5  A    between atoms: C_10  and  C_12 
REMARK    6  A    between atoms: N_22  and  C_23 
ROOT
ATOM      1  C   LIG d   1       6.674  -0.046  -6.382  0.00  0.00     0.084 C 
ATOM      2  H   LIG d   1       6.234   0.918  -6.126  0.00  0.00     0.058 H 
ENDROOT
BRANCH   1   3
ATOM      3  C   LIG d   1       8.188   0.014  -6.177  0.00  0.00    -0.002 C 
ATOM      4  H   LIG d   1       8.688  -0.456  -7.024  0.00  0.00     0.034 H 
ATOM      5  H   LIG d   1       8.453  -0.514  -5.261  0.00  0.00     0.034 H 
BRANCH   3   6
ATOM      6  C   LIG d   1       8.625   1.452  -6.072  0.00  0.00    -0.045 A 
ATOM      7  C   LIG d   1       9.091   2.116  -7.192  0.00  0.00    -0.056 A 
ATOM      8  C   LIG d   1       9.491   3.436  -7.096  0.00  0.00    -0.026 A 
ATOM      9  H   LIG d   1       9.137   1.606  -8.142  0.00  0.00     0.062 H 
ATOM     10  C   LIG d   1       9.426   4.092  -5.879  0.00  0.00     0.123 A 
ATOM     11  H   LIG d   1       9.855   3.955  -7.971  0.00  0.00     0.065 H 
ATOM     12  C   LIG d   1       8.960   3.426  -4.758  0.00  0.00    -0.026 A 
ATOM     13  F   LIG d   1       9.818   5.382  -5.785  0.00  0.00    -0.205 F 
ATOM     14  C   LIG d   1       8.560   2.107  -4.856  0.00  0.00    -0.056 A 
ATOM     15  H   LIG d   1       8.909   3.937  -3.808  0.00  0.00     0.065 H 
ATOM     16  H   LIG d   1       8.196   1.587  -3.982  0.00  0.00     0.062 H 
ENDBRANCH   3   6
ENDBRANCH   1   3
BRANCH   1  17
ATOM     17  C   LIG d   1       6.089  -1.115  -5.496  0.00  0.00     0.160 C 
ATOM     18  O   LIG d   1       6.370  -2.275  -5.682  0.00  0.00    -0.295 OA
BRANCH  17  19
ATOM     19  C   LIG d   1       5.153  -0.738  -4.376  0.00  0.00     0.032 C 
ATOM     20  C   LIG d   1       5.858   0.234  -3.428  0.00  0.00    -0.038 C 
ATOM     21  C   LIG d   1       4.907   0.617  -2.291  0.00  0.00    -0.040 C 
ATOM     22  H   LIG d   1       6.746  -0.243  -3.013  0.00  0.00     0.028 H 
ATOM     23  H   LIG d   1       6.149   1.130  -3.975  0.00  0.00     0.028 H 
ATOM     24  C   LIG d   1       4.499  -0.642  -1.522  0.00  0.00    -0.047 C 
ATOM     25  C   LIG d   1       3.661   1.286  -2.873  0.00  0.00    -0.047 C 
ATOM     26  H   LIG d   1       5.409   1.309  -1.616  0.00  0.00     0.030 H 
ATOM     27  C   LIG d   1       3.794  -1.613  -2.471  0.00  0.00    -0.040 C 
ATOM     28  H   LIG d   1       3.822  -0.368  -0.712  0.00  0.00     0.027 H 
ATOM     29  H   LIG d   1       5.388  -1.118  -1.107  0.00  0.00     0.027 H 
ATOM     30  C   LIG d   1       4.745  -1.996  -3.607  0.00  0.00    -0.038 C 
ATOM     31  C   LIG d   1       2.547  -0.944  -3.052  0.00  0.00    -0.047 C 
ATOM     32  H   LIG d   1       3.504  -2.509  -1.923  0.00  0.00     0.030 H 
ATOM     33  H   LIG d   1       4.243  -2.688  -4.284  0.00  0.00     0.028 H 
ATOM     34  H   LIG d   1       5.633  -2.472  -3.193  0.00  0.00     0.028 H 
ATOM     35  C   LIG d   1       2.955   0.315  -3.822  0.00  0.00    -0.040 C 
ATOM     36  H   LIG d   1       2.045  -1.636  -3.728  0.00  0.00     0.027 H 
ATOM     37  H   LIG d   1       1.870  -0.671  -2.243  0.00  0.00     0.027 H 
ATOM     38  C   LIG d   1       3.906  -0.069  -4.958  0.00  0.00    -0.038 C 
ATOM     39  H   LIG d   1       2.067   0.792  -4.236  0.00  0.00     0.030 H 
ATOM     40  H   LIG d   1       4.197   0.828  -5.506  0.00  0.00     0.028 H 
ATOM     41  H   LIG d   1       3.405  -0.761  -5.634  0.00  0.00     0.028 H 
ATOM     42  H   LIG d   1       2.984   1.558  -2.063  0.00  0.00     0.027 H 
ATOM     43  H   LIG d   1       3.951   2.182  -3.421  0.00  0.00     0.027 H 
ENDBRANCH  17  19
ENDBRANCH   1  17
BRANCH   1  44
ATOM     44  N   LIG d   1       6.382  -0.359  -7.782  0.00  0.00    -0.334 N 
ATOM     45  H   LIG d   1       7.098  -0.629  -8.378  0.00  0.00     0.147 HD
BRANCH  44  46
ATOM     46  C   LIG d   1       5.071  -0.267  -8.261  0.00  0.00     0.028 A 
ATOM     47  C   LIG d   1       4.490   0.977  -8.467  0.00  0.00    -0.038 A 
ATOM     48  C   LIG d   1       3.197   1.065  -8.944  0.00  0.00    -0.025 A 
ATOM     49  H   LIG d   1       5.050   1.876  -8.255  0.00  0.00     0.064 H 
ATOM     50  C   LIG d   1       2.477  -0.088  -9.208  0.00  0.00     0.123 A 
ATOM     51  H   LIG d   1       2.746   2.032  -9.107  0.00  0.00     0.065 H 
ATOM     52  C   LIG d   1       3.053  -1.330  -9.000  0.00  0.00    -0.025 A 
ATOM     53  F   LIG d   1       1.211  -0.001  -9.671  0.00  0.00    -0.205 F 
ATOM     54  C   LIG d   1       4.347  -1.421  -8.527  0.00  0.00    -0.038 A 
ATOM     55  H   LIG d   1       2.489  -2.228  -9.208  0.00  0.00     0.065 H 
ATOM     56  H   LIG d   1       4.796  -2.391  -8.366  0.00  0.00     0.064 H 
ENDBRANCH  44  46
ENDBRANCH   1  44
TORSDOF 6
ENDMDL
