MODEL 1
REMARK VINA RESULT:      -6.6      0.000      0.000
REMARK  8 active torsions:
REMARK  status: ('A' for Active; 'I' for Inactive)
REMARK    1  A    between atoms: C_4  and  C_7 
REMARK    2  A    between atoms: C_7  and  C_8 
REMARK    3  A    between atoms: C_8  and  C_9 
REMARK    4  A    between atoms: C_10  and  O_19 
REMARK    5  A    between atoms: C_11  and  C_17 
REMARK    6  A    between atoms: CA_13  and  C_15 
REMARK    7  A    between atoms: C_15  and  O_16 
REMARK    8  A    between atoms: C_17  and  O_18 
ROOT
ATOM      1  C   LIG d   1       3.025   0.222  -6.757  0.00  0.00     0.225 A 
ATOM      2  C   LIG d   1       3.213   0.918  -7.942  0.00  0.00     0.190 A 
ATOM      3  C   LIG d   1       3.766   0.257  -9.034  0.00  0.00     0.031 A 
ATOM      4  C   LIG d   1       4.110  -1.078  -8.890  0.00  0.00     0.017 A 
ATOM      5  CA  LIG d   1       3.892  -1.704  -7.676  0.00  0.00     0.208 A 
ATOM      6  N   LIG d   1       3.370  -1.047  -6.660  0.00  0.00    -0.207 N 
ATOM      7  H   LIG d   1       4.542  -1.622  -9.715  0.00  0.00     0.069 H 
ATOM      8  H   LIG d   1       3.233  -1.509  -5.819  0.00  0.00     0.453 HD
ENDROOT
BRANCH   1   9
ATOM      9  C   LIG d   1       2.426   0.926  -5.566  0.00  0.00     0.040 C 
ATOM     10  H   LIG d   1       1.588   1.541  -5.891  0.00  0.00     0.038 H 
ATOM     11  H   LIG d   1       3.182   1.559  -5.100  0.00  0.00     0.038 H 
BRANCH   9  12
ATOM     12  C   LIG d   1       1.936  -0.113  -4.554  0.00  0.00    -0.018 C 
ATOM     13  H   LIG d   1       1.821  -1.077  -5.050  0.00  0.00     0.032 H 
ATOM     14  H   LIG d   1       0.976   0.203  -4.146  0.00  0.00     0.032 H 
BRANCH  12  15
ATOM     15  C   LIG d   1       2.940  -0.238  -3.437  0.00  0.00    -0.047 A 
ATOM     16  C   LIG d   1       3.457   0.897  -2.842  0.00  0.00    -0.059 A 
ATOM     17  C   LIG d   1       4.377   0.782  -1.816  0.00  0.00    -0.061 A 
ATOM     18  H   LIG d   1       3.141   1.874  -3.177  0.00  0.00     0.062 H 
ATOM     19  C   LIG d   1       4.780  -0.469  -1.387  0.00  0.00    -0.062 A 
ATOM     20  H   LIG d   1       4.781   1.668  -1.351  0.00  0.00     0.062 H 
ATOM     21  C   LIG d   1       4.262  -1.604  -1.982  0.00  0.00    -0.061 A 
ATOM     22  H   LIG d   1       5.502  -0.559  -0.589  0.00  0.00     0.062 H 
ATOM     23  C   LIG d   1       3.343  -1.489  -3.008  0.00  0.00    -0.059 A 
ATOM     24  H   LIG d   1       4.577  -2.582  -1.647  0.00  0.00     0.062 H 
ATOM     25  H   LIG d   1       2.939  -2.376  -3.474  0.00  0.00     0.062 H 
ENDBRANCH  12  15
ENDBRANCH   9  12
ENDBRANCH   1   9
BRANCH   2  26
ATOM     26  O   LIG d   1       2.859   2.227  -8.036  0.00  0.00    -0.501 OA
ATOM     27  H   LIG d   1       2.250   2.419  -8.762  0.00  0.00     0.292 HD
ENDBRANCH   2  26
BRANCH   3  28
ATOM     28  C   LIG d   1       3.987   0.974 -10.340  0.00  0.00     0.073 C 
ATOM     29  H   LIG d   1       4.440   0.290 -11.057  0.00  0.00     0.061 H 
ATOM     30  H   LIG d   1       3.032   1.328 -10.728  0.00  0.00     0.061 H 
BRANCH  28  31
ATOM     31  O   LIG d   1       4.857   2.089 -10.130  0.00  0.00    -0.390 OA
ATOM     32  H   LIG d   1       4.452   2.945 -10.321  0.00  0.00     0.210 HD
ENDBRANCH  28  31
ENDBRANCH   3  28
BRANCH   5  33
ATOM     33  C   LIG d   1       4.263  -3.155  -7.511  0.00  0.00     0.129 C 
ATOM     34  H1  LIG d   1       3.772  -3.746  -8.284  0.00  0.00     0.067 H 
ATOM     35  H2  LIG d   1       5.344  -3.266  -7.598  0.00  0.00     0.067 H 
BRANCH  33  36
ATOM     36  O   LIG d   1       3.840  -3.610  -6.223  0.00  0.00    -0.384 OA
ATOM     37  H   LIG d   1       4.550  -3.650  -5.568  0.00  0.00     0.210 HD
ENDBRANCH  33  36
ENDBRANCH   5  33
TORSDOF 8
ENDMDL
MODEL 2
REMARK VINA RESULT:      -6.5      1.672      2.182
REMARK  8 active torsions:
REMARK  status: ('A' for Active; 'I' for Inactive)
REMARK    1  A    between atoms: C_4  and  C_7 
REMARK    2  A    between atoms: C_7  and  C_8 
REMARK    3  A    between atoms: C_8  and  C_9 
REMARK    4  A    between atoms: C_10  and  O_19 
REMARK    5  A    between atoms: C_11  and  C_17 
REMARK    6  A    between atoms: CA_13  and  C_15 
REMARK    7  A    between atoms: C_15  and  O_16 
REMARK    8  A    between atoms: C_17  and  O_18 
ROOT
ATOM      1  C   LIG d   1       3.428  -0.832  -7.474  0.00  0.00     0.225 A 
ATOM      2  C   LIG d   1       2.810  -0.540  -8.680  0.00  0.00     0.190 A 
ATOM      3  C   LIG d   1       2.598  -1.564  -9.597  0.00  0.00     0.031 A 
ATOM      4  C   LIG d   1       3.019  -2.842  -9.264  0.00  0.00     0.017 A 
ATOM      5  CA  LIG d   1       3.628  -3.056  -8.042  0.00  0.00     0.208 A 
ATOM      6  N   LIG d   1       3.818  -2.061  -7.197  0.00  0.00    -0.207 N 
ATOM      7  H   LIG d   1       2.871  -3.661  -9.951  0.00  0.00     0.069 H 
ATOM      8  H   LIG d   1       4.252  -2.238  -6.349  0.00  0.00     0.453 HD
ENDROOT
BRANCH   1   9
ATOM      9  C   LIG d   1       3.664   0.269  -6.470  0.00  0.00     0.040 C 
ATOM     10  H   LIG d   1       3.624   1.234  -6.974  0.00  0.00     0.038 H 
ATOM     11  H   LIG d   1       4.645   0.138  -6.012  0.00  0.00     0.038 H 
BRANCH   9  12
ATOM     12  C   LIG d   1       2.583   0.212  -5.389  0.00  0.00    -0.018 C 
ATOM     13  H   LIG d   1       1.902  -0.612  -5.599  0.00  0.00     0.032 H 
ATOM     14  H   LIG d   1       2.029   1.150  -5.381  0.00  0.00     0.032 H 
BRANCH  12  15
ATOM     15  C   LIG d   1       3.230  -0.000  -4.044  0.00  0.00    -0.047 A 
ATOM     16  C   LIG d   1       3.468  -1.282  -3.586  0.00  0.00    -0.059 A 
ATOM     17  C   LIG d   1       4.063  -1.477  -2.353  0.00  0.00    -0.061 A 
ATOM     18  H   LIG d   1       3.190  -2.132  -4.192  0.00  0.00     0.062 H 
ATOM     19  C   LIG d   1       4.419  -0.388  -1.578  0.00  0.00    -0.062 A 
ATOM     20  H   LIG d   1       4.248  -2.478  -1.995  0.00  0.00     0.062 H 
ATOM     21  C   LIG d   1       4.182   0.894  -2.037  0.00  0.00    -0.061 A 
ATOM     22  H   LIG d   1       4.879  -0.540  -0.614  0.00  0.00     0.062 H 
ATOM     23  C   LIG d   1       3.586   1.088  -3.269  0.00  0.00    -0.059 A 
ATOM     24  H   LIG d   1       4.460   1.744  -1.432  0.00  0.00     0.062 H 
ATOM     25  H   LIG d   1       3.401   2.090  -3.627  0.00  0.00     0.062 H 
ENDBRANCH  12  15
ENDBRANCH   9  12
ENDBRANCH   1   9
BRANCH   2  26
ATOM     26  O   LIG d   1       2.414   0.730  -8.962  0.00  0.00    -0.501 OA
ATOM     27  H   LIG d   1       3.044   1.228  -9.501  0.00  0.00     0.292 HD
ENDBRANCH   2  26
BRANCH   3  28
ATOM     28  C   LIG d   1       1.930  -1.291 -10.919  0.00  0.00     0.073 C 
ATOM     29  H   LIG d   1       2.479  -0.514 -11.450  0.00  0.00     0.061 H 
ATOM     30  H   LIG d   1       1.919  -2.202 -11.517  0.00  0.00     0.061 H 
BRANCH  28  31
ATOM     31  O   LIG d   1       0.587  -0.854 -10.693  0.00  0.00    -0.390 OA
ATOM     32  H   LIG d   1       0.236  -0.285 -11.391  0.00  0.00     0.210 HD
ENDBRANCH  28  31
ENDBRANCH   3  28
BRANCH   5  33
ATOM     33  C   LIG d   1       4.088  -4.442  -7.672  0.00  0.00     0.129 C 
ATOM     34  H1  LIG d   1       4.053  -5.083  -8.552  0.00  0.00     0.067 H 
ATOM     35  H2  LIG d   1       5.109  -4.397  -7.294  0.00  0.00     0.067 H 
BRANCH  33  36
ATOM     36  O   LIG d   1       3.229  -4.974  -6.660  0.00  0.00    -0.384 OA
ATOM     37  H   LIG d   1       2.289  -4.814  -6.819  0.00  0.00     0.210 HD
ENDBRANCH  33  36
ENDBRANCH   5  33
TORSDOF 8
ENDMDL
MODEL 3
REMARK VINA RESULT:      -6.4      2.236      3.109
REMARK  8 active torsions:
REMARK  status: ('A' for Active; 'I' for Inactive)
REMARK    1  A    between atoms: C_4  and  C_7 
REMARK    2  A    between atoms: C_7  and  C_8 
REMARK    3  A    between atoms: C_8  and  C_9 
REMARK    4  A    between atoms: C_10  and  O_19 
REMARK    5  A    between atoms: C_11  and  C_17 
REMARK    6  A    between atoms: CA_13  and  C_15 
REMARK    7  A    between atoms: C_15  and  O_16 
REMARK    8  A    between atoms: C_17  and  O_18 
ROOT
ATOM      1  C   LIG d   1       4.308  -0.978  -6.378  0.00  0.00     0.225 A 
ATOM      2  C   LIG d   1       5.639  -0.814  -6.027  0.00  0.00     0.190 A 
ATOM      3  C   LIG d   1       6.491  -1.912  -6.073  0.00  0.00     0.031 A 
ATOM      4  C   LIG d   1       5.969  -3.133  -6.470  0.00  0.00     0.017 A 
ATOM      5  CA  LIG d   1       4.630  -3.219  -6.805  0.00  0.00     0.208 A 
ATOM      6  N   LIG d   1       3.849  -2.158  -6.745  0.00  0.00    -0.207 N 
ATOM      7  H   LIG d   1       6.601  -4.007  -6.518  0.00  0.00     0.069 H 
ATOM      8  H   LIG d   1       2.913  -2.248  -6.981  0.00  0.00     0.453 HD
ENDROOT
BRANCH   1   9
ATOM      9  C   LIG d   1       3.372   0.204  -6.331  0.00  0.00     0.040 C 
ATOM     10  H   LIG d   1       2.829   0.274  -7.273  0.00  0.00     0.038 H 
ATOM     11  H   LIG d   1       3.947   1.117  -6.175  0.00  0.00     0.038 H 
BRANCH   9  12
ATOM     12  C   LIG d   1       2.379   0.022  -5.182  0.00  0.00    -0.018 C 
ATOM     13  H   LIG d   1       1.832  -0.911  -5.318  0.00  0.00     0.032 H 
ATOM     14  H   LIG d   1       1.679   0.857  -5.172  0.00  0.00     0.032 H 
BRANCH  12  15
ATOM     15  C   LIG d   1       3.127  -0.021  -3.874  0.00  0.00    -0.047 A 
ATOM     16  C   LIG d   1       3.570   1.152  -3.292  0.00  0.00    -0.059 A 
ATOM     17  C   LIG d   1       4.255   1.113  -2.092  0.00  0.00    -0.061 A 
ATOM     18  H   LIG d   1       3.380   2.099  -3.774  0.00  0.00     0.062 H 
ATOM     19  C   LIG d   1       4.498  -0.101  -1.474  0.00  0.00    -0.062 A 
ATOM     20  H   LIG d   1       4.601   2.028  -1.638  0.00  0.00     0.062 H 
ATOM     21  C   LIG d   1       4.054  -1.273  -2.056  0.00  0.00    -0.061 A 
ATOM     22  H   LIG d   1       5.036  -0.132  -0.540  0.00  0.00     0.062 H 
ATOM     23  C   LIG d   1       3.370  -1.234  -3.257  0.00  0.00    -0.059 A 
ATOM     24  H   LIG d   1       4.243  -2.221  -1.574  0.00  0.00     0.062 H 
ATOM     25  H   LIG d   1       3.023  -2.150  -3.712  0.00  0.00     0.062 H 
ENDBRANCH  12  15
ENDBRANCH   9  12
ENDBRANCH   1   9
BRANCH   2  26
ATOM     26  O   LIG d   1       6.106   0.404  -5.644  0.00  0.00    -0.501 OA
ATOM     27  H   LIG d   1       5.645   1.149  -6.055  0.00  0.00     0.292 HD
ENDBRANCH   2  26
BRANCH   3  28
ATOM     28  C   LIG d   1       7.944  -1.779  -5.701  0.00  0.00     0.073 C 
ATOM     29  H   LIG d   1       8.442  -2.740  -5.828  0.00  0.00     0.061 H 
ATOM     30  H   LIG d   1       8.418  -1.037  -6.343  0.00  0.00     0.061 H 
BRANCH  28  31
ATOM     31  O   LIG d   1       8.051  -1.364  -4.337  0.00  0.00    -0.390 OA
ATOM     32  H   LIG d   1       8.818  -0.806  -4.154  0.00  0.00     0.210 HD
ENDBRANCH  28  31
ENDBRANCH   3  28
BRANCH   5  33
ATOM     33  C   LIG d   1       4.055  -4.542  -7.238  0.00  0.00     0.129 C 
ATOM     34  H1  LIG d   1       3.488  -4.408  -8.159  0.00  0.00     0.067 H 
ATOM     35  H2  LIG d   1       4.864  -5.252  -7.409  0.00  0.00     0.067 H 
BRANCH  33  36
ATOM     36  O   LIG d   1       3.191  -5.043  -6.215  0.00  0.00    -0.384 OA
ATOM     37  H   LIG d   1       2.358  -4.560  -6.133  0.00  0.00     0.210 HD
ENDBRANCH  33  36
ENDBRANCH   5  33
TORSDOF 8
ENDMDL
MODEL 4
REMARK VINA RESULT:      -6.3      1.942      2.603
REMARK  8 active torsions:
REMARK  status: ('A' for Active; 'I' for Inactive)
REMARK    1  A    between atoms: C_4  and  C_7 
REMARK    2  A    between atoms: C_7  and  C_8 
REMARK    3  A    between atoms: C_8  and  C_9 
REMARK    4  A    between atoms: C_10  and  O_19 
REMARK    5  A    between atoms: C_11  and  C_17 
REMARK    6  A    between atoms: CA_13  and  C_15 
REMARK    7  A    between atoms: C_15  and  O_16 
REMARK    8  A    between atoms: C_17  and  O_18 
ROOT
ATOM      1  C   LIG d   1       3.259  -0.028  -6.918  0.00  0.00     0.225 A 
ATOM      2  C   LIG d   1       4.601  -0.380  -6.915  0.00  0.00     0.190 A 
ATOM      3  C   LIG d   1       5.073  -1.248  -7.894  0.00  0.00     0.031 A 
ATOM      4  C   LIG d   1       4.177  -1.730  -8.835  0.00  0.00     0.017 A 
ATOM      5  CA  LIG d   1       2.854  -1.333  -8.772  0.00  0.00     0.208 A 
ATOM      6  N   LIG d   1       2.438  -0.512  -7.828  0.00  0.00    -0.207 N 
ATOM      7  H   LIG d   1       4.508  -2.406  -9.608  0.00  0.00     0.069 H 
ATOM      8  H   LIG d   1       1.503  -0.254  -7.805  0.00  0.00     0.453 HD
ENDROOT
BRANCH   1   9
ATOM      9  C   LIG d   1       2.733   0.913  -5.863  0.00  0.00     0.040 C 
ATOM     10  H   LIG d   1       2.041   1.620  -6.320  0.00  0.00     0.038 H 
ATOM     11  H   LIG d   1       3.564   1.457  -5.414  0.00  0.00     0.038 H 
BRANCH   9  12
ATOM     12  C   LIG d   1       2.004   0.110  -4.783  0.00  0.00    -0.018 C 
ATOM     13  H   LIG d   1       1.684  -0.847  -5.196  0.00  0.00     0.032 H 
ATOM     14  H   LIG d   1       1.133   0.669  -4.441  0.00  0.00     0.032 H 
BRANCH  12  15
ATOM     15  C   LIG d   1       2.935  -0.129  -3.622  0.00  0.00    -0.047 A 
ATOM     16  C   LIG d   1       3.461   0.943  -2.926  0.00  0.00    -0.059 A 
ATOM     17  C   LIG d   1       4.313   0.724  -1.860  0.00  0.00    -0.061 A 
ATOM     18  H   LIG d   1       3.205   1.952  -3.214  0.00  0.00     0.062 H 
ATOM     19  C   LIG d   1       4.640  -0.568  -1.490  0.00  0.00    -0.062 A 
ATOM     20  H   LIG d   1       4.725   1.560  -1.316  0.00  0.00     0.062 H 
ATOM     21  C   LIG d   1       4.112  -1.640  -2.186  0.00  0.00    -0.061 A 
ATOM     22  H   LIG d   1       5.309  -0.740  -0.661  0.00  0.00     0.062 H 
ATOM     23  C   LIG d   1       3.261  -1.421  -3.252  0.00  0.00    -0.059 A 
ATOM     24  H   LIG d   1       4.367  -2.649  -1.897  0.00  0.00     0.062 H 
ATOM     25  H   LIG d   1       2.849  -2.258  -3.796  0.00  0.00     0.062 H 
ENDBRANCH  12  15
ENDBRANCH   9  12
ENDBRANCH   1   9
BRANCH   2  26
ATOM     26  O   LIG d   1       5.442   0.119  -5.971  0.00  0.00    -0.501 OA
ATOM     27  H   LIG d   1       5.008   0.347  -5.138  0.00  0.00     0.292 HD
ENDBRANCH   2  26
BRANCH   3  28
ATOM     28  C   LIG d   1       6.523  -1.657  -7.928  0.00  0.00     0.073 C 
ATOM     29  H   LIG d   1       6.671  -2.403  -8.709  0.00  0.00     0.061 H 
ATOM     30  H   LIG d   1       7.142  -0.784  -8.137  0.00  0.00     0.061 H 
BRANCH  28  31
ATOM     31  O   LIG d   1       6.892  -2.211  -6.664  0.00  0.00    -0.390 OA
ATOM     32  H   LIG d   1       6.880  -3.178  -6.640  0.00  0.00     0.210 HD
ENDBRANCH  28  31
ENDBRANCH   3  28
BRANCH   5  33
ATOM     33  C   LIG d   1       1.873  -1.851  -9.792  0.00  0.00     0.129 C 
ATOM     34  H1  LIG d   1       2.400  -2.087 -10.716  0.00  0.00     0.067 H 
ATOM     35  H2  LIG d   1       1.391  -2.750  -9.408  0.00  0.00     0.067 H 
BRANCH  33  36
ATOM     36  O   LIG d   1       0.882  -0.853 -10.049  0.00  0.00    -0.384 OA
ATOM     37  H   LIG d   1       0.084  -0.945  -9.511  0.00  0.00     0.210 HD
ENDBRANCH  33  36
ENDBRANCH   5  33
TORSDOF 8
ENDMDL
MODEL 5
REMARK VINA RESULT:      -6.1      2.262      5.966
REMARK  8 active torsions:
REMARK  status: ('A' for Active; 'I' for Inactive)
REMARK    1  A    between atoms: C_4  and  C_7 
REMARK    2  A    between atoms: C_7  and  C_8 
REMARK    3  A    between atoms: C_8  and  C_9 
REMARK    4  A    between atoms: C_10  and  O_19 
REMARK    5  A    between atoms: C_11  and  C_17 
REMARK    6  A    between atoms: CA_13  and  C_15 
REMARK    7  A    between atoms: C_15  and  O_16 
REMARK    8  A    between atoms: C_17  and  O_18 
ROOT
ATOM      1  C   LIG d   1       3.488  -0.285  -5.174  0.00  0.00     0.225 A 
ATOM      2  C   LIG d   1       3.685   0.282  -3.924  0.00  0.00     0.190 A 
ATOM      3  C   LIG d   1       4.276  -0.479  -2.922  0.00  0.00     0.031 A 
ATOM      4  C   LIG d   1       4.645  -1.782  -3.216  0.00  0.00     0.017 A 
ATOM      5  CA  LIG d   1       4.416  -2.278  -4.486  0.00  0.00     0.208 A 
ATOM      6  N   LIG d   1       3.849  -1.531  -5.412  0.00  0.00    -0.207 N 
ATOM      7  H   LIG d   1       5.107  -2.402  -2.463  0.00  0.00     0.069 H 
ATOM      8  H   LIG d   1       3.696  -1.906  -6.293  0.00  0.00     0.453 HD
ENDROOT
BRANCH   1   9
ATOM      9  C   LIG d   1       2.847   0.528  -6.270  0.00  0.00     0.040 C 
ATOM     10  H   LIG d   1       3.536   1.306  -6.595  0.00  0.00     0.038 H 
ATOM     11  H   LIG d   1       1.932   0.986  -5.895  0.00  0.00     0.038 H 
BRANCH   9  12
ATOM     12  C   LIG d   1       2.514  -0.385  -7.453  0.00  0.00    -0.018 C 
ATOM     13  H   LIG d   1       1.434  -0.528  -7.508  0.00  0.00     0.032 H 
ATOM     14  H   LIG d   1       3.002  -1.349  -7.316  0.00  0.00     0.032 H 
BRANCH  12  15
ATOM     15  C   LIG d   1       3.003   0.250  -8.729  0.00  0.00    -0.047 A 
ATOM     16  C   LIG d   1       3.175  -0.522  -9.863  0.00  0.00    -0.059 A 
ATOM     17  C   LIG d   1       3.622   0.061 -11.034  0.00  0.00    -0.061 A 
ATOM     18  H   LIG d   1       2.960  -1.579  -9.833  0.00  0.00     0.062 H 
ATOM     19  C   LIG d   1       3.897   1.416 -11.071  0.00  0.00    -0.062 A 
ATOM     20  H   LIG d   1       3.758  -0.542 -11.919  0.00  0.00     0.062 H 
ATOM     21  C   LIG d   1       3.723   2.187  -9.938  0.00  0.00    -0.061 A 
ATOM     22  H   LIG d   1       4.250   1.870 -11.985  0.00  0.00     0.062 H 
ATOM     23  C   LIG d   1       3.277   1.605  -8.767  0.00  0.00    -0.059 A 
ATOM     24  H   LIG d   1       3.937   3.246  -9.967  0.00  0.00     0.062 H 
ATOM     25  H   LIG d   1       3.141   2.208  -7.881  0.00  0.00     0.062 H 
ENDBRANCH  12  15
ENDBRANCH   9  12
ENDBRANCH   1   9
BRANCH   2  26
ATOM     26  O   LIG d   1       3.306   1.565  -3.683  0.00  0.00    -0.501 OA
ATOM     27  H   LIG d   1       2.591   1.650  -3.037  0.00  0.00     0.292 HD
ENDBRANCH   2  26
BRANCH   3  28
ATOM     28  C   LIG d   1       4.510   0.098  -1.550  0.00  0.00     0.073 C 
ATOM     29  H   LIG d   1       3.553   0.225  -1.042  0.00  0.00     0.061 H 
ATOM     30  H   LIG d   1       5.141  -0.578  -0.973  0.00  0.00     0.061 H 
BRANCH  28  31
ATOM     31  O   LIG d   1       5.157   1.367  -1.671  0.00  0.00    -0.390 OA
ATOM     32  H   LIG d   1       4.871   2.017  -1.015  0.00  0.00     0.210 HD
ENDBRANCH  28  31
ENDBRANCH   3  28
BRANCH   5  33
ATOM     33  C   LIG d   1       4.815  -3.694  -4.815  0.00  0.00     0.129 C 
ATOM     34  H1  LIG d   1       5.834  -3.705  -5.199  0.00  0.00     0.067 H 
ATOM     35  H2  LIG d   1       4.758  -4.306  -3.915  0.00  0.00     0.067 H 
BRANCH  33  36
ATOM     36  O   LIG d   1       3.927  -4.220  -5.805  0.00  0.00    -0.384 OA
ATOM     37  H   LIG d   1       4.375  -4.598  -6.573  0.00  0.00     0.210 HD
ENDBRANCH  33  36
ENDBRANCH   5  33
TORSDOF 8
ENDMDL
MODEL 6
REMARK VINA RESULT:      -6.0      3.942      5.694
REMARK  8 active torsions:
REMARK  status: ('A' for Active; 'I' for Inactive)
REMARK    1  A    between atoms: C_4  and  C_7 
REMARK    2  A    between atoms: C_7  and  C_8 
REMARK    3  A    between atoms: C_8  and  C_9 
REMARK    4  A    between atoms: C_10  and  O_19 
REMARK    5  A    between atoms: C_11  and  C_17 
REMARK    6  A    between atoms: CA_13  and  C_15 
REMARK    7  A    between atoms: C_15  and  O_16 
REMARK    8  A    between atoms: C_17  and  O_18 
ROOT
ATOM      1  C   LIG d   1       5.222  -4.099  -5.243  0.00  0.00     0.225 A 
ATOM      2  C   LIG d   1       4.567  -5.176  -5.820  0.00  0.00     0.190 A 
ATOM      3  C   LIG d   1       5.289  -6.328  -6.114  0.00  0.00     0.031 A 
ATOM      4  C   LIG d   1       6.643  -6.349  -5.818  0.00  0.00     0.017 A 
ATOM      5  CA  LIG d   1       7.226  -5.235  -5.243  0.00  0.00     0.208 A 
ATOM      6  N   LIG d   1       6.513  -4.157  -4.981  0.00  0.00    -0.207 N 
ATOM      7  H   LIG d   1       7.235  -7.226  -6.033  0.00  0.00     0.069 H 
ATOM      8  H   LIG d   1       6.949  -3.389  -4.582  0.00  0.00     0.453 HD
ENDROOT
BRANCH   1   9
ATOM      9  C   LIG d   1       4.452  -2.843  -4.919  0.00  0.00     0.040 C 
ATOM     10  H   LIG d   1       3.438  -2.929  -5.308  0.00  0.00     0.038 H 
ATOM     11  H   LIG d   1       4.946  -1.986  -5.376  0.00  0.00     0.038 H 
BRANCH   9  12
ATOM     12  C   LIG d   1       4.402  -2.654  -3.401  0.00  0.00    -0.018 C 
ATOM     13  H   LIG d   1       5.354  -2.959  -2.966  0.00  0.00     0.032 H 
ATOM     14  H   LIG d   1       3.600  -3.263  -2.986  0.00  0.00     0.032 H 
BRANCH  12  15
ATOM     15  C   LIG d   1       4.147  -1.203  -3.085  0.00  0.00    -0.047 A 
ATOM     16  C   LIG d   1       3.358  -0.440  -3.926  0.00  0.00    -0.059 A 
ATOM     17  C   LIG d   1       3.122   0.890  -3.635  0.00  0.00    -0.061 A 
ATOM     18  H   LIG d   1       2.926  -0.885  -4.810  0.00  0.00     0.062 H 
ATOM     19  C   LIG d   1       3.675   1.458  -2.502  0.00  0.00    -0.062 A 
ATOM     20  H   LIG d   1       2.507   1.486  -4.292  0.00  0.00     0.062 H 
ATOM     21  C   LIG d   1       4.463   0.696  -1.660  0.00  0.00    -0.061 A 
ATOM     22  H   LIG d   1       3.495   2.498  -2.277  0.00  0.00     0.062 H 
ATOM     23  C   LIG d   1       4.700  -0.635  -1.952  0.00  0.00    -0.059 A 
ATOM     24  H   LIG d   1       4.895   1.139  -0.775  0.00  0.00     0.062 H 
ATOM     25  H   LIG d   1       5.316  -1.231  -1.295  0.00  0.00     0.062 H 
ENDBRANCH  12  15
ENDBRANCH   9  12
ENDBRANCH   1   9
BRANCH   2  26
ATOM     26  O   LIG d   1       3.237  -5.108  -6.092  0.00  0.00    -0.501 OA
ATOM     27  H   LIG d   1       2.694  -5.698  -5.551  0.00  0.00     0.292 HD
ENDBRANCH   2  26
BRANCH   3  28
ATOM     28  C   LIG d   1       4.617  -7.522  -6.740  0.00  0.00     0.073 C 
ATOM     29  H   LIG d   1       3.688  -7.207  -7.215  0.00  0.00     0.061 H 
ATOM     30  H   LIG d   1       5.277  -7.961  -7.488  0.00  0.00     0.061 H 
BRANCH  28  31
ATOM     31  O   LIG d   1       4.331  -8.491  -5.730  0.00  0.00    -0.390 OA
ATOM     32  H   LIG d   1       4.448  -8.165  -4.827  0.00  0.00     0.210 HD
ENDBRANCH  28  31
ENDBRANCH   3  28
BRANCH   5  33
ATOM     33  C   LIG d   1       8.697  -5.250  -4.917  0.00  0.00     0.129 C 
ATOM     34  H1  LIG d   1       9.039  -6.281  -4.824  0.00  0.00     0.067 H 
ATOM     35  H2  LIG d   1       9.251  -4.754  -5.714  0.00  0.00     0.067 H 
BRANCH  33  36
ATOM     36  O   LIG d   1       8.918  -4.562  -3.684  0.00  0.00    -0.384 OA
ATOM     37  H   LIG d   1       8.226  -3.926  -3.459  0.00  0.00     0.210 HD
ENDBRANCH  33  36
ENDBRANCH   5  33
TORSDOF 8
ENDMDL
MODEL 7
REMARK VINA RESULT:      -6.0      1.895      3.203
REMARK  8 active torsions:
REMARK  status: ('A' for Active; 'I' for Inactive)
REMARK    1  A    between atoms: C_4  and  C_7 
REMARK    2  A    between atoms: C_7  and  C_8 
REMARK    3  A    between atoms: C_8  and  C_9 
REMARK    4  A    between atoms: C_10  and  O_19 
REMARK    5  A    between atoms: C_11  and  C_17 
REMARK    6  A    between atoms: CA_13  and  C_15 
REMARK    7  A    between atoms: C_15  and  O_16 
REMARK    8  A    between atoms: C_17  and  O_18 
ROOT
ATOM      1  C   LIG d   1       3.432  -0.150  -7.736  0.00  0.00     0.225 A 
ATOM      2  C   LIG d   1       2.856  -0.865  -8.776  0.00  0.00     0.190 A 
ATOM      3  C   LIG d   1       2.793  -0.288 -10.040  0.00  0.00     0.031 A 
ATOM      4  C   LIG d   1       3.311   0.987 -10.208  0.00  0.00     0.017 A 
ATOM      5  CA  LIG d   1       3.870   1.637  -9.124  0.00  0.00     0.208 A 
ATOM      6  N   LIG d   1       3.909   1.063  -7.937  0.00  0.00    -0.207 N 
ATOM      7  H   LIG d   1       3.279   1.465 -11.175  0.00  0.00     0.069 H 
ATOM      8  H   LIG d   1       4.303   1.544  -7.193  0.00  0.00     0.453 HD
ENDROOT
BRANCH   1   9
ATOM      9  C   LIG d   1       3.508  -0.762  -6.361  0.00  0.00     0.040 C 
ATOM     10  H   LIG d   1       4.549  -0.823  -6.047  0.00  0.00     0.038 H 
ATOM     11  H   LIG d   1       3.076  -1.763  -6.384  0.00  0.00     0.038 H 
BRANCH   9  12
ATOM     12  C   LIG d   1       2.727   0.107  -5.373  0.00  0.00    -0.018 C 
ATOM     13  H   LIG d   1       1.688  -0.221  -5.342  0.00  0.00     0.032 H 
ATOM     14  H   LIG d   1       2.770   1.148  -5.692  0.00  0.00     0.032 H 
BRANCH  12  15
ATOM     15  C   LIG d   1       3.336  -0.022  -4.000  0.00  0.00    -0.047 A 
ATOM     16  C   LIG d   1       3.641   1.110  -3.269  0.00  0.00    -0.059 A 
ATOM     17  C   LIG d   1       4.198   0.991  -2.010  0.00  0.00    -0.061 A 
ATOM     18  H   LIG d   1       3.443   2.088  -3.682  0.00  0.00     0.062 H 
ATOM     19  C   LIG d   1       4.450  -0.262  -1.482  0.00  0.00    -0.062 A 
ATOM     20  H   LIG d   1       4.437   1.876  -1.439  0.00  0.00     0.062 H 
ATOM     21  C   LIG d   1       4.144  -1.394  -2.212  0.00  0.00    -0.061 A 
ATOM     22  H   LIG d   1       4.890  -0.355  -0.500  0.00  0.00     0.062 H 
ATOM     23  C   LIG d   1       3.588  -1.275  -3.472  0.00  0.00    -0.059 A 
ATOM     24  H   LIG d   1       4.341  -2.373  -1.799  0.00  0.00     0.062 H 
ATOM     25  H   LIG d   1       3.349  -2.160  -4.043  0.00  0.00     0.062 H 
ENDBRANCH  12  15
ENDBRANCH   9  12
ENDBRANCH   1   9
BRANCH   2  26
ATOM     26  O   LIG d   1       2.362  -2.113  -8.562  0.00  0.00    -0.501 OA
ATOM     27  H   LIG d   1       1.718  -2.400  -9.225  0.00  0.00     0.292 HD
ENDBRANCH   2  26
BRANCH   3  28
ATOM     28  C   LIG d   1       2.176  -1.030 -11.197  0.00  0.00     0.073 C 
ATOM     29  H   LIG d   1       2.283  -0.438 -12.106  0.00  0.00     0.061 H 
ATOM     30  H   LIG d   1       2.679  -1.988 -11.325  0.00  0.00     0.061 H 
BRANCH  28  31
ATOM     31  O   LIG d   1       0.788  -1.251 -10.935  0.00  0.00    -0.390 OA
ATOM     32  H   LIG d   1       0.319  -1.696 -11.654  0.00  0.00     0.210 HD
ENDBRANCH  28  31
ENDBRANCH   3  28
BRANCH   5  33
ATOM     33  C   LIG d   1       4.436   3.022  -9.298  0.00  0.00     0.129 C 
ATOM     34  H1  LIG d   1       4.110   3.430 -10.255  0.00  0.00     0.067 H 
ATOM     35  H2  LIG d   1       4.082   3.663  -8.490  0.00  0.00     0.067 H 
BRANCH  33  36
ATOM     36  O   LIG d   1       5.864   2.961  -9.266  0.00  0.00    -0.384 OA
ATOM     37  H   LIG d   1       6.268   2.781 -10.125  0.00  0.00     0.210 HD
ENDBRANCH  33  36
ENDBRANCH   5  33
TORSDOF 8
ENDMDL
MODEL 8
REMARK VINA RESULT:      -5.7      9.585     12.093
REMARK  8 active torsions:
REMARK  status: ('A' for Active; 'I' for Inactive)
REMARK    1  A    between atoms: C_4  and  C_7 
REMARK    2  A    between atoms: C_7  and  C_8 
REMARK    3  A    between atoms: C_8  and  C_9 
REMARK    4  A    between atoms: C_10  and  O_19 
REMARK    5  A    between atoms: C_11  and  C_17 
REMARK    6  A    between atoms: CA_13  and  C_15 
REMARK    7  A    between atoms: C_15  and  O_16 
REMARK    8  A    between atoms: C_17  and  O_18 
ROOT
ATOM      1  C   LIG d   1       9.718   6.731  -2.359  0.00  0.00     0.225 A 
ATOM      2  C   LIG d   1      10.349   6.084  -1.308  0.00  0.00     0.190 A 
ATOM      3  C   LIG d   1      10.671   6.808  -0.164  0.00  0.00     0.031 A 
ATOM      4  C   LIG d   1      10.347   8.155  -0.125  0.00  0.00     0.017 A 
ATOM      5  CA  LIG d   1       9.718   8.730  -1.214  0.00  0.00     0.208 A 
ATOM      6  N   LIG d   1       9.431   8.016  -2.285  0.00  0.00    -0.207 N 
ATOM      7  H   LIG d   1      10.582   8.747   0.745  0.00  0.00     0.069 H 
ATOM      8  H   LIG d   1       8.994   8.446  -3.035  0.00  0.00     0.453 HD
ENDROOT
BRANCH   1   9
ATOM      9  C   LIG d   1       9.363   5.959  -3.605  0.00  0.00     0.040 C 
ATOM     10  H   LIG d   1       8.465   6.385  -4.052  0.00  0.00     0.038 H 
ATOM     11  H   LIG d   1       9.180   4.916  -3.347  0.00  0.00     0.038 H 
BRANCH   9  12
ATOM     12  C   LIG d   1      10.519   6.044  -4.604  0.00  0.00    -0.018 C 
ATOM     13  H   LIG d   1      10.906   5.043  -4.797  0.00  0.00     0.032 H 
ATOM     14  H   LIG d   1      11.312   6.667  -4.189  0.00  0.00     0.032 H 
BRANCH  12  15
ATOM     15  C   LIG d   1      10.026   6.649  -5.893  0.00  0.00    -0.047 A 
ATOM     16  C   LIG d   1       9.572   7.955  -5.914  0.00  0.00    -0.059 A 
ATOM     17  C   LIG d   1       9.121   8.511  -7.096  0.00  0.00    -0.061 A 
ATOM     18  H   LIG d   1       9.570   8.540  -5.006  0.00  0.00     0.062 H 
ATOM     19  C   LIG d   1       9.125   7.761  -8.258  0.00  0.00    -0.062 A 
ATOM     20  H   LIG d   1       8.766   9.530  -7.113  0.00  0.00     0.062 H 
ATOM     21  C   LIG d   1       9.580   6.456  -8.237  0.00  0.00    -0.061 A 
ATOM     22  H   LIG d   1       8.769   8.193  -9.181  0.00  0.00     0.062 H 
ATOM     23  C   LIG d   1      10.030   5.899  -7.054  0.00  0.00    -0.059 A 
ATOM     24  H   LIG d   1       9.583   5.870  -9.145  0.00  0.00     0.062 H 
ATOM     25  H   LIG d   1      10.385   4.879  -7.038  0.00  0.00     0.062 H 
ENDBRANCH  12  15
ENDBRANCH   9  12
ENDBRANCH   1   9
BRANCH   2  26
ATOM     26  O   LIG d   1      10.647   4.760  -1.392  0.00  0.00    -0.501 OA
ATOM     27  H   LIG d   1      11.256   4.450  -0.708  0.00  0.00     0.292 HD
ENDBRANCH   2  26
BRANCH   3  28
ATOM     28  C   LIG d   1      11.357   6.144   1.001  0.00  0.00     0.073 C 
ATOM     29  H   LIG d   1      12.286   5.686   0.663  0.00  0.00     0.061 H 
ATOM     30  H   LIG d   1      11.576   6.889   1.767  0.00  0.00     0.061 H 
BRANCH  28  31
ATOM     31  O   LIG d   1      10.501   5.138   1.547  0.00  0.00    -0.390 OA
ATOM     32  H   LIG d   1       9.656   5.048   1.086  0.00  0.00     0.210 HD
ENDBRANCH  28  31
ENDBRANCH   3  28
BRANCH   5  33
ATOM     33  C   LIG d   1       9.361  10.193  -1.180  0.00  0.00     0.129 C 
ATOM     34  H1  LIG d   1       9.474  10.571  -0.163  0.00  0.00     0.067 H 
ATOM     35  H2  LIG d   1      10.023  10.744  -1.848  0.00  0.00     0.067 H 
BRANCH  33  36
ATOM     36  O   LIG d   1       8.007  10.363  -1.604  0.00  0.00    -0.384 OA
ATOM     37  H   LIG d   1       7.397  10.590  -0.890  0.00  0.00     0.210 HD
ENDBRANCH  33  36
ENDBRANCH   5  33
TORSDOF 8
ENDMDL
MODEL 9
REMARK VINA RESULT:      -5.5      2.868      6.251
REMARK  8 active torsions:
REMARK  status: ('A' for Active; 'I' for Inactive)
REMARK    1  A    between atoms: C_4  and  C_7 
REMARK    2  A    between atoms: C_7  and  C_8 
REMARK    3  A    between atoms: C_8  and  C_9 
REMARK    4  A    between atoms: C_10  and  O_19 
REMARK    5  A    between atoms: C_11  and  C_17 
REMARK    6  A    between atoms: CA_13  and  C_15 
REMARK    7  A    between atoms: C_15  and  O_16 
REMARK    8  A    between atoms: C_17  and  O_18 
ROOT
ATOM      1  C   LIG d   1       4.768  -0.452  -5.482  0.00  0.00     0.225 A 
ATOM      2  C   LIG d   1       4.241  -0.350  -4.204  0.00  0.00     0.190 A 
ATOM      3  C   LIG d   1       5.025   0.193  -3.191  0.00  0.00     0.031 A 
ATOM      4  C   LIG d   1       6.309   0.610  -3.504  0.00  0.00     0.017 A 
ATOM      5  CA  LIG d   1       6.765   0.475  -4.803  0.00  0.00     0.208 A 
ATOM      6  N   LIG d   1       5.997  -0.048  -5.738  0.00  0.00    -0.207 N 
ATOM      7  H   LIG d   1       6.945   1.035  -2.744  0.00  0.00     0.069 H 
ATOM      8  H   LIG d   1       6.344  -0.135  -6.639  0.00  0.00     0.453 HD
ENDROOT
BRANCH   1   9
ATOM      9  C   LIG d   1       3.930  -1.039  -6.590  0.00  0.00     0.040 C 
ATOM     10  H   LIG d   1       3.441  -1.945  -6.235  0.00  0.00     0.038 H 
ATOM     11  H   LIG d   1       4.569  -1.281  -7.440  0.00  0.00     0.038 H 
BRANCH   9  12
ATOM     12  C   LIG d   1       2.871  -0.022  -7.021  0.00  0.00    -0.018 C 
ATOM     13  H   LIG d   1       2.845   0.800  -6.305  0.00  0.00     0.032 H 
ATOM     14  H   LIG d   1       1.896  -0.506  -7.056  0.00  0.00     0.032 H 
BRANCH  12  15
ATOM     15  C   LIG d   1       3.215   0.513  -8.388  0.00  0.00    -0.047 A 
ATOM     16  C   LIG d   1       3.288   1.877  -8.599  0.00  0.00    -0.059 A 
ATOM     17  C   LIG d   1       3.605   2.367  -9.851  0.00  0.00    -0.061 A 
ATOM     18  H   LIG d   1       3.098   2.559  -7.784  0.00  0.00     0.062 H 
ATOM     19  C   LIG d   1       3.849   1.492 -10.894  0.00  0.00    -0.062 A 
ATOM     20  H   LIG d   1       3.661   3.432 -10.016  0.00  0.00     0.062 H 
ATOM     21  C   LIG d   1       3.777   0.128 -10.683  0.00  0.00    -0.061 A 
ATOM     22  H   LIG d   1       4.093   1.874 -11.874  0.00  0.00     0.062 H 
ATOM     23  C   LIG d   1       3.459  -0.362  -9.430  0.00  0.00    -0.059 A 
ATOM     24  H   LIG d   1       3.969  -0.556 -11.497  0.00  0.00     0.062 H 
ATOM     25  H   LIG d   1       3.403  -1.428  -9.265  0.00  0.00     0.062 H 
ENDBRANCH  12  15
ENDBRANCH   9  12
ENDBRANCH   1   9
BRANCH   2  26
ATOM     26  O   LIG d   1       2.975  -0.772  -3.944  0.00  0.00    -0.501 OA
ATOM     27  H   LIG d   1       2.925  -1.493  -3.301  0.00  0.00     0.292 HD
ENDBRANCH   2  26
BRANCH   3  28
ATOM     28  C   LIG d   1       4.492   0.323  -1.788  0.00  0.00     0.073 C 
ATOM     29  H   LIG d   1       4.114  -0.643  -1.452  0.00  0.00     0.061 H 
ATOM     30  H   LIG d   1       5.291   0.652  -1.124  0.00  0.00     0.061 H 
BRANCH  28  31
ATOM     31  O   LIG d   1       3.431   1.281  -1.769  0.00  0.00    -0.390 OA
ATOM     32  H   LIG d   1       3.238   1.671  -2.632  0.00  0.00     0.210 HD
ENDBRANCH  28  31
ENDBRANCH   3  28
BRANCH   5  33
ATOM     33  C   LIG d   1       8.159   0.926  -5.152  0.00  0.00     0.129 C 
ATOM     34  H1  LIG d   1       8.718   1.121  -4.237  0.00  0.00     0.067 H 
ATOM     35  H2  LIG d   1       8.660   0.146  -5.726  0.00  0.00     0.067 H 
BRANCH  33  36
ATOM     36  O   LIG d   1       8.091   2.122  -5.933  0.00  0.00    -0.384 OA
ATOM     37  H   LIG d   1       8.259   2.930  -5.430  0.00  0.00     0.210 HD
ENDBRANCH  33  36
ENDBRANCH   5  33
TORSDOF 8
ENDMDL
MODEL 10
REMARK VINA RESULT:      -5.5      1.804      2.620
REMARK  8 active torsions:
REMARK  status: ('A' for Active; 'I' for Inactive)
REMARK    1  A    between atoms: C_4  and  C_7 
REMARK    2  A    between atoms: C_7  and  C_8 
REMARK    3  A    between atoms: C_8  and  C_9 
REMARK    4  A    between atoms: C_10  and  O_19 
REMARK    5  A    between atoms: C_11  and  C_17 
REMARK    6  A    between atoms: CA_13  and  C_15 
REMARK    7  A    between atoms: C_15  and  O_16 
REMARK    8  A    between atoms: C_17  and  O_18 
ROOT
ATOM      1  C   LIG d   1       4.991  -2.366  -6.468  0.00  0.00     0.225 A 
ATOM      2  C   LIG d   1       4.655  -1.106  -6.941  0.00  0.00     0.190 A 
ATOM      3  C   LIG d   1       3.857  -1.001  -8.075  0.00  0.00     0.031 A 
ATOM      4  C   LIG d   1       3.429  -2.167  -8.690  0.00  0.00     0.017 A 
ATOM      5  CA  LIG d   1       3.805  -3.387  -8.159  0.00  0.00     0.208 A 
ATOM      6  N   LIG d   1       4.567  -3.452  -7.085  0.00  0.00    -0.207 N 
ATOM      7  H   LIG d   1       2.808  -2.123  -9.572  0.00  0.00     0.069 H 
ATOM      8  H   LIG d   1       4.820  -4.321  -6.737  0.00  0.00     0.453 HD
ENDROOT
BRANCH   1   9
ATOM      9  C   LIG d   1       5.856  -2.496  -5.240  0.00  0.00     0.040 C 
ATOM     10  H   LIG d   1       6.403  -1.567  -5.081  0.00  0.00     0.038 H 
ATOM     11  H   LIG d   1       6.562  -3.315  -5.378  0.00  0.00     0.038 H 
BRANCH   9  12
ATOM     12  C   LIG d   1       4.973  -2.782  -4.023  0.00  0.00    -0.018 C 
ATOM     13  H   LIG d   1       5.525  -3.394  -3.310  0.00  0.00     0.032 H 
ATOM     14  H   LIG d   1       4.077  -3.314  -4.342  0.00  0.00     0.032 H 
BRANCH  12  15
ATOM     15  C   LIG d   1       4.580  -1.481  -3.372  0.00  0.00    -0.047 A 
ATOM     16  C   LIG d   1       3.247  -1.126  -3.285  0.00  0.00    -0.059 A 
ATOM     17  C   LIG d   1       2.886   0.066  -2.686  0.00  0.00    -0.061 A 
ATOM     18  H   LIG d   1       2.487  -1.781  -3.685  0.00  0.00     0.062 H 
ATOM     19  C   LIG d   1       3.860   0.904  -2.173  0.00  0.00    -0.062 A 
ATOM     20  H   LIG d   1       1.846   0.344  -2.619  0.00  0.00     0.062 H 
ATOM     21  C   LIG d   1       5.193   0.548  -2.259  0.00  0.00    -0.061 A 
ATOM     22  H   LIG d   1       3.579   1.837  -1.709  0.00  0.00     0.062 H 
ATOM     23  C   LIG d   1       5.554  -0.643  -2.859  0.00  0.00    -0.059 A 
ATOM     24  H   LIG d   1       5.953   1.203  -1.858  0.00  0.00     0.062 H 
ATOM     25  H   LIG d   1       6.595  -0.921  -2.926  0.00  0.00     0.062 H 
ENDBRANCH  12  15
ENDBRANCH   9  12
ENDBRANCH   1   9
BRANCH   2  26
ATOM     26  O   LIG d   1       5.098   0.010  -6.304  0.00  0.00    -0.501 OA
ATOM     27  H   LIG d   1       5.856   0.432  -6.732  0.00  0.00     0.292 HD
ENDBRANCH   2  26
BRANCH   3  28
ATOM     28  C   LIG d   1       3.468   0.348  -8.623  0.00  0.00     0.073 C 
ATOM     29  H   LIG d   1       2.832   0.214  -9.498  0.00  0.00     0.061 H 
ATOM     30  H   LIG d   1       2.925   0.907  -7.861  0.00  0.00     0.061 H 
BRANCH  28  31
ATOM     31  O   LIG d   1       4.645   1.069  -8.994  0.00  0.00    -0.390 OA
ATOM     32  H   LIG d   1       4.502   1.720  -9.695  0.00  0.00     0.210 HD
ENDBRANCH  28  31
ENDBRANCH   3  28
BRANCH   5  33
ATOM     33  C   LIG d   1       3.344  -4.660  -8.821  0.00  0.00     0.129 C 
ATOM     34  H1  LIG d   1       2.335  -4.523  -9.209  0.00  0.00     0.067 H 
ATOM     35  H2  LIG d   1       4.019  -4.908  -9.640  0.00  0.00     0.067 H 
BRANCH  33  36
ATOM     36  O   LIG d   1       3.347  -5.722  -7.863  0.00  0.00    -0.384 OA
ATOM     37  H   LIG d   1       2.816  -6.486  -8.123  0.00  0.00     0.210 HD
ENDBRANCH  33  36
ENDBRANCH   5  33
TORSDOF 8
ENDMDL
