MODEL 1
REMARK VINA RESULT:      -6.9      0.000      0.000
REMARK  4 active torsions:
REMARK  status: ('A' for Active; 'I' for Inactive)
REMARK    1  A    between atoms: C_8  and  S_10 
REMARK    2  A    between atoms: S_10  and  C_11 
REMARK    3  A    between atoms: C_11  and  C_12 
REMARK    4  A    between atoms: C_15  and  N_18 
ROOT
ATOM      1  C   LIG d   1      10.249   2.510  -4.340  0.00  0.00     0.025 C 
ATOM      2  H   LIG d   1      10.165   1.731  -3.583  0.00  0.00     0.043 H 
ATOM      3  H   LIG d   1      11.233   2.461  -4.805  0.00  0.00     0.043 H 
ENDROOT
BRANCH   1   4
ATOM      4  S   LIG d   1       8.973   2.265  -5.601  0.00  0.00    -0.094 SA
BRANCH   4   5
ATOM      5  C   LIG d   1       7.829   1.280  -4.692  0.00  0.00     0.136 A 
ATOM      6  N   LIG d   1       6.893   1.667  -3.855  0.00  0.00    -0.233 NA
ATOM      7  C   LIG d   1       6.081   0.792  -3.222  0.00  0.00     0.080 A 
ATOM      8  C   LIG d   1       6.299  -0.572  -3.518  0.00  0.00     0.040 A 
ATOM      9  C   LIG d   1       5.042   1.073  -2.305  0.00  0.00    -0.035 A 
ATOM     10  C   LIG d   1       5.561  -1.581  -2.953  0.00  0.00    -0.046 A 
ATOM     11  S   LIG d   1       7.647  -0.498  -4.675  0.00  0.00    -0.061 SA
ATOM     12  C   LIG d   1       4.548  -1.269  -2.064  0.00  0.00    -0.061 A 
ATOM     13  H   LIG d   1       5.766  -2.611  -3.204  0.00  0.00     0.063 H 
ATOM     14  C   LIG d   1       4.304   0.060  -1.751  0.00  0.00    -0.060 A 
ATOM     15  H   LIG d   1       3.956  -2.053  -1.616  0.00  0.00     0.062 H 
ATOM     16  H   LIG d   1       3.516   0.302  -1.053  0.00  0.00     0.062 H 
ATOM     17  H   LIG d   1       4.826   2.097  -2.039  0.00  0.00     0.064 H 
ENDBRANCH   4   5
ENDBRANCH   1   4
BRANCH   1  18
ATOM     18  C   LIG d   1      10.064   3.859  -3.694  0.00  0.00    -0.037 A 
ATOM     19  C   LIG d   1      10.538   4.084  -2.416  0.00  0.00    -0.051 A 
ATOM     20  C   LIG d   1      10.369   5.322  -1.824  0.00  0.00     0.016 A 
ATOM     21  H   LIG d   1      11.043   3.294  -1.879  0.00  0.00     0.062 H 
ATOM     22  C   LIG d   1       9.725   6.335  -2.511  0.00  0.00     0.273 A 
ATOM     23  H   LIG d   1      10.739   5.498  -0.825  0.00  0.00     0.069 H 
ATOM     24  C   LIG d   1       9.250   6.109  -3.790  0.00  0.00     0.016 A 
ATOM     25  C   LIG d   1       9.424   4.872  -4.383  0.00  0.00    -0.051 A 
ATOM     26  H   LIG d   1       8.747   6.900  -4.326  0.00  0.00     0.069 H 
ATOM     27  H   LIG d   1       9.057   4.698  -5.383  0.00  0.00     0.062 H 
BRANCH  22  28
ATOM     28  N   LIG d   1       9.544   7.659  -1.877  0.00  0.00     0.080 N 
ATOM     29  O   LIG d   1       8.801   7.780  -0.919  0.00  0.00     0.041 OA
ATOM     30  O   LIG d   1      10.138   8.630  -2.314  0.00  0.00    -0.576 OA
ENDBRANCH  22  28
ENDBRANCH   1  18
TORSDOF 4
ENDMDL
MODEL 2
REMARK VINA RESULT:      -6.4      7.929      9.788
REMARK  4 active torsions:
REMARK  status: ('A' for Active; 'I' for Inactive)
REMARK    1  A    between atoms: C_8  and  S_10 
REMARK    2  A    between atoms: S_10  and  C_11 
REMARK    3  A    between atoms: C_11  and  C_12 
REMARK    4  A    between atoms: C_15  and  N_18 
ROOT
ATOM      1  C   LIG d   1       4.185   1.291  -8.871  0.00  0.00     0.025 C 
ATOM      2  H   LIG d   1       3.623   1.541  -7.970  0.00  0.00     0.043 H 
ATOM      3  H   LIG d   1       4.469   2.206  -9.389  0.00  0.00     0.043 H 
ENDROOT
BRANCH   1   4
ATOM      4  S   LIG d   1       5.674   0.368  -8.415  0.00  0.00    -0.094 SA
BRANCH   4   5
ATOM      5  C   LIG d   1       5.169  -0.277  -6.855  0.00  0.00     0.136 A 
ATOM      6  N   LIG d   1       4.171   0.104  -6.090  0.00  0.00    -0.233 NA
ATOM      7  C   LIG d   1       3.899  -0.487  -4.906  0.00  0.00     0.080 A 
ATOM      8  C   LIG d   1       4.758  -1.547  -4.538  0.00  0.00     0.040 A 
ATOM      9  C   LIG d   1       2.863  -0.178  -3.994  0.00  0.00    -0.035 A 
ATOM     10  C   LIG d   1       4.616  -2.243  -3.364  0.00  0.00    -0.046 A 
ATOM     11  S   LIG d   1       5.885  -1.615  -5.910  0.00  0.00    -0.061 SA
ATOM     12  C   LIG d   1       3.588  -1.918  -2.499  0.00  0.00    -0.061 A 
ATOM     13  H   LIG d   1       5.299  -3.043  -3.120  0.00  0.00     0.063 H 
ATOM     14  C   LIG d   1       2.724  -0.883  -2.828  0.00  0.00    -0.060 A 
ATOM     15  H   LIG d   1       3.461  -2.461  -1.574  0.00  0.00     0.062 H 
ATOM     16  H   LIG d   1       1.924  -0.627  -2.148  0.00  0.00     0.062 H 
ATOM     17  H   LIG d   1       2.174   0.622  -4.220  0.00  0.00     0.064 H 
ENDBRANCH   4   5
ENDBRANCH   1   4
BRANCH   1  18
ATOM     18  C   LIG d   1       3.327   0.445  -9.778  0.00  0.00    -0.037 A 
ATOM     19  C   LIG d   1       2.146  -0.095  -9.306  0.00  0.00    -0.051 A 
ATOM     20  C   LIG d   1       1.359  -0.870 -10.138  0.00  0.00     0.016 A 
ATOM     21  H   LIG d   1       1.836   0.088  -8.288  0.00  0.00     0.062 H 
ATOM     22  C   LIG d   1       1.755  -1.104 -11.443  0.00  0.00     0.273 A 
ATOM     23  H   LIG d   1       0.437  -1.293  -9.770  0.00  0.00     0.069 H 
ATOM     24  C   LIG d   1       2.938  -0.564 -11.914  0.00  0.00     0.016 A 
ATOM     25  C   LIG d   1       3.721   0.216 -11.083  0.00  0.00    -0.051 A 
ATOM     26  H   LIG d   1       3.247  -0.747 -12.932  0.00  0.00     0.069 H 
ATOM     27  H   LIG d   1       4.642   0.641 -11.452  0.00  0.00     0.062 H 
BRANCH  22  28
ATOM     28  N   LIG d   1       0.914  -1.934 -12.333  0.00  0.00     0.080 N 
ATOM     29  O   LIG d   1      -0.174  -1.526 -12.697  0.00  0.00     0.041 OA
ATOM     30  O   LIG d   1       1.310  -3.026 -12.701  0.00  0.00    -0.576 OA
ENDBRANCH  22  28
ENDBRANCH   1  18
TORSDOF 4
ENDMDL
MODEL 3
REMARK VINA RESULT:      -6.3      5.390      7.299
REMARK  4 active torsions:
REMARK  status: ('A' for Active; 'I' for Inactive)
REMARK    1  A    between atoms: C_8  and  S_10 
REMARK    2  A    between atoms: S_10  and  C_11 
REMARK    3  A    between atoms: C_11  and  C_12 
REMARK    4  A    between atoms: C_15  and  N_18 
ROOT
ATOM      1  C   LIG d   1       6.168  -3.343  -5.447  0.00  0.00     0.025 C 
ATOM      2  H   LIG d   1       6.310  -4.263  -4.879  0.00  0.00     0.043 H 
ATOM      3  H   LIG d   1       7.116  -3.038  -5.889  0.00  0.00     0.043 H 
ENDROOT
BRANCH   1   4
ATOM      4  S   LIG d   1       4.953  -3.625  -6.758  0.00  0.00    -0.094 SA
BRANCH   4   5
ATOM      5  C   LIG d   1       4.856  -2.003  -7.440  0.00  0.00     0.136 A 
ATOM      6  N   LIG d   1       3.838  -1.173  -7.449  0.00  0.00    -0.233 NA
ATOM      7  C   LIG d   1       3.908   0.052  -8.015  0.00  0.00     0.080 A 
ATOM      8  C   LIG d   1       5.150   0.389  -8.599  0.00  0.00     0.040 A 
ATOM      9  C   LIG d   1       2.895   1.036  -8.094  0.00  0.00    -0.035 A 
ATOM     10  C   LIG d   1       5.378   1.592  -9.217  0.00  0.00    -0.046 A 
ATOM     11  S   LIG d   1       6.119  -1.070  -8.294  0.00  0.00    -0.061 SA
ATOM     12  C   LIG d   1       4.366   2.534  -9.269  0.00  0.00    -0.061 A 
ATOM     13  H   LIG d   1       6.341   1.805  -9.655  0.00  0.00     0.063 H 
ATOM     14  C   LIG d   1       3.133   2.239  -8.706  0.00  0.00    -0.060 A 
ATOM     15  H   LIG d   1       4.532   3.487  -9.748  0.00  0.00     0.062 H 
ATOM     16  H   LIG d   1       2.342   2.973  -8.752  0.00  0.00     0.062 H 
ATOM     17  H   LIG d   1       1.924   0.838  -7.665  0.00  0.00     0.064 H 
ENDBRANCH   4   5
ENDBRANCH   1   4
BRANCH   1  18
ATOM     18  C   LIG d   1       5.672  -2.258  -4.525  0.00  0.00    -0.037 A 
ATOM     19  C   LIG d   1       6.347  -1.056  -4.447  0.00  0.00    -0.051 A 
ATOM     20  C   LIG d   1       5.892  -0.060  -3.602  0.00  0.00     0.016 A 
ATOM     21  H   LIG d   1       7.231  -0.891  -5.046  0.00  0.00     0.062 H 
ATOM     22  C   LIG d   1       4.760  -0.269  -2.835  0.00  0.00     0.273 A 
ATOM     23  H   LIG d   1       6.420   0.879  -3.540  0.00  0.00     0.069 H 
ATOM     24  C   LIG d   1       4.084  -1.473  -2.914  0.00  0.00     0.016 A 
ATOM     25  C   LIG d   1       4.538  -2.466  -3.763  0.00  0.00    -0.051 A 
ATOM     26  H   LIG d   1       3.200  -1.636  -2.316  0.00  0.00     0.069 H 
ATOM     27  H   LIG d   1       4.007  -3.404  -3.827  0.00  0.00     0.062 H 
BRANCH  22  28
ATOM     28  N   LIG d   1       4.272   0.796  -1.931  0.00  0.00     0.080 N 
ATOM     29  O   LIG d   1       3.183   1.306  -2.122  0.00  0.00     0.041 OA
ATOM     30  O   LIG d   1       4.962   1.163  -0.995  0.00  0.00    -0.576 OA
ENDBRANCH  22  28
ENDBRANCH   1  18
TORSDOF 4
ENDMDL
MODEL 4
REMARK VINA RESULT:      -6.1      7.513     10.207
REMARK  4 active torsions:
REMARK  status: ('A' for Active; 'I' for Inactive)
REMARK    1  A    between atoms: C_8  and  S_10 
REMARK    2  A    between atoms: S_10  and  C_11 
REMARK    3  A    between atoms: C_11  and  C_12 
REMARK    4  A    between atoms: C_15  and  N_18 
ROOT
ATOM      1  C   LIG d   1       7.611  -3.912  -5.832  0.00  0.00     0.025 C 
ATOM      2  H   LIG d   1       6.977  -3.119  -6.227  0.00  0.00     0.043 H 
ATOM      3  H   LIG d   1       8.450  -4.079  -6.507  0.00  0.00     0.043 H 
ENDROOT
BRANCH   1   4
ATOM      4  S   LIG d   1       8.235  -3.428  -4.203  0.00  0.00    -0.094 SA
BRANCH   4   5
ATOM      5  C   LIG d   1       7.036  -2.214  -3.764  0.00  0.00     0.136 A 
ATOM      6  N   LIG d   1       5.753  -2.371  -3.526  0.00  0.00    -0.233 NA
ATOM      7  C   LIG d   1       4.946  -1.338  -3.198  0.00  0.00     0.080 A 
ATOM      8  C   LIG d   1       5.569  -0.072  -3.124  0.00  0.00     0.040 A 
ATOM      9  C   LIG d   1       3.560  -1.369  -2.918  0.00  0.00    -0.035 A 
ATOM     10  C   LIG d   1       4.884   1.074  -2.808  0.00  0.00    -0.046 A 
ATOM     11  S   LIG d   1       7.256  -0.455  -3.530  0.00  0.00    -0.061 SA
ATOM     12  C   LIG d   1       3.530   1.006  -2.534  0.00  0.00    -0.061 A 
ATOM     13  H   LIG d   1       5.399   2.022  -2.768  0.00  0.00     0.063 H 
ATOM     14  C   LIG d   1       2.885  -0.221  -2.596  0.00  0.00    -0.060 A 
ATOM     15  H   LIG d   1       2.979   1.899  -2.279  0.00  0.00     0.062 H 
ATOM     16  H   LIG d   1       1.826  -0.272  -2.387  0.00  0.00     0.062 H 
ATOM     17  H   LIG d   1       3.028  -2.308  -2.958  0.00  0.00     0.064 H 
ENDBRANCH   4   5
ENDBRANCH   1   4
BRANCH   1  18
ATOM     18  C   LIG d   1       6.807  -5.182  -5.705  0.00  0.00    -0.037 A 
ATOM     19  C   LIG d   1       7.441  -6.376  -5.426  0.00  0.00    -0.051 A 
ATOM     20  C   LIG d   1       6.704  -7.540  -5.310  0.00  0.00     0.016 A 
ATOM     21  H   LIG d   1       8.514  -6.402  -5.297  0.00  0.00     0.062 H 
ATOM     22  C   LIG d   1       5.331  -7.508  -5.474  0.00  0.00     0.273 A 
ATOM     23  H   LIG d   1       7.199  -8.474  -5.092  0.00  0.00     0.069 H 
ATOM     24  C   LIG d   1       4.697  -6.311  -5.754  0.00  0.00     0.016 A 
ATOM     25  C   LIG d   1       5.434  -5.147  -5.865  0.00  0.00    -0.051 A 
ATOM     26  H   LIG d   1       3.625  -6.286  -5.882  0.00  0.00     0.069 H 
ATOM     27  H   LIG d   1       4.938  -4.213  -6.080  0.00  0.00     0.062 H 
BRANCH  22  28
ATOM     28  N   LIG d   1       4.542  -8.753  -5.350  0.00  0.00     0.080 N 
ATOM     29  O   LIG d   1       4.086  -9.081  -4.270  0.00  0.00     0.041 OA
ATOM     30  O   LIG d   1       4.348  -9.451  -6.331  0.00  0.00    -0.576 OA
ENDBRANCH  22  28
ENDBRANCH   1  18
TORSDOF 4
ENDMDL
MODEL 5
REMARK VINA RESULT:      -6.1      5.491      7.743
REMARK  4 active torsions:
REMARK  status: ('A' for Active; 'I' for Inactive)
REMARK    1  A    between atoms: C_8  and  S_10 
REMARK    2  A    between atoms: S_10  and  C_11 
REMARK    3  A    between atoms: C_11  and  C_12 
REMARK    4  A    between atoms: C_15  and  N_18 
ROOT
ATOM      1  C   LIG d   1       4.977  -4.230  -4.910  0.00  0.00     0.025 C 
ATOM      2  H   LIG d   1       3.931  -4.466  -5.104  0.00  0.00     0.043 H 
ATOM      3  H   LIG d   1       5.406  -4.989  -4.256  0.00  0.00     0.043 H 
ENDROOT
BRANCH   1   4
ATOM      4  S   LIG d   1       5.888  -4.196  -6.474  0.00  0.00    -0.094 SA
BRANCH   4   5
ATOM      5  C   LIG d   1       4.693  -3.415  -7.507  0.00  0.00     0.136 A 
ATOM      6  N   LIG d   1       4.349  -2.148  -7.555  0.00  0.00    -0.233 NA
ATOM      7  C   LIG d   1       3.407  -1.686  -8.406  0.00  0.00     0.080 A 
ATOM      8  C   LIG d   1       2.811  -2.653  -9.247  0.00  0.00     0.040 A 
ATOM      9  C   LIG d   1       2.945  -0.357  -8.560  0.00  0.00    -0.035 A 
ATOM     10  C   LIG d   1       1.835  -2.342 -10.160  0.00  0.00    -0.046 A 
ATOM     11  S   LIG d   1       3.642  -4.145  -8.755  0.00  0.00    -0.061 SA
ATOM     12  C   LIG d   1       1.413  -1.032 -10.287  0.00  0.00    -0.061 A 
ATOM     13  H   LIG d   1       1.403  -3.115 -10.778  0.00  0.00     0.063 H 
ATOM     14  C   LIG d   1       1.976  -0.054  -9.479  0.00  0.00    -0.060 A 
ATOM     15  H   LIG d   1       0.649  -0.772 -11.006  0.00  0.00     0.062 H 
ATOM     16  H   LIG d   1       1.642   0.968  -9.577  0.00  0.00     0.062 H 
ATOM     17  H   LIG d   1       3.363   0.427  -7.946  0.00  0.00     0.064 H 
ENDBRANCH   4   5
ENDBRANCH   1   4
BRANCH   1  18
ATOM     18  C   LIG d   1       5.071  -2.881  -4.244  0.00  0.00    -0.037 A 
ATOM     19  C   LIG d   1       4.062  -2.454  -3.403  0.00  0.00    -0.051 A 
ATOM     20  C   LIG d   1       4.148  -1.217  -2.791  0.00  0.00     0.016 A 
ATOM     21  H   LIG d   1       3.204  -3.086  -3.222  0.00  0.00     0.062 H 
ATOM     22  C   LIG d   1       5.246  -0.407  -3.022  0.00  0.00     0.273 A 
ATOM     23  H   LIG d   1       3.359  -0.882  -2.135  0.00  0.00     0.069 H 
ATOM     24  C   LIG d   1       6.256  -0.835  -3.864  0.00  0.00     0.016 A 
ATOM     25  C   LIG d   1       6.171  -2.075  -4.471  0.00  0.00    -0.051 A 
ATOM     26  H   LIG d   1       7.113  -0.203  -4.044  0.00  0.00     0.069 H 
ATOM     27  H   LIG d   1       6.961  -2.411  -5.124  0.00  0.00     0.062 H 
BRANCH  22  28
ATOM     28  N   LIG d   1       5.338   0.917  -2.368  0.00  0.00     0.080 N 
ATOM     29  O   LIG d   1       4.797   1.105  -1.294  0.00  0.00     0.041 OA
ATOM     30  O   LIG d   1       5.956   1.819  -2.906  0.00  0.00    -0.576 OA
ENDBRANCH  22  28
ENDBRANCH   1  18
TORSDOF 4
ENDMDL
MODEL 6
REMARK VINA RESULT:      -6.0      3.851      4.548
REMARK  4 active torsions:
REMARK  status: ('A' for Active; 'I' for Inactive)
REMARK    1  A    between atoms: C_8  and  S_10 
REMARK    2  A    between atoms: S_10  and  C_11 
REMARK    3  A    between atoms: C_11  and  C_12 
REMARK    4  A    between atoms: C_15  and  N_18 
ROOT
ATOM      1  C   LIG d   1       9.385   1.989  -5.811  0.00  0.00     0.025 C 
ATOM      2  H   LIG d   1      10.422   1.695  -5.649  0.00  0.00     0.043 H 
ATOM      3  H   LIG d   1       8.805   1.121  -6.120  0.00  0.00     0.043 H 
ENDROOT
BRANCH   1   4
ATOM      4  S   LIG d   1       8.700   2.656  -4.274  0.00  0.00    -0.094 SA
BRANCH   4   5
ATOM      5  C   LIG d   1       7.545   1.386  -3.877  0.00  0.00     0.136 A 
ATOM      6  N   LIG d   1       6.434   1.471  -3.180  0.00  0.00    -0.233 NA
ATOM      7  C   LIG d   1       5.638   0.403  -2.953  0.00  0.00     0.080 A 
ATOM      8  C   LIG d   1       6.075  -0.818  -3.513  0.00  0.00     0.040 A 
ATOM      9  C   LIG d   1       4.425   0.357  -2.226  0.00  0.00    -0.035 A 
ATOM     10  C   LIG d   1       5.381  -1.992  -3.366  0.00  0.00    -0.046 A 
ATOM     11  S   LIG d   1       7.587  -0.346  -4.319  0.00  0.00    -0.061 SA
ATOM     12  C   LIG d   1       4.195  -1.999  -2.655  0.00  0.00    -0.061 A 
ATOM     13  H   LIG d   1       5.755  -2.905  -3.807  0.00  0.00     0.063 H 
ATOM     14  C   LIG d   1       3.734  -0.818  -2.091  0.00  0.00    -0.060 A 
ATOM     15  H   LIG d   1       3.635  -2.915  -2.535  0.00  0.00     0.062 H 
ATOM     16  H   LIG d   1       2.810  -0.825  -1.531  0.00  0.00     0.062 H 
ATOM     17  H   LIG d   1       4.040   1.259  -1.775  0.00  0.00     0.064 H 
ENDBRANCH   4   5
ENDBRANCH   1   4
BRANCH   1  18
ATOM     18  C   LIG d   1       9.325   3.043  -6.887  0.00  0.00    -0.037 A 
ATOM     19  C   LIG d   1       8.829   2.727  -8.137  0.00  0.00    -0.051 A 
ATOM     20  C   LIG d   1       8.774   3.694  -9.124  0.00  0.00     0.016 A 
ATOM     21  H   LIG d   1       8.484   1.725  -8.344  0.00  0.00     0.062 H 
ATOM     22  C   LIG d   1       9.215   4.978  -8.859  0.00  0.00     0.273 A 
ATOM     23  H   LIG d   1       8.387   3.447 -10.101  0.00  0.00     0.069 H 
ATOM     24  C   LIG d   1       9.712   5.294  -7.608  0.00  0.00     0.016 A 
ATOM     25  C   LIG d   1       9.762   4.327  -6.620  0.00  0.00    -0.051 A 
ATOM     26  H   LIG d   1      10.056   6.296  -7.401  0.00  0.00     0.069 H 
ATOM     27  H   LIG d   1      10.145   4.575  -5.642  0.00  0.00     0.062 H 
BRANCH  22  28
ATOM     28  N   LIG d   1       9.156   6.012  -9.915  0.00  0.00     0.080 N 
ATOM     29  O   LIG d   1       9.777   7.053  -9.785  0.00  0.00     0.041 OA
ATOM     30  O   LIG d   1       8.486   5.824 -10.915  0.00  0.00    -0.576 OA
ENDBRANCH  22  28
ENDBRANCH   1  18
TORSDOF 4
ENDMDL
MODEL 7
REMARK VINA RESULT:      -5.9      8.253     10.175
REMARK  4 active torsions:
REMARK  status: ('A' for Active; 'I' for Inactive)
REMARK    1  A    between atoms: C_8  and  S_10 
REMARK    2  A    between atoms: S_10  and  C_11 
REMARK    3  A    between atoms: C_11  and  C_12 
REMARK    4  A    between atoms: C_15  and  N_18 
ROOT
ATOM      1  C   LIG d   1       2.043  -0.232  -9.254  0.00  0.00     0.025 C 
ATOM      2  H   LIG d   1       2.083  -1.160  -8.683  0.00  0.00     0.043 H 
ATOM      3  H   LIG d   1       1.011   0.108  -9.325  0.00  0.00     0.043 H 
ENDROOT
BRANCH   1   4
ATOM      4  S   LIG d   1       3.038   1.031  -8.422  0.00  0.00    -0.094 SA
BRANCH   4   5
ATOM      5  C   LIG d   1       3.416   0.184  -6.923  0.00  0.00     0.136 A 
ATOM      6  N   LIG d   1       3.063   0.488  -5.695  0.00  0.00    -0.233 NA
ATOM      7  C   LIG d   1       3.430  -0.260  -4.631  0.00  0.00     0.080 A 
ATOM      8  C   LIG d   1       4.219  -1.395  -4.921  0.00  0.00     0.040 A 
ATOM      9  C   LIG d   1       3.120  -0.047  -3.267  0.00  0.00    -0.035 A 
ATOM     10  C   LIG d   1       4.675  -2.250  -3.949  0.00  0.00    -0.046 A 
ATOM     11  S   LIG d   1       4.377  -1.305  -6.689  0.00  0.00    -0.061 SA
ATOM     12  C   LIG d   1       4.348  -2.015  -2.626  0.00  0.00    -0.061 A 
ATOM     13  H   LIG d   1       5.281  -3.103  -4.215  0.00  0.00     0.063 H 
ATOM     14  C   LIG d   1       3.573  -0.910  -2.303  0.00  0.00    -0.060 A 
ATOM     15  H   LIG d   1       4.695  -2.682  -1.851  0.00  0.00     0.062 H 
ATOM     16  H   LIG d   1       3.322  -0.725  -1.269  0.00  0.00     0.062 H 
ATOM     17  H   LIG d   1       2.519   0.804  -2.982  0.00  0.00     0.064 H 
ENDBRANCH   4   5
ENDBRANCH   1   4
BRANCH   1  18
ATOM     18  C   LIG d   1       2.590  -0.473 -10.638  0.00  0.00    -0.037 A 
ATOM     19  C   LIG d   1       3.757   0.150 -11.038  0.00  0.00    -0.051 A 
ATOM     20  C   LIG d   1       4.259  -0.071 -12.307  0.00  0.00     0.016 A 
ATOM     21  H   LIG d   1       4.278   0.810 -10.359  0.00  0.00     0.062 H 
ATOM     22  C   LIG d   1       3.592  -0.915 -13.177  0.00  0.00     0.273 A 
ATOM     23  H   LIG d   1       5.170   0.417 -12.620  0.00  0.00     0.069 H 
ATOM     24  C   LIG d   1       2.425  -1.538 -12.776  0.00  0.00     0.016 A 
ATOM     25  C   LIG d   1       1.926  -1.321 -11.504  0.00  0.00    -0.051 A 
ATOM     26  H   LIG d   1       1.905  -2.197 -13.455  0.00  0.00     0.069 H 
ATOM     27  H   LIG d   1       1.017  -1.811 -11.191  0.00  0.00     0.062 H 
BRANCH  22  28
ATOM     28  N   LIG d   1       4.129  -1.151 -14.535  0.00  0.00     0.080 N 
ATOM     29  O   LIG d   1       4.433  -0.207 -15.243  0.00  0.00     0.041 OA
ATOM     30  O   LIG d   1       4.267  -2.290 -14.946  0.00  0.00    -0.576 OA
ENDBRANCH  22  28
ENDBRANCH   1  18
TORSDOF 4
ENDMDL
MODEL 8
REMARK VINA RESULT:      -5.7      8.713     11.011
REMARK  4 active torsions:
REMARK  status: ('A' for Active; 'I' for Inactive)
REMARK    1  A    between atoms: C_8  and  S_10 
REMARK    2  A    between atoms: S_10  and  C_11 
REMARK    3  A    between atoms: C_11  and  C_12 
REMARK    4  A    between atoms: C_15  and  N_18 
ROOT
ATOM      1  C   LIG d   1       3.168  -1.755  -8.718  0.00  0.00     0.025 C 
ATOM      2  H   LIG d   1       4.198  -1.971  -9.001  0.00  0.00     0.043 H 
ATOM      3  H   LIG d   1       2.871  -2.408  -7.897  0.00  0.00     0.043 H 
ENDROOT
BRANCH   1   4
ATOM      4  S   LIG d   1       3.037  -0.028  -8.192  0.00  0.00    -0.094 SA
BRANCH   4   5
ATOM      5  C   LIG d   1       3.485  -0.189  -6.496  0.00  0.00     0.136 A 
ATOM      6  N   LIG d   1       3.266   0.644  -5.503  0.00  0.00    -0.233 NA
ATOM      7  C   LIG d   1       3.671   0.388  -4.240  0.00  0.00     0.080 A 
ATOM      8  C   LIG d   1       4.347  -0.839  -4.049  0.00  0.00     0.040 A 
ATOM      9  C   LIG d   1       3.502   1.192  -3.089  0.00  0.00    -0.035 A 
ATOM     10  C   LIG d   1       4.825  -1.240  -2.827  0.00  0.00    -0.046 A 
ATOM     11  S   LIG d   1       4.352  -1.528  -5.688  0.00  0.00    -0.061 SA
ATOM     12  C   LIG d   1       4.635  -0.431  -1.722  0.00  0.00    -0.061 A 
ATOM     13  H   LIG d   1       5.341  -2.184  -2.728  0.00  0.00     0.063 H 
ATOM     14  C   LIG d   1       3.975   0.780  -1.871  0.00  0.00    -0.060 A 
ATOM     15  H   LIG d   1       5.001  -0.737  -0.753  0.00  0.00     0.062 H 
ATOM     16  H   LIG d   1       3.832   1.413  -1.007  0.00  0.00     0.062 H 
ATOM     17  H   LIG d   1       2.992   2.141  -3.171  0.00  0.00     0.064 H 
ENDBRANCH   4   5
ENDBRANCH   1   4
BRANCH   1  18
ATOM     18  C   LIG d   1       2.263  -1.991  -9.900  0.00  0.00    -0.037 A 
ATOM     19  C   LIG d   1       1.847  -3.272 -10.207  0.00  0.00    -0.051 A 
ATOM     20  C   LIG d   1       1.016  -3.488 -11.292  0.00  0.00     0.016 A 
ATOM     21  H   LIG d   1       2.169  -4.106  -9.600  0.00  0.00     0.062 H 
ATOM     22  C   LIG d   1       0.603  -2.421 -12.069  0.00  0.00     0.273 A 
ATOM     23  H   LIG d   1       0.692  -4.489 -11.532  0.00  0.00     0.069 H 
ATOM     24  C   LIG d   1       1.020  -1.139 -11.761  0.00  0.00     0.016 A 
ATOM     25  C   LIG d   1       1.847  -0.924 -10.674  0.00  0.00    -0.051 A 
ATOM     26  H   LIG d   1       0.698  -0.307 -12.368  0.00  0.00     0.069 H 
ATOM     27  H   LIG d   1       2.168   0.078 -10.431  0.00  0.00     0.062 H 
BRANCH  22  28
ATOM     28  N   LIG d   1      -0.285  -2.652 -13.230  0.00  0.00     0.080 N 
ATOM     29  O   LIG d   1       0.086  -3.358 -14.150  0.00  0.00     0.041 OA
ATOM     30  O   LIG d   1      -1.388  -2.136 -13.264  0.00  0.00    -0.576 OA
ENDBRANCH  22  28
ENDBRANCH   1  18
TORSDOF 4
ENDMDL
MODEL 9
REMARK VINA RESULT:      -5.6      5.884      7.841
REMARK  4 active torsions:
REMARK  status: ('A' for Active; 'I' for Inactive)
REMARK    1  A    between atoms: C_8  and  S_10 
REMARK    2  A    between atoms: S_10  and  C_11 
REMARK    3  A    between atoms: C_11  and  C_12 
REMARK    4  A    between atoms: C_15  and  N_18 
ROOT
ATOM      1  C   LIG d   1       4.700  -3.639  -5.549  0.00  0.00     0.025 C 
ATOM      2  H   LIG d   1       3.857  -3.670  -6.240  0.00  0.00     0.043 H 
ATOM      3  H   LIG d   1       4.725  -4.559  -4.965  0.00  0.00     0.043 H 
ENDROOT
BRANCH   1   4
ATOM      4  S   LIG d   1       6.241  -3.476  -6.485  0.00  0.00    -0.094 SA
BRANCH   4   5
ATOM      5  C   LIG d   1       7.382  -4.125  -5.310  0.00  0.00     0.136 A 
ATOM      6  N   LIG d   1       7.787  -5.366  -5.153  0.00  0.00    -0.233 NA
ATOM      7  C   LIG d   1       8.675  -5.722  -4.199  0.00  0.00     0.080 A 
ATOM      8  C   LIG d   1       9.147  -4.673  -3.377  0.00  0.00     0.040 A 
ATOM      9  C   LIG d   1       9.191  -7.010  -3.924  0.00  0.00    -0.035 A 
ATOM     10  C   LIG d   1      10.047  -4.875  -2.361  0.00  0.00    -0.046 A 
ATOM     11  S   LIG d   1       8.284  -3.263  -4.029  0.00  0.00    -0.061 SA
ATOM     12  C   LIG d   1      10.535  -6.147  -2.125  0.00  0.00    -0.061 A 
ATOM     13  H   LIG d   1      10.376  -4.045  -1.753  0.00  0.00     0.063 H 
ATOM     14  C   LIG d   1      10.096  -7.201  -2.913  0.00  0.00    -0.060 A 
ATOM     15  H   LIG d   1      11.248  -6.320  -1.332  0.00  0.00     0.062 H 
ATOM     16  H   LIG d   1      10.474  -8.195  -2.725  0.00  0.00     0.062 H 
ATOM     17  H   LIG d   1       8.869  -7.852  -4.519  0.00  0.00     0.064 H 
ENDBRANCH   4   5
ENDBRANCH   1   4
BRANCH   1  18
ATOM     18  C   LIG d   1       4.546  -2.459  -4.623  0.00  0.00    -0.037 A 
ATOM     19  C   LIG d   1       4.707  -1.176  -5.107  0.00  0.00    -0.051 A 
ATOM     20  C   LIG d   1       4.565  -0.093  -4.258  0.00  0.00     0.016 A 
ATOM     21  H   LIG d   1       4.941  -1.016  -6.150  0.00  0.00     0.062 H 
ATOM     22  C   LIG d   1       4.264  -0.297  -2.924  0.00  0.00     0.273 A 
ATOM     23  H   LIG d   1       4.692   0.910  -4.636  0.00  0.00     0.069 H 
ATOM     24  C   LIG d   1       4.104  -1.582  -2.440  0.00  0.00     0.016 A 
ATOM     25  C   LIG d   1       4.240  -2.664  -3.291  0.00  0.00    -0.051 A 
ATOM     26  H   LIG d   1       3.868  -1.741  -1.398  0.00  0.00     0.069 H 
ATOM     27  H   LIG d   1       4.111  -3.666  -2.913  0.00  0.00     0.062 H 
BRANCH  22  28
ATOM     28  N   LIG d   1       4.113   0.861  -2.015  0.00  0.00     0.080 N 
ATOM     29  O   LIG d   1       4.963   1.090  -1.174  0.00  0.00     0.041 OA
ATOM     30  O   LIG d   1       3.138   1.586  -2.109  0.00  0.00    -0.576 OA
ENDBRANCH  22  28
ENDBRANCH   1  18
TORSDOF 4
ENDMDL
MODEL 10
REMARK VINA RESULT:      -5.6      7.923     11.132
REMARK  4 active torsions:
REMARK  status: ('A' for Active; 'I' for Inactive)
REMARK    1  A    between atoms: C_8  and  S_10 
REMARK    2  A    between atoms: S_10  and  C_11 
REMARK    3  A    between atoms: C_11  and  C_12 
REMARK    4  A    between atoms: C_15  and  N_18 
ROOT
ATOM      1  C   LIG d   1       6.190  -5.296  -6.457  0.00  0.00     0.025 C 
ATOM      2  H   LIG d   1       6.566  -5.433  -7.471  0.00  0.00     0.043 H 
ATOM      3  H   LIG d   1       6.829  -4.593  -5.924  0.00  0.00     0.043 H 
ENDROOT
BRANCH   1   4
ATOM      4  S   LIG d   1       4.502  -4.645  -6.523  0.00  0.00    -0.094 SA
BRANCH   4   5
ATOM      5  C   LIG d   1       4.673  -3.240  -5.474  0.00  0.00     0.136 A 
ATOM      6  N   LIG d   1       4.299  -3.096  -4.223  0.00  0.00    -0.233 NA
ATOM      7  C   LIG d   1       4.496  -1.950  -3.536  0.00  0.00     0.080 A 
ATOM      8  C   LIG d   1       5.134  -0.909  -4.248  0.00  0.00     0.040 A 
ATOM      9  C   LIG d   1       4.145  -1.664  -2.196  0.00  0.00    -0.035 A 
ATOM     10  C   LIG d   1       5.400   0.317  -3.691  0.00  0.00    -0.046 A 
ATOM     11  S   LIG d   1       5.401  -1.649  -5.842  0.00  0.00    -0.061 SA
ATOM     12  C   LIG d   1       5.048   0.559  -2.376  0.00  0.00    -0.061 A 
ATOM     13  H   LIG d   1       5.885   1.085  -4.275  0.00  0.00     0.063 H 
ATOM     14  C   LIG d   1       4.421  -0.440  -1.645  0.00  0.00    -0.060 A 
ATOM     15  H   LIG d   1       5.256   1.517  -1.923  0.00  0.00     0.062 H 
ATOM     16  H   LIG d   1       4.142  -0.248  -0.619  0.00  0.00     0.062 H 
ATOM     17  H   LIG d   1       3.655  -2.419  -1.599  0.00  0.00     0.064 H 
ENDBRANCH   4   5
ENDBRANCH   1   4
BRANCH   1  18
ATOM     18  C   LIG d   1       6.190  -6.621  -5.738  0.00  0.00    -0.037 A 
ATOM     19  C   LIG d   1       7.363  -7.115  -5.201  0.00  0.00    -0.051 A 
ATOM     20  C   LIG d   1       7.364  -8.330  -4.541  0.00  0.00     0.016 A 
ATOM     21  H   LIG d   1       8.281  -6.552  -5.295  0.00  0.00     0.062 H 
ATOM     22  C   LIG d   1       6.189  -9.051  -4.420  0.00  0.00     0.273 A 
ATOM     23  H   LIG d   1       8.280  -8.717  -4.123  0.00  0.00     0.069 H 
ATOM     24  C   LIG d   1       5.016  -8.556  -4.957  0.00  0.00     0.016 A 
ATOM     25  C   LIG d   1       5.015  -7.338  -5.613  0.00  0.00    -0.051 A 
ATOM     26  H   LIG d   1       4.099  -9.118  -4.862  0.00  0.00     0.069 H 
ATOM     27  H   LIG d   1       4.098  -6.950  -6.028  0.00  0.00     0.062 H 
BRANCH  22  28
ATOM     28  N   LIG d   1       6.190 -10.351  -3.714  0.00  0.00     0.080 N 
ATOM     29  O   LIG d   1       5.290 -11.149  -3.906  0.00  0.00     0.041 OA
ATOM     30  O   LIG d   1       7.091 -10.623  -2.940  0.00  0.00    -0.576 OA
ENDBRANCH  22  28
ENDBRANCH   1  18
TORSDOF 4
ENDMDL
