MODEL 1
REMARK VINA RESULT:      -6.1      0.000      0.000
REMARK  23 active torsions:
REMARK  status: ('A' for Active; 'I' for Inactive)
REMARK    1  A    between atoms: C_1  and  C_2 
REMARK    2  A    between atoms: C_2  and  C_4 
REMARK    3  A    between atoms: C_2  and  C_40 
REMARK    4  A    between atoms: C_6  and  C_9 
REMARK    5  A    between atoms: C_9  and  C_10 
REMARK    6  A    between atoms: C_14  and  C_22 
REMARK    7  A    between atoms: C_16  and  O_21 
REMARK    8  A    between atoms: C_18  and  O_20 
REMARK    9  A    between atoms: C_22  and  C_23 
REMARK   10  A    between atoms: C_23  and  C_39 
REMARK   11  A    between atoms: C_24  and  C_25 
REMARK   12  A    between atoms: C_25  and  O_27 
REMARK   13  A    between atoms: O_27  and  C_28 
REMARK   14  A    between atoms: C_28  and  C_29 
REMARK   15  A    between atoms: C_29  and  C_30 
REMARK   16  A    between atoms: C_30  and  C_31 
REMARK   17  A    between atoms: C_31  and  C_32 
REMARK   18  A    between atoms: C_32  and  C_33 
REMARK   19  A    between atoms: C_33  and  C_34 
REMARK   20  A    between atoms: C_34  and  C_35 
REMARK   21  A    between atoms: C_35  and  C_36 
REMARK   22  A    between atoms: C_40  and  C_42 
REMARK   23  A    between atoms: C_40  and  O_43 
ROOT
ATOM      1  C   LIG d   1       1.397  -0.346  -9.821  0.00  0.00    -0.003 C 
ATOM      2  H   LIG d   1       1.040   0.415 -10.532  0.00  0.00     0.034 H 
ATOM      3  H   LIG d   1       0.593  -0.591  -9.112  0.00  0.00     0.034 H 
ENDROOT
BRANCH   1   4
ATOM      4  C   LIG d   1       1.806  -1.606 -10.585  0.00  0.00     0.091 C 
ATOM      5  O   LIG d   1       1.236  -2.753  -9.954  0.00  0.00    -0.373 OA
ATOM      6  C   LIG d   1       1.578  -3.993 -10.575  0.00  0.00     0.053 C 
ATOM      7  C   LIG d   1       1.062  -3.998 -12.017  0.00  0.00     0.013 C 
ATOM      8  H   LIG d   1       1.118  -4.823 -10.019  0.00  0.00     0.056 H 
ATOM      9  H   LIG d   1       2.672  -4.114 -10.577  0.00  0.00     0.056 H 
ATOM     10  H   LIG d   1       1.358  -4.934 -12.513  0.00  0.00     0.035 H 
ATOM     11  C   LIG d   1       1.660  -2.805 -12.770  0.00  0.00     0.088 C 
ATOM     12  C   LIG d   1       1.300  -1.515 -12.028  0.00  0.00     0.108 C 
ATOM     13  H   LIG d   1       2.748  -2.910 -12.892  0.00  0.00     0.062 H 
ATOM     14  H   LIG d   1       1.703  -0.629 -12.540  0.00  0.00     0.065 H 
ATOM     15  H   LIG d   1       2.896  -1.755 -10.554  0.00  0.00     0.063 H 
BRANCH   7  16
ATOM     16  C   LIG d   1      -0.464  -3.889 -12.014  0.00  0.00    -0.017 C 
ATOM     17  H   LIG d   1      -0.773  -3.050 -12.656  0.00  0.00     0.029 H 
ATOM     18  H   LIG d   1      -0.817  -3.715 -10.988  0.00  0.00     0.029 H 
BRANCH  16  19
ATOM     19  C   LIG d   1      -1.069  -5.189 -12.549  0.00  0.00     0.086 A 
ATOM     20  C   LIG d   1      -2.031  -5.955 -11.638  0.00  0.00     0.090 A 
ATOM     21  H   LIG d   1      -2.142  -6.997 -11.303  0.00  0.00     0.062 H 
ATOM     22  O   LIG d   1      -2.478  -5.222 -12.780  0.00  0.00    -0.368 OA
ATOM     23  H   LIG d   1      -0.186  -5.439 -13.155  0.00  0.00     0.062 H 
BRANCH  20  24
ATOM     24  C   LIG d   1      -2.322  -5.369 -10.255  0.00  0.00     0.011 C 
ATOM     25  H   LIG d   1      -1.535  -4.647  -9.989  0.00  0.00     0.035 H 
BRANCH  24  26
ATOM     26  C   LIG d   1      -3.678  -4.659 -10.277  0.00  0.00    -0.058 C 
ATOM     27  H   LIG d   1      -4.483  -5.406 -10.224  0.00  0.00     0.023 H 
ATOM     28  H   LIG d   1      -3.774  -4.081 -11.208  0.00  0.00     0.023 H 
ATOM     29  H   LIG d   1      -3.750  -3.980  -9.415  0.00  0.00     0.023 H 
ENDBRANCH  24  26
BRANCH  24  30
ATOM     30  C   LIG d   1      -2.353  -6.494  -9.220  0.00  0.00     0.057 C 
ATOM     31  H   LIG d   1      -3.348  -6.586  -8.759  0.00  0.00     0.059 H 
BRANCH  30  32
ATOM     32  C   LIG d   1      -1.926  -7.807  -9.881  0.00  0.00    -0.039 C 
ATOM     33  H   LIG d   1      -1.261  -8.360  -9.201  0.00  0.00     0.025 H 
ATOM     34  H   LIG d   1      -1.392  -7.588 -10.818  0.00  0.00     0.025 H 
ATOM     35  H   LIG d   1      -2.816  -8.414 -10.100  0.00  0.00     0.025 H 
ENDBRANCH  30  32
BRANCH  30  36
ATOM     36  O   LIG d   1      -1.456  -6.185  -8.152  0.00  0.00    -0.392 OA
ATOM     37  H   LIG d   1      -0.988  -5.191  -8.096  0.00  0.00     0.210 HD
ENDBRANCH  30  36
ENDBRANCH  24  30
ENDBRANCH  20  24
ENDBRANCH  16  19
ENDBRANCH   7  16
BRANCH  11  38
ATOM     38  O   LIG d   1       1.127  -2.760 -14.094  0.00  0.00    -0.389 OA
ATOM     39  H   LIG d   1       0.124  -3.163 -14.298  0.00  0.00     0.210 HD
ENDBRANCH  11  38
BRANCH  12  40
ATOM     40  O   LIG d   1      -0.119  -1.346 -12.025  0.00  0.00    -0.387 OA
ATOM     41  H   LIG d   1      -0.769  -2.150 -11.648  0.00  0.00     0.210 HD
ENDBRANCH  12  40
ENDBRANCH   1   4
BRANCH   1  42
ATOM     42  C   LIG d   1       2.585   0.192  -9.067  0.00  0.00    -0.063 C 
ATOM     43  C   LIG d   1       3.379  -0.639  -8.394  0.00  0.00     0.022 C 
ATOM     44  H   LIG d   1       3.200  -1.723  -8.435  0.00  0.00     0.069 H 
BRANCH  43  45
ATOM     45  C   LIG d   1       4.492  -0.108  -7.595  0.00  0.00     0.332 C 
ATOM     46  O   LIG d   1       5.599  -0.005  -8.088  0.00  0.00    -0.246 OA
BRANCH  45  47
ATOM     47  O   LIG d   1       4.288   0.265  -6.317  0.00  0.00    -0.462 OA
BRANCH  47  48
ATOM     48  C   LIG d   1       3.119  -0.280  -5.650  0.00  0.00     0.093 C 
ATOM     49  H   LIG d   1       2.326  -0.460  -6.389  0.00  0.00     0.070 H 
ATOM     50  H   LIG d   1       3.386  -1.229  -5.160  0.00  0.00     0.070 H 
BRANCH  48  51
ATOM     51  C   LIG d   1       2.622   0.714  -4.598  0.00  0.00    -0.018 C 
ATOM     52  H   LIG d   1       3.182   1.657  -4.691  0.00  0.00     0.030 H 
ATOM     53  H   LIG d   1       1.551   0.908  -4.755  0.00  0.00     0.030 H 
BRANCH  51  54
ATOM     54  C   LIG d   1       2.837   0.129  -3.201  0.00  0.00    -0.050 C 
ATOM     55  H   LIG d   1       1.861  -0.071  -2.734  0.00  0.00     0.027 H 
ATOM     56  H   LIG d   1       3.404  -0.810  -3.280  0.00  0.00     0.027 H 
BRANCH  54  57
ATOM     57  C   LIG d   1       3.618   1.127  -2.344  0.00  0.00    -0.053 C 
ATOM     58  H   LIG d   1       3.742   2.068  -2.900  0.00  0.00     0.026 H 
ATOM     59  H   LIG d   1       3.065   1.322  -1.413  0.00  0.00     0.026 H 
BRANCH  57  60
ATOM     60  C   LIG d   1       4.993   0.546  -2.010  0.00  0.00    -0.053 C 
ATOM     61  H   LIG d   1       5.339   0.953  -1.049  0.00  0.00     0.026 H 
ATOM     62  H   LIG d   1       4.920  -0.550  -1.939  0.00  0.00     0.026 H 
BRANCH  60  63
ATOM     63  C   LIG d   1       5.987   0.921  -3.111  0.00  0.00    -0.053 C 
ATOM     64  H   LIG d   1       5.451   1.414  -3.935  0.00  0.00     0.026 H 
ATOM     65  H   LIG d   1       6.743   1.607  -2.703  0.00  0.00     0.026 H 
BRANCH  63  66
ATOM     66  C   LIG d   1       6.672  -0.344  -3.631  0.00  0.00    -0.048 C 
ATOM     67  H   LIG d   1       6.559  -0.400  -4.723  0.00  0.00     0.027 H 
ATOM     68  H   LIG d   1       7.741  -0.314  -3.373  0.00  0.00     0.027 H 
BRANCH  66  69
ATOM     69  C   LIG d   1       6.027  -1.574  -2.987  0.00  0.00    -0.013 C 
ATOM     70  H   LIG d   1       6.784  -2.127  -2.414  0.00  0.00     0.033 H 
ATOM     71  H   LIG d   1       5.218  -1.253  -2.313  0.00  0.00     0.033 H 
BRANCH  69  72
ATOM     72  C   LIG d   1       5.460  -2.464  -4.063  0.00  0.00     0.042 C 
ATOM     73  O   LIG d   1       6.000  -2.525  -5.143  0.00  0.00    -0.550 OA
ATOM     74  O   LIG d   1       4.358  -3.191  -3.821  0.00  0.00    -0.550 OA
ENDBRANCH  69  72
ENDBRANCH  66  69
ENDBRANCH  63  66
ENDBRANCH  60  63
ENDBRANCH  57  60
ENDBRANCH  54  57
ENDBRANCH  51  54
ENDBRANCH  48  51
ENDBRANCH  47  48
ENDBRANCH  45  47
ENDBRANCH  43  45
BRANCH  42  75
ATOM     75  C   LIG d   1       2.877   1.671  -9.074  0.00  0.00    -0.043 C 
ATOM     76  H   LIG d   1       3.655   1.888  -9.820  0.00  0.00     0.027 H 
ATOM     77  H   LIG d   1       3.225   1.981  -8.078  0.00  0.00     0.027 H 
ATOM     78  H   LIG d   1       1.961   2.223  -9.331  0.00  0.00     0.027 H 
ENDBRANCH  42  75
ENDBRANCH   1  42
TORSDOF 23
ENDMDL
MODEL 2
REMARK VINA RESULT:      -6.0      1.717      2.291
REMARK  23 active torsions:
REMARK  status: ('A' for Active; 'I' for Inactive)
REMARK    1  A    between atoms: C_1  and  C_2 
REMARK    2  A    between atoms: C_2  and  C_4 
REMARK    3  A    between atoms: C_2  and  C_40 
REMARK    4  A    between atoms: C_6  and  C_9 
REMARK    5  A    between atoms: C_9  and  C_10 
REMARK    6  A    between atoms: C_14  and  C_22 
REMARK    7  A    between atoms: C_16  and  O_21 
REMARK    8  A    between atoms: C_18  and  O_20 
REMARK    9  A    between atoms: C_22  and  C_23 
REMARK   10  A    between atoms: C_23  and  C_39 
REMARK   11  A    between atoms: C_24  and  C_25 
REMARK   12  A    between atoms: C_25  and  O_27 
REMARK   13  A    between atoms: O_27  and  C_28 
REMARK   14  A    between atoms: C_28  and  C_29 
REMARK   15  A    between atoms: C_29  and  C_30 
REMARK   16  A    between atoms: C_30  and  C_31 
REMARK   17  A    between atoms: C_31  and  C_32 
REMARK   18  A    between atoms: C_32  and  C_33 
REMARK   19  A    between atoms: C_33  and  C_34 
REMARK   20  A    between atoms: C_34  and  C_35 
REMARK   21  A    between atoms: C_35  and  C_36 
REMARK   22  A    between atoms: C_40  and  C_42 
REMARK   23  A    between atoms: C_40  and  O_43 
ROOT
ATOM      1  C   LIG d   1       1.484  -0.580  -9.797  0.00  0.00    -0.003 C 
ATOM      2  H   LIG d   1       1.005   0.162 -10.455  0.00  0.00     0.034 H 
ATOM      3  H   LIG d   1       0.711  -1.121  -9.231  0.00  0.00     0.034 H 
ENDROOT
BRANCH   1   4
ATOM      4  C   LIG d   1       2.285  -1.570 -10.642  0.00  0.00     0.091 C 
ATOM      5  O   LIG d   1       2.480  -2.778  -9.905  0.00  0.00    -0.373 OA
ATOM      6  C   LIG d   1       3.243  -3.768 -10.597  0.00  0.00     0.053 C 
ATOM      7  C   LIG d   1       2.514  -4.166 -11.883  0.00  0.00     0.013 C 
ATOM      8  H   LIG d   1       3.363  -4.654  -9.956  0.00  0.00     0.056 H 
ATOM      9  H   LIG d   1       4.233  -3.360 -10.848  0.00  0.00     0.056 H 
ATOM     10  H   LIG d   1       3.117  -4.898 -12.440  0.00  0.00     0.035 H 
ATOM     11  C   LIG d   1       2.297  -2.917 -12.744  0.00  0.00     0.088 C 
ATOM     12  C   LIG d   1       1.518  -1.879 -11.931  0.00  0.00     0.108 C 
ATOM     13  H   LIG d   1       3.249  -2.510 -13.112  0.00  0.00     0.062 H 
ATOM     14  H   LIG d   1       1.330  -0.966 -12.516  0.00  0.00     0.065 H 
ATOM     15  H   LIG d   1       3.292  -1.185 -10.860  0.00  0.00     0.063 H 
BRANCH   7  16
ATOM     16  C   LIG d   1       1.161  -4.788 -11.533  0.00  0.00    -0.017 C 
ATOM     17  H   LIG d   1       0.637  -5.071 -12.458  0.00  0.00     0.029 H 
ATOM     18  H   LIG d   1       0.555  -4.059 -10.977  0.00  0.00     0.029 H 
BRANCH  16  19
ATOM     19  C   LIG d   1       1.380  -6.033 -10.670  0.00  0.00     0.086 A 
ATOM     20  C   LIG d   1       0.145  -6.815 -10.221  0.00  0.00     0.090 A 
ATOM     21  H   LIG d   1      -0.231  -7.222  -9.270  0.00  0.00     0.062 H 
ATOM     22  O   LIG d   1       1.033  -7.301 -11.230  0.00  0.00    -0.368 OA
ATOM     23  H   LIG d   1       2.281  -5.630 -10.185  0.00  0.00     0.062 H 
BRANCH  20  24
ATOM     24  C   LIG d   1      -1.226  -6.301 -10.664  0.00  0.00     0.011 C 
ATOM     25  H   LIG d   1      -1.097  -5.559 -11.467  0.00  0.00     0.035 H 
BRANCH  24  26
ATOM     26  C   LIG d   1      -2.067  -7.470 -11.181  0.00  0.00    -0.058 C 
ATOM     27  H   LIG d   1      -1.485  -8.399 -11.113  0.00  0.00     0.023 H 
ATOM     28  H   LIG d   1      -2.344  -7.286 -12.230  0.00  0.00     0.023 H 
ATOM     29  H   LIG d   1      -2.979  -7.562 -10.573  0.00  0.00     0.023 H 
ENDBRANCH  24  26
BRANCH  24  30
ATOM     30  C   LIG d   1      -1.935  -5.649  -9.476  0.00  0.00     0.057 C 
ATOM     31  H   LIG d   1      -1.632  -4.598  -9.357  0.00  0.00     0.059 H 
BRANCH  30  32
ATOM     32  C   LIG d   1      -3.450  -5.771  -9.657  0.00  0.00    -0.039 C 
ATOM     33  H   LIG d   1      -3.671  -6.100 -10.683  0.00  0.00     0.025 H 
ATOM     34  H   LIG d   1      -3.920  -4.792  -9.477  0.00  0.00     0.025 H 
ATOM     35  H   LIG d   1      -3.847  -6.505  -8.942  0.00  0.00     0.025 H 
ENDBRANCH  30  32
BRANCH  30  36
ATOM     36  O   LIG d   1      -1.545  -6.306  -8.269  0.00  0.00    -0.392 OA
ATOM     37  H   LIG d   1      -2.307  -6.599  -7.531  0.00  0.00     0.210 HD
ENDBRANCH  30  36
ENDBRANCH  24  30
ENDBRANCH  20  24
ENDBRANCH  16  19
ENDBRANCH   7  16
BRANCH  11  38
ATOM     38  O   LIG d   1       1.553  -3.266 -13.913  0.00  0.00    -0.389 OA
ATOM     39  H   LIG d   1       0.458  -3.154 -13.922  0.00  0.00     0.210 HD
ENDBRANCH  11  38
BRANCH  12  40
ATOM     40  O   LIG d   1       0.227  -2.398 -11.605  0.00  0.00    -0.387 OA
ATOM     41  H   LIG d   1      -0.368  -2.917 -12.373  0.00  0.00     0.210 HD
ENDBRANCH  12  40
ENDBRANCH   1   4
BRANCH   1  42
ATOM     42  C   LIG d   1       2.408   0.124  -8.837  0.00  0.00    -0.063 C 
ATOM     43  C   LIG d   1       2.822  -0.496  -7.735  0.00  0.00     0.022 C 
ATOM     44  H   LIG d   1       2.534  -1.542  -7.552  0.00  0.00     0.069 H 
BRANCH  43  45
ATOM     45  C   LIG d   1       3.660   0.216  -6.761  0.00  0.00     0.332 C 
ATOM     46  O   LIG d   1       4.869   0.087  -6.791  0.00  0.00    -0.246 OA
BRANCH  45  47
ATOM     47  O   LIG d   1       3.091   1.010  -5.833  0.00  0.00    -0.462 OA
BRANCH  47  48
ATOM     48  C   LIG d   1       2.354   0.356  -4.767  0.00  0.00     0.093 C 
ATOM     49  H   LIG d   1       1.472   0.959  -4.508  0.00  0.00     0.070 H 
ATOM     50  H   LIG d   1       2.031  -0.641  -5.102  0.00  0.00     0.070 H 
BRANCH  48  51
ATOM     51  C   LIG d   1       3.254   0.213  -3.538  0.00  0.00    -0.018 C 
ATOM     52  H   LIG d   1       4.293   0.046  -3.861  0.00  0.00     0.030 H 
ATOM     53  H   LIG d   1       3.201   1.133  -2.936  0.00  0.00     0.030 H 
BRANCH  51  54
ATOM     54  C   LIG d   1       2.784  -0.975  -2.697  0.00  0.00    -0.050 C 
ATOM     55  H   LIG d   1       2.489  -0.622  -1.697  0.00  0.00     0.027 H 
ATOM     56  H   LIG d   1       1.923  -1.454  -3.186  0.00  0.00     0.027 H 
BRANCH  54  57
ATOM     57  C   LIG d   1       3.923  -1.988  -2.563  0.00  0.00    -0.053 C 
ATOM     58  H   LIG d   1       4.060  -2.249  -1.504  0.00  0.00     0.026 H 
ATOM     59  H   LIG d   1       3.676  -2.895  -3.135  0.00  0.00     0.026 H 
BRANCH  57  60
ATOM     60  C   LIG d   1       5.215  -1.377  -3.110  0.00  0.00    -0.053 C 
ATOM     61  H   LIG d   1       5.000  -0.388  -3.539  0.00  0.00     0.026 H 
ATOM     62  H   LIG d   1       5.945  -1.273  -2.294  0.00  0.00     0.026 H 
BRANCH  60  63
ATOM     63  C   LIG d   1       5.790  -2.290  -4.196  0.00  0.00    -0.053 C 
ATOM     64  H   LIG d   1       5.913  -1.718  -5.127  0.00  0.00     0.026 H 
ATOM     65  H   LIG d   1       6.767  -2.676  -3.871  0.00  0.00     0.026 H 
BRANCH  63  66
ATOM     66  C   LIG d   1       4.834  -3.459  -4.437  0.00  0.00    -0.048 C 
ATOM     67  H   LIG d   1       5.238  -4.367  -3.966  0.00  0.00     0.027 H 
ATOM     68  H   LIG d   1       3.851  -3.226  -4.002  0.00  0.00     0.027 H 
BRANCH  66  69
ATOM     69  C   LIG d   1       4.681  -3.690  -5.943  0.00  0.00    -0.013 C 
ATOM     70  H   LIG d   1       4.053  -2.896  -6.374  0.00  0.00     0.033 H 
ATOM     71  H   LIG d   1       5.673  -3.672  -6.419  0.00  0.00     0.033 H 
BRANCH  69  72
ATOM     72  C   LIG d   1       4.033  -5.029  -6.183  0.00  0.00     0.042 C 
ATOM     73  O   LIG d   1       4.047  -5.871  -5.315  0.00  0.00    -0.550 OA
ATOM     74  O   LIG d   1       3.439  -5.286  -7.358  0.00  0.00    -0.550 OA
ENDBRANCH  69  72
ENDBRANCH  66  69
ENDBRANCH  63  66
ENDBRANCH  60  63
ENDBRANCH  57  60
ENDBRANCH  54  57
ENDBRANCH  51  54
ENDBRANCH  48  51
ENDBRANCH  47  48
ENDBRANCH  45  47
ENDBRANCH  43  45
BRANCH  42  75
ATOM     75  C   LIG d   1       2.865   1.531  -9.126  0.00  0.00    -0.043 C 
ATOM     76  H   LIG d   1       2.257   2.240  -8.547  0.00  0.00     0.027 H 
ATOM     77  H   LIG d   1       2.751   1.740 -10.200  0.00  0.00     0.027 H 
ATOM     78  H   LIG d   1       3.923   1.638  -8.841  0.00  0.00     0.027 H 
ENDBRANCH  42  75
ENDBRANCH   1  42
TORSDOF 23
ENDMDL
MODEL 3
REMARK VINA RESULT:      -6.0      7.804     15.133
REMARK  23 active torsions:
REMARK  status: ('A' for Active; 'I' for Inactive)
REMARK    1  A    between atoms: C_1  and  C_2 
REMARK    2  A    between atoms: C_2  and  C_4 
REMARK    3  A    between atoms: C_2  and  C_40 
REMARK    4  A    between atoms: C_6  and  C_9 
REMARK    5  A    between atoms: C_9  and  C_10 
REMARK    6  A    between atoms: C_14  and  C_22 
REMARK    7  A    between atoms: C_16  and  O_21 
REMARK    8  A    between atoms: C_18  and  O_20 
REMARK    9  A    between atoms: C_22  and  C_23 
REMARK   10  A    between atoms: C_23  and  C_39 
REMARK   11  A    between atoms: C_24  and  C_25 
REMARK   12  A    between atoms: C_25  and  O_27 
REMARK   13  A    between atoms: O_27  and  C_28 
REMARK   14  A    between atoms: C_28  and  C_29 
REMARK   15  A    between atoms: C_29  and  C_30 
REMARK   16  A    between atoms: C_30  and  C_31 
REMARK   17  A    between atoms: C_31  and  C_32 
REMARK   18  A    between atoms: C_32  and  C_33 
REMARK   19  A    between atoms: C_33  and  C_34 
REMARK   20  A    between atoms: C_34  and  C_35 
REMARK   21  A    between atoms: C_35  and  C_36 
REMARK   22  A    between atoms: C_40  and  C_42 
REMARK   23  A    between atoms: C_40  and  O_43 
ROOT
ATOM      1  C   LIG d   1      10.074   6.056  -3.278  0.00  0.00    -0.003 C 
ATOM      2  H   LIG d   1       9.193   6.565  -2.861  0.00  0.00     0.034 H 
ATOM      3  H   LIG d   1      10.523   6.684  -4.063  0.00  0.00     0.034 H 
ENDROOT
BRANCH   1   4
ATOM      4  C   LIG d   1      11.099   5.817  -2.169  0.00  0.00     0.091 C 
ATOM      5  O   LIG d   1      12.057   6.876  -2.168  0.00  0.00    -0.373 OA
ATOM      6  C   LIG d   1      13.081   6.736  -1.181  0.00  0.00     0.053 C 
ATOM      7  C   LIG d   1      12.447   6.733   0.213  0.00  0.00     0.013 C 
ATOM      8  H   LIG d   1      13.785   7.578  -1.260  0.00  0.00     0.056 H 
ATOM      9  H   LIG d   1      13.620   5.791  -1.341  0.00  0.00     0.056 H 
ATOM     10  H   LIG d   1      13.227   6.585   0.974  0.00  0.00     0.035 H 
ATOM     11  C   LIG d   1      11.424   5.595   0.296  0.00  0.00     0.088 C 
ATOM     12  C   LIG d   1      10.385   5.775  -0.815  0.00  0.00     0.108 C 
ATOM     13  H   LIG d   1      11.910   4.611   0.239  0.00  0.00     0.062 H 
ATOM     14  H   LIG d   1       9.623   4.983  -0.786  0.00  0.00     0.065 H 
ATOM     15  H   LIG d   1      11.671   4.893  -2.347  0.00  0.00     0.063 H 
BRANCH   7  16
ATOM     16  C   LIG d   1      11.747   8.071   0.460  0.00  0.00    -0.017 C 
ATOM     17  H   LIG d   1      11.603   8.215   1.541  0.00  0.00     0.029 H 
ATOM     18  H   LIG d   1      10.770   8.071  -0.043  0.00  0.00     0.029 H 
BRANCH  16  19
ATOM     19  C   LIG d   1      12.608   9.207  -0.096  0.00  0.00     0.086 A 
ATOM     20  C   LIG d   1      11.913  10.525  -0.441  0.00  0.00     0.090 A 
ATOM     21  H   LIG d   1      11.898  11.209  -1.302  0.00  0.00     0.062 H 
ATOM     22  O   LIG d   1      12.757  10.382   0.703  0.00  0.00    -0.368 OA
ATOM     23  H   LIG d   1      13.312   8.528  -0.600  0.00  0.00     0.062 H 
BRANCH  20  24
ATOM     24  C   LIG d   1      10.404  10.618  -0.207  0.00  0.00     0.011 C 
ATOM     25  H   LIG d   1      10.057   9.711   0.310  0.00  0.00     0.035 H 
BRANCH  24  26
ATOM     26  C   LIG d   1      10.096  11.845   0.654  0.00  0.00    -0.058 C 
ATOM     27  H   LIG d   1      10.975  12.095   1.265  0.00  0.00     0.023 H 
ATOM     28  H   LIG d   1       9.242  11.625   1.313  0.00  0.00     0.023 H 
ATOM     29  H   LIG d   1       9.846  12.696   0.004  0.00  0.00     0.023 H 
ENDBRANCH  24  26
BRANCH  24  30
ATOM     30  C   LIG d   1       9.686  10.746  -1.551  0.00  0.00     0.057 C 
ATOM     31  H   LIG d   1       8.769  11.347  -1.459  0.00  0.00     0.059 H 
BRANCH  30  32
ATOM     32  C   LIG d   1      10.641  11.349  -2.584  0.00  0.00    -0.039 C 
ATOM     33  H   LIG d   1      10.124  12.145  -3.140  0.00  0.00     0.025 H 
ATOM     34  H   LIG d   1      10.966  10.564  -3.284  0.00  0.00     0.025 H 
ATOM     35  H   LIG d   1      11.518  11.769  -2.071  0.00  0.00     0.025 H 
ENDBRANCH  30  32
BRANCH  30  36
ATOM     36  O   LIG d   1       9.263   9.454  -1.991  0.00  0.00    -0.392 OA
ATOM     37  H   LIG d   1      10.006   8.665  -2.177  0.00  0.00     0.210 HD
ENDBRANCH  30  36
ENDBRANCH  24  30
ENDBRANCH  20  24
ENDBRANCH  16  19
ENDBRANCH   7  16
BRANCH  11  38
ATOM     38  O   LIG d   1      10.774   5.630   1.568  0.00  0.00    -0.389 OA
ATOM     39  H   LIG d   1      10.585   6.593   2.064  0.00  0.00     0.210 HD
ENDBRANCH  11  38
BRANCH  12  40
ATOM     40  O   LIG d   1       9.675   6.999  -0.612  0.00  0.00    -0.387 OA
ATOM     41  H   LIG d   1       8.575   6.999  -0.588  0.00  0.00     0.210 HD
ENDBRANCH  12  40
ENDBRANCH   1   4
BRANCH   1  42
ATOM     42  C   LIG d   1       9.657   4.735  -3.870  0.00  0.00    -0.063 C 
ATOM     43  C   LIG d   1       9.559   3.658  -3.094  0.00  0.00     0.022 C 
ATOM     44  H   LIG d   1       9.729   3.745  -2.010  0.00  0.00     0.069 H 
BRANCH  43  45
ATOM     45  C   LIG d   1       9.228   2.354  -3.683  0.00  0.00     0.332 C 
ATOM     46  O   LIG d   1      10.092   1.698  -4.232  0.00  0.00    -0.246 OA
BRANCH  45  47
ATOM     47  O   LIG d   1       7.967   1.884  -3.617  0.00  0.00    -0.462 OA
BRANCH  47  48
ATOM     48  C   LIG d   1       7.728   0.557  -4.155  0.00  0.00     0.093 C 
ATOM     49  H   LIG d   1       7.738   0.599  -5.253  0.00  0.00     0.070 H 
ATOM     50  H   LIG d   1       8.517  -0.127  -3.807  0.00  0.00     0.070 H 
BRANCH  48  51
ATOM     51  C   LIG d   1       6.367   0.049  -3.676  0.00  0.00    -0.018 C 
ATOM     52  H   LIG d   1       5.716  -0.134  -4.545  0.00  0.00     0.030 H 
ATOM     53  H   LIG d   1       6.501  -0.888  -3.116  0.00  0.00     0.030 H 
BRANCH  51  54
ATOM     54  C   LIG d   1       5.721   1.099  -2.768  0.00  0.00    -0.050 C 
ATOM     55  H   LIG d   1       6.493   1.558  -2.133  0.00  0.00     0.027 H 
ATOM     56  H   LIG d   1       5.246   1.875  -3.386  0.00  0.00     0.027 H 
BRANCH  54  57
ATOM     57  C   LIG d   1       4.665   0.431  -1.886  0.00  0.00    -0.053 C 
ATOM     58  H   LIG d   1       4.848   0.691  -0.833  0.00  0.00     0.026 H 
ATOM     59  H   LIG d   1       3.665   0.783  -2.182  0.00  0.00     0.026 H 
BRANCH  57  60
ATOM     60  C   LIG d   1       4.742  -1.087  -2.058  0.00  0.00    -0.053 C 
ATOM     61  H   LIG d   1       5.555  -1.336  -2.756  0.00  0.00     0.026 H 
ATOM     62  H   LIG d   1       4.939  -1.557  -1.083  0.00  0.00     0.026 H 
BRANCH  60  63
ATOM     63  C   LIG d   1       3.415  -1.605  -2.616  0.00  0.00    -0.053 C 
ATOM     64  H   LIG d   1       3.600  -2.162  -3.545  0.00  0.00     0.026 H 
ATOM     65  H   LIG d   1       2.942  -2.270  -1.878  0.00  0.00     0.026 H 
BRANCH  63  66
ATOM     66  C   LIG d   1       2.488  -0.423  -2.905  0.00  0.00    -0.048 C 
ATOM     67  H   LIG d   1       1.595  -0.492  -2.266  0.00  0.00     0.027 H 
ATOM     68  H   LIG d   1       3.018   0.518  -2.696  0.00  0.00     0.027 H 
BRANCH  66  69
ATOM     69  C   LIG d   1       2.066  -0.454  -4.376  0.00  0.00    -0.013 C 
ATOM     70  H   LIG d   1       2.296  -1.442  -4.802  0.00  0.00     0.033 H 
ATOM     71  H   LIG d   1       0.985  -0.264  -4.452  0.00  0.00     0.033 H 
BRANCH  69  72
ATOM     72  C   LIG d   1       2.817   0.608  -5.137  0.00  0.00     0.042 C 
ATOM     73  O   LIG d   1       3.702   0.294  -5.898  0.00  0.00    -0.550 OA
ATOM     74  O   LIG d   1       2.503   1.902  -4.970  0.00  0.00    -0.550 OA
ENDBRANCH  69  72
ENDBRANCH  66  69
ENDBRANCH  63  66
ENDBRANCH  60  63
ENDBRANCH  57  60
ENDBRANCH  54  57
ENDBRANCH  51  54
ENDBRANCH  48  51
ENDBRANCH  47  48
ENDBRANCH  45  47
ENDBRANCH  43  45
BRANCH  42  75
ATOM     75  C   LIG d   1       9.349   4.632  -5.342  0.00  0.00    -0.043 C 
ATOM     76  H   LIG d   1       9.714   3.668  -5.727  0.00  0.00     0.027 H 
ATOM     77  H   LIG d   1       9.847   5.454  -5.879  0.00  0.00     0.027 H 
ATOM     78  H   LIG d   1       8.262   4.699  -5.494  0.00  0.00     0.027 H 
ENDBRANCH  42  75
ENDBRANCH   1  42
TORSDOF 23
ENDMDL
MODEL 4
REMARK VINA RESULT:      -6.0      1.470      2.354
REMARK  23 active torsions:
REMARK  status: ('A' for Active; 'I' for Inactive)
REMARK    1  A    between atoms: C_1  and  C_2 
REMARK    2  A    between atoms: C_2  and  C_4 
REMARK    3  A    between atoms: C_2  and  C_40 
REMARK    4  A    between atoms: C_6  and  C_9 
REMARK    5  A    between atoms: C_9  and  C_10 
REMARK    6  A    between atoms: C_14  and  C_22 
REMARK    7  A    between atoms: C_16  and  O_21 
REMARK    8  A    between atoms: C_18  and  O_20 
REMARK    9  A    between atoms: C_22  and  C_23 
REMARK   10  A    between atoms: C_23  and  C_39 
REMARK   11  A    between atoms: C_24  and  C_25 
REMARK   12  A    between atoms: C_25  and  O_27 
REMARK   13  A    between atoms: O_27  and  C_28 
REMARK   14  A    between atoms: C_28  and  C_29 
REMARK   15  A    between atoms: C_29  and  C_30 
REMARK   16  A    between atoms: C_30  and  C_31 
REMARK   17  A    between atoms: C_31  and  C_32 
REMARK   18  A    between atoms: C_32  and  C_33 
REMARK   19  A    between atoms: C_33  and  C_34 
REMARK   20  A    between atoms: C_34  and  C_35 
REMARK   21  A    between atoms: C_35  and  C_36 
REMARK   22  A    between atoms: C_40  and  C_42 
REMARK   23  A    between atoms: C_40  and  O_43 
ROOT
ATOM      1  C   LIG d   1       1.305  -0.774 -10.243  0.00  0.00    -0.003 C 
ATOM      2  H   LIG d   1       0.772  -0.085 -10.915  0.00  0.00     0.034 H 
ATOM      3  H   LIG d   1       0.712  -0.926  -9.329  0.00  0.00     0.034 H 
ENDROOT
BRANCH   1   4
ATOM      4  C   LIG d   1       1.510  -2.116 -10.947  0.00  0.00     0.091 C 
ATOM      5  O   LIG d   1       0.815  -3.140 -10.233  0.00  0.00    -0.373 OA
ATOM      6  C   LIG d   1       0.963  -4.446 -10.794  0.00  0.00     0.053 C 
ATOM      7  C   LIG d   1       0.395  -4.456 -12.216  0.00  0.00     0.013 C 
ATOM      8  H   LIG d   1       0.416  -5.175 -10.177  0.00  0.00     0.056 H 
ATOM      9  H   LIG d   1       2.029  -4.716 -10.822  0.00  0.00     0.056 H 
ATOM     10  H   LIG d   1       0.543  -5.448 -12.666  0.00  0.00     0.035 H 
ATOM     11  C   LIG d   1       1.120  -3.397 -13.053  0.00  0.00     0.088 C 
ATOM     12  C   LIG d   1       0.966  -2.033 -12.375  0.00  0.00     0.108 C 
ATOM     13  H   LIG d   1       2.178  -3.656 -13.204  0.00  0.00     0.062 H 
ATOM     14  H   LIG d   1       1.465  -1.238 -12.950  0.00  0.00     0.065 H 
ATOM     15  H   LIG d   1       2.570  -2.412 -10.940  0.00  0.00     0.063 H 
BRANCH   7  16
ATOM     16  C   LIG d   1      -1.101  -4.139 -12.172  0.00  0.00    -0.017 C 
ATOM     17  H   LIG d   1      -1.324  -3.325 -12.878  0.00  0.00     0.029 H 
ATOM     18  H   LIG d   1      -1.380  -3.829 -11.155  0.00  0.00     0.029 H 
BRANCH  16  19
ATOM     19  C   LIG d   1      -1.897  -5.386 -12.563  0.00  0.00     0.086 A 
ATOM     20  C   LIG d   1      -2.764  -6.043 -11.488  0.00  0.00     0.090 A 
ATOM     21  H   LIG d   1      -2.913  -7.065 -11.107  0.00  0.00     0.062 H 
ATOM     22  O   LIG d   1      -3.323  -5.291 -12.566  0.00  0.00    -0.368 OA
ATOM     23  H   LIG d   1      -1.150  -5.727 -13.294  0.00  0.00     0.062 H 
BRANCH  20  24
ATOM     24  C   LIG d   1      -2.776  -5.410 -10.095  0.00  0.00     0.011 C 
ATOM     25  H   LIG d   1      -1.925  -4.719 -10.000  0.00  0.00     0.035 H 
BRANCH  24  26
ATOM     26  C   LIG d   1      -4.083  -4.640  -9.895  0.00  0.00    -0.058 C 
ATOM     27  H   LIG d   1      -4.921  -5.230 -10.294  0.00  0.00     0.023 H 
ATOM     28  H   LIG d   1      -4.026  -3.678 -10.426  0.00  0.00     0.023 H 
ATOM     29  H   LIG d   1      -4.241  -4.458  -8.822  0.00  0.00     0.023 H 
ENDBRANCH  24  26
BRANCH  24  30
ATOM     30  C   LIG d   1      -2.663  -6.507  -9.035  0.00  0.00     0.057 C 
ATOM     31  H   LIG d   1      -3.533  -6.501  -8.360  0.00  0.00     0.059 H 
BRANCH  30  32
ATOM     32  C   LIG d   1      -2.506  -7.866  -9.722  0.00  0.00    -0.039 C 
ATOM     33  H   LIG d   1      -1.767  -8.470  -9.175  0.00  0.00     0.025 H 
ATOM     34  H   LIG d   1      -2.163  -7.715 -10.756  0.00  0.00     0.025 H 
ATOM     35  H   LIG d   1      -3.474  -8.387  -9.729  0.00  0.00     0.025 H 
ENDBRANCH  30  32
BRANCH  30  36
ATOM     36  O   LIG d   1      -1.526  -6.257  -8.208  0.00  0.00    -0.392 OA
ATOM     37  H   LIG d   1      -0.758  -7.034  -8.077  0.00  0.00     0.210 HD
ENDBRANCH  30  36
ENDBRANCH  24  30
ENDBRANCH  20  24
ENDBRANCH  16  19
ENDBRANCH   7  16
BRANCH  11  38
ATOM     38  O   LIG d   1       0.548  -3.349 -14.361  0.00  0.00    -0.389 OA
ATOM     39  H   LIG d   1       1.068  -3.821 -15.208  0.00  0.00     0.210 HD
ENDBRANCH  11  38
BRANCH  12  40
ATOM     40  O   LIG d   1      -0.416  -1.671 -12.339  0.00  0.00    -0.387 OA
ATOM     41  H   LIG d   1      -1.159  -2.375 -11.935  0.00  0.00     0.210 HD
ENDBRANCH  12  40
ENDBRANCH   1   4
BRANCH   1  42
ATOM     42  C   LIG d   1       2.644  -0.187  -9.881  0.00  0.00    -0.063 C 
ATOM     43  C   LIG d   1       3.011  -0.100  -8.605  0.00  0.00     0.022 C 
ATOM     44  H   LIG d   1       2.361  -0.509  -7.817  0.00  0.00     0.069 H 
BRANCH  43  45
ATOM     45  C   LIG d   1       4.283   0.543  -8.247  0.00  0.00     0.332 C 
ATOM     46  O   LIG d   1       4.357   1.755  -8.195  0.00  0.00    -0.246 OA
BRANCH  45  47
ATOM     47  O   LIG d   1       5.368  -0.210  -7.977  0.00  0.00    -0.462 OA
BRANCH  47  48
ATOM     48  C   LIG d   1       5.708  -0.400  -6.579  0.00  0.00     0.093 C 
ATOM     49  H   LIG d   1       6.704   0.023  -6.383  0.00  0.00     0.070 H 
ATOM     50  H   LIG d   1       4.963   0.109  -5.948  0.00  0.00     0.070 H 
BRANCH  48  51
ATOM     51  C   LIG d   1       5.715  -1.895  -6.253  0.00  0.00    -0.018 C 
ATOM     52  H   LIG d   1       5.726  -2.474  -7.190  0.00  0.00     0.030 H 
ATOM     53  H   LIG d   1       6.610  -2.137  -5.663  0.00  0.00     0.030 H 
BRANCH  51  54
ATOM     54  C   LIG d   1       4.461  -2.248  -5.450  0.00  0.00    -0.050 C 
ATOM     55  H   LIG d   1       3.935  -1.323  -5.167  0.00  0.00     0.027 H 
ATOM     56  H   LIG d   1       3.797  -2.874  -6.063  0.00  0.00     0.027 H 
BRANCH  54  57
ATOM     57  C   LIG d   1       4.862  -3.013  -4.187  0.00  0.00    -0.053 C 
ATOM     58  H   LIG d   1       4.587  -4.072  -4.297  0.00  0.00     0.026 H 
ATOM     59  H   LIG d   1       5.950  -2.931  -4.039  0.00  0.00     0.026 H 
BRANCH  57  60
ATOM     60  C   LIG d   1       4.137  -2.419  -2.979  0.00  0.00    -0.053 C 
ATOM     61  H   LIG d   1       3.233  -1.891  -3.316  0.00  0.00     0.026 H 
ATOM     62  H   LIG d   1       3.854  -3.227  -2.287  0.00  0.00     0.026 H 
BRANCH  60  63
ATOM     63  C   LIG d   1       5.064  -1.434  -2.261  0.00  0.00    -0.053 C 
ATOM     64  H   LIG d   1       5.473  -1.909  -1.358  0.00  0.00     0.026 H 
ATOM     65  H   LIG d   1       5.887  -1.150  -2.932  0.00  0.00     0.026 H 
BRANCH  63  66
ATOM     66  C   LIG d   1       4.272  -0.185  -1.868  0.00  0.00    -0.048 C 
ATOM     67  H   LIG d   1       3.951  -0.270  -0.820  0.00  0.00     0.027 H 
ATOM     68  H   LIG d   1       4.908   0.704  -1.987  0.00  0.00     0.027 H 
BRANCH  66  69
ATOM     69  C   LIG d   1       3.043  -0.056  -2.771  0.00  0.00    -0.013 C 
ATOM     70  H   LIG d   1       2.888  -0.998  -3.317  0.00  0.00     0.033 H 
ATOM     71  H   LIG d   1       2.157   0.161  -2.154  0.00  0.00     0.033 H 
BRANCH  69  72
ATOM     72  C   LIG d   1       3.257   1.066  -3.754  0.00  0.00     0.042 C 
ATOM     73  O   LIG d   1       2.870   0.952  -4.894  0.00  0.00    -0.550 OA
ATOM     74  O   LIG d   1       3.876   2.191  -3.364  0.00  0.00    -0.550 OA
ENDBRANCH  69  72
ENDBRANCH  66  69
ENDBRANCH  63  66
ENDBRANCH  60  63
ENDBRANCH  57  60
ENDBRANCH  54  57
ENDBRANCH  51  54
ENDBRANCH  48  51
ENDBRANCH  47  48
ENDBRANCH  45  47
ENDBRANCH  43  45
BRANCH  42  75
ATOM     75  C   LIG d   1       3.570   0.303 -10.965  0.00  0.00    -0.043 C 
ATOM     76  H   LIG d   1       3.081   1.112 -11.528  0.00  0.00     0.027 H 
ATOM     77  H   LIG d   1       3.807  -0.527 -11.647  0.00  0.00     0.027 H 
ATOM     78  H   LIG d   1       4.497   0.682 -10.511  0.00  0.00     0.027 H 
ENDBRANCH  42  75
ENDBRANCH   1  42
TORSDOF 23
ENDMDL
MODEL 5
REMARK VINA RESULT:      -6.0      6.384     13.441
REMARK  23 active torsions:
REMARK  status: ('A' for Active; 'I' for Inactive)
REMARK    1  A    between atoms: C_1  and  C_2 
REMARK    2  A    between atoms: C_2  and  C_4 
REMARK    3  A    between atoms: C_2  and  C_40 
REMARK    4  A    between atoms: C_6  and  C_9 
REMARK    5  A    between atoms: C_9  and  C_10 
REMARK    6  A    between atoms: C_14  and  C_22 
REMARK    7  A    between atoms: C_16  and  O_21 
REMARK    8  A    between atoms: C_18  and  O_20 
REMARK    9  A    between atoms: C_22  and  C_23 
REMARK   10  A    between atoms: C_23  and  C_39 
REMARK   11  A    between atoms: C_24  and  C_25 
REMARK   12  A    between atoms: C_25  and  O_27 
REMARK   13  A    between atoms: O_27  and  C_28 
REMARK   14  A    between atoms: C_28  and  C_29 
REMARK   15  A    between atoms: C_29  and  C_30 
REMARK   16  A    between atoms: C_30  and  C_31 
REMARK   17  A    between atoms: C_31  and  C_32 
REMARK   18  A    between atoms: C_32  and  C_33 
REMARK   19  A    between atoms: C_33  and  C_34 
REMARK   20  A    between atoms: C_34  and  C_35 
REMARK   21  A    between atoms: C_35  and  C_36 
REMARK   22  A    between atoms: C_40  and  C_42 
REMARK   23  A    between atoms: C_40  and  O_43 
ROOT
ATOM      1  C   LIG d   1       8.958   3.668  -3.899  0.00  0.00    -0.003 C 
ATOM      2  H   LIG d   1       8.842   3.559  -2.810  0.00  0.00     0.034 H 
ATOM      3  H   LIG d   1       8.373   4.532  -4.245  0.00  0.00     0.034 H 
ENDROOT
BRANCH   1   4
ATOM      4  C   LIG d   1      10.434   3.882  -4.236  0.00  0.00     0.091 C 
ATOM      5  O   LIG d   1      10.823   5.203  -3.858  0.00  0.00    -0.373 OA
ATOM      6  C   LIG d   1      12.184   5.519  -4.154  0.00  0.00     0.053 C 
ATOM      7  C   LIG d   1      13.106   4.566  -3.387  0.00  0.00     0.013 C 
ATOM      8  H   LIG d   1      12.396   6.555  -3.851  0.00  0.00     0.056 H 
ATOM      9  H   LIG d   1      12.361   5.409  -5.234  0.00  0.00     0.056 H 
ATOM     10  H   LIG d   1      14.154   4.779  -3.644  0.00  0.00     0.035 H 
ATOM     11  C   LIG d   1      12.766   3.122  -3.769  0.00  0.00     0.088 C 
ATOM     12  C   LIG d   1      11.285   2.863  -3.474  0.00  0.00     0.108 C 
ATOM     13  H   LIG d   1      13.010   2.914  -4.821  0.00  0.00     0.062 H 
ATOM     14  H   LIG d   1      10.999   1.831  -3.725  0.00  0.00     0.065 H 
ATOM     15  H   LIG d   1      10.609   3.816  -5.321  0.00  0.00     0.063 H 
BRANCH   7  16
ATOM     16  C   LIG d   1      12.905   4.760  -1.883  0.00  0.00    -0.017 C 
ATOM     17  H   LIG d   1      13.499   4.013  -1.335  0.00  0.00     0.029 H 
ATOM     18  H   LIG d   1      11.841   4.633  -1.637  0.00  0.00     0.029 H 
BRANCH  16  19
ATOM     19  C   LIG d   1      13.358   6.165  -1.485  0.00  0.00     0.086 A 
ATOM     20  C   LIG d   1      12.426   6.989  -0.594  0.00  0.00     0.090 A 
ATOM     21  H   LIG d   1      12.016   8.010  -0.609  0.00  0.00     0.062 H 
ATOM     22  O   LIG d   1      13.637   6.409  -0.105  0.00  0.00    -0.368 OA
ATOM     23  H   LIG d   1      13.911   6.334  -2.420  0.00  0.00     0.062 H 
BRANCH  20  24
ATOM     24  C   LIG d   1      11.105   6.351  -0.162  0.00  0.00     0.011 C 
ATOM     25  H   LIG d   1      11.022   5.346  -0.601  0.00  0.00     0.035 H 
BRANCH  24  26
ATOM     26  C   LIG d   1      11.064   6.245   1.365  0.00  0.00    -0.058 C 
ATOM     27  H   LIG d   1      11.353   7.209   1.807  0.00  0.00     0.023 H 
ATOM     28  H   LIG d   1      11.764   5.463   1.696  0.00  0.00     0.023 H 
ATOM     29  H   LIG d   1      10.045   5.983   1.687  0.00  0.00     0.023 H 
ENDBRANCH  24  26
BRANCH  24  30
ATOM     30  C   LIG d   1       9.939   7.216  -0.643  0.00  0.00     0.057 C 
ATOM     31  H   LIG d   1       9.057   7.095   0.004  0.00  0.00     0.059 H 
BRANCH  30  32
ATOM     32  C   LIG d   1      10.382   8.680  -0.706  0.00  0.00    -0.039 C 
ATOM     33  H   LIG d   1       9.501   9.325  -0.835  0.00  0.00     0.025 H 
ATOM     34  H   LIG d   1      11.066   8.820  -1.556  0.00  0.00     0.025 H 
ATOM     35  H   LIG d   1      10.899   8.946   0.227  0.00  0.00     0.025 H 
ENDBRANCH  30  32
BRANCH  30  36
ATOM     36  O   LIG d   1       9.531   6.787  -1.943  0.00  0.00    -0.392 OA
ATOM     37  H   LIG d   1      10.118   6.029  -2.482  0.00  0.00     0.210 HD
ENDBRANCH  30  36
ENDBRANCH  24  30
ENDBRANCH  20  24
ENDBRANCH  16  19
ENDBRANCH   7  16
BRANCH  11  38
ATOM     38  O   LIG d   1      13.571   2.223  -3.004  0.00  0.00    -0.389 OA
ATOM     39  H   LIG d   1      13.852   1.245  -3.422  0.00  0.00     0.210 HD
ENDBRANCH  11  38
BRANCH  12  40
ATOM     40  O   LIG d   1      11.048   2.997  -2.071  0.00  0.00    -0.387 OA
ATOM     41  H   LIG d   1      10.169   2.519  -1.613  0.00  0.00     0.210 HD
ENDBRANCH  12  40
ENDBRANCH   1   4
BRANCH   1  42
ATOM     42  C   LIG d   1       8.463   2.420  -4.583  0.00  0.00    -0.063 C 
ATOM     43  C   LIG d   1       8.575   2.295  -5.903  0.00  0.00     0.022 C 
ATOM     44  H   LIG d   1       9.079   3.077  -6.488  0.00  0.00     0.069 H 
BRANCH  43  45
ATOM     45  C   LIG d   1       8.022   1.113  -6.580  0.00  0.00     0.332 C 
ATOM     46  O   LIG d   1       8.754   0.194  -6.890  0.00  0.00    -0.246 OA
BRANCH  45  47
ATOM     47  O   LIG d   1       6.705   1.048  -6.857  0.00  0.00    -0.462 OA
BRANCH  47  48
ATOM     48  C   LIG d   1       6.115  -0.275  -6.951  0.00  0.00     0.093 C 
ATOM     49  H   LIG d   1       5.228  -0.236  -7.600  0.00  0.00     0.070 H 
ATOM     50  H   LIG d   1       6.850  -0.975  -7.378  0.00  0.00     0.070 H 
BRANCH  48  51
ATOM     51  C   LIG d   1       5.707  -0.753  -5.557  0.00  0.00    -0.018 C 
ATOM     52  H   LIG d   1       6.589  -1.151  -5.032  0.00  0.00     0.030 H 
ATOM     53  H   LIG d   1       5.293   0.092  -4.986  0.00  0.00     0.030 H 
BRANCH  51  54
ATOM     54  C   LIG d   1       4.650  -1.852  -5.682  0.00  0.00    -0.050 C 
ATOM     55  H   LIG d   1       3.655  -1.393  -5.781  0.00  0.00     0.027 H 
ATOM     56  H   LIG d   1       4.861  -2.464  -6.571  0.00  0.00     0.027 H 
BRANCH  54  57
ATOM     57  C   LIG d   1       4.682  -2.736  -4.434  0.00  0.00    -0.053 C 
ATOM     58  H   LIG d   1       3.653  -2.929  -4.095  0.00  0.00     0.026 H 
ATOM     59  H   LIG d   1       5.174  -3.690  -4.674  0.00  0.00     0.026 H 
BRANCH  57  60
ATOM     60  C   LIG d   1       5.459  -2.025  -3.325  0.00  0.00    -0.053 C 
ATOM     61  H   LIG d   1       6.310  -2.649  -3.016  0.00  0.00     0.026 H 
ATOM     62  H   LIG d   1       5.830  -1.059  -3.699  0.00  0.00     0.026 H 
BRANCH  60  63
ATOM     63  C   LIG d   1       4.537  -1.789  -2.127  0.00  0.00    -0.053 C 
ATOM     64  H   LIG d   1       3.577  -2.297  -2.297  0.00  0.00     0.026 H 
ATOM     65  H   LIG d   1       5.008  -2.189  -1.218  0.00  0.00     0.026 H 
BRANCH  63  66
ATOM     66  C   LIG d   1       4.297  -0.287  -1.958  0.00  0.00    -0.048 C 
ATOM     67  H   LIG d   1       4.198  -0.049  -0.889  0.00  0.00     0.027 H 
ATOM     68  H   LIG d   1       5.146   0.270  -2.381  0.00  0.00     0.027 H 
BRANCH  66  69
ATOM     69  C   LIG d   1       3.012   0.109  -2.691  0.00  0.00    -0.013 C 
ATOM     70  H   LIG d   1       2.632  -0.754  -3.257  0.00  0.00     0.033 H 
ATOM     71  H   LIG d   1       2.256   0.429  -1.958  0.00  0.00     0.033 H 
BRANCH  69  72
ATOM     72  C   LIG d   1       3.304   1.242  -3.640  0.00  0.00     0.042 C 
ATOM     73  O   LIG d   1       4.007   2.160  -3.286  0.00  0.00    -0.550 OA
ATOM     74  O   LIG d   1       2.784   1.234  -4.876  0.00  0.00    -0.550 OA
ENDBRANCH  69  72
ENDBRANCH  66  69
ENDBRANCH  63  66
ENDBRANCH  60  63
ENDBRANCH  57  60
ENDBRANCH  54  57
ENDBRANCH  51  54
ENDBRANCH  48  51
ENDBRANCH  47  48
ENDBRANCH  45  47
ENDBRANCH  43  45
BRANCH  42  75
ATOM     75  C   LIG d   1       7.841   1.312  -3.771  0.00  0.00    -0.043 C 
ATOM     76  H   LIG d   1       7.227   0.678  -4.427  0.00  0.00     0.027 H 
ATOM     77  H   LIG d   1       7.208   1.746  -2.983  0.00  0.00     0.027 H 
ATOM     78  H   LIG d   1       8.635   0.704  -3.313  0.00  0.00     0.027 H 
ENDBRANCH  42  75
ENDBRANCH   1  42
TORSDOF 23
ENDMDL
MODEL 6
REMARK VINA RESULT:      -5.9      2.989      5.194
REMARK  23 active torsions:
REMARK  status: ('A' for Active; 'I' for Inactive)
REMARK    1  A    between atoms: C_1  and  C_2 
REMARK    2  A    between atoms: C_2  and  C_4 
REMARK    3  A    between atoms: C_2  and  C_40 
REMARK    4  A    between atoms: C_6  and  C_9 
REMARK    5  A    between atoms: C_9  and  C_10 
REMARK    6  A    between atoms: C_14  and  C_22 
REMARK    7  A    between atoms: C_16  and  O_21 
REMARK    8  A    between atoms: C_18  and  O_20 
REMARK    9  A    between atoms: C_22  and  C_23 
REMARK   10  A    between atoms: C_23  and  C_39 
REMARK   11  A    between atoms: C_24  and  C_25 
REMARK   12  A    between atoms: C_25  and  O_27 
REMARK   13  A    between atoms: O_27  and  C_28 
REMARK   14  A    between atoms: C_28  and  C_29 
REMARK   15  A    between atoms: C_29  and  C_30 
REMARK   16  A    between atoms: C_30  and  C_31 
REMARK   17  A    between atoms: C_31  and  C_32 
REMARK   18  A    between atoms: C_32  and  C_33 
REMARK   19  A    between atoms: C_33  and  C_34 
REMARK   20  A    between atoms: C_34  and  C_35 
REMARK   21  A    between atoms: C_35  and  C_36 
REMARK   22  A    between atoms: C_40  and  C_42 
REMARK   23  A    between atoms: C_40  and  O_43 
ROOT
ATOM      1  C   LIG d   1       2.370  -1.195 -11.544  0.00  0.00    -0.003 C 
ATOM      2  H   LIG d   1       2.340  -0.883 -12.600  0.00  0.00     0.034 H 
ATOM      3  H   LIG d   1       1.351  -1.429 -11.202  0.00  0.00     0.034 H 
ENDROOT
BRANCH   1   4
ATOM      4  C   LIG d   1       3.253  -2.435 -11.403  0.00  0.00     0.091 C 
ATOM      5  O   LIG d   1       4.235  -2.209 -10.390  0.00  0.00    -0.373 OA
ATOM      6  C   LIG d   1       5.134  -3.301 -10.194  0.00  0.00     0.053 C 
ATOM      7  C   LIG d   1       4.345  -4.538  -9.755  0.00  0.00     0.013 C 
ATOM      8  H   LIG d   1       5.866  -3.039  -9.416  0.00  0.00     0.056 H 
ATOM      9  H   LIG d   1       5.661  -3.518 -11.135  0.00  0.00     0.056 H 
ATOM     10  H   LIG d   1       5.028  -5.392  -9.642  0.00  0.00     0.035 H 
ATOM     11  C   LIG d   1       3.287  -4.861 -10.815  0.00  0.00     0.088 C 
ATOM     12  C   LIG d   1       2.388  -3.637 -11.014  0.00  0.00     0.108 C 
ATOM     13  H   LIG d   1       3.748  -5.181 -11.761  0.00  0.00     0.062 H 
ATOM     14  H   LIG d   1       1.606  -3.828 -11.763  0.00  0.00     0.065 H 
ATOM     15  H   LIG d   1       3.815  -2.631 -12.329  0.00  0.00     0.063 H 
BRANCH   7  16
ATOM     16  C   LIG d   1       3.659  -4.258  -8.416  0.00  0.00    -0.017 C 
ATOM     17  H   LIG d   1       2.570  -4.213  -8.564  0.00  0.00     0.029 H 
ATOM     18  H   LIG d   1       4.014  -3.297  -8.016  0.00  0.00     0.029 H 
BRANCH  16  19
ATOM     19  C   LIG d   1       3.994  -5.377  -7.428  0.00  0.00     0.086 A 
ATOM     20  C   LIG d   1       4.684  -4.989  -6.119  0.00  0.00     0.090 A 
ATOM     21  H   LIG d   1       5.561  -5.339  -5.554  0.00  0.00     0.062 H 
ATOM     22  O   LIG d   1       3.312  -5.384  -6.173  0.00  0.00    -0.368 OA
ATOM     23  H   LIG d   1       4.158  -6.127  -8.216  0.00  0.00     0.062 H 
BRANCH  20  24
ATOM     24  C   LIG d   1       4.992  -3.509  -5.886  0.00  0.00     0.011 C 
ATOM     25  H   LIG d   1       4.302  -2.893  -6.483  0.00  0.00     0.035 H 
BRANCH  24  26
ATOM     26  C   LIG d   1       4.817  -3.179  -4.402  0.00  0.00    -0.058 C 
ATOM     27  H   LIG d   1       5.278  -3.969  -3.794  0.00  0.00     0.023 H 
ATOM     28  H   LIG d   1       3.744  -3.112  -4.166  0.00  0.00     0.023 H 
ATOM     29  H   LIG d   1       5.300  -2.216  -4.182  0.00  0.00     0.023 H 
ENDBRANCH  24  26
BRANCH  24  30
ATOM     30  C   LIG d   1       6.433  -3.215  -6.307  0.00  0.00     0.057 C 
ATOM     31  H   LIG d   1       6.867  -4.060  -6.862  0.00  0.00     0.059 H 
BRANCH  30  32
ATOM     32  C   LIG d   1       6.469  -1.930  -7.138  0.00  0.00    -0.039 C 
ATOM     33  H   LIG d   1       5.932  -2.090  -8.084  0.00  0.00     0.025 H 
ATOM     34  H   LIG d   1       7.515  -1.661  -7.351  0.00  0.00     0.025 H 
ATOM     35  H   LIG d   1       5.989  -1.117  -6.576  0.00  0.00     0.025 H 
ENDBRANCH  30  32
BRANCH  30  36
ATOM     36  O   LIG d   1       7.246  -3.053  -5.143  0.00  0.00    -0.392 OA
ATOM     37  H   LIG d   1       7.787  -2.110  -4.977  0.00  0.00     0.210 HD
ENDBRANCH  30  36
ENDBRANCH  24  30
ENDBRANCH  20  24
ENDBRANCH  16  19
ENDBRANCH   7  16
BRANCH  11  38
ATOM     38  O   LIG d   1       2.497  -5.969 -10.380  0.00  0.00    -0.389 OA
ATOM     39  H   LIG d   1       1.606  -5.799  -9.758  0.00  0.00     0.210 HD
ENDBRANCH  11  38
BRANCH  12  40
ATOM     40  O   LIG d   1       1.695  -3.351  -9.797  0.00  0.00    -0.387 OA
ATOM     41  H   LIG d   1       0.862  -3.994  -9.475  0.00  0.00     0.210 HD
ENDBRANCH  12  40
ENDBRANCH   1   4
BRANCH   1  42
ATOM     42  C   LIG d   1       2.936  -0.077 -10.708  0.00  0.00    -0.063 C 
ATOM     43  C   LIG d   1       2.356   0.252  -9.556  0.00  0.00     0.022 C 
ATOM     44  H   LIG d   1       1.497  -0.329  -9.187  0.00  0.00     0.069 H 
BRANCH  43  45
ATOM     45  C   LIG d   1       2.860   1.392  -8.777  0.00  0.00     0.332 C 
ATOM     46  O   LIG d   1       2.780   2.518  -9.227  0.00  0.00    -0.246 OA
BRANCH  45  47
ATOM     47  O   LIG d   1       3.413   1.189  -7.565  0.00  0.00    -0.462 OA
BRANCH  47  48
ATOM     48  C   LIG d   1       3.182  -0.102  -6.942  0.00  0.00     0.093 C 
ATOM     49  H   LIG d   1       2.109  -0.340  -6.979  0.00  0.00     0.070 H 
ATOM     50  H   LIG d   1       3.748  -0.876  -7.481  0.00  0.00     0.070 H 
BRANCH  48  51
ATOM     51  C   LIG d   1       3.644  -0.055  -5.484  0.00  0.00    -0.018 C 
ATOM     52  H   LIG d   1       4.123  -1.012  -5.220  0.00  0.00     0.030 H 
ATOM     53  H   LIG d   1       4.368   0.763  -5.355  0.00  0.00     0.030 H 
BRANCH  51  54
ATOM     54  C   LIG d   1       2.438   0.180  -4.573  0.00  0.00    -0.050 C 
ATOM     55  H   LIG d   1       2.180   1.250  -4.577  0.00  0.00     0.027 H 
ATOM     56  H   LIG d   1       1.582  -0.405  -4.940  0.00  0.00     0.027 H 
BRANCH  54  57
ATOM     57  C   LIG d   1       2.782  -0.256  -3.148  0.00  0.00    -0.053 C 
ATOM     58  H   LIG d   1       1.877  -0.638  -2.652  0.00  0.00     0.026 H 
ATOM     59  H   LIG d   1       3.544  -1.050  -3.181  0.00  0.00     0.026 H 
BRANCH  57  60
ATOM     60  C   LIG d   1       3.326   0.941  -2.366  0.00  0.00    -0.053 C 
ATOM     61  H   LIG d   1       3.397   1.813  -3.032  0.00  0.00     0.026 H 
ATOM     62  H   LIG d   1       2.648   1.171  -1.530  0.00  0.00     0.026 H 
BRANCH  60  63
ATOM     63  C   LIG d   1       4.715   0.603  -1.818  0.00  0.00    -0.053 C 
ATOM     64  H   LIG d   1       4.844   1.074  -0.833  0.00  0.00     0.026 H 
ATOM     65  H   LIG d   1       4.815  -0.487  -1.719  0.00  0.00     0.026 H 
BRANCH  63  66
ATOM     66  C   LIG d   1       5.782   1.128  -2.780  0.00  0.00    -0.048 C 
ATOM     67  H   LIG d   1       5.297   1.642  -3.622  0.00  0.00     0.027 H 
ATOM     68  H   LIG d   1       6.440   1.832  -2.249  0.00  0.00     0.027 H 
BRANCH  66  69
ATOM     69  C   LIG d   1       6.613  -0.044  -3.308  0.00  0.00    -0.013 C 
ATOM     70  H   LIG d   1       7.241  -0.443  -2.498  0.00  0.00     0.033 H 
ATOM     71  H   LIG d   1       5.940  -0.835  -3.674  0.00  0.00     0.033 H 
BRANCH  69  72
ATOM     72  C   LIG d   1       7.490   0.430  -4.437  0.00  0.00     0.042 C 
ATOM     73  O   LIG d   1       7.276   1.499  -4.960  0.00  0.00    -0.550 OA
ATOM     74  O   LIG d   1       8.509  -0.333  -4.862  0.00  0.00    -0.550 OA
ENDBRANCH  69  72
ENDBRANCH  66  69
ENDBRANCH  63  66
ENDBRANCH  60  63
ENDBRANCH  57  60
ENDBRANCH  54  57
ENDBRANCH  51  54
ENDBRANCH  48  51
ENDBRANCH  47  48
ENDBRANCH  45  47
ENDBRANCH  43  45
BRANCH  42  75
ATOM     75  C   LIG d   1       4.159   0.669 -11.174  0.00  0.00    -0.043 C 
ATOM     76  H   LIG d   1       4.889   0.727 -10.354  0.00  0.00     0.027 H 
ATOM     77  H   LIG d   1       3.873   1.685 -11.485  0.00  0.00     0.027 H 
ATOM     78  H   LIG d   1       4.609   0.137 -12.026  0.00  0.00     0.027 H 
ENDBRANCH  42  75
ENDBRANCH   1  42
TORSDOF 23
ENDMDL
MODEL 7
REMARK VINA RESULT:      -5.9      7.098     13.987
REMARK  23 active torsions:
REMARK  status: ('A' for Active; 'I' for Inactive)
REMARK    1  A    between atoms: C_1  and  C_2 
REMARK    2  A    between atoms: C_2  and  C_4 
REMARK    3  A    between atoms: C_2  and  C_40 
REMARK    4  A    between atoms: C_6  and  C_9 
REMARK    5  A    between atoms: C_9  and  C_10 
REMARK    6  A    between atoms: C_14  and  C_22 
REMARK    7  A    between atoms: C_16  and  O_21 
REMARK    8  A    between atoms: C_18  and  O_20 
REMARK    9  A    between atoms: C_22  and  C_23 
REMARK   10  A    between atoms: C_23  and  C_39 
REMARK   11  A    between atoms: C_24  and  C_25 
REMARK   12  A    between atoms: C_25  and  O_27 
REMARK   13  A    between atoms: O_27  and  C_28 
REMARK   14  A    between atoms: C_28  and  C_29 
REMARK   15  A    between atoms: C_29  and  C_30 
REMARK   16  A    between atoms: C_30  and  C_31 
REMARK   17  A    between atoms: C_31  and  C_32 
REMARK   18  A    between atoms: C_32  and  C_33 
REMARK   19  A    between atoms: C_33  and  C_34 
REMARK   20  A    between atoms: C_34  and  C_35 
REMARK   21  A    between atoms: C_35  and  C_36 
REMARK   22  A    between atoms: C_40  and  C_42 
REMARK   23  A    between atoms: C_40  and  O_43 
ROOT
ATOM      1  C   LIG d   1       9.787   4.945  -5.499  0.00  0.00    -0.003 C 
ATOM      2  H   LIG d   1       8.953   5.663  -5.526  0.00  0.00     0.034 H 
ATOM      3  H   LIG d   1      10.454   5.126  -6.355  0.00  0.00     0.034 H 
ENDROOT
BRANCH   1   4
ATOM      4  C   LIG d   1      10.570   5.119  -4.197  0.00  0.00     0.091 C 
ATOM      5  O   LIG d   1      11.759   5.869  -4.452  0.00  0.00    -0.373 OA
ATOM      6  C   LIG d   1      12.581   6.068  -3.301  0.00  0.00     0.053 C 
ATOM      7  C   LIG d   1      11.798   6.855  -2.246  0.00  0.00     0.013 C 
ATOM      8  H   LIG d   1      13.481   6.634  -3.585  0.00  0.00     0.056 H 
ATOM      9  H   LIG d   1      12.877   5.093  -2.886  0.00  0.00     0.056 H 
ATOM     10  H   LIG d   1      12.413   6.976  -1.342  0.00  0.00     0.035 H 
ATOM     11  C   LIG d   1      10.517   6.090  -1.898  0.00  0.00     0.088 C 
ATOM     12  C   LIG d   1       9.706   5.866  -3.178  0.00  0.00     0.108 C 
ATOM     13  H   LIG d   1      10.738   5.141  -1.390  0.00  0.00     0.062 H 
ATOM     14  H   LIG d   1       8.769   5.327  -2.973  0.00  0.00     0.065 H 
ATOM     15  H   LIG d   1      10.905   4.149  -3.801  0.00  0.00     0.063 H 
BRANCH   7  16
ATOM     16  C   LIG d   1      11.437   8.235  -2.799  0.00  0.00    -0.017 C 
ATOM     17  H   LIG d   1      10.347   8.304  -2.927  0.00  0.00     0.029 H 
ATOM     18  H   LIG d   1      11.930   8.379  -3.772  0.00  0.00     0.029 H 
BRANCH  16  19
ATOM     19  C   LIG d   1      11.907   9.315  -1.823  0.00  0.00     0.086 A 
ATOM     20  C   LIG d   1      10.883  10.354  -1.363  0.00  0.00     0.090 A 
ATOM     21  H   LIG d   1      10.850  11.451  -1.288  0.00  0.00     0.062 H 
ATOM     22  O   LIG d   1      11.350   9.310  -0.507  0.00  0.00    -0.368 OA
ATOM     23  H   LIG d   1      12.931   9.336  -2.221  0.00  0.00     0.062 H 
BRANCH  20  24
ATOM     24  C   LIG d   1       9.459  10.244  -1.912  0.00  0.00     0.011 C 
ATOM     25  H   LIG d   1       9.409   9.419  -2.639  0.00  0.00     0.035 H 
BRANCH  24  26
ATOM     26  C   LIG d   1       8.489   9.967  -0.761  0.00  0.00    -0.058 C 
ATOM     27  H   LIG d   1       7.499  10.375  -1.010  0.00  0.00     0.023 H 
ATOM     28  H   LIG d   1       8.863  10.446   0.156  0.00  0.00     0.023 H 
ATOM     29  H   LIG d   1       8.410   8.882  -0.601  0.00  0.00     0.023 H 
ENDBRANCH  24  26
BRANCH  24  30
ATOM     30  C   LIG d   1       9.074  11.555  -2.599  0.00  0.00     0.057 C 
ATOM     31  H   LIG d   1       9.183  12.411  -1.917  0.00  0.00     0.059 H 
BRANCH  30  32
ATOM     32  C   LIG d   1       9.925  11.739  -3.858  0.00  0.00    -0.039 C 
ATOM     33  H   LIG d   1      10.690  10.950  -3.903  0.00  0.00     0.025 H 
ATOM     34  H   LIG d   1      10.415  12.724  -3.828  0.00  0.00     0.025 H 
ATOM     35  H   LIG d   1       9.281  11.677  -4.748  0.00  0.00     0.025 H 
ENDBRANCH  30  32
BRANCH  30  36
ATOM     36  O   LIG d   1       7.692  11.516  -2.959  0.00  0.00    -0.392 OA
ATOM     37  H   LIG d   1       7.241  10.577  -3.311  0.00  0.00     0.210 HD
ENDBRANCH  30  36
ENDBRANCH  24  30
ENDBRANCH  20  24
ENDBRANCH  16  19
ENDBRANCH   7  16
BRANCH  11  38
ATOM     38  O   LIG d   1       9.743   6.851  -0.968  0.00  0.00    -0.389 OA
ATOM     39  H   LIG d   1       9.659   7.942  -1.086  0.00  0.00     0.210 HD
ENDBRANCH  11  38
BRANCH  12  40
ATOM     40  O   LIG d   1       9.312   7.129  -3.720  0.00  0.00    -0.387 OA
ATOM     41  H   LIG d   1       9.583   8.060  -3.200  0.00  0.00     0.210 HD
ENDBRANCH  12  40
ENDBRANCH   1   4
BRANCH   1  42
ATOM     42  C   LIG d   1       9.243   3.542  -5.575  0.00  0.00    -0.063 C 
ATOM     43  C   LIG d   1       8.879   2.908  -4.462  0.00  0.00     0.022 C 
ATOM     44  H   LIG d   1       8.923   3.428  -3.494  0.00  0.00     0.069 H 
BRANCH  43  45
ATOM     45  C   LIG d   1       8.422   1.513  -4.526  0.00  0.00     0.332 C 
ATOM     46  O   LIG d   1       9.230   0.615  -4.657  0.00  0.00    -0.246 OA
BRANCH  45  47
ATOM     47  O   LIG d   1       7.107   1.230  -4.442  0.00  0.00    -0.462 OA
BRANCH  47  48
ATOM     48  C   LIG d   1       6.604   0.814  -3.145  0.00  0.00     0.093 C 
ATOM     49  H   LIG d   1       6.501  -0.280  -3.125  0.00  0.00     0.070 H 
ATOM     50  H   LIG d   1       7.308   1.130  -2.360  0.00  0.00     0.070 H 
BRANCH  48  51
ATOM     51  C   LIG d   1       5.240   1.460  -2.895  0.00  0.00    -0.018 C 
ATOM     52  H   LIG d   1       5.379   2.522  -2.639  0.00  0.00     0.030 H 
ATOM     53  H   LIG d   1       4.625   1.381  -3.804  0.00  0.00     0.030 H 
BRANCH  51  54
ATOM     54  C   LIG d   1       4.539   0.744  -1.739  0.00  0.00    -0.050 C 
ATOM     55  H   LIG d   1       5.294   0.287  -1.081  0.00  0.00     0.027 H 
ATOM     56  H   LIG d   1       3.943   1.469  -1.166  0.00  0.00     0.027 H 
BRANCH  54  57
ATOM     57  C   LIG d   1       3.621  -0.346  -2.296  0.00  0.00    -0.053 C 
ATOM     58  H   LIG d   1       2.654  -0.313  -1.774  0.00  0.00     0.026 H 
ATOM     59  H   LIG d   1       3.463  -0.178  -3.372  0.00  0.00     0.026 H 
BRANCH  57  60
ATOM     60  C   LIG d   1       4.269  -1.716  -2.084  0.00  0.00    -0.053 C 
ATOM     61  H   LIG d   1       5.327  -1.584  -1.816  0.00  0.00     0.026 H 
ATOM     62  H   LIG d   1       3.748  -2.246  -1.272  0.00  0.00     0.026 H 
BRANCH  60  63
ATOM     63  C   LIG d   1       4.168  -2.533  -3.374  0.00  0.00    -0.053 C 
ATOM     64  H   LIG d   1       4.329  -3.597  -3.148  0.00  0.00     0.026 H 
ATOM     65  H   LIG d   1       3.170  -2.399  -3.815  0.00  0.00     0.026 H 
BRANCH  63  66
ATOM     66  C   LIG d   1       5.231  -2.054  -4.364  0.00  0.00    -0.048 C 
ATOM     67  H   LIG d   1       5.619  -1.077  -4.042  0.00  0.00     0.027 H 
ATOM     68  H   LIG d   1       6.054  -2.783  -4.399  0.00  0.00     0.027 H 
BRANCH  66  69
ATOM     69  C   LIG d   1       4.608  -1.923  -5.757  0.00  0.00    -0.013 C 
ATOM     70  H   LIG d   1       5.252  -2.422  -6.495  0.00  0.00     0.033 H 
ATOM     71  H   LIG d   1       3.613  -2.393  -5.759  0.00  0.00     0.033 H 
BRANCH  69  72
ATOM     72  C   LIG d   1       4.475  -0.464  -6.111  0.00  0.00     0.042 C 
ATOM     73  O   LIG d   1       3.549   0.180  -5.676  0.00  0.00    -0.550 OA
ATOM     74  O   LIG d   1       5.383   0.119  -6.908  0.00  0.00    -0.550 OA
ENDBRANCH  69  72
ENDBRANCH  66  69
ENDBRANCH  63  66
ENDBRANCH  60  63
ENDBRANCH  57  60
ENDBRANCH  54  57
ENDBRANCH  51  54
ENDBRANCH  48  51
ENDBRANCH  47  48
ENDBRANCH  45  47
ENDBRANCH  43  45
BRANCH  42  75
ATOM     75  C   LIG d   1       9.111   2.856  -6.910  0.00  0.00    -0.043 C 
ATOM     76  H   LIG d   1       8.610   1.886  -6.776  0.00  0.00     0.027 H 
ATOM     77  H   LIG d   1      10.110   2.697  -7.341  0.00  0.00     0.027 H 
ATOM     78  H   LIG d   1       8.514   3.485  -7.587  0.00  0.00     0.027 H 
ENDBRANCH  42  75
ENDBRANCH   1  42
TORSDOF 23
ENDMDL
MODEL 8
REMARK VINA RESULT:      -5.8      7.069     13.954
REMARK  23 active torsions:
REMARK  status: ('A' for Active; 'I' for Inactive)
REMARK    1  A    between atoms: C_1  and  C_2 
REMARK    2  A    between atoms: C_2  and  C_4 
REMARK    3  A    between atoms: C_2  and  C_40 
REMARK    4  A    between atoms: C_6  and  C_9 
REMARK    5  A    between atoms: C_9  and  C_10 
REMARK    6  A    between atoms: C_14  and  C_22 
REMARK    7  A    between atoms: C_16  and  O_21 
REMARK    8  A    between atoms: C_18  and  O_20 
REMARK    9  A    between atoms: C_22  and  C_23 
REMARK   10  A    between atoms: C_23  and  C_39 
REMARK   11  A    between atoms: C_24  and  C_25 
REMARK   12  A    between atoms: C_25  and  O_27 
REMARK   13  A    between atoms: O_27  and  C_28 
REMARK   14  A    between atoms: C_28  and  C_29 
REMARK   15  A    between atoms: C_29  and  C_30 
REMARK   16  A    between atoms: C_30  and  C_31 
REMARK   17  A    between atoms: C_31  and  C_32 
REMARK   18  A    between atoms: C_32  and  C_33 
REMARK   19  A    between atoms: C_33  and  C_34 
REMARK   20  A    between atoms: C_34  and  C_35 
REMARK   21  A    between atoms: C_35  and  C_36 
REMARK   22  A    between atoms: C_40  and  C_42 
REMARK   23  A    between atoms: C_40  and  O_43 
ROOT
ATOM      1  C   LIG d   1       9.772   4.888  -4.421  0.00  0.00    -0.003 C 
ATOM      2  H   LIG d   1       8.847   5.483  -4.399  0.00  0.00     0.034 H 
ATOM      3  H   LIG d   1      10.269   5.018  -5.394  0.00  0.00     0.034 H 
ENDROOT
BRANCH   1   4
ATOM      4  C   LIG d   1      10.706   5.355  -3.304  0.00  0.00     0.091 C 
ATOM      5  O   LIG d   1      11.584   6.364  -3.807  0.00  0.00    -0.373 OA
ATOM      6  C   LIG d   1      12.521   6.854  -2.847  0.00  0.00     0.053 C 
ATOM      7  C   LIG d   1      11.765   7.490  -1.677  0.00  0.00     0.013 C 
ATOM      8  H   LIG d   1      13.168   7.609  -3.317  0.00  0.00     0.056 H 
ATOM      9  H   LIG d   1      13.137   6.021  -2.476  0.00  0.00     0.056 H 
ATOM     10  H   LIG d   1      12.481   7.832  -0.916  0.00  0.00     0.035 H 
ATOM     11  C   LIG d   1      10.821   6.450  -1.064  0.00  0.00     0.088 C 
ATOM     12  C   LIG d   1       9.878   5.929  -2.152  0.00  0.00     0.108 C 
ATOM     13  H   LIG d   1      11.378   5.630  -0.587  0.00  0.00     0.062 H 
ATOM     14  H   LIG d   1       9.174   5.184  -1.753  0.00  0.00     0.065 H 
ATOM     15  H   LIG d   1      11.355   4.536  -2.959  0.00  0.00     0.063 H 
BRANCH   7  16
ATOM     16  C   LIG d   1      10.953   8.685  -2.181  0.00  0.00    -0.017 C 
ATOM     17  H   LIG d   1      10.455   9.173  -1.331  0.00  0.00     0.029 H 
ATOM     18  H   LIG d   1      10.196   8.336  -2.898  0.00  0.00     0.029 H 
BRANCH  16  19
ATOM     19  C   LIG d   1      11.888   9.683  -2.867  0.00  0.00     0.086 A 
ATOM     20  C   LIG d   1      11.376  10.390  -4.123  0.00  0.00     0.090 A 
ATOM     21  H   LIG d   1      11.760  10.578  -5.137  0.00  0.00     0.062 H 
ATOM     22  O   LIG d   1      11.507  11.060  -2.868  0.00  0.00    -0.368 OA
ATOM     23  H   LIG d   1      12.800   9.140  -2.582  0.00  0.00     0.062 H 
BRANCH  20  24
ATOM     24  C   LIG d   1       9.965  10.051  -4.608  0.00  0.00     0.011 C 
ATOM     25  H   LIG d   1       9.512   9.312  -3.930  0.00  0.00     0.035 H 
BRANCH  24  26
ATOM     26  C   LIG d   1       9.111  11.321  -4.621  0.00  0.00    -0.058 C 
ATOM     27  H   LIG d   1       8.048  11.049  -4.562  0.00  0.00     0.023 H 
ATOM     28  H   LIG d   1       9.297  11.878  -5.552  0.00  0.00     0.023 H 
ATOM     29  H   LIG d   1       9.378  11.951  -3.759  0.00  0.00     0.023 H 
ENDBRANCH  24  26
BRANCH  24  30
ATOM     30  C   LIG d   1      10.036   9.471  -6.021  0.00  0.00     0.057 C 
ATOM     31  H   LIG d   1      11.078   9.350  -6.352  0.00  0.00     0.059 H 
BRANCH  30  32
ATOM     32  C   LIG d   1       9.285   8.138  -6.063  0.00  0.00    -0.039 C 
ATOM     33  H   LIG d   1       9.846   7.420  -6.679  0.00  0.00     0.025 H 
ATOM     34  H   LIG d   1       8.286   8.294  -6.500  0.00  0.00     0.025 H 
ATOM     35  H   LIG d   1       9.180   7.744  -5.043  0.00  0.00     0.025 H 
ENDBRANCH  30  32
BRANCH  30  36
ATOM     36  O   LIG d   1       9.437  10.384  -6.943  0.00  0.00    -0.392 OA
ATOM     37  H   LIG d   1       8.632  11.054  -6.609  0.00  0.00     0.210 HD
ENDBRANCH  30  36
ENDBRANCH  24  30
ENDBRANCH  20  24
ENDBRANCH  16  19
ENDBRANCH   7  16
BRANCH  11  38
ATOM     38  O   LIG d   1      10.058   7.054  -0.018  0.00  0.00    -0.389 OA
ATOM     39  H   LIG d   1      10.136   6.673   1.011  0.00  0.00     0.210 HD
ENDBRANCH  11  38
BRANCH  12  40
ATOM     40  O   LIG d   1       9.068   7.003  -2.636  0.00  0.00    -0.387 OA
ATOM     41  H   LIG d   1       7.972   6.900  -2.655  0.00  0.00     0.210 HD
ENDBRANCH  12  40
ENDBRANCH   1   4
BRANCH   1  42
ATOM     42  C   LIG d   1       9.437   3.433  -4.220  0.00  0.00    -0.063 C 
ATOM     43  C   LIG d   1       8.426   2.883  -4.889  0.00  0.00     0.022 C 
ATOM     44  H   LIG d   1       7.870   3.476  -5.630  0.00  0.00     0.069 H 
BRANCH  43  45
ATOM     45  C   LIG d   1       8.049   1.485  -4.636  0.00  0.00     0.332 C 
ATOM     46  O   LIG d   1       8.563   0.592  -5.281  0.00  0.00    -0.246 OA
BRANCH  45  47
ATOM     47  O   LIG d   1       7.135   1.193  -3.691  0.00  0.00    -0.462 OA
BRANCH  47  48
ATOM     48  C   LIG d   1       6.909  -0.212  -3.403  0.00  0.00     0.093 C 
ATOM     49  H   LIG d   1       6.853  -0.775  -4.346  0.00  0.00     0.070 H 
ATOM     50  H   LIG d   1       7.740  -0.599  -2.794  0.00  0.00     0.070 H 
BRANCH  48  51
ATOM     51  C   LIG d   1       5.596  -0.371  -2.634  0.00  0.00    -0.018 C 
ATOM     52  H   LIG d   1       4.858  -0.885  -3.269  0.00  0.00     0.030 H 
ATOM     53  H   LIG d   1       5.773  -0.964  -1.725  0.00  0.00     0.030 H 
BRANCH  51  54
ATOM     54  C   LIG d   1       5.061   1.010  -2.246  0.00  0.00    -0.050 C 
ATOM     55  H   LIG d   1       5.279   1.202  -1.185  0.00  0.00     0.027 H 
ATOM     56  H   LIG d   1       5.548   1.778  -2.865  0.00  0.00     0.027 H 
BRANCH  54  57
ATOM     57  C   LIG d   1       3.549   1.053  -2.474  0.00  0.00    -0.053 C 
ATOM     58  H   LIG d   1       3.060   1.513  -1.602  0.00  0.00     0.026 H 
ATOM     59  H   LIG d   1       3.331   1.649  -3.373  0.00  0.00     0.026 H 
BRANCH  57  60
ATOM     60  C   LIG d   1       3.021  -0.370  -2.663  0.00  0.00    -0.053 C 
ATOM     61  H   LIG d   1       3.866  -1.060  -2.800  0.00  0.00     0.026 H 
ATOM     62  H   LIG d   1       2.444  -0.668  -1.775  0.00  0.00     0.026 H 
BRANCH  60  63
ATOM     63  C   LIG d   1       2.118  -0.418  -3.898  0.00  0.00    -0.053 C 
ATOM     64  H   LIG d   1       2.176  -1.417  -4.355  0.00  0.00     0.026 H 
ATOM     65  H   LIG d   1       1.081  -0.210  -3.602  0.00  0.00     0.026 H 
BRANCH  63  66
ATOM     66  C   LIG d   1       2.582   0.633  -4.908  0.00  0.00    -0.048 C 
ATOM     67  H   LIG d   1       1.705   1.123  -5.357  0.00  0.00     0.027 H 
ATOM     68  H   LIG d   1       3.201   1.386  -4.397  0.00  0.00     0.027 H 
BRANCH  66  69
ATOM     69  C   LIG d   1       3.406  -0.043  -6.006  0.00  0.00    -0.013 C 
ATOM     70  H   LIG d   1       4.468   0.215  -5.879  0.00  0.00     0.033 H 
ATOM     71  H   LIG d   1       3.283  -1.135  -5.937  0.00  0.00     0.033 H 
BRANCH  69  72
ATOM     72  C   LIG d   1       2.932   0.431  -7.356  0.00  0.00     0.042 C 
ATOM     73  O   LIG d   1       2.349  -0.331  -8.092  0.00  0.00    -0.550 OA
ATOM     74  O   LIG d   1       3.155   1.697  -7.739  0.00  0.00    -0.550 OA
ENDBRANCH  69  72
ENDBRANCH  66  69
ENDBRANCH  63  66
ENDBRANCH  60  63
ENDBRANCH  57  60
ENDBRANCH  54  57
ENDBRANCH  51  54
ENDBRANCH  48  51
ENDBRANCH  47  48
ENDBRANCH  45  47
ENDBRANCH  43  45
BRANCH  42  75
ATOM     75  C   LIG d   1      10.247   2.598  -3.262  0.00  0.00    -0.043 C 
ATOM     76  H   LIG d   1      10.630   1.709  -3.782  0.00  0.00     0.027 H 
ATOM     77  H   LIG d   1       9.611   2.285  -2.420  0.00  0.00     0.027 H 
ATOM     78  H   LIG d   1      11.092   3.193  -2.882  0.00  0.00     0.027 H 
ENDBRANCH  42  75
ENDBRANCH   1  42
TORSDOF 23
ENDMDL
MODEL 9
REMARK VINA RESULT:      -5.8      7.489     14.399
REMARK  23 active torsions:
REMARK  status: ('A' for Active; 'I' for Inactive)
REMARK    1  A    between atoms: C_1  and  C_2 
REMARK    2  A    between atoms: C_2  and  C_4 
REMARK    3  A    between atoms: C_2  and  C_40 
REMARK    4  A    between atoms: C_6  and  C_9 
REMARK    5  A    between atoms: C_9  and  C_10 
REMARK    6  A    between atoms: C_14  and  C_22 
REMARK    7  A    between atoms: C_16  and  O_21 
REMARK    8  A    between atoms: C_18  and  O_20 
REMARK    9  A    between atoms: C_22  and  C_23 
REMARK   10  A    between atoms: C_23  and  C_39 
REMARK   11  A    between atoms: C_24  and  C_25 
REMARK   12  A    between atoms: C_25  and  O_27 
REMARK   13  A    between atoms: O_27  and  C_28 
REMARK   14  A    between atoms: C_28  and  C_29 
REMARK   15  A    between atoms: C_29  and  C_30 
REMARK   16  A    between atoms: C_30  and  C_31 
REMARK   17  A    between atoms: C_31  and  C_32 
REMARK   18  A    between atoms: C_32  and  C_33 
REMARK   19  A    between atoms: C_33  and  C_34 
REMARK   20  A    between atoms: C_34  and  C_35 
REMARK   21  A    between atoms: C_35  and  C_36 
REMARK   22  A    between atoms: C_40  and  C_42 
REMARK   23  A    between atoms: C_40  and  O_43 
ROOT
ATOM      1  C   LIG d   1       9.325   5.737  -4.143  0.00  0.00    -0.003 C 
ATOM      2  H   LIG d   1       8.352   5.839  -3.638  0.00  0.00     0.034 H 
ATOM      3  H   LIG d   1       9.365   6.423  -5.002  0.00  0.00     0.034 H 
ENDROOT
BRANCH   1   4
ATOM      4  C   LIG d   1      10.448   6.080  -3.163  0.00  0.00     0.091 C 
ATOM      5  O   LIG d   1      11.100   7.278  -3.586  0.00  0.00    -0.373 OA
ATOM      6  C   LIG d   1      12.188   7.677  -2.751  0.00  0.00     0.053 C 
ATOM      7  C   LIG d   1      11.670   7.948  -1.335  0.00  0.00     0.013 C 
ATOM      8  H   LIG d   1      12.646   8.592  -3.154  0.00  0.00     0.056 H 
ATOM      9  H   LIG d   1      12.940   6.874  -2.718  0.00  0.00     0.056 H 
ATOM     10  H   LIG d   1      12.511   8.216  -0.679  0.00  0.00     0.035 H 
ATOM     11  C   LIG d   1      10.981   6.688  -0.802  0.00  0.00     0.088 C 
ATOM     12  C   LIG d   1       9.860   6.286  -1.765  0.00  0.00     0.108 C 
ATOM     13  H   LIG d   1      11.699   5.868  -0.653  0.00  0.00     0.062 H 
ATOM     14  H   LIG d   1       9.331   5.388  -1.415  0.00  0.00     0.065 H 
ATOM     15  H   LIG d   1      11.224   5.300  -3.159  0.00  0.00     0.063 H 
BRANCH   7  16
ATOM     16  C   LIG d   1      10.668   9.104  -1.370  0.00  0.00    -0.017 C 
ATOM     17  H   LIG d   1      10.235   9.244  -0.369  0.00  0.00     0.029 H 
ATOM     18  H   LIG d   1       9.867   8.872  -2.087  0.00  0.00     0.029 H 
BRANCH  16  19
ATOM     19  C   LIG d   1      11.384  10.386  -1.801  0.00  0.00     0.086 A 
ATOM     20  C   LIG d   1      10.708  11.257  -2.861  0.00  0.00     0.090 A 
ATOM     21  H   LIG d   1      11.015  11.740  -3.801  0.00  0.00     0.062 H 
ATOM     22  O   LIG d   1      10.763  11.633  -1.483  0.00  0.00    -0.368 OA
ATOM     23  H   LIG d   1      12.388   9.968  -1.644  0.00  0.00     0.062 H 
BRANCH  20  24
ATOM     24  C   LIG d   1       9.363  10.788  -3.419  0.00  0.00     0.011 C 
ATOM     25  H   LIG d   1       9.030   9.895  -2.869  0.00  0.00     0.035 H 
BRANCH  24  26
ATOM     26  C   LIG d   1       8.326  11.902  -3.257  0.00  0.00    -0.058 C 
ATOM     27  H   LIG d   1       8.697  12.647  -2.538  0.00  0.00     0.023 H 
ATOM     28  H   LIG d   1       7.383  11.473  -2.887  0.00  0.00     0.023 H 
ATOM     29  H   LIG d   1       8.152  12.385  -4.229  0.00  0.00     0.023 H 
ENDBRANCH  24  26
BRANCH  24  30
ATOM     30  C   LIG d   1       9.516  10.447  -4.902  0.00  0.00     0.057 C 
ATOM     31  H   LIG d   1       8.789  10.998  -5.516  0.00  0.00     0.059 H 
BRANCH  30  32
ATOM     32  C   LIG d   1      10.951  10.741  -5.347  0.00  0.00    -0.039 C 
ATOM     33  H   LIG d   1      11.484   9.794  -5.515  0.00  0.00     0.025 H 
ATOM     34  H   LIG d   1      11.467  11.317  -4.563  0.00  0.00     0.025 H 
ATOM     35  H   LIG d   1      10.934  11.324  -6.278  0.00  0.00     0.025 H 
ENDBRANCH  30  32
BRANCH  30  36
ATOM     36  O   LIG d   1       9.229   9.062  -5.105  0.00  0.00    -0.392 OA
ATOM     37  H   LIG d   1       8.190   8.730  -5.246  0.00  0.00     0.210 HD
ENDBRANCH  30  36
ENDBRANCH  24  30
ENDBRANCH  20  24
ENDBRANCH  16  19
ENDBRANCH   7  16
BRANCH  11  38
ATOM     38  O   LIG d   1      10.431   6.954   0.489  0.00  0.00    -0.389 OA
ATOM     39  H   LIG d   1       9.712   7.777   0.622  0.00  0.00     0.210 HD
ENDBRANCH  11  38
BRANCH  12  40
ATOM     40  O   LIG d   1       8.875   7.320  -1.809  0.00  0.00    -0.387 OA
ATOM     41  H   LIG d   1       8.199   7.400  -2.674  0.00  0.00     0.210 HD
ENDBRANCH  12  40
ENDBRANCH   1   4
BRANCH   1  42
ATOM     42  C   LIG d   1       9.493   4.319  -4.624  0.00  0.00    -0.063 C 
ATOM     43  C   LIG d   1       9.378   3.307  -3.768  0.00  0.00     0.022 C 
ATOM     44  H   LIG d   1       9.104   3.501  -2.721  0.00  0.00     0.069 H 
BRANCH  43  45
ATOM     45  C   LIG d   1       9.619   1.929  -4.220  0.00  0.00     0.332 C 
ATOM     46  O   LIG d   1      10.740   1.462  -4.174  0.00  0.00    -0.246 OA
BRANCH  45  47
ATOM     47  O   LIG d   1       8.598   1.184  -4.688  0.00  0.00    -0.462 OA
BRANCH  47  48
ATOM     48  C   LIG d   1       7.280   1.454  -4.142  0.00  0.00     0.093 C 
ATOM     49  H   LIG d   1       7.311   2.380  -3.550  0.00  0.00     0.070 H 
ATOM     50  H   LIG d   1       6.559   1.570  -4.966  0.00  0.00     0.070 H 
BRANCH  48  51
ATOM     51  C   LIG d   1       6.850   0.290  -3.248  0.00  0.00    -0.018 C 
ATOM     52  H   LIG d   1       7.531   0.219  -2.385  0.00  0.00     0.030 H 
ATOM     53  H   LIG d   1       5.824   0.462  -2.890  0.00  0.00     0.030 H 
BRANCH  51  54
ATOM     54  C   LIG d   1       6.901  -1.014  -4.047  0.00  0.00    -0.050 C 
ATOM     55  H   LIG d   1       6.297  -0.907  -4.960  0.00  0.00     0.027 H 
ATOM     56  H   LIG d   1       7.944  -1.235  -4.321  0.00  0.00     0.027 H 
BRANCH  54  57
ATOM     57  C   LIG d   1       6.343  -2.156  -3.196  0.00  0.00    -0.053 C 
ATOM     58  H   LIG d   1       6.922  -3.072  -3.386  0.00  0.00     0.026 H 
ATOM     59  H   LIG d   1       6.418  -1.890  -2.131  0.00  0.00     0.026 H 
BRANCH  57  60
ATOM     60  C   LIG d   1       4.877  -2.394  -3.561  0.00  0.00    -0.053 C 
ATOM     61  H   LIG d   1       4.620  -1.802  -4.451  0.00  0.00     0.026 H 
ATOM     62  H   LIG d   1       4.721  -3.463  -3.774  0.00  0.00     0.026 H 
BRANCH  60  63
ATOM     63  C   LIG d   1       3.985  -1.971  -2.391  0.00  0.00    -0.053 C 
ATOM     64  H   LIG d   1       3.594  -2.866  -1.887  0.00  0.00     0.026 H 
ATOM     65  H   LIG d   1       4.574  -1.376  -1.679  0.00  0.00     0.026 H 
BRANCH  63  66
ATOM     66  C   LIG d   1       2.820  -1.131  -2.918  0.00  0.00    -0.048 C 
ATOM     67  H   LIG d   1       2.548  -1.473  -3.927  0.00  0.00     0.027 H 
ATOM     68  H   LIG d   1       1.956  -1.242  -2.247  0.00  0.00     0.027 H 
BRANCH  66  69
ATOM     69  C   LIG d   1       3.237   0.341  -2.973  0.00  0.00    -0.013 C 
ATOM     70  H   LIG d   1       2.547   0.940  -2.360  0.00  0.00     0.033 H 
ATOM     71  H   LIG d   1       4.261   0.446  -2.583  0.00  0.00     0.033 H 
BRANCH  69  72
ATOM     72  C   LIG d   1       3.191   0.823  -4.399  0.00  0.00     0.042 C 
ATOM     73  O   LIG d   1       3.806   0.233  -5.256  0.00  0.00    -0.550 OA
ATOM     74  O   LIG d   1       2.466   1.906  -4.719  0.00  0.00    -0.550 OA
ENDBRANCH  69  72
ENDBRANCH  66  69
ENDBRANCH  63  66
ENDBRANCH  60  63
ENDBRANCH  57  60
ENDBRANCH  54  57
ENDBRANCH  51  54
ENDBRANCH  48  51
ENDBRANCH  47  48
ENDBRANCH  45  47
ENDBRANCH  43  45
BRANCH  42  75
ATOM     75  C   LIG d   1       9.792   4.047  -6.076  0.00  0.00    -0.043 C 
ATOM     76  H   LIG d   1       9.654   4.969  -6.659  0.00  0.00     0.027 H 
ATOM     77  H   LIG d   1       9.110   3.270  -6.452  0.00  0.00     0.027 H 
ATOM     78  H   LIG d   1      10.832   3.702  -6.178  0.00  0.00     0.027 H 
ENDBRANCH  42  75
ENDBRANCH   1  42
TORSDOF 23
ENDMDL
