MODEL 1
REMARK VINA RESULT:      -5.3      0.000      0.000
REMARK  17 active torsions:
REMARK  status: ('A' for Active; 'I' for Inactive)
REMARK    1  A    between atoms: C_1  and  C_2 
REMARK    2  A    between atoms: C_2  and  C_4 
REMARK    3  A    between atoms: C_2  and  N_44 
REMARK    4  A    between atoms: C_8  and  N_43 
REMARK    5  A    between atoms: C_10  and  O_13 
REMARK    6  A    between atoms: O_13  and  C_14 
REMARK    7  A    between atoms: C_16  and  N_42 
REMARK    8  A    between atoms: C_19  and  N_41 
REMARK    9  A    between atoms: C_21  and  O_26 
REMARK   10  A    between atoms: C_23  and  O_25 
REMARK   11  A    between atoms: O_26  and  C_27 
REMARK   12  A    between atoms: C_29  and  O_40 
REMARK   13  A    between atoms: C_31  and  N_38 
REMARK   14  A    between atoms: C_33  and  C_36 
REMARK   15  A    between atoms: C_33  and  O_37 
REMARK   16  A    between atoms: N_38  and  C_39 
REMARK   17  A    between atoms: N_44  and  C_45 
ROOT
ATOM      1  C   LIG d   1       9.483   6.989  -7.421  0.00  0.00     0.133 C 
ATOM      2  H   LIG d   1       8.426   6.782  -7.246  0.00  0.00     0.068 H 
ATOM      3  C   LIG d   1       9.673   8.487  -7.666  0.00  0.00     0.010 C 
ATOM      4  H   LIG d   1      10.729   8.695  -7.841  0.00  0.00     0.088 H 
ATOM      5  C   LIG d   1       9.196   9.269  -6.441  0.00  0.00     0.038 C 
ATOM      6  C   LIG d   1      10.009   8.845  -5.216  0.00  0.00     0.010 C 
ATOM      7  H   LIG d   1      11.066   9.052  -5.391  0.00  0.00     0.088 H 
ATOM      8  C   LIG d   1       9.819   7.347  -4.972  0.00  0.00     0.133 C 
ATOM      9  H   LIG d   1       8.763   7.139  -4.796  0.00  0.00     0.068 H 
ATOM     10  C   LIG d   1      10.296   6.565  -6.196  0.00  0.00     0.118 C 
ATOM     11  H   LIG d   1      11.352   6.772  -6.372  0.00  0.00     0.065 H 
ATOM     12  H   LIG d   1       9.332  10.337  -6.614  0.00  0.00     0.038 H 
ATOM     13  H   LIG d   1       8.141   9.062  -6.265  0.00  0.00     0.038 H 
ENDROOT
BRANCH   1  14
ATOM     14  O   LIG d   1       9.927   6.259  -8.565  0.00  0.00    -0.335 OA
BRANCH  14  15
ATOM     15  C   LIG d   1       8.874   5.638  -9.304  0.00  0.00     0.203 C 
ATOM     16  C   LIG d   1       9.188   4.149  -9.487  0.00  0.00     0.028 C 
ATOM     17  C   LIG d   1      10.476   4.004 -10.303  0.00  0.00    -0.003 C 
ATOM     18  H   LIG d   1       8.366   3.667 -10.015  0.00  0.00     0.090 H 
ATOM     19  C   LIG d   1      10.305   4.732 -11.640  0.00  0.00    -0.016 C 
ATOM     20  H   LIG d   1      10.675   2.948 -10.485  0.00  0.00     0.032 H 
ATOM     21  H   LIG d   1      11.307   4.444  -9.753  0.00  0.00     0.032 H 
ATOM     22  C   LIG d   1       9.948   6.196 -11.374  0.00  0.00     0.104 C 
ATOM     23  H   LIG d   1       9.505   4.260 -12.212  0.00  0.00     0.029 H 
ATOM     24  H   LIG d   1      11.236   4.680 -12.205  0.00  0.00     0.029 H 
ATOM     25  H   LIG d   1      10.766   6.678 -10.838  0.00  0.00     0.065 H 
ATOM     26  O   LIG d   1       8.758   6.260 -10.585  0.00  0.00    -0.338 OA
ATOM     27  H   LIG d   1       7.935   5.746  -8.760  0.00  0.00     0.097 H 
BRANCH  16  28
ATOM     28  N   LIG d   1       9.365   3.519  -8.173  0.00  0.00     0.224 N 
ATOM     29  H   LIG d   1       8.486   3.519  -7.678  0.00  0.00     0.200 HD
ATOM     30  H   LIG d   1       9.682   2.569  -8.295  0.00  0.00     0.200 HD
ATOM     31  H   LIG d   1      10.050   4.036  -7.642  0.00  0.00     0.200 HD
ENDBRANCH  16  28
BRANCH  22  32
ATOM     32  C   LIG d   1       9.717   6.915 -12.705  0.00  0.00     0.001 C 
ATOM     33  H   LIG d   1      10.668   7.037 -13.222  0.00  0.00     0.087 H 
BRANCH  32  34
ATOM     34  C   LIG d   1       8.767   6.088 -13.573  0.00  0.00    -0.019 C 
ATOM     35  H   LIG d   1       7.745   6.436 -13.427  0.00  0.00     0.029 H 
ATOM     36  H   LIG d   1       9.041   6.200 -14.622  0.00  0.00     0.029 H 
ATOM     37  H   LIG d   1       8.837   5.038 -13.289  0.00  0.00     0.029 H 
ENDBRANCH  32  34
BRANCH  32  38
ATOM     38  N   LIG d   1       9.123   8.235 -12.452  0.00  0.00     0.229 N 
ATOM     39  H   LIG d   1       8.119   8.150 -12.413  0.00  0.00     0.201 HD
ATOM     40  H   LIG d   1       9.464   8.594 -11.572  0.00  0.00     0.201 HD
BRANCH  38  41
ATOM     41  C   LIG d   1       9.495   9.155 -13.534  0.00  0.00    -0.044 C 
ATOM     42  H   LIG d   1      10.555   9.400 -13.454  0.00  0.00     0.078 H 
ATOM     43  H   LIG d   1       9.304   8.681 -14.497  0.00  0.00     0.078 H 
ATOM     44  H   LIG d   1       8.905  10.068 -13.454  0.00  0.00     0.078 H 
ENDBRANCH  38  41
ENDBRANCH  32  38
ENDBRANCH  22  32
ENDBRANCH  14  15
ENDBRANCH   1  14
BRANCH  10  45
ATOM     45  O   LIG d   1      10.118   5.166  -5.968  0.00  0.00    -0.386 OA
ATOM     46  H   LIG d   1      10.918   4.640  -6.102  0.00  0.00     0.210 HD
ENDBRANCH  10  45
BRANCH   3  47
ATOM     47  N   LIG d   1       8.892   8.895  -8.841  0.00  0.00     0.223 N 
ATOM     48  H   LIG d   1       7.973   9.190  -8.548  0.00  0.00     0.200 HD
ATOM     49  H   LIG d   1       9.358   9.660  -9.306  0.00  0.00     0.200 HD
ATOM     50  H   LIG d   1       8.809   8.115  -9.476  0.00  0.00     0.200 HD
ENDBRANCH   3  47
BRANCH   8  51
ATOM     51  O   LIG d   1      10.579   6.950  -3.828  0.00  0.00    -0.337 OA
BRANCH  51  52
ATOM     52  C   LIG d   1       9.920   5.993  -2.995  0.00  0.00     0.191 C 
ATOM     53  H   LIG d   1       8.935   5.770  -3.407  0.00  0.00     0.094 H 
ATOM     54  O   LIG d   1      10.696   4.794  -2.940  0.00  0.00    -0.345 OA
ATOM     55  C   LIG d   1      12.021   4.980  -2.437  0.00  0.00     0.085 C 
ATOM     56  C   LIG d   1      11.952   5.513  -1.003  0.00  0.00     0.131 C 
ATOM     57  H   LIG d   1      12.551   5.697  -3.066  0.00  0.00     0.059 H 
ATOM     58  H   LIG d   1      12.550   4.028  -2.447  0.00  0.00     0.059 H 
ATOM     59  C   LIG d   1      11.154   6.820  -0.990  0.00  0.00     0.040 C 
ATOM     60  C   LIG d   1       9.766   6.565  -1.584  0.00  0.00     0.151 C 
ATOM     61  H   LIG d   1      11.674   7.570  -1.587  0.00  0.00     0.091 H 
ATOM     62  H   LIG d   1       9.228   5.852  -0.959  0.00  0.00     0.070 H 
BRANCH  56  63
ATOM     63  C   LIG d   1      13.367   5.771  -0.485  0.00  0.00    -0.029 C 
ATOM     64  H   LIG d   1      13.938   4.842  -0.510  0.00  0.00     0.026 H 
ATOM     65  H   LIG d   1      13.856   6.515  -1.114  0.00  0.00     0.026 H 
ATOM     66  H   LIG d   1      13.317   6.138   0.540  0.00  0.00     0.026 H 
ENDBRANCH  56  63
BRANCH  56  67
ATOM     67  O   LIG d   1      11.304   4.550  -0.168  0.00  0.00    -0.381 OA
ATOM     68  H   LIG d   1      11.812   4.306   0.617  0.00  0.00     0.210 HD
ENDBRANCH  56  67
BRANCH  59  69
ATOM     69  N   LIG d   1      11.018   7.300   0.392  0.00  0.00     0.231 N 
ATOM     70  H   LIG d   1      10.048   7.269   0.664  0.00  0.00     0.202 HD
ATOM     71  H   LIG d   1      11.559   6.712   1.007  0.00  0.00     0.202 HD
BRANCH  69  72
ATOM     72  C   LIG d   1      11.508   8.682   0.480  0.00  0.00    -0.044 C 
ATOM     73  H   LIG d   1      11.522   9.127  -0.515  0.00  0.00     0.078 H 
ATOM     74  H   LIG d   1      10.848   9.261   1.128  0.00  0.00     0.078 H 
ATOM     75  H   LIG d   1      12.516   8.684   0.894  0.00  0.00     0.078 H 
ENDBRANCH  69  72
ENDBRANCH  59  69
BRANCH  60  76
ATOM     76  O   LIG d   1       9.038   7.793  -1.643  0.00  0.00    -0.381 OA
ATOM     77  H   LIG d   1       9.208   8.388  -0.901  0.00  0.00     0.210 HD
ENDBRANCH  60  76
ENDBRANCH  51  52
ENDBRANCH   8  51
BRANCH   6  78
ATOM     78  N   LIG d   1       9.552   9.596  -4.039  0.00  0.00     0.223 N 
ATOM     79  H   LIG d   1       8.663  10.029  -4.242  0.00  0.00     0.200 HD
ATOM     80  H   LIG d   1       9.450   8.965  -3.257  0.00  0.00     0.200 HD
ATOM     81  H   LIG d   1      10.230  10.308  -3.811  0.00  0.00     0.200 HD
ENDBRANCH   6  78
TORSDOF 17
ENDMDL
MODEL 2
REMARK VINA RESULT:      -5.2      9.763     14.056
REMARK  17 active torsions:
REMARK  status: ('A' for Active; 'I' for Inactive)
REMARK    1  A    between atoms: C_1  and  C_2 
REMARK    2  A    between atoms: C_2  and  C_4 
REMARK    3  A    between atoms: C_2  and  N_44 
REMARK    4  A    between atoms: C_8  and  N_43 
REMARK    5  A    between atoms: C_10  and  O_13 
REMARK    6  A    between atoms: O_13  and  C_14 
REMARK    7  A    between atoms: C_16  and  N_42 
REMARK    8  A    between atoms: C_19  and  N_41 
REMARK    9  A    between atoms: C_21  and  O_26 
REMARK   10  A    between atoms: C_23  and  O_25 
REMARK   11  A    between atoms: O_26  and  C_27 
REMARK   12  A    between atoms: C_29  and  O_40 
REMARK   13  A    between atoms: C_31  and  N_38 
REMARK   14  A    between atoms: C_33  and  C_36 
REMARK   15  A    between atoms: C_33  and  O_37 
REMARK   16  A    between atoms: N_38  and  C_39 
REMARK   17  A    between atoms: N_44  and  C_45 
ROOT
ATOM      1  C   LIG d   1       4.708  -1.571  -7.620  0.00  0.00     0.133 C 
ATOM      2  H   LIG d   1       5.703  -1.934  -7.878  0.00  0.00     0.068 H 
ATOM      3  C   LIG d   1       4.628  -0.067  -7.891  0.00  0.00     0.010 C 
ATOM      4  H   LIG d   1       3.634   0.297  -7.633  0.00  0.00     0.088 H 
ATOM      5  C   LIG d   1       4.900   0.199  -9.373  0.00  0.00     0.038 C 
ATOM      6  C   LIG d   1       3.854  -0.529 -10.221  0.00  0.00     0.010 C 
ATOM      7  H   LIG d   1       2.859  -0.165  -9.963  0.00  0.00     0.088 H 
ATOM      8  C   LIG d   1       3.934  -2.032  -9.950  0.00  0.00     0.133 C 
ATOM      9  H   LIG d   1       4.928  -2.396 -10.208  0.00  0.00     0.068 H 
ATOM     10  C   LIG d   1       3.662  -2.298  -8.468  0.00  0.00     0.118 C 
ATOM     11  H   LIG d   1       2.668  -1.934  -8.209  0.00  0.00     0.065 H 
ATOM     12  H   LIG d   1       4.843   1.270  -9.567  0.00  0.00     0.038 H 
ATOM     13  H   LIG d   1       5.894  -0.165  -9.632  0.00  0.00     0.038 H 
ENDROOT
BRANCH   1  14
ATOM     14  O   LIG d   1       4.456  -1.819  -6.236  0.00  0.00    -0.335 OA
BRANCH  14  15
ATOM     15  C   LIG d   1       5.599  -2.275  -5.509  0.00  0.00     0.203 C 
ATOM     16  C   LIG d   1       5.189  -3.424  -4.582  0.00  0.00     0.028 C 
ATOM     17  C   LIG d   1       4.167  -2.909  -3.565  0.00  0.00    -0.003 C 
ATOM     18  H   LIG d   1       6.068  -3.798  -4.059  0.00  0.00     0.090 H 
ATOM     19  C   LIG d   1       4.775  -1.731  -2.798  0.00  0.00    -0.016 C 
ATOM     20  H   LIG d   1       3.913  -3.707  -2.867  0.00  0.00     0.032 H 
ATOM     21  H   LIG d   1       3.268  -2.579  -4.087  0.00  0.00     0.032 H 
ATOM     22  C   LIG d   1       5.200  -0.648  -3.793  0.00  0.00     0.104 C 
ATOM     23  H   LIG d   1       5.646  -2.072  -2.237  0.00  0.00     0.029 H 
ATOM     24  H   LIG d   1       4.035  -1.323  -2.109  0.00  0.00     0.029 H 
ATOM     25  H   LIG d   1       4.323  -0.279  -4.324  0.00  0.00     0.065 H 
ATOM     26  O   LIG d   1       6.127  -1.201  -4.730  0.00  0.00    -0.338 OA
ATOM     27  H   LIG d   1       6.358  -2.625  -6.209  0.00  0.00     0.097 H 
BRANCH  16  28
ATOM     28  N   LIG d   1       4.591  -4.506  -5.375  0.00  0.00     0.224 N 
ATOM     29  H   LIG d   1       3.895  -4.123  -5.998  0.00  0.00     0.200 HD
ATOM     30  H   LIG d   1       5.310  -4.964  -5.916  0.00  0.00     0.200 HD
ATOM     31  H   LIG d   1       4.158  -5.175  -4.758  0.00  0.00     0.200 HD
ENDBRANCH  16  28
BRANCH  22  32
ATOM     32  C   LIG d   1       5.863   0.506  -3.038  0.00  0.00     0.001 C 
ATOM     33  H   LIG d   1       6.006   0.224  -1.996  0.00  0.00     0.087 H 
BRANCH  32  34
ATOM     34  C   LIG d   1       7.220   0.817  -3.672  0.00  0.00    -0.019 C 
ATOM     35  H   LIG d   1       7.227   0.468  -4.705  0.00  0.00     0.029 H 
ATOM     36  H   LIG d   1       7.394   1.892  -3.652  0.00  0.00     0.029 H 
ATOM     37  H   LIG d   1       8.007   0.310  -3.113  0.00  0.00     0.029 H 
ENDBRANCH  32  34
BRANCH  32  38
ATOM     38  N   LIG d   1       5.005   1.697  -3.112  0.00  0.00     0.229 N 
ATOM     39  H   LIG d   1       5.473   2.476  -2.676  0.00  0.00     0.201 HD
ATOM     40  H   LIG d   1       4.817   1.915  -4.079  0.00  0.00     0.201 HD
BRANCH  38  41
ATOM     41  C   LIG d   1       3.741   1.432  -2.414  0.00  0.00    -0.044 C 
ATOM     42  H   LIG d   1       3.729   0.401  -2.061  0.00  0.00     0.078 H 
ATOM     43  H   LIG d   1       3.645   2.108  -1.564  0.00  0.00     0.078 H 
ATOM     44  H   LIG d   1       2.908   1.590  -3.099  0.00  0.00     0.078 H 
ENDBRANCH  38  41
ENDBRANCH  32  38
ENDBRANCH  22  32
ENDBRANCH  14  15
ENDBRANCH   1  14
BRANCH  10  45
ATOM     45  O   LIG d   1       3.737  -3.702  -8.214  0.00  0.00    -0.386 OA
ATOM     46  H   LIG d   1       3.551  -3.947  -7.298  0.00  0.00     0.210 HD
ENDBRANCH  10  45
BRANCH   3  47
ATOM     47  N   LIG d   1       5.632   0.631  -7.077  0.00  0.00     0.223 N 
ATOM     48  H   LIG d   1       5.913   1.480  -7.544  0.00  0.00     0.200 HD
ATOM     49  H   LIG d   1       5.236   0.858  -6.177  0.00  0.00     0.200 HD
ATOM     50  H   LIG d   1       6.437   0.036  -6.951  0.00  0.00     0.200 HD
ENDBRANCH   3  47
BRANCH   8  51
ATOM     51  O   LIG d   1       2.957  -2.712 -10.741  0.00  0.00    -0.337 OA
BRANCH  51  52
ATOM     52  C   LIG d   1       1.607  -2.454 -10.346  0.00  0.00     0.191 C 
ATOM     53  H   LIG d   1       1.591  -2.108  -9.312  0.00  0.00     0.094 H 
ATOM     54  O   LIG d   1       1.046  -1.449 -11.194  0.00  0.00    -0.345 OA
ATOM     55  C   LIG d   1       1.044  -1.792 -12.581  0.00  0.00     0.085 C 
ATOM     56  C   LIG d   1       0.199  -3.051 -12.793  0.00  0.00     0.131 C 
ATOM     57  H   LIG d   1       2.066  -1.980 -12.912  0.00  0.00     0.059 H 
ATOM     58  H   LIG d   1       0.621  -0.969 -13.158  0.00  0.00     0.059 H 
ATOM     59  C   LIG d   1       0.763  -4.186 -11.932  0.00  0.00     0.040 C 
ATOM     60  C   LIG d   1       0.784  -3.739 -10.468  0.00  0.00     0.151 C 
ATOM     61  H   LIG d   1       1.777  -4.420 -12.258  0.00  0.00     0.091 H 
ATOM     62  H   LIG d   1      -0.235  -3.553 -10.129  0.00  0.00     0.070 H 
BRANCH  56  63
ATOM     63  C   LIG d   1       0.245  -3.456 -14.267  0.00  0.00    -0.029 C 
ATOM     64  H   LIG d   1      -0.495  -4.234 -14.454  0.00  0.00     0.026 H 
ATOM     65  H   LIG d   1       0.024  -2.588 -14.890  0.00  0.00     0.026 H 
ATOM     66  H   LIG d   1       1.238  -3.833 -14.510  0.00  0.00     0.026 H 
ENDBRANCH  56  63
BRANCH  56  67
ATOM     67  O   LIG d   1      -1.153  -2.789 -12.410  0.00  0.00    -0.381 OA
ATOM     68  H   LIG d   1      -1.663  -2.307 -13.075  0.00  0.00     0.210 HD
ENDBRANCH  56  67
BRANCH  59  69
ATOM     69  N   LIG d   1      -0.084  -5.378 -12.071  0.00  0.00     0.231 N 
ATOM     70  H   LIG d   1      -0.520  -5.585 -11.186  0.00  0.00     0.202 HD
ATOM     71  H   LIG d   1      -0.795  -5.205 -12.765  0.00  0.00     0.202 HD
BRANCH  69  72
ATOM     72  C   LIG d   1       0.741  -6.519 -12.489  0.00  0.00    -0.044 C 
ATOM     73  H   LIG d   1       0.334  -7.436 -12.064  0.00  0.00     0.078 H 
ATOM     74  H   LIG d   1       0.740  -6.590 -13.577  0.00  0.00     0.078 H 
ATOM     75  H   LIG d   1       1.762  -6.377 -12.136  0.00  0.00     0.078 H 
ENDBRANCH  69  72
ENDBRANCH  59  69
BRANCH  60  76
ATOM     76  O   LIG d   1       1.376  -4.762  -9.664  0.00  0.00    -0.381 OA
ATOM     77  H   LIG d   1       2.342  -4.737  -9.643  0.00  0.00     0.210 HD
ENDBRANCH  60  76
ENDBRANCH  51  52
ENDBRANCH   8  51
BRANCH   6  78
ATOM     78  N   LIG d   1       4.114  -0.273 -11.645  0.00  0.00     0.223 N 
ATOM     79  H   LIG d   1       4.251  -1.151 -12.124  0.00  0.00     0.200 HD
ATOM     80  H   LIG d   1       3.326   0.212 -12.048  0.00  0.00     0.200 HD
ATOM     81  H   LIG d   1       4.943   0.295 -11.738  0.00  0.00     0.200 HD
ENDBRANCH   6  78
TORSDOF 17
ENDMDL
MODEL 3
REMARK VINA RESULT:      -5.0      4.089      7.933
REMARK  17 active torsions:
REMARK  status: ('A' for Active; 'I' for Inactive)
REMARK    1  A    between atoms: C_1  and  C_2 
REMARK    2  A    between atoms: C_2  and  C_4 
REMARK    3  A    between atoms: C_2  and  N_44 
REMARK    4  A    between atoms: C_8  and  N_43 
REMARK    5  A    between atoms: C_10  and  O_13 
REMARK    6  A    between atoms: O_13  and  C_14 
REMARK    7  A    between atoms: C_16  and  N_42 
REMARK    8  A    between atoms: C_19  and  N_41 
REMARK    9  A    between atoms: C_21  and  O_26 
REMARK   10  A    between atoms: C_23  and  O_25 
REMARK   11  A    between atoms: O_26  and  C_27 
REMARK   12  A    between atoms: C_29  and  O_40 
REMARK   13  A    between atoms: C_31  and  N_38 
REMARK   14  A    between atoms: C_33  and  C_36 
REMARK   15  A    between atoms: C_33  and  O_37 
REMARK   16  A    between atoms: N_38  and  C_39 
REMARK   17  A    between atoms: N_44  and  C_45 
ROOT
ATOM      1  C   LIG d   1      10.066   8.974  -2.382  0.00  0.00     0.133 C 
ATOM      2  H   LIG d   1       8.994   8.887  -2.197  0.00  0.00     0.068 H 
ATOM      3  C   LIG d   1      10.809   9.057  -1.048  0.00  0.00     0.010 C 
ATOM      4  H   LIG d   1      11.879   9.143  -1.233  0.00  0.00     0.088 H 
ATOM      5  C   LIG d   1      10.533   7.794  -0.230  0.00  0.00     0.038 C 
ATOM      6  C   LIG d   1      11.016   6.567  -1.007  0.00  0.00     0.010 C 
ATOM      7  H   LIG d   1      12.088   6.654  -1.193  0.00  0.00     0.088 H 
ATOM      8  C   LIG d   1      10.273   6.484  -2.342  0.00  0.00     0.133 C 
ATOM      9  H   LIG d   1       9.203   6.398  -2.157  0.00  0.00     0.068 H 
ATOM     10  C   LIG d   1      10.549   7.747  -3.160  0.00  0.00     0.118 C 
ATOM     11  H   LIG d   1      11.620   7.834  -3.345  0.00  0.00     0.065 H 
ATOM     12  H   LIG d   1      11.062   7.852   0.721  0.00  0.00     0.038 H 
ATOM     13  H   LIG d   1       9.462   7.707  -0.045  0.00  0.00     0.038 H 
ENDROOT
BRANCH   1  14
ATOM     14  O   LIG d   1      10.322  10.153  -3.145  0.00  0.00    -0.335 OA
BRANCH  14  15
ATOM     15  C   LIG d   1       9.149  10.898  -3.478  0.00  0.00     0.203 C 
ATOM     16  C   LIG d   1       9.234  11.359  -4.936  0.00  0.00     0.028 C 
ATOM     17  C   LIG d   1      10.437  12.292  -5.099  0.00  0.00    -0.003 C 
ATOM     18  H   LIG d   1       8.321  11.891  -5.202  0.00  0.00     0.090 H 
ATOM     19  C   LIG d   1      10.295  13.466  -4.124  0.00  0.00    -0.016 C 
ATOM     20  H   LIG d   1      10.470  12.669  -6.121  0.00  0.00     0.032 H 
ATOM     21  H   LIG d   1      11.354  11.746  -4.880  0.00  0.00     0.032 H 
ATOM     22  C   LIG d   1      10.169  12.923  -2.699  0.00  0.00     0.104 C 
ATOM     23  H   LIG d   1       9.403  14.041  -4.375  0.00  0.00     0.029 H 
ATOM     24  H   LIG d   1      11.173  14.107  -4.195  0.00  0.00     0.029 H 
ATOM     25  H   LIG d   1      11.078  12.383  -2.435  0.00  0.00     0.065 H 
ATOM     26  O   LIG d   1       9.050  12.038  -2.624  0.00  0.00    -0.338 OA
ATOM     27  H   LIG d   1       8.269  10.267  -3.347  0.00  0.00     0.097 H 
BRANCH  16  28
ATOM     28  N   LIG d   1       9.395  10.192  -5.813  0.00  0.00     0.224 N 
ATOM     29  H   LIG d   1       8.590  10.110  -6.416  0.00  0.00     0.200 HD
ATOM     30  H   LIG d   1      10.225  10.304  -6.374  0.00  0.00     0.200 HD
ATOM     31  H   LIG d   1       9.479   9.359  -5.250  0.00  0.00     0.200 HD
ENDBRANCH  16  28
BRANCH  22  32
ATOM     32  C   LIG d   1       9.967  14.087  -1.726  0.00  0.00     0.001 C 
ATOM     33  H   LIG d   1      10.850  14.724  -1.733  0.00  0.00     0.087 H 
BRANCH  32  34
ATOM     34  C   LIG d   1       8.745  14.902  -2.154  0.00  0.00    -0.019 C 
ATOM     35  H   LIG d   1       7.841  14.317  -1.988  0.00  0.00     0.029 H 
ATOM     36  H   LIG d   1       8.696  15.819  -1.567  0.00  0.00     0.029 H 
ATOM     37  H   LIG d   1       8.827  15.152  -3.212  0.00  0.00     0.029 H 
ENDBRANCH  32  34
BRANCH  32  38
ATOM     38  N   LIG d   1       9.752  13.560  -0.371  0.00  0.00     0.229 N 
ATOM     39  H   LIG d   1       8.897  13.939   0.006  0.00  0.00     0.201 HD
ATOM     40  H   LIG d   1       9.687  12.554  -0.408  0.00  0.00     0.201 HD
BRANCH  38  41
ATOM     41  C   LIG d   1      10.879  13.947   0.488  0.00  0.00    -0.044 C 
ATOM     42  H   LIG d   1      10.674  13.644   1.515  0.00  0.00     0.078 H 
ATOM     43  H   LIG d   1      11.788  13.457   0.139  0.00  0.00     0.078 H 
ATOM     44  H   LIG d   1      11.011  15.028   0.449  0.00  0.00     0.078 H 
ENDBRANCH  38  41
ENDBRANCH  32  38
ENDBRANCH  22  32
ENDBRANCH  14  15
ENDBRANCH   1  14
BRANCH  10  45
ATOM     45  O   LIG d   1       9.855   7.670  -4.406  0.00  0.00    -0.386 OA
ATOM     46  H   LIG d   1      10.161   6.957  -4.983  0.00  0.00     0.210 HD
ENDBRANCH  10  45
BRANCH   3  47
ATOM     47  N   LIG d   1      10.344  10.234  -0.301  0.00  0.00     0.223 N 
ATOM     48  H   LIG d   1       9.338  10.288  -0.351  0.00  0.00     0.200 HD
ATOM     49  H   LIG d   1      10.629  10.154   0.664  0.00  0.00     0.200 HD
ATOM     50  H   LIG d   1      10.746  11.067  -0.703  0.00  0.00     0.200 HD
ENDBRANCH   3  47
BRANCH   8  51
ATOM     51  O   LIG d   1      10.726   5.340  -3.069  0.00  0.00    -0.337 OA
BRANCH  51  52
ATOM     52  C   LIG d   1       9.706   4.369  -3.317  0.00  0.00     0.191 C 
ATOM     53  H   LIG d   1       8.900   4.496  -2.595  0.00  0.00     0.094 H 
ATOM     54  O   LIG d   1       9.193   4.545  -4.639  0.00  0.00    -0.345 OA
ATOM     55  C   LIG d   1      10.178   4.425  -5.668  0.00  0.00     0.085 C 
ATOM     56  C   LIG d   1      10.788   3.021  -5.628  0.00  0.00     0.131 C 
ATOM     57  H   LIG d   1      10.962   5.166  -5.509  0.00  0.00     0.059 H 
ATOM     58  H   LIG d   1       9.712   4.592  -6.639  0.00  0.00     0.059 H 
ATOM     59  C   LIG d   1      11.388   2.772  -4.241  0.00  0.00     0.040 C 
ATOM     60  C   LIG d   1      10.296   2.962  -3.183  0.00  0.00     0.151 C 
ATOM     61  H   LIG d   1      12.197   3.480  -4.062  0.00  0.00     0.091 H 
ATOM     62  H   LIG d   1       9.510   2.222  -3.333  0.00  0.00     0.070 H 
BRANCH  56  63
ATOM     63  C   LIG d   1      11.886   2.910  -6.688  0.00  0.00    -0.029 C 
ATOM     64  H   LIG d   1      12.096   3.898  -7.098  0.00  0.00     0.026 H 
ATOM     65  H   LIG d   1      12.791   2.506  -6.234  0.00  0.00     0.026 H 
ATOM     66  H   LIG d   1      11.553   2.248  -7.487  0.00  0.00     0.026 H 
ENDBRANCH  56  63
BRANCH  56  67
ATOM     67  O   LIG d   1       9.771   2.052  -5.889  0.00  0.00    -0.381 OA
ATOM     68  H   LIG d   1       9.201   1.866  -5.131  0.00  0.00     0.210 HD
ENDBRANCH  56  67
BRANCH  59  69
ATOM     69  N   LIG d   1      11.909   1.401  -4.168  0.00  0.00     0.231 N 
ATOM     70  H   LIG d   1      11.376   0.874  -3.494  0.00  0.00     0.202 HD
ATOM     71  H   LIG d   1      11.832   0.964  -5.074  0.00  0.00     0.202 HD
BRANCH  69  72
ATOM     72  C   LIG d   1      13.319   1.435  -3.759  0.00  0.00    -0.044 C 
ATOM     73  H   LIG d   1      13.949   1.151  -4.602  0.00  0.00     0.078 H 
ATOM     74  H   LIG d   1      13.579   2.443  -3.433  0.00  0.00     0.078 H 
ATOM     75  H   LIG d   1      13.476   0.737  -2.936  0.00  0.00     0.078 H 
ENDBRANCH  69  72
ENDBRANCH  59  69
BRANCH  60  76
ATOM     76  O   LIG d   1      10.860   2.804  -1.880  0.00  0.00    -0.381 OA
ATOM     77  H   LIG d   1      10.464   3.375  -1.208  0.00  0.00     0.210 HD
ENDBRANCH  60  76
ENDBRANCH  51  52
ENDBRANCH   8  51
BRANCH   6  78
ATOM     78  N   LIG d   1      10.752   5.354  -0.223  0.00  0.00     0.223 N 
ATOM     79  H   LIG d   1      10.791   4.547  -0.828  0.00  0.00     0.200 HD
ATOM     80  H   LIG d   1      11.447   5.265   0.503  0.00  0.00     0.200 HD
ATOM     81  H   LIG d   1       9.835   5.417   0.195  0.00  0.00     0.200 HD
ENDBRANCH   6  78
TORSDOF 17
ENDMDL
MODEL 4
REMARK VINA RESULT:      -5.0      2.932      8.653
REMARK  17 active torsions:
REMARK  status: ('A' for Active; 'I' for Inactive)
REMARK    1  A    between atoms: C_1  and  C_2 
REMARK    2  A    between atoms: C_2  and  C_4 
REMARK    3  A    between atoms: C_2  and  N_44 
REMARK    4  A    between atoms: C_8  and  N_43 
REMARK    5  A    between atoms: C_10  and  O_13 
REMARK    6  A    between atoms: O_13  and  C_14 
REMARK    7  A    between atoms: C_16  and  N_42 
REMARK    8  A    between atoms: C_19  and  N_41 
REMARK    9  A    between atoms: C_21  and  O_26 
REMARK   10  A    between atoms: C_23  and  O_25 
REMARK   11  A    between atoms: O_26  and  C_27 
REMARK   12  A    between atoms: C_29  and  O_40 
REMARK   13  A    between atoms: C_31  and  N_38 
REMARK   14  A    between atoms: C_33  and  C_36 
REMARK   15  A    between atoms: C_33  and  O_37 
REMARK   16  A    between atoms: N_38  and  C_39 
REMARK   17  A    between atoms: N_44  and  C_45 
ROOT
ATOM      1  C   LIG d   1       9.717   6.048  -2.923  0.00  0.00     0.133 C 
ATOM      2  H   LIG d   1       8.638   5.935  -3.031  0.00  0.00     0.068 H 
ATOM      3  C   LIG d   1      10.411   4.758  -3.364  0.00  0.00     0.010 C 
ATOM      4  H   LIG d   1      11.490   4.871  -3.256  0.00  0.00     0.088 H 
ATOM      5  C   LIG d   1      10.072   4.471  -4.827  0.00  0.00     0.038 C 
ATOM      6  C   LIG d   1      10.553   5.633  -5.700  0.00  0.00     0.010 C 
ATOM      7  H   LIG d   1      11.633   5.746  -5.592  0.00  0.00     0.088 H 
ATOM      8  C   LIG d   1       9.859   6.923  -5.259  0.00  0.00     0.133 C 
ATOM      9  H   LIG d   1       8.781   6.810  -5.367  0.00  0.00     0.068 H 
ATOM     10  C   LIG d   1      10.198   7.210  -3.795  0.00  0.00     0.118 C 
ATOM     11  H   LIG d   1      11.277   7.323  -3.687  0.00  0.00     0.065 H 
ATOM     12  H   LIG d   1      10.567   3.552  -5.142  0.00  0.00     0.038 H 
ATOM     13  H   LIG d   1       8.994   4.358  -4.935  0.00  0.00     0.038 H 
ENDROOT
BRANCH   1  14
ATOM     14  O   LIG d   1      10.033   6.316  -1.556  0.00  0.00    -0.335 OA
BRANCH  14  15
ATOM     15  C   LIG d   1      11.371   6.775  -1.347  0.00  0.00     0.203 C 
ATOM     16  C   LIG d   1      11.924   6.162  -0.056  0.00  0.00     0.028 C 
ATOM     17  C   LIG d   1      11.080   6.639   1.129  0.00  0.00    -0.003 C 
ATOM     18  H   LIG d   1      12.958   6.479   0.081  0.00  0.00     0.090 H 
ATOM     19  C   LIG d   1      11.085   8.171   1.162  0.00  0.00    -0.016 C 
ATOM     20  H   LIG d   1      11.502   6.252   2.056  0.00  0.00     0.032 H 
ATOM     21  H   LIG d   1      10.057   6.280   1.014  0.00  0.00     0.032 H 
ATOM     22  C   LIG d   1      10.564   8.705  -0.174  0.00  0.00     0.104 C 
ATOM     23  H   LIG d   1      12.102   8.527   1.326  0.00  0.00     0.029 H 
ATOM     24  H   LIG d   1      10.442   8.520   1.970  0.00  0.00     0.029 H 
ATOM     25  H   LIG d   1       9.533   8.381  -0.318  0.00  0.00     0.065 H 
ATOM     26  O   LIG d   1      11.375   8.199  -1.237  0.00  0.00    -0.338 OA
ATOM     27  H   LIG d   1      11.994   6.472  -2.189  0.00  0.00     0.097 H 
BRANCH  16  28
ATOM     28  N   LIG d   1      11.867   4.698  -0.143  0.00  0.00     0.224 N 
ATOM     29  H   LIG d   1      11.693   4.423  -1.099  0.00  0.00     0.200 HD
ATOM     30  H   LIG d   1      12.745   4.307   0.164  0.00  0.00     0.200 HD
ATOM     31  H   LIG d   1      11.122   4.355   0.445  0.00  0.00     0.200 HD
ENDBRANCH  16  28
BRANCH  22  32
ATOM     32  C   LIG d   1      10.623  10.233  -0.170  0.00  0.00     0.001 C 
ATOM     33  H   LIG d   1      10.519  10.599   0.851  0.00  0.00     0.087 H 
BRANCH  32  34
ATOM     34  C   LIG d   1      11.965  10.694  -0.742  0.00  0.00    -0.019 C 
ATOM     35  H   LIG d   1      11.857  11.692  -1.166  0.00  0.00     0.029 H 
ATOM     36  H   LIG d   1      12.711  10.716   0.052  0.00  0.00     0.029 H 
ATOM     37  H   LIG d   1      12.285  10.002  -1.521  0.00  0.00     0.029 H 
ENDBRANCH  32  34
BRANCH  32  38
ATOM     38  N   LIG d   1       9.531  10.768  -0.996  0.00  0.00     0.229 N 
ATOM     39  H   LIG d   1       9.061  10.009  -1.464  0.00  0.00     0.201 HD
ATOM     40  H   LIG d   1       8.874  11.258  -0.407  0.00  0.00     0.201 HD
BRANCH  38  41
ATOM     41  C   LIG d   1      10.080  11.694  -1.994  0.00  0.00    -0.044 C 
ATOM     42  H   LIG d   1       9.813  12.717  -1.727  0.00  0.00     0.078 H 
ATOM     43  H   LIG d   1      11.166  11.597  -2.022  0.00  0.00     0.078 H 
ATOM     44  H   LIG d   1       9.669  11.456  -2.975  0.00  0.00     0.078 H 
ENDBRANCH  38  41
ENDBRANCH  32  38
ENDBRANCH  22  32
ENDBRANCH  14  15
ENDBRANCH   1  14
BRANCH  10  45
ATOM     45  O   LIG d   1       9.550   8.415  -3.383  0.00  0.00    -0.386 OA
ATOM     46  H   LIG d   1       9.684   8.635  -2.451  0.00  0.00     0.210 HD
ENDBRANCH  10  45
BRANCH   3  47
ATOM     47  N   LIG d   1       9.949   3.643  -2.526  0.00  0.00     0.223 N 
ATOM     48  H   LIG d   1       9.238   3.972  -1.891  0.00  0.00     0.200 HD
ATOM     49  H   LIG d   1       9.565   2.918  -3.114  0.00  0.00     0.200 HD
ATOM     50  H   LIG d   1      10.726   3.273  -2.000  0.00  0.00     0.200 HD
ENDBRANCH   3  47
BRANCH   8  51
ATOM     51  O   LIG d   1      10.309   8.008  -6.073  0.00  0.00    -0.337 OA
BRANCH  51  52
ATOM     52  C   LIG d   1       9.253   8.806  -6.613  0.00  0.00     0.191 C 
ATOM     53  H   LIG d   1       8.309   8.268  -6.524  0.00  0.00     0.094 H 
ATOM     54  O   LIG d   1       9.170  10.037  -5.893  0.00  0.00    -0.345 OA
ATOM     55  C   LIG d   1      10.370  10.813  -5.923  0.00  0.00     0.085 C 
ATOM     56  C   LIG d   1      10.700  11.185  -7.371  0.00  0.00     0.131 C 
ATOM     57  H   LIG d   1      11.191  10.230  -5.502  0.00  0.00     0.059 H 
ATOM     58  H   LIG d   1      10.231  11.721  -5.337  0.00  0.00     0.059 H 
ATOM     59  C   LIG d   1      10.834   9.905  -8.201  0.00  0.00     0.040 C 
ATOM     60  C   LIG d   1       9.537   9.098  -8.089  0.00  0.00     0.151 C 
ATOM     61  H   LIG d   1      11.667   9.311  -7.823  0.00  0.00     0.091 H 
ATOM     62  H   LIG d   1       8.713   9.672  -8.512  0.00  0.00     0.070 H 
BRANCH  56  63
ATOM     63  C   LIG d   1      12.017  11.962  -7.412  0.00  0.00    -0.029 C 
ATOM     64  H   LIG d   1      11.808  13.032  -7.395  0.00  0.00     0.026 H 
ATOM     65  H   LIG d   1      12.624  11.697  -6.546  0.00  0.00     0.026 H 
ATOM     66  H   LIG d   1      12.557  11.712  -8.325  0.00  0.00     0.026 H 
ENDBRANCH  56  63
BRANCH  56  67
ATOM     67  O   LIG d   1       9.650  11.993  -7.907  0.00  0.00    -0.381 OA
ATOM     68  H   LIG d   1       9.558  11.932  -8.867  0.00  0.00     0.210 HD
ENDBRANCH  56  67
BRANCH  59  69
ATOM     69  N   LIG d   1      11.076  10.253  -9.608  0.00  0.00     0.231 N 
ATOM     70  H   LIG d   1      10.293   9.955 -10.167  0.00  0.00     0.202 HD
ATOM     71  H   LIG d   1      11.190  11.251  -9.692  0.00  0.00     0.202 HD
BRANCH  69  72
ATOM     72  C   LIG d   1      12.296   9.580 -10.075  0.00  0.00    -0.044 C 
ATOM     73  H   LIG d   1      13.119  10.294 -10.097  0.00  0.00     0.078 H 
ATOM     74  H   LIG d   1      12.542   8.761  -9.397  0.00  0.00     0.078 H 
ATOM     75  H   LIG d   1      12.131   9.183 -11.076  0.00  0.00     0.078 H 
ENDBRANCH  69  72
ENDBRANCH  59  69
BRANCH  60  76
ATOM     76  O   LIG d   1       9.676   7.867  -8.800  0.00  0.00    -0.381 OA
ATOM     77  H   LIG d   1       8.934   7.664  -9.385  0.00  0.00     0.210 HD
ENDBRANCH  60  76
ENDBRANCH  51  52
ENDBRANCH   8  51
BRANCH   6  78
ATOM     78  N   LIG d   1      10.228   5.357  -7.106  0.00  0.00     0.223 N 
ATOM     79  H   LIG d   1      10.057   6.227  -7.588  0.00  0.00     0.200 HD
ATOM     80  H   LIG d   1      11.002   4.877  -7.541  0.00  0.00     0.200 HD
ATOM     81  H   LIG d   1       9.403   4.778  -7.153  0.00  0.00     0.200 HD
ENDBRANCH   6  78
TORSDOF 17
ENDMDL
MODEL 5
REMARK VINA RESULT:      -5.0      2.027      3.705
REMARK  17 active torsions:
REMARK  status: ('A' for Active; 'I' for Inactive)
REMARK    1  A    between atoms: C_1  and  C_2 
REMARK    2  A    between atoms: C_2  and  C_4 
REMARK    3  A    between atoms: C_2  and  N_44 
REMARK    4  A    between atoms: C_8  and  N_43 
REMARK    5  A    between atoms: C_10  and  O_13 
REMARK    6  A    between atoms: O_13  and  C_14 
REMARK    7  A    between atoms: C_16  and  N_42 
REMARK    8  A    between atoms: C_19  and  N_41 
REMARK    9  A    between atoms: C_21  and  O_26 
REMARK   10  A    between atoms: C_23  and  O_25 
REMARK   11  A    between atoms: O_26  and  C_27 
REMARK   12  A    between atoms: C_29  and  O_40 
REMARK   13  A    between atoms: C_31  and  N_38 
REMARK   14  A    between atoms: C_33  and  C_36 
REMARK   15  A    between atoms: C_33  and  O_37 
REMARK   16  A    between atoms: N_38  and  C_39 
REMARK   17  A    between atoms: N_44  and  C_45 
ROOT
ATOM      1  C   LIG d   1       9.213   9.022  -6.404  0.00  0.00     0.133 C 
ATOM      2  H   LIG d   1       8.242   9.417  -6.103  0.00  0.00     0.068 H 
ATOM      3  C   LIG d   1      10.138  10.179  -6.786  0.00  0.00     0.010 C 
ATOM      4  H   LIG d   1      11.108   9.784  -7.087  0.00  0.00     0.088 H 
ATOM      5  C   LIG d   1      10.315  11.109  -5.585  0.00  0.00     0.038 C 
ATOM      6  C   LIG d   1      10.931  10.328  -4.422  0.00  0.00     0.010 C 
ATOM      7  H   LIG d   1      11.902   9.933  -4.723  0.00  0.00     0.088 H 
ATOM      8  C   LIG d   1      10.006   9.171  -4.039  0.00  0.00     0.133 C 
ATOM      9  H   LIG d   1       9.036   9.566  -3.738  0.00  0.00     0.068 H 
ATOM     10  C   LIG d   1       9.829   8.241  -5.240  0.00  0.00     0.118 C 
ATOM     11  H   LIG d   1      10.799   7.846  -5.541  0.00  0.00     0.065 H 
ATOM     12  H   LIG d   1      10.974  11.934  -5.858  0.00  0.00     0.038 H 
ATOM     13  H   LIG d   1       9.345  11.504  -5.284  0.00  0.00     0.038 H 
ENDROOT
BRANCH   1  14
ATOM     14  O   LIG d   1       9.047   8.153  -7.525  0.00  0.00    -0.335 OA
BRANCH  14  15
ATOM     15  C   LIG d   1      10.275   7.668  -8.072  0.00  0.00     0.203 C 
ATOM     16  C   LIG d   1      10.102   7.420  -9.574  0.00  0.00     0.028 C 
ATOM     17  C   LIG d   1       9.039   6.339  -9.787  0.00  0.00    -0.003 C 
ATOM     18  H   LIG d   1      11.049   7.089  -9.999  0.00  0.00     0.090 H 
ATOM     19  C   LIG d   1       9.457   5.073  -9.032  0.00  0.00    -0.016 C 
ATOM     20  H   LIG d   1       8.951   6.118 -10.850  0.00  0.00     0.032 H 
ATOM     21  H   LIG d   1       8.080   6.690  -9.405  0.00  0.00     0.032 H 
ATOM     22  C   LIG d   1       9.654   5.410  -7.553  0.00  0.00     0.104 C 
ATOM     23  H   LIG d   1      10.391   4.694  -9.448  0.00  0.00     0.029 H 
ATOM     24  H   LIG d   1       8.680   4.315  -9.133  0.00  0.00     0.029 H 
ATOM     25  H   LIG d   1       8.710   5.750  -7.129  0.00  0.00     0.065 H 
ATOM     26  O   LIG d   1      10.633   6.444  -7.427  0.00  0.00    -0.338 OA
ATOM     27  H   LIG d   1      11.060   8.407  -7.914  0.00  0.00     0.097 H 
BRANCH  16  28
ATOM     28  N   LIG d   1       9.676   8.663 -10.231  0.00  0.00     0.224 N 
ATOM     29  H   LIG d   1       8.815   8.986  -9.817  0.00  0.00     0.200 HD
ATOM     30  H   LIG d   1      10.390   9.367 -10.114  0.00  0.00     0.200 HD
ATOM     31  H   LIG d   1       9.532   8.491 -11.214  0.00  0.00     0.200 HD
ENDBRANCH  16  28
BRANCH  22  32
ATOM     32  C   LIG d   1      10.130   4.163  -6.804  0.00  0.00     0.001 C 
ATOM     33  H   LIG d   1       9.393   3.369  -6.915  0.00  0.00     0.087 H 
BRANCH  32  34
ATOM     34  C   LIG d   1      11.469   3.701  -7.383  0.00  0.00    -0.019 C 
ATOM     35  H   LIG d   1      11.291   2.955  -8.159  0.00  0.00     0.029 H 
ATOM     36  H   LIG d   1      11.993   4.553  -7.814  0.00  0.00     0.029 H 
ATOM     37  H   LIG d   1      12.075   3.263  -6.591  0.00  0.00     0.029 H 
ENDBRANCH  32  34
BRANCH  32  38
ATOM     38  N   LIG d   1      10.298   4.482  -5.379  0.00  0.00     0.229 N 
ATOM     39  H   LIG d   1      11.247   4.287  -5.101  0.00  0.00     0.201 HD
ATOM     40  H   LIG d   1      10.098   5.460  -5.228  0.00  0.00     0.201 HD
BRANCH  38  41
ATOM     41  C   LIG d   1       9.375   3.663  -4.583  0.00  0.00    -0.044 C 
ATOM     42  H   LIG d   1       9.051   2.805  -5.172  0.00  0.00     0.078 H 
ATOM     43  H   LIG d   1       9.881   3.316  -3.682  0.00  0.00     0.078 H 
ATOM     44  H   LIG d   1       8.507   4.261  -4.305  0.00  0.00     0.078 H 
ENDBRANCH  38  41
ENDBRANCH  32  38
ENDBRANCH  22  32
ENDBRANCH  14  15
ENDBRANCH   1  14
BRANCH  10  45
ATOM     45  O   LIG d   1       8.965   7.160  -4.883  0.00  0.00    -0.386 OA
ATOM     46  H   LIG d   1       9.184   6.745  -4.038  0.00  0.00     0.210 HD
ENDBRANCH  10  45
BRANCH   3  47
ATOM     47  N   LIG d   1       9.546  10.929  -7.903  0.00  0.00     0.223 N 
ATOM     48  H   LIG d   1       8.645  11.287  -7.627  0.00  0.00     0.200 HD
ATOM     49  H   LIG d   1      10.152  11.698  -8.150  0.00  0.00     0.200 HD
ATOM     50  H   LIG d   1       9.437  10.318  -8.698  0.00  0.00     0.200 HD
ENDBRANCH   3  47
BRANCH   8  51
ATOM     51  O   LIG d   1      10.582   8.441  -2.953  0.00  0.00    -0.337 OA
BRANCH  51  52
ATOM     52  C   LIG d   1       9.632   8.005  -1.978  0.00  0.00     0.191 C 
ATOM     53  H   LIG d   1       8.653   8.427  -2.210  0.00  0.00     0.094 H 
ATOM     54  O   LIG d   1       9.552   6.578  -1.995  0.00  0.00    -0.345 OA
ATOM     55  C   LIG d   1      10.793   5.922  -1.728  0.00  0.00     0.085 C 
ATOM     56  C   LIG d   1      11.283   6.307  -0.330  0.00  0.00     0.131 C 
ATOM     57  H   LIG d   1      11.533   6.227  -2.469  0.00  0.00     0.059 H 
ATOM     58  H   LIG d   1      10.651   4.842  -1.780  0.00  0.00     0.059 H 
ATOM     59  C   LIG d   1      11.421   7.830  -0.247  0.00  0.00     0.040 C 
ATOM     60  C   LIG d   1      10.074   8.473  -0.589  0.00  0.00     0.151 C 
ATOM     61  H   LIG d   1      12.177   8.166  -0.957  0.00  0.00     0.091 H 
ATOM     62  H   LIG d   1       9.330   8.176   0.150  0.00  0.00     0.070 H 
BRANCH  56  63
ATOM     63  C   LIG d   1      12.640   5.654  -0.066  0.00  0.00    -0.029 C 
ATOM     64  H   LIG d   1      13.209   5.610  -0.995  0.00  0.00     0.026 H 
ATOM     65  H   LIG d   1      13.190   6.242   0.669  0.00  0.00     0.026 H 
ATOM     66  H   LIG d   1      12.490   4.644   0.316  0.00  0.00     0.026 H 
ENDBRANCH  56  63
BRANCH  56  67
ATOM     67  O   LIG d   1      10.339   5.859   0.646  0.00  0.00    -0.381 OA
ATOM     68  H   LIG d   1      10.559   6.114   1.552  0.00  0.00     0.210 HD
ENDBRANCH  56  67
BRANCH  59  69
ATOM     69  N   LIG d   1      11.818   8.215   1.114  0.00  0.00     0.231 N 
ATOM     70  H   LIG d   1      11.038   8.648   1.582  0.00  0.00     0.202 HD
ATOM     71  H   LIG d   1      12.105   7.394   1.625  0.00  0.00     0.202 HD
BRANCH  69  72
ATOM     72  C   LIG d   1      12.937   9.165   1.046  0.00  0.00    -0.044 C 
ATOM     73  H   LIG d   1      12.548  10.183   1.030  0.00  0.00     0.078 H 
ATOM     74  H   LIG d   1      13.579   9.034   1.918  0.00  0.00     0.078 H 
ATOM     75  H   LIG d   1      13.514   8.982   0.140  0.00  0.00     0.078 H 
ENDBRANCH  69  72
ENDBRANCH  59  69
BRANCH  60  76
ATOM     76  O   LIG d   1      10.209   9.896  -0.586  0.00  0.00    -0.381 OA
ATOM     77  H   LIG d   1      10.529  10.259   0.250  0.00  0.00     0.210 HD
ENDBRANCH  60  76
ENDBRANCH  51  52
ENDBRANCH   8  51
BRANCH   6  78
ATOM     78  N   LIG d   1      11.102  11.221  -3.268  0.00  0.00     0.223 N 
ATOM     79  H   LIG d   1      11.423  12.124  -3.586  0.00  0.00     0.200 HD
ATOM     80  H   LIG d   1      10.219  11.326  -2.790  0.00  0.00     0.200 HD
ATOM     81  H   LIG d   1      11.782  10.826  -2.635  0.00  0.00     0.200 HD
ENDBRANCH   6  78
TORSDOF 17
ENDMDL
MODEL 6
REMARK VINA RESULT:      -4.9      3.446      6.878
REMARK  17 active torsions:
REMARK  status: ('A' for Active; 'I' for Inactive)
REMARK    1  A    between atoms: C_1  and  C_2 
REMARK    2  A    between atoms: C_2  and  C_4 
REMARK    3  A    between atoms: C_2  and  N_44 
REMARK    4  A    between atoms: C_8  and  N_43 
REMARK    5  A    between atoms: C_10  and  O_13 
REMARK    6  A    between atoms: O_13  and  C_14 
REMARK    7  A    between atoms: C_16  and  N_42 
REMARK    8  A    between atoms: C_19  and  N_41 
REMARK    9  A    between atoms: C_21  and  O_26 
REMARK   10  A    between atoms: C_23  and  O_25 
REMARK   11  A    between atoms: O_26  and  C_27 
REMARK   12  A    between atoms: C_29  and  O_40 
REMARK   13  A    between atoms: C_31  and  N_38 
REMARK   14  A    between atoms: C_33  and  C_36 
REMARK   15  A    between atoms: C_33  and  O_37 
REMARK   16  A    between atoms: N_38  and  C_39 
REMARK   17  A    between atoms: N_44  and  C_45 
ROOT
ATOM      1  C   LIG d   1       9.721   8.509  -1.610  0.00  0.00     0.133 C 
ATOM      2  H   LIG d   1       8.783   8.203  -1.145  0.00  0.00     0.068 H 
ATOM      3  C   LIG d   1      10.813   8.599  -0.542  0.00  0.00     0.010 C 
ATOM      4  H   LIG d   1      11.750   8.905  -1.006  0.00  0.00     0.088 H 
ATOM      5  C   LIG d   1      10.993   7.233   0.121  0.00  0.00     0.038 C 
ATOM      6  C   LIG d   1      11.398   6.202  -0.936  0.00  0.00     0.010 C 
ATOM      7  H   LIG d   1      12.336   6.508  -1.401  0.00  0.00     0.088 H 
ATOM      8  C   LIG d   1      10.306   6.112  -2.004  0.00  0.00     0.133 C 
ATOM      9  H   LIG d   1       9.368   5.806  -1.539  0.00  0.00     0.068 H 
ATOM     10  C   LIG d   1      10.125   7.478  -2.667  0.00  0.00     0.118 C 
ATOM     11  H   LIG d   1      11.063   7.784  -3.131  0.00  0.00     0.065 H 
ATOM     12  H   LIG d   1      11.771   7.297   0.882  0.00  0.00     0.038 H 
ATOM     13  H   LIG d   1      10.055   6.927   0.586  0.00  0.00     0.038 H 
ENDROOT
BRANCH   1  14
ATOM     14  O   LIG d   1       9.552   9.785  -2.228  0.00  0.00    -0.335 OA
BRANCH  14  15
ATOM     15  C   LIG d   1      10.725  10.274  -2.881  0.00  0.00     0.203 C 
ATOM     16  C   LIG d   1      10.766  11.802  -2.778  0.00  0.00     0.028 C 
ATOM     17  C   LIG d   1       9.552  12.389  -3.503  0.00  0.00    -0.003 C 
ATOM     18  H   LIG d   1      11.681  12.173  -3.239  0.00  0.00     0.090 H 
ATOM     19  C   LIG d   1       9.556  11.903  -4.957  0.00  0.00    -0.016 C 
ATOM     20  H   LIG d   1       9.605  13.477  -3.482  0.00  0.00     0.032 H 
ATOM     21  H   LIG d   1       8.638  12.056  -3.011  0.00  0.00     0.032 H 
ATOM     22  C   LIG d   1       9.561  10.373  -4.976  0.00  0.00     0.104 C 
ATOM     23  H   LIG d   1      10.447  12.277  -5.462  0.00  0.00     0.029 H 
ATOM     24  H   LIG d   1       8.666  12.272  -5.467  0.00  0.00     0.029 H 
ATOM     25  H   LIG d   1       8.651  10.001  -4.506  0.00  0.00     0.065 H 
ATOM     26  O   LIG d   1      10.699   9.892  -4.257  0.00  0.00    -0.338 OA
ATOM     27  H   LIG d   1      11.610   9.854  -2.402  0.00  0.00     0.097 H 
BRANCH  16  28
ATOM     28  N   LIG d   1      10.733  12.200  -1.364  0.00  0.00     0.224 N 
ATOM     29  H   LIG d   1       9.900  12.741  -1.186  0.00  0.00     0.200 HD
ATOM     30  H   LIG d   1      10.730  11.376  -0.782  0.00  0.00     0.200 HD
ATOM     31  H   LIG d   1      11.547  12.758  -1.154  0.00  0.00     0.200 HD
ENDBRANCH  16  28
BRANCH  22  32
ATOM     32  C   LIG d   1       9.626   9.881  -6.423  0.00  0.00     0.001 C 
ATOM     33  H   LIG d   1       8.935  10.460  -7.035  0.00  0.00     0.087 H 
BRANCH  32  34
ATOM     34  C   LIG d   1      11.049  10.056  -6.958  0.00  0.00    -0.019 C 
ATOM     35  H   LIG d   1      11.705  10.378  -6.148  0.00  0.00     0.029 H 
ATOM     36  H   LIG d   1      11.407   9.108  -7.358  0.00  0.00     0.029 H 
ATOM     37  H   LIG d   1      11.051  10.807  -7.747  0.00  0.00     0.029 H 
ENDBRANCH  32  34
BRANCH  32  38
ATOM     38  N   LIG d   1       9.256   8.460  -6.475  0.00  0.00     0.229 N 
ATOM     39  H   LIG d   1       9.213   8.089  -5.538  0.00  0.00     0.201 HD
ATOM     40  H   LIG d   1       8.353   8.365  -6.916  0.00  0.00     0.201 HD
BRANCH  38  41
ATOM     41  C   LIG d   1      10.261   7.720  -7.249  0.00  0.00    -0.044 C 
ATOM     42  H   LIG d   1       9.909   7.595  -8.274  0.00  0.00     0.078 H 
ATOM     43  H   LIG d   1      11.199   8.275  -7.252  0.00  0.00     0.078 H 
ATOM     44  H   LIG d   1      10.418   6.741  -6.797  0.00  0.00     0.078 H 
ENDBRANCH  38  41
ENDBRANCH  32  38
ENDBRANCH  22  32
ENDBRANCH  14  15
ENDBRANCH   1  14
BRANCH  10  45
ATOM     45  O   LIG d   1       9.106   7.394  -3.664  0.00  0.00    -0.386 OA
ATOM     46  H   LIG d   1       9.037   8.178  -4.224  0.00  0.00     0.210 HD
ENDBRANCH  10  45
BRANCH   3  47
ATOM     47  N   LIG d   1      10.424   9.588   0.473  0.00  0.00     0.223 N 
ATOM     48  H   LIG d   1      11.187  10.230   0.626  0.00  0.00     0.200 HD
ATOM     49  H   LIG d   1       9.614  10.099   0.152  0.00  0.00     0.200 HD
ATOM     50  H   LIG d   1      10.203   9.115   1.336  0.00  0.00     0.200 HD
ENDBRANCH   3  47
BRANCH   8  51
ATOM     51  O   LIG d   1      10.684   5.150  -2.991  0.00  0.00    -0.337 OA
BRANCH  51  52
ATOM     52  C   LIG d   1       9.683   4.166  -3.257  0.00  0.00     0.191 C 
ATOM     53  H   LIG d   1       8.898   4.233  -2.503  0.00  0.00     0.094 H 
ATOM     54  O   LIG d   1       9.121   4.394  -4.551  0.00  0.00    -0.345 OA
ATOM     55  C   LIG d   1      10.074   4.355  -5.616  0.00  0.00     0.085 C 
ATOM     56  C   LIG d   1      10.722   2.968  -5.668  0.00  0.00     0.131 C 
ATOM     57  H   LIG d   1      10.844   5.109  -5.443  0.00  0.00     0.059 H 
ATOM     58  H   LIG d   1       9.572   4.558  -6.561  0.00  0.00     0.059 H 
ATOM     59  C   LIG d   1      11.373   2.666  -4.315  0.00  0.00     0.040 C 
ATOM     60  C   LIG d   1      10.313   2.771  -3.215  0.00  0.00     0.151 C 
ATOM     61  H   LIG d   1      12.170   3.386  -4.126  0.00  0.00     0.091 H 
ATOM     62  H   LIG d   1       9.543   2.018  -3.378  0.00  0.00     0.070 H 
BRANCH  56  63
ATOM     63  C   LIG d   1      11.786   2.942  -6.767  0.00  0.00    -0.029 C 
ATOM     64  H   LIG d   1      11.435   2.330  -7.597  0.00  0.00     0.026 H 
ATOM     65  H   LIG d   1      11.972   3.958  -7.117  0.00  0.00     0.026 H 
ATOM     66  H   LIG d   1      12.708   2.521  -6.368  0.00  0.00     0.026 H 
ENDBRANCH  56  63
BRANCH  56  67
ATOM     67  O   LIG d   1       9.722   1.985  -5.947  0.00  0.00    -0.381 OA
ATOM     68  H   LIG d   1       8.877   2.149  -5.506  0.00  0.00     0.210 HD
ENDBRANCH  56  67
BRANCH  59  69
ATOM     69  N   LIG d   1      11.933   1.307  -4.331  0.00  0.00     0.231 N 
ATOM     70  H   LIG d   1      11.413   0.723  -3.695  0.00  0.00     0.202 HD
ATOM     71  H   LIG d   1      11.871   0.929  -5.264  0.00  0.00     0.202 HD
BRANCH  69  72
ATOM     72  C   LIG d   1      13.341   1.354  -3.914  0.00  0.00    -0.044 C 
ATOM     73  H   LIG d   1      13.416   1.086  -2.860  0.00  0.00     0.078 H 
ATOM     74  H   LIG d   1      13.920   0.648  -4.511  0.00  0.00     0.078 H 
ATOM     75  H   LIG d   1      13.731   2.360  -4.063  0.00  0.00     0.078 H 
ENDBRANCH  69  72
ENDBRANCH  59  69
BRANCH  60  76
ATOM     76  O   LIG d   1      10.924   2.562  -1.941  0.00  0.00    -0.381 OA
ATOM     77  H   LIG d   1      11.386   1.717  -1.859  0.00  0.00     0.210 HD
ENDBRANCH  60  76
ENDBRANCH  51  52
ENDBRANCH   8  51
BRANCH   6  78
ATOM     78  N   LIG d   1      11.571   4.890  -0.300  0.00  0.00     0.223 N 
ATOM     79  H   LIG d   1      10.808   4.284  -0.564  0.00  0.00     0.200 HD
ATOM     80  H   LIG d   1      12.445   4.484  -0.601  0.00  0.00     0.200 HD
ATOM     81  H   LIG d   1      11.580   5.001   0.704  0.00  0.00     0.200 HD
ENDBRANCH   6  78
TORSDOF 17
ENDMDL
MODEL 7
REMARK VINA RESULT:      -4.9      5.025      8.516
REMARK  17 active torsions:
REMARK  status: ('A' for Active; 'I' for Inactive)
REMARK    1  A    between atoms: C_1  and  C_2 
REMARK    2  A    between atoms: C_2  and  C_4 
REMARK    3  A    between atoms: C_2  and  N_44 
REMARK    4  A    between atoms: C_8  and  N_43 
REMARK    5  A    between atoms: C_10  and  O_13 
REMARK    6  A    between atoms: O_13  and  C_14 
REMARK    7  A    between atoms: C_16  and  N_42 
REMARK    8  A    between atoms: C_19  and  N_41 
REMARK    9  A    between atoms: C_21  and  O_26 
REMARK   10  A    between atoms: C_23  and  O_25 
REMARK   11  A    between atoms: O_26  and  C_27 
REMARK   12  A    between atoms: C_29  and  O_40 
REMARK   13  A    between atoms: C_31  and  N_38 
REMARK   14  A    between atoms: C_33  and  C_36 
REMARK   15  A    between atoms: C_33  and  O_37 
REMARK   16  A    between atoms: N_38  and  C_39 
REMARK   17  A    between atoms: N_44  and  C_45 
ROOT
ATOM      1  C   LIG d   1       9.744   3.680  -4.981  0.00  0.00     0.133 C 
ATOM      2  H   LIG d   1      10.613   3.042  -4.818  0.00  0.00     0.068 H 
ATOM      3  C   LIG d   1       9.755   4.197  -6.421  0.00  0.00     0.010 C 
ATOM      4  H   LIG d   1       8.887   4.835  -6.585  0.00  0.00     0.088 H 
ATOM      5  C   LIG d   1       9.707   3.013  -7.389  0.00  0.00     0.038 C 
ATOM      6  C   LIG d   1       8.429   2.207  -7.146  0.00  0.00     0.010 C 
ATOM      7  H   LIG d   1       7.560   2.846  -7.309  0.00  0.00     0.088 H 
ATOM      8  C   LIG d   1       8.418   1.691  -5.706  0.00  0.00     0.133 C 
ATOM      9  H   LIG d   1       9.286   1.052  -5.542  0.00  0.00     0.068 H 
ATOM     10  C   LIG d   1       8.466   2.874  -4.738  0.00  0.00     0.118 C 
ATOM     11  H   LIG d   1       7.598   3.513  -4.902  0.00  0.00     0.065 H 
ATOM     12  H   LIG d   1       9.714   3.381  -8.415  0.00  0.00     0.038 H 
ATOM     13  H   LIG d   1      10.575   2.374  -7.226  0.00  0.00     0.038 H 
ENDROOT
BRANCH   1  14
ATOM     14  O   LIG d   1       9.790   4.785  -4.078  0.00  0.00    -0.335 OA
BRANCH  14  15
ATOM     15  C   LIG d   1      11.109   5.140  -3.659  0.00  0.00     0.203 C 
ATOM     16  C   LIG d   1      11.245   4.906  -2.151  0.00  0.00     0.028 C 
ATOM     17  C   LIG d   1      10.263   5.818  -1.410  0.00  0.00    -0.003 C 
ATOM     18  H   LIG d   1      12.263   5.137  -1.838  0.00  0.00     0.090 H 
ATOM     19  C   LIG d   1      10.539   7.273  -1.802  0.00  0.00    -0.016 C 
ATOM     20  H   LIG d   1      10.393   5.698  -0.335  0.00  0.00     0.032 H 
ATOM     21  H   LIG d   1       9.242   5.554  -1.687  0.00  0.00     0.032 H 
ATOM     22  C   LIG d   1      10.430   7.415  -3.322  0.00  0.00     0.104 C 
ATOM     23  H   LIG d   1      11.543   7.552  -1.481  0.00  0.00     0.029 H 
ATOM     24  H   LIG d   1       9.809   7.925  -1.322  0.00  0.00     0.029 H 
ATOM     25  H   LIG d   1       9.415   7.175  -3.637  0.00  0.00     0.065 H 
ATOM     26  O   LIG d   1      11.348   6.517  -3.950  0.00  0.00    -0.338 OA
ATOM     27  H   LIG d   1      11.836   4.524  -4.188  0.00  0.00     0.097 H 
BRANCH  16  28
ATOM     28  N   LIG d   1      10.942   3.503  -1.841  0.00  0.00     0.224 N 
ATOM     29  H   LIG d   1      10.063   3.449  -1.349  0.00  0.00     0.200 HD
ATOM     30  H   LIG d   1      10.882   2.975  -2.698  0.00  0.00     0.200 HD
ATOM     31  H   LIG d   1      11.675   3.122  -1.262  0.00  0.00     0.200 HD
ENDBRANCH  16  28
BRANCH  22  32
ATOM     32  C   LIG d   1      10.764   8.852  -3.725  0.00  0.00     0.001 C 
ATOM     33  H   LIG d   1      11.415   9.299  -2.975  0.00  0.00     0.087 H 
BRANCH  32  34
ATOM     34  C   LIG d   1      11.475   8.849  -5.080  0.00  0.00    -0.019 C 
ATOM     35  H   LIG d   1      11.658   9.876  -5.397  0.00  0.00     0.029 H 
ATOM     36  H   LIG d   1      12.425   8.323  -4.992  0.00  0.00     0.029 H 
ATOM     37  H   LIG d   1      10.849   8.348  -5.818  0.00  0.00     0.029 H 
ENDBRANCH  32  34
BRANCH  32  38
ATOM     38  N   LIG d   1       9.524   9.634  -3.826  0.00  0.00     0.229 N 
ATOM     39  H   LIG d   1       8.730   9.016  -3.755  0.00  0.00     0.201 HD
ATOM     40  H   LIG d   1       9.492  10.310  -3.077  0.00  0.00     0.201 HD
BRANCH  38  41
ATOM     41  C   LIG d   1       9.488  10.331  -5.118  0.00  0.00    -0.044 C 
ATOM     42  H   LIG d   1      10.460  10.783  -5.314  0.00  0.00     0.078 H 
ATOM     43  H   LIG d   1       9.252   9.619  -5.909  0.00  0.00     0.078 H 
ATOM     44  H   LIG d   1       8.725  11.109  -5.089  0.00  0.00     0.078 H 
ENDBRANCH  38  41
ENDBRANCH  32  38
ENDBRANCH  22  32
ENDBRANCH  14  15
ENDBRANCH   1  14
BRANCH  10  45
ATOM     45  O   LIG d   1       8.456   2.392  -3.394  0.00  0.00    -0.386 OA
ATOM     46  H   LIG d   1       8.393   1.430  -3.321  0.00  0.00     0.210 HD
ENDBRANCH  10  45
BRANCH   3  47
ATOM     47  N   LIG d   1      10.982   4.970  -6.655  0.00  0.00     0.223 N 
ATOM     48  H   LIG d   1      10.743   5.878  -7.024  0.00  0.00     0.200 HD
ATOM     49  H   LIG d   1      11.480   5.082  -5.783  0.00  0.00     0.200 HD
ATOM     50  H   LIG d   1      11.567   4.482  -7.316  0.00  0.00     0.200 HD
ENDBRANCH   3  47
BRANCH   8  51
ATOM     51  O   LIG d   1       7.224   0.939  -5.478  0.00  0.00    -0.337 OA
BRANCH  51  52
ATOM     52  C   LIG d   1       7.450  -0.356  -4.916  0.00  0.00     0.191 C 
ATOM     53  H   LIG d   1       8.512  -0.598  -4.977  0.00  0.00     0.094 H 
ATOM     54  O   LIG d   1       7.040  -0.359  -3.547  0.00  0.00    -0.345 OA
ATOM     55  C   LIG d   1       5.664  -0.026  -3.351  0.00  0.00     0.085 C 
ATOM     56  C   LIG d   1       4.783  -1.055  -4.065  0.00  0.00     0.131 C 
ATOM     57  H   LIG d   1       5.468   0.966  -3.759  0.00  0.00     0.059 H 
ATOM     58  H   LIG d   1       5.437  -0.031  -2.285  0.00  0.00     0.059 H 
ATOM     59  C   LIG d   1       5.150  -1.085  -5.552  0.00  0.00     0.040 C 
ATOM     60  C   LIG d   1       6.642  -1.399  -5.692  0.00  0.00     0.151 C 
ATOM     61  H   LIG d   1       4.937  -0.113  -5.999  0.00  0.00     0.091 H 
ATOM     62  H   LIG d   1       6.846  -2.391  -5.290  0.00  0.00     0.070 H 
BRANCH  56  63
ATOM     63  C   LIG d   1       3.312  -0.666  -3.908  0.00  0.00    -0.029 C 
ATOM     64  H   LIG d   1       3.132  -0.335  -2.885  0.00  0.00     0.026 H 
ATOM     65  H   LIG d   1       3.073   0.142  -4.599  0.00  0.00     0.026 H 
ATOM     66  H   LIG d   1       2.684  -1.529  -4.126  0.00  0.00     0.026 H 
ENDBRANCH  56  63
BRANCH  56  67
ATOM     67  O   LIG d   1       5.001  -2.347  -3.493  0.00  0.00    -0.381 OA
ATOM     68  H   LIG d   1       4.941  -2.365  -2.529  0.00  0.00     0.210 HD
ENDBRANCH  56  67
BRANCH  59  69
ATOM     69  N   LIG d   1       4.363  -2.122  -6.232  0.00  0.00     0.231 N 
ATOM     70  H   LIG d   1       4.951  -2.919  -6.423  0.00  0.00     0.202 HD
ATOM     71  H   LIG d   1       3.595  -2.403  -5.641  0.00  0.00     0.202 HD
BRANCH  69  72
ATOM     72  C   LIG d   1       3.838  -1.587  -7.496  0.00  0.00    -0.044 C 
ATOM     73  H   LIG d   1       3.807  -2.381  -8.241  0.00  0.00     0.078 H 
ATOM     74  H   LIG d   1       2.831  -1.199  -7.336  0.00  0.00     0.078 H 
ATOM     75  H   LIG d   1       4.485  -0.783  -7.846  0.00  0.00     0.078 H 
ENDBRANCH  69  72
ENDBRANCH  59  69
BRANCH  60  76
ATOM     76  O   LIG d   1       7.012  -1.358  -7.072  0.00  0.00    -0.381 OA
ATOM     77  H   LIG d   1       7.624  -0.643  -7.295  0.00  0.00     0.210 HD
ENDBRANCH  60  76
ENDBRANCH  51  52
ENDBRANCH   8  51
BRANCH   6  78
ATOM     78  N   LIG d   1       8.382   1.070  -8.075  0.00  0.00     0.223 N 
ATOM     79  H   LIG d   1       9.284   0.618  -8.099  0.00  0.00     0.200 HD
ATOM     80  H   LIG d   1       7.683   0.412  -7.765  0.00  0.00     0.200 HD
ATOM     81  H   LIG d   1       8.147   1.401  -8.999  0.00  0.00     0.200 HD
ENDBRANCH   6  78
TORSDOF 17
ENDMDL
MODEL 8
REMARK VINA RESULT:      -4.8      1.893      2.237
REMARK  17 active torsions:
REMARK  status: ('A' for Active; 'I' for Inactive)
REMARK    1  A    between atoms: C_1  and  C_2 
REMARK    2  A    between atoms: C_2  and  C_4 
REMARK    3  A    between atoms: C_2  and  N_44 
REMARK    4  A    between atoms: C_8  and  N_43 
REMARK    5  A    between atoms: C_10  and  O_13 
REMARK    6  A    between atoms: O_13  and  C_14 
REMARK    7  A    between atoms: C_16  and  N_42 
REMARK    8  A    between atoms: C_19  and  N_41 
REMARK    9  A    between atoms: C_21  and  O_26 
REMARK   10  A    between atoms: C_23  and  O_25 
REMARK   11  A    between atoms: O_26  and  C_27 
REMARK   12  A    between atoms: C_29  and  O_40 
REMARK   13  A    between atoms: C_31  and  N_38 
REMARK   14  A    between atoms: C_33  and  C_36 
REMARK   15  A    between atoms: C_33  and  O_37 
REMARK   16  A    between atoms: N_38  and  C_39 
REMARK   17  A    between atoms: N_44  and  C_45 
ROOT
ATOM      1  C   LIG d   1      10.217   8.760  -6.889  0.00  0.00     0.133 C 
ATOM      2  H   LIG d   1       9.203   8.375  -7.005  0.00  0.00     0.068 H 
ATOM      3  C   LIG d   1      10.167  10.278  -6.705  0.00  0.00     0.010 C 
ATOM      4  H   LIG d   1      11.180  10.664  -6.589  0.00  0.00     0.088 H 
ATOM      5  C   LIG d   1       9.347  10.615  -5.458  0.00  0.00     0.038 C 
ATOM      6  C   LIG d   1       9.999   9.974  -4.231  0.00  0.00     0.010 C 
ATOM      7  H   LIG d   1      11.013  10.359  -4.115  0.00  0.00     0.088 H 
ATOM      8  C   LIG d   1      10.049   8.456  -4.415  0.00  0.00     0.133 C 
ATOM      9  H   LIG d   1       9.036   8.070  -4.530  0.00  0.00     0.068 H 
ATOM     10  C   LIG d   1      10.869   8.119  -5.662  0.00  0.00     0.118 C 
ATOM     11  H   LIG d   1      11.882   8.504  -5.546  0.00  0.00     0.065 H 
ATOM     12  H   LIG d   1       9.312  11.696  -5.327  0.00  0.00     0.038 H 
ATOM     13  H   LIG d   1       8.334  10.230  -5.574  0.00  0.00     0.038 H 
ENDROOT
BRANCH   1  14
ATOM     14  O   LIG d   1      10.981   8.446  -8.053  0.00  0.00    -0.335 OA
BRANCH  14  15
ATOM     15  C   LIG d   1      10.198   7.987  -9.157  0.00  0.00     0.203 C 
ATOM     16  C   LIG d   1      10.719   6.623  -9.620  0.00  0.00     0.028 C 
ATOM     17  C   LIG d   1      12.163   6.776 -10.108  0.00  0.00    -0.003 C 
ATOM     18  H   LIG d   1      10.096   6.254 -10.435  0.00  0.00     0.090 H 
ATOM     19  C   LIG d   1      12.205   7.825 -11.223  0.00  0.00    -0.016 C 
ATOM     20  H   LIG d   1      12.521   5.821 -10.491  0.00  0.00     0.032 H 
ATOM     21  H   LIG d   1      12.795   7.098  -9.280  0.00  0.00     0.032 H 
ATOM     22  C   LIG d   1      11.627   9.142 -10.698  0.00  0.00     0.104 C 
ATOM     23  H   LIG d   1      11.613   7.479 -12.071  0.00  0.00     0.029 H 
ATOM     24  H   LIG d   1      13.237   7.980 -11.539  0.00  0.00     0.029 H 
ATOM     25  H   LIG d   1      12.244   9.507  -9.877  0.00  0.00     0.065 H 
ATOM     26  O   LIG d   1      10.294   8.923 -10.232  0.00  0.00    -0.338 OA
ATOM     27  H   LIG d   1       9.156   7.892  -8.848  0.00  0.00     0.097 H 
BRANCH  16  28
ATOM     28  N   LIG d   1      10.676   5.674  -8.501  0.00  0.00     0.224 N 
ATOM     29  H   LIG d   1       9.752   5.276  -8.431  0.00  0.00     0.200 HD
ATOM     30  H   LIG d   1      11.349   4.938  -8.657  0.00  0.00     0.200 HD
ATOM     31  H   LIG d   1      10.899   6.156  -7.643  0.00  0.00     0.200 HD
ENDBRANCH  16  28
BRANCH  22  32
ATOM     32  C   LIG d   1      11.611  10.177 -11.824  0.00  0.00     0.001 C 
ATOM     33  H   LIG d   1      11.447  11.168 -11.404  0.00  0.00     0.087 H 
BRANCH  32  34
ATOM     34  C   LIG d   1      12.951  10.149 -12.562  0.00  0.00    -0.019 C 
ATOM     35  H   LIG d   1      13.764  10.237 -11.842  0.00  0.00     0.029 H 
ATOM     36  H   LIG d   1      13.048   9.210 -13.106  0.00  0.00     0.029 H 
ATOM     37  H   LIG d   1      12.996  10.982 -13.264  0.00  0.00     0.029 H 
ENDBRANCH  32  34
BRANCH  32  38
ATOM     38  N   LIG d   1      10.528   9.859 -12.766  0.00  0.00     0.229 N 
ATOM     39  H   LIG d   1      10.282   8.885 -12.679  0.00  0.00     0.201 HD
ATOM     40  H   LIG d   1       9.722  10.429 -12.556  0.00  0.00     0.201 HD
BRANCH  38  41
ATOM     41  C   LIG d   1      10.976  10.130 -14.137  0.00  0.00    -0.044 C 
ATOM     42  H   LIG d   1      10.145  10.529 -14.719  0.00  0.00     0.078 H 
ATOM     43  H   LIG d   1      11.788  10.858 -14.118  0.00  0.00     0.078 H 
ATOM     44  H   LIG d   1      11.328   9.205 -14.594  0.00  0.00     0.078 H 
ENDBRANCH  38  41
ENDBRANCH  32  38
ENDBRANCH  22  32
ENDBRANCH  14  15
ENDBRANCH   1  14
BRANCH  10  45
ATOM     45  O   LIG d   1      10.915   6.702  -5.833  0.00  0.00    -0.386 OA
ATOM     46  H   LIG d   1      10.450   6.385  -6.620  0.00  0.00     0.210 HD
ENDBRANCH  10  45
BRANCH   3  47
ATOM     47  N   LIG d   1       9.541  10.894  -7.883  0.00  0.00     0.223 N 
ATOM     48  H   LIG d   1       8.545  10.734  -7.856  0.00  0.00     0.200 HD
ATOM     49  H   LIG d   1       9.722  11.887  -7.880  0.00  0.00     0.200 HD
ATOM     50  H   LIG d   1       9.924  10.483  -8.721  0.00  0.00     0.200 HD
ENDBRANCH   3  47
BRANCH   8  51
ATOM     51  O   LIG d   1      10.659   7.857  -3.269  0.00  0.00    -0.337 OA
BRANCH  51  52
ATOM     52  C   LIG d   1       9.983   6.690  -2.794  0.00  0.00     0.191 C 
ATOM     53  H   LIG d   1       9.006   6.617  -3.271  0.00  0.00     0.094 H 
ATOM     54  O   LIG d   1      10.756   5.530  -3.110  0.00  0.00    -0.345 OA
ATOM     55  C   LIG d   1      12.072   5.537  -2.553  0.00  0.00     0.085 C 
ATOM     56  C   LIG d   1      11.978   5.587  -1.025  0.00  0.00     0.131 C 
ATOM     57  H   LIG d   1      12.615   6.412  -2.912  0.00  0.00     0.059 H 
ATOM     58  H   LIG d   1      12.600   4.633  -2.856  0.00  0.00     0.059 H 
ATOM     59  C   LIG d   1      11.183   6.828  -0.610  0.00  0.00     0.040 C 
ATOM     60  C   LIG d   1       9.805   6.785  -1.277  0.00  0.00     0.151 C 
ATOM     61  H   LIG d   1      11.716   7.725  -0.929  0.00  0.00     0.091 H 
ATOM     62  H   LIG d   1       9.254   5.915  -0.919  0.00  0.00     0.070 H 
BRANCH  56  63
ATOM     63  C   LIG d   1      13.385   5.656  -0.429  0.00  0.00    -0.029 C 
ATOM     64  H   LIG d   1      13.923   4.736  -0.659  0.00  0.00     0.026 H 
ATOM     65  H   LIG d   1      13.919   6.505  -0.854  0.00  0.00     0.026 H 
ATOM     66  H   LIG d   1      13.315   5.774   0.652  0.00  0.00     0.026 H 
ENDBRANCH  56  63
BRANCH  56  67
ATOM     67  O   LIG d   1      11.314   4.413  -0.550  0.00  0.00    -0.381 OA
ATOM     68  H   LIG d   1      11.884   3.635  -0.492  0.00  0.00     0.210 HD
ENDBRANCH  56  67
BRANCH  59  69
ATOM     69  N   LIG d   1      11.023   6.845   0.850  0.00  0.00     0.231 N 
ATOM     70  H   LIG d   1      10.054   6.695   1.084  0.00  0.00     0.202 HD
ATOM     71  H   LIG d   1      11.586   6.115   1.258  0.00  0.00     0.202 HD
BRANCH  69  72
ATOM     72  C   LIG d   1      11.457   8.147   1.374  0.00  0.00    -0.044 C 
ATOM     73  H   LIG d   1      12.130   8.621   0.659  0.00  0.00     0.078 H 
ATOM     74  H   LIG d   1      10.586   8.785   1.531  0.00  0.00     0.078 H 
ATOM     75  H   LIG d   1      11.976   8.003   2.322  0.00  0.00     0.078 H 
ENDBRANCH  69  72
ENDBRANCH  59  69
BRANCH  60  76
ATOM     76  O   LIG d   1       9.081   7.974  -0.955  0.00  0.00    -0.381 OA
ATOM     77  H   LIG d   1       9.325   8.741  -1.491  0.00  0.00     0.210 HD
ENDBRANCH  60  76
ENDBRANCH  51  52
ENDBRANCH   8  51
BRANCH   6  78
ATOM     78  N   LIG d   1       9.213  10.297  -3.033  0.00  0.00     0.223 N 
ATOM     79  H   LIG d   1       9.812  10.275  -2.221  0.00  0.00     0.200 HD
ATOM     80  H   LIG d   1       8.812  11.218  -3.132  0.00  0.00     0.200 HD
ATOM     81  H   LIG d   1       8.473   9.618  -2.923  0.00  0.00     0.200 HD
ENDBRANCH   6  78
TORSDOF 17
ENDMDL
MODEL 9
REMARK VINA RESULT:      -4.8      3.303      5.956
REMARK  17 active torsions:
REMARK  status: ('A' for Active; 'I' for Inactive)
REMARK    1  A    between atoms: C_1  and  C_2 
REMARK    2  A    between atoms: C_2  and  C_4 
REMARK    3  A    between atoms: C_2  and  N_44 
REMARK    4  A    between atoms: C_8  and  N_43 
REMARK    5  A    between atoms: C_10  and  O_13 
REMARK    6  A    between atoms: O_13  and  C_14 
REMARK    7  A    between atoms: C_16  and  N_42 
REMARK    8  A    between atoms: C_19  and  N_41 
REMARK    9  A    between atoms: C_21  and  O_26 
REMARK   10  A    between atoms: C_23  and  O_25 
REMARK   11  A    between atoms: O_26  and  C_27 
REMARK   12  A    between atoms: C_29  and  O_40 
REMARK   13  A    between atoms: C_31  and  N_38 
REMARK   14  A    between atoms: C_33  and  C_36 
REMARK   15  A    between atoms: C_33  and  O_37 
REMARK   16  A    between atoms: N_38  and  C_39 
REMARK   17  A    between atoms: N_44  and  C_45 
ROOT
ATOM      1  C   LIG d   1      11.646   5.897  -2.598  0.00  0.00     0.133 C 
ATOM      2  H   LIG d   1      12.710   5.690  -2.481  0.00  0.00     0.068 H 
ATOM      3  C   LIG d   1      10.855   5.089  -1.568  0.00  0.00     0.010 C 
ATOM      4  H   LIG d   1       9.791   5.295  -1.684  0.00  0.00     0.088 H 
ATOM      5  C   LIG d   1      11.300   5.482  -0.158  0.00  0.00     0.038 C 
ATOM      6  C   LIG d   1      11.044   6.975   0.060  0.00  0.00     0.010 C 
ATOM      7  H   LIG d   1       9.980   7.182  -0.057  0.00  0.00     0.088 H 
ATOM      8  C   LIG d   1      11.836   7.783  -0.970  0.00  0.00     0.133 C 
ATOM      9  H   LIG d   1      12.900   7.577  -0.854  0.00  0.00     0.068 H 
ATOM     10  C   LIG d   1      11.390   7.390  -2.380  0.00  0.00     0.118 C 
ATOM     11  H   LIG d   1      10.326   7.597  -2.496  0.00  0.00     0.065 H 
ATOM     12  H   LIG d   1      10.736   4.906   0.576  0.00  0.00     0.038 H 
ATOM     13  H   LIG d   1      12.364   5.275  -0.042  0.00  0.00     0.038 H 
ENDROOT
BRANCH   1  14
ATOM     14  O   LIG d   1      11.231   5.530  -3.913  0.00  0.00    -0.335 OA
BRANCH  14  15
ATOM     15  C   LIG d   1       9.828   5.682  -4.145  0.00  0.00     0.203 C 
ATOM     16  C   LIG d   1       9.349   4.593  -5.109  0.00  0.00     0.028 C 
ATOM     17  C   LIG d   1      10.062   4.762  -6.454  0.00  0.00    -0.003 C 
ATOM     18  H   LIG d   1       8.273   4.684  -5.253  0.00  0.00     0.090 H 
ATOM     19  C   LIG d   1       9.793   6.172  -6.988  0.00  0.00    -0.016 C 
ATOM     20  H   LIG d   1       9.685   4.024  -7.162  0.00  0.00     0.032 H 
ATOM     21  H   LIG d   1      11.135   4.622  -6.317  0.00  0.00     0.032 H 
ATOM     22  C   LIG d   1      10.255   7.200  -5.952  0.00  0.00     0.104 C 
ATOM     23  H   LIG d   1       8.725   6.294  -7.171  0.00  0.00     0.029 H 
ATOM     24  H   LIG d   1      10.341   6.320  -7.919  0.00  0.00     0.029 H 
ATOM     25  H   LIG d   1      11.330   7.104  -5.800  0.00  0.00     0.065 H 
ATOM     26  O   LIG d   1       9.577   6.967  -4.716  0.00  0.00    -0.338 OA
ATOM     27  H   LIG d   1       9.293   5.592  -3.200  0.00  0.00     0.097 H 
BRANCH  16  28
ATOM     28  N   LIG d   1       9.660   3.271  -4.551  0.00  0.00     0.224 N 
ATOM     29  H   LIG d   1       8.901   2.635  -4.747  0.00  0.00     0.200 HD
ATOM     30  H   LIG d   1      10.509   2.920  -4.968  0.00  0.00     0.200 HD
ATOM     31  H   LIG d   1       9.783   3.348  -3.553  0.00  0.00     0.200 HD
ENDBRANCH  16  28
BRANCH  22  32
ATOM     32  C   LIG d   1       9.935   8.609  -6.453  0.00  0.00     0.001 C 
ATOM     33  H   LIG d   1      10.858   9.114  -6.733  0.00  0.00     0.087 H 
BRANCH  32  34
ATOM     34  C   LIG d   1       9.013   8.520  -7.671  0.00  0.00    -0.019 C 
ATOM     35  H   LIG d   1       8.278   9.324  -7.630  0.00  0.00     0.029 H 
ATOM     36  H   LIG d   1       9.603   8.614  -8.582  0.00  0.00     0.029 H 
ATOM     37  H   LIG d   1       8.499   7.559  -7.668  0.00  0.00     0.029 H 
ENDBRANCH  32  34
BRANCH  32  38
ATOM     38  N   LIG d   1       9.265   9.367  -5.387  0.00  0.00     0.229 N 
ATOM     39  H   LIG d   1       8.269   9.218  -5.443  0.00  0.00     0.201 HD
ATOM     40  H   LIG d   1       9.603   9.054  -4.490  0.00  0.00     0.201 HD
BRANCH  38  41
ATOM     41  C   LIG d   1       9.555  10.798  -5.548  0.00  0.00    -0.044 C 
ATOM     42  H   LIG d   1       8.799  11.383  -5.024  0.00  0.00     0.078 H 
ATOM     43  H   LIG d   1      10.538  11.019  -5.133  0.00  0.00     0.078 H 
ATOM     44  H   LIG d   1       9.541  11.054  -6.608  0.00  0.00     0.078 H 
ENDBRANCH  38  41
ENDBRANCH  32  38
ENDBRANCH  22  32
ENDBRANCH  14  15
ENDBRANCH   1  14
BRANCH  10  45
ATOM     45  O   LIG d   1      12.130   8.145  -3.341  0.00  0.00    -0.386 OA
ATOM     46  H   LIG d   1      12.936   8.547  -2.990  0.00  0.00     0.210 HD
ENDBRANCH  10  45
BRANCH   3  47
ATOM     47  N   LIG d   1      11.100   3.655  -1.777  0.00  0.00     0.223 N 
ATOM     48  H   LIG d   1      11.856   3.354  -1.181  0.00  0.00     0.200 HD
ATOM     49  H   LIG d   1      10.266   3.134  -1.551  0.00  0.00     0.200 HD
ATOM     50  H   LIG d   1      11.347   3.494  -2.741  0.00  0.00     0.200 HD
ENDBRANCH   3  47
BRANCH   8  51
ATOM     51  O   LIG d   1      11.596   9.178  -0.768  0.00  0.00    -0.337 OA
BRANCH  51  52
ATOM     52  C   LIG d   1      10.371   9.464  -0.089  0.00  0.00     0.191 C 
ATOM     53  H   LIG d   1       9.798   8.544   0.031  0.00  0.00     0.094 H 
ATOM     54  O   LIG d   1      10.657  10.019   1.197  0.00  0.00    -0.345 OA
ATOM     55  C   LIG d   1      11.431  11.219   1.155  0.00  0.00     0.085 C 
ATOM     56  C   LIG d   1      10.660  12.296   0.386  0.00  0.00     0.131 C 
ATOM     57  H   LIG d   1      12.380  11.023   0.653  0.00  0.00     0.059 H 
ATOM     58  H   LIG d   1      11.622  11.564   2.171  0.00  0.00     0.059 H 
ATOM     59  C   LIG d   1      10.343  11.779  -1.021  0.00  0.00     0.040 C 
ATOM     60  C   LIG d   1       9.557  10.470  -0.907  0.00  0.00     0.151 C 
ATOM     61  H   LIG d   1      11.273  11.601  -1.561  0.00  0.00     0.091 H 
ATOM     62  H   LIG d   1       8.605  10.659  -0.410  0.00  0.00     0.070 H 
BRANCH  56  63
ATOM     63  C   LIG d   1      11.512  13.562   0.287  0.00  0.00    -0.029 C 
ATOM     64  H   LIG d   1      12.202  13.471  -0.552  0.00  0.00     0.026 H 
ATOM     65  H   LIG d   1      10.865  14.426   0.132  0.00  0.00     0.026 H 
ATOM     66  H   LIG d   1      12.077  13.693   1.209  0.00  0.00     0.026 H 
ENDBRANCH  56  63
BRANCH  56  67
ATOM     67  O   LIG d   1       9.441  12.591   1.072  0.00  0.00    -0.381 OA
ATOM     68  H   LIG d   1       9.553  12.759   2.017  0.00  0.00     0.210 HD
ENDBRANCH  56  67
BRANCH  59  69
ATOM     69  N   LIG d   1       9.539  12.775  -1.742  0.00  0.00     0.231 N 
ATOM     70  H   LIG d   1       8.668  12.358  -2.030  0.00  0.00     0.202 HD
ATOM     71  H   LIG d   1       9.353  13.559  -1.135  0.00  0.00     0.202 HD
BRANCH  69  72
ATOM     72  C   LIG d   1      10.277  13.236  -2.925  0.00  0.00    -0.044 C 
ATOM     73  H   LIG d   1      10.645  12.375  -3.482  0.00  0.00     0.078 H 
ATOM     74  H   LIG d   1       9.615  13.825  -3.561  0.00  0.00     0.078 H 
ATOM     75  H   LIG d   1      11.119  13.853  -2.611  0.00  0.00     0.078 H 
ENDBRANCH  69  72
ENDBRANCH  59  69
BRANCH  60  76
ATOM     76  O   LIG d   1       9.318   9.941  -2.212  0.00  0.00    -0.381 OA
ATOM     77  H   LIG d   1      10.110   9.603  -2.652  0.00  0.00     0.210 HD
ENDBRANCH  60  76
ENDBRANCH  51  52
ENDBRANCH   8  51
BRANCH   6  78
ATOM     78  N   LIG d   1      11.472   7.353   1.413  0.00  0.00     0.223 N 
ATOM     79  H   LIG d   1      10.948   6.821   2.092  0.00  0.00     0.200 HD
ATOM     80  H   LIG d   1      12.457   7.161   1.520  0.00  0.00     0.200 HD
ATOM     81  H   LIG d   1      11.304   8.338   1.556  0.00  0.00     0.200 HD
ENDBRANCH   6  78
TORSDOF 17
ENDMDL
MODEL 10
REMARK VINA RESULT:      -4.8      9.851     14.036
REMARK  17 active torsions:
REMARK  status: ('A' for Active; 'I' for Inactive)
REMARK    1  A    between atoms: C_1  and  C_2 
REMARK    2  A    between atoms: C_2  and  C_4 
REMARK    3  A    between atoms: C_2  and  N_44 
REMARK    4  A    between atoms: C_8  and  N_43 
REMARK    5  A    between atoms: C_10  and  O_13 
REMARK    6  A    between atoms: O_13  and  C_14 
REMARK    7  A    between atoms: C_16  and  N_42 
REMARK    8  A    between atoms: C_19  and  N_41 
REMARK    9  A    between atoms: C_21  and  O_26 
REMARK   10  A    between atoms: C_23  and  O_25 
REMARK   11  A    between atoms: O_26  and  C_27 
REMARK   12  A    between atoms: C_29  and  O_40 
REMARK   13  A    between atoms: C_31  and  N_38 
REMARK   14  A    between atoms: C_33  and  C_36 
REMARK   15  A    between atoms: C_33  and  O_37 
REMARK   16  A    between atoms: N_38  and  C_39 
REMARK   17  A    between atoms: N_44  and  C_45 
ROOT
ATOM      1  C   LIG d   1       4.506  -1.444  -7.935  0.00  0.00     0.133 C 
ATOM      2  H   LIG d   1       5.395  -1.899  -8.374  0.00  0.00     0.068 H 
ATOM      3  C   LIG d   1       4.528   0.064  -8.189  0.00  0.00     0.010 C 
ATOM      4  H   LIG d   1       3.641   0.519  -7.750  0.00  0.00     0.088 H 
ATOM      5  C   LIG d   1       4.544   0.328  -9.696  0.00  0.00     0.038 C 
ATOM      6  C   LIG d   1       3.292  -0.279 -10.333  0.00  0.00     0.010 C 
ATOM      7  H   LIG d   1       2.403   0.176  -9.893  0.00  0.00     0.088 H 
ATOM      8  C   LIG d   1       3.270  -1.787 -10.078  0.00  0.00     0.133 C 
ATOM      9  H   LIG d   1       4.157  -2.242 -10.518  0.00  0.00     0.068 H 
ATOM     10  C   LIG d   1       3.254  -2.051  -8.572  0.00  0.00     0.118 C 
ATOM     11  H   LIG d   1       2.367  -1.595  -8.132  0.00  0.00     0.065 H 
ATOM     12  H   LIG d   1       4.559   1.402  -9.877  0.00  0.00     0.038 H 
ATOM     13  H   LIG d   1       5.432  -0.127 -10.135  0.00  0.00     0.038 H 
ENDROOT
BRANCH   1  14
ATOM     14  O   LIG d   1       4.492  -1.690  -6.528  0.00  0.00    -0.335 OA
BRANCH  14  15
ATOM     15  C   LIG d   1       5.580  -2.496  -6.068  0.00  0.00     0.203 C 
ATOM     16  C   LIG d   1       5.079  -3.459  -4.987  0.00  0.00     0.028 C 
ATOM     17  C   LIG d   1       4.563  -2.651  -3.793  0.00  0.00    -0.003 C 
ATOM     18  H   LIG d   1       5.899  -4.101  -4.665  0.00  0.00     0.090 H 
ATOM     19  C   LIG d   1       5.683  -1.737  -3.286  0.00  0.00    -0.016 C 
ATOM     20  H   LIG d   1       4.257  -3.330  -2.997  0.00  0.00     0.032 H 
ATOM     21  H   LIG d   1       3.711  -2.045  -4.105  0.00  0.00     0.032 H 
ATOM     22  C   LIG d   1       6.159  -0.841  -4.431  0.00  0.00     0.104 C 
ATOM     23  H   LIG d   1       6.514  -2.345  -2.929  0.00  0.00     0.029 H 
ATOM     24  H   LIG d   1       5.308  -1.118  -2.470  0.00  0.00     0.029 H 
ATOM     25  H   LIG d   1       5.338  -0.205  -4.761  0.00  0.00     0.065 H 
ATOM     26  O   LIG d   1       6.597  -1.655  -5.521  0.00  0.00    -0.338 OA
ATOM     27  H   LIG d   1       5.988  -3.066  -6.902  0.00  0.00     0.097 H 
BRANCH  16  28
ATOM     28  N   LIG d   1       3.993  -4.284  -5.529  0.00  0.00     0.224 N 
ATOM     29  H   LIG d   1       3.478  -3.755  -6.217  0.00  0.00     0.200 HD
ATOM     30  H   LIG d   1       4.380  -5.110  -5.960  0.00  0.00     0.200 HD
ATOM     31  H   LIG d   1       3.372  -4.555  -4.781  0.00  0.00     0.200 HD
ENDBRANCH  16  28
BRANCH  22  32
ATOM     32  C   LIG d   1       7.319   0.032  -3.948  0.00  0.00     0.001 C 
ATOM     33  H   LIG d   1       7.595  -0.258  -2.935  0.00  0.00     0.087 H 
BRANCH  32  34
ATOM     34  C   LIG d   1       8.520  -0.155  -4.877  0.00  0.00    -0.019 C 
ATOM     35  H   LIG d   1       9.186   0.703  -4.786  0.00  0.00     0.029 H 
ATOM     36  H   LIG d   1       9.057  -1.062  -4.600  0.00  0.00     0.029 H 
ATOM     37  H   LIG d   1       8.173  -0.238  -5.907  0.00  0.00     0.029 H 
ENDBRANCH  32  34
BRANCH  32  38
ATOM     38  N   LIG d   1       6.907   1.443  -3.959  0.00  0.00     0.229 N 
ATOM     39  H   LIG d   1       6.227   1.590  -4.689  0.00  0.00     0.201 HD
ATOM     40  H   LIG d   1       6.500   1.680  -3.067  0.00  0.00     0.201 HD
BRANCH  38  41
ATOM     41  C   LIG d   1       8.080   2.293  -4.204  0.00  0.00    -0.044 C 
ATOM     42  H   LIG d   1       8.952   1.664  -4.384  0.00  0.00     0.078 H 
ATOM     43  H   LIG d   1       7.898   2.921  -5.076  0.00  0.00     0.078 H 
ATOM     44  H   LIG d   1       8.260   2.922  -3.333  0.00  0.00     0.078 H 
ENDBRANCH  38  41
ENDBRANCH  32  38
ENDBRANCH  22  32
ENDBRANCH  14  15
ENDBRANCH   1  14
BRANCH  10  45
ATOM     45  O   LIG d   1       3.234  -3.459  -8.334  0.00  0.00    -0.386 OA
ATOM     46  H   LIG d   1       2.376  -3.797  -8.044  0.00  0.00     0.210 HD
ENDBRANCH  10  45
BRANCH   3  47
ATOM     47  N   LIG d   1       5.731   0.646  -7.578  0.00  0.00     0.223 N 
ATOM     48  H   LIG d   1       5.954   0.145  -6.731  0.00  0.00     0.200 HD
ATOM     49  H   LIG d   1       6.504   0.576  -8.223  0.00  0.00     0.200 HD
ATOM     50  H   LIG d   1       5.562   1.617  -7.360  0.00  0.00     0.200 HD
ENDBRANCH   3  47
BRANCH   8  51
ATOM     51  O   LIG d   1       2.100  -2.354 -10.672  0.00  0.00    -0.337 OA
BRANCH  51  52
ATOM     52  C   LIG d   1       2.369  -3.423 -11.582  0.00  0.00     0.191 C 
ATOM     53  H   LIG d   1       3.421  -3.398 -11.871  0.00  0.00     0.094 H 
ATOM     54  O   LIG d   1       2.078  -4.671 -10.950  0.00  0.00    -0.345 OA
ATOM     55  C   LIG d   1       0.725  -4.798 -10.506  0.00  0.00     0.085 C 
ATOM     56  C   LIG d   1      -0.217  -4.696 -11.709  0.00  0.00     0.131 C 
ATOM     57  H   LIG d   1       0.498  -4.000  -9.798  0.00  0.00     0.059 H 
ATOM     58  H   LIG d   1       0.591  -5.764 -10.020  0.00  0.00     0.059 H 
ATOM     59  C   LIG d   1       0.020  -3.361 -12.422  0.00  0.00     0.040 C 
ATOM     60  C   LIG d   1       1.494  -3.267 -12.828  0.00  0.00     0.151 C 
ATOM     61  H   LIG d   1      -0.227  -2.540 -11.749  0.00  0.00     0.091 H 
ATOM     62  H   LIG d   1       1.728  -4.059 -13.539  0.00  0.00     0.070 H 
BRANCH  56  63
ATOM     63  C   LIG d   1      -1.668  -4.770 -11.229  0.00  0.00    -0.029 C 
ATOM     64  H   LIG d   1      -1.729  -4.411 -10.202  0.00  0.00     0.026 H 
ATOM     65  H   LIG d   1      -2.295  -4.149 -11.869  0.00  0.00     0.026 H 
ATOM     66  H   LIG d   1      -2.012  -5.803 -11.275  0.00  0.00     0.026 H 
ENDBRANCH  56  63
BRANCH  56  67
ATOM     67  O   LIG d   1       0.044  -5.773 -12.612  0.00  0.00    -0.381 OA
ATOM     68  H   LIG d   1       0.911  -6.185 -12.492  0.00  0.00     0.210 HD
ENDBRANCH  56  67
BRANCH  59  69
ATOM     69  N   LIG d   1      -0.826  -3.286 -13.621  0.00  0.00     0.231 N 
ATOM     70  H   LIG d   1      -0.243  -3.268 -14.443  0.00  0.00     0.202 HD
ATOM     71  H   LIG d   1      -1.432  -4.091 -13.655  0.00  0.00     0.202 HD
BRANCH  69  72
ATOM     72  C   LIG d   1      -1.639  -2.063 -13.570  0.00  0.00    -0.044 C 
ATOM     73  H   LIG d   1      -2.696  -2.328 -13.595  0.00  0.00     0.078 H 
ATOM     74  H   LIG d   1      -1.421  -1.520 -12.649  0.00  0.00     0.078 H 
ATOM     75  H   LIG d   1      -1.401  -1.433 -14.426  0.00  0.00     0.078 H 
ENDBRANCH  69  72
ENDBRANCH  59  69
BRANCH  60  76
ATOM     76  O   LIG d   1       1.743  -1.995 -13.430  0.00  0.00    -0.381 OA
ATOM     77  H   LIG d   1       2.040  -1.317 -12.809  0.00  0.00     0.210 HD
ENDBRANCH  60  76
ENDBRANCH  51  52
ENDBRANCH   8  51
BRANCH   6  78
ATOM     78  N   LIG d   1       3.306  -0.026 -11.780  0.00  0.00     0.223 N 
ATOM     79  H   LIG d   1       2.687  -0.676 -12.241  0.00  0.00     0.200 HD
ATOM     80  H   LIG d   1       2.999   0.919 -11.959  0.00  0.00     0.200 HD
ATOM     81  H   LIG d   1       4.244  -0.147 -12.133  0.00  0.00     0.200 HD
ENDBRANCH   6  78
TORSDOF 17
ENDMDL
