MODEL 1
REMARK VINA RESULT:      -6.1      0.000      0.000
REMARK  9 active torsions:
REMARK  status: ('A' for Active; 'I' for Inactive)
REMARK    1  A    between atoms: C_1  and  C_2 
REMARK    2  A    between atoms: C_6  and  O_24 
REMARK    3  A    between atoms: C_12  and  C_13 
REMARK    4  A    between atoms: C_13  and  C_14 
REMARK       I    between atoms: C_14  and  N_16 
REMARK    5  A    between atoms: N_16  and  C_17 
REMARK    6  A    between atoms: C_17  and  C_18 
REMARK       I    between atoms: C_18  and  N_20 
REMARK    7  A    between atoms: N_20  and  C_21 
REMARK    8  A    between atoms: C_21  and  C_22 
REMARK    9  A    between atoms: O_24  and  C_25 
ROOT
ATOM      1  C   LIG d   1       5.748  -1.521  -3.421  0.00  0.00    -0.029 A 
ATOM      2  C   LIG d   1       6.907  -2.141  -4.066  0.00  0.00     0.022 A 
ATOM      3  C   LIG d   1       6.956  -3.522  -4.287  0.00  0.00    -0.029 A 
ATOM      4  C   LIG d   1       8.051  -4.075  -4.885  0.00  0.00     0.083 A 
ATOM      5  C   LIG d   1       9.122  -3.273  -5.277  0.00  0.00     0.142 A 
ATOM      6  C   LIG d   1       9.089  -1.904  -5.067  0.00  0.00     0.025 A 
ATOM      7  C   LIG d   1       7.984  -1.326  -4.460  0.00  0.00     0.143 A 
ATOM      8  O   LIG d   1       7.934   0.006  -4.245  0.00  0.00    -0.422 OA
ATOM      9  C   LIG d   1       6.872   0.581  -3.658  0.00  0.00     0.341 A 
ATOM     10  O   LIG d   1       6.871   1.786  -3.485  0.00  0.00    -0.245 OA
ATOM     11  C   LIG d   1       5.758  -0.175  -3.239  0.00  0.00     0.049 A 
ATOM     12 CL   LIG d   1       8.112  -5.788  -5.160  0.00  0.00    -0.080 Cl
ATOM     13  H   LIG d   1       6.129  -4.149  -3.985  0.00  0.00     0.064 H 
ATOM     14  H   LIG d   1       9.923  -1.289  -5.374  0.00  0.00     0.069 H 
ENDROOT
BRANCH  11  15
ATOM     15  C   LIG d   1       4.585   0.509  -2.583  0.00  0.00     0.056 C 
ATOM     16  H   LIG d   1       4.943   1.323  -1.954  0.00  0.00     0.041 H 
ATOM     17  H   LIG d   1       4.041  -0.211  -1.972  0.00  0.00     0.041 H 
BRANCH  15  18
ATOM     18  C   LIG d   1       3.668   1.060  -3.645  0.00  0.00     0.218 C 
ATOM     19  O   LIG d   1       3.256   2.197  -3.559  0.00  0.00    -0.275 OA
ATOM     20  N   LIG d   1       3.307   0.289  -4.690  0.00  0.00    -0.306 N 
ATOM     21  H   LIG d   1       3.640  -0.619  -4.760  0.00  0.00     0.149 HD
BRANCH  20  22
ATOM     22  C   LIG d   1       2.417   0.825  -5.722  0.00  0.00     0.088 C 
ATOM     23  H   LIG d   1       1.419   0.407  -5.594  0.00  0.00     0.056 H 
ATOM     24  H   LIG d   1       2.369   1.910  -5.634  0.00  0.00     0.056 H 
BRANCH  22  25
ATOM     25  C   LIG d   1       2.946   0.455  -7.084  0.00  0.00     0.231 C 
ATOM     26  O   LIG d   1       2.235  -0.137  -7.870  0.00  0.00    -0.274 OA
ATOM     27  N   LIG d   1       4.207   0.780  -7.429  0.00  0.00    -0.309 N 
ATOM     28  H   LIG d   1       4.775   1.253  -6.801  0.00  0.00     0.149 HD
BRANCH  27  29
ATOM     29  C   LIG d   1       4.720   0.420  -8.753  0.00  0.00     0.051 C 
ATOM     30  H   LIG d   1       5.749   0.074  -8.661  0.00  0.00     0.052 H 
ATOM     31  H   LIG d   1       4.105  -0.373  -9.178  0.00  0.00     0.052 H 
BRANCH  29  32
ATOM     32  C   LIG d   1       4.676   1.628  -9.654  0.00  0.00     0.059 C 
ATOM     33  O   LIG d   1       5.307   2.617  -9.370  0.00  0.00    -0.548 OA
ATOM     34  O   LIG d   1       3.933   1.604 -10.773  0.00  0.00    -0.548 OA
ENDBRANCH  29  32
ENDBRANCH  27  29
ENDBRANCH  22  25
ENDBRANCH  20  22
ENDBRANCH  15  18
ENDBRANCH  11  15
BRANCH   1  35
ATOM     35  C   LIG d   1       4.573  -2.352  -2.976  0.00  0.00    -0.038 C 
ATOM     36  H   LIG d   1       4.853  -3.405  -2.970  0.00  0.00     0.028 H 
ATOM     37  H   LIG d   1       4.273  -2.050  -1.972  0.00  0.00     0.028 H 
ATOM     38  H   LIG d   1       3.739  -2.203  -3.664  0.00  0.00     0.028 H 
ENDBRANCH   1  35
BRANCH   5  39
ATOM     39  O   LIG d   1      10.204  -3.836  -5.870  0.00  0.00    -0.493 OA
BRANCH  39  40
ATOM     40  C   LIG d   1      11.361  -4.036  -5.055  0.00  0.00     0.079 C 
ATOM     41  H   LIG d   1      11.237  -3.503  -4.112  0.00  0.00     0.066 H 
ATOM     42  H   LIG d   1      11.487  -5.100  -4.857  0.00  0.00     0.066 H 
ATOM     43  H   LIG d   1      12.241  -3.655  -5.575  0.00  0.00     0.066 H 
ENDBRANCH  39  40
ENDBRANCH   5  39
TORSDOF 9
ENDMDL
MODEL 2
REMARK VINA RESULT:      -6.0      2.106      2.699
REMARK  9 active torsions:
REMARK  status: ('A' for Active; 'I' for Inactive)
REMARK    1  A    between atoms: C_1  and  C_2 
REMARK    2  A    between atoms: C_6  and  O_24 
REMARK    3  A    between atoms: C_12  and  C_13 
REMARK    4  A    between atoms: C_13  and  C_14 
REMARK       I    between atoms: C_14  and  N_16 
REMARK    5  A    between atoms: N_16  and  C_17 
REMARK    6  A    between atoms: C_17  and  C_18 
REMARK       I    between atoms: C_18  and  N_20 
REMARK    7  A    between atoms: N_20  and  C_21 
REMARK    8  A    between atoms: C_21  and  C_22 
REMARK    9  A    between atoms: O_24  and  C_25 
ROOT
ATOM      1  C   LIG d   1       6.767  -1.096  -3.906  0.00  0.00    -0.029 A 
ATOM      2  C   LIG d   1       7.977  -0.435  -4.399  0.00  0.00     0.022 A 
ATOM      3  C   LIG d   1       8.936  -1.142  -5.134  0.00  0.00    -0.029 A 
ATOM      4  C   LIG d   1      10.057  -0.502  -5.577  0.00  0.00     0.083 A 
ATOM      5  C   LIG d   1      10.254   0.851  -5.302  0.00  0.00     0.142 A 
ATOM      6  C   LIG d   1       9.314   1.565  -4.577  0.00  0.00     0.025 A 
ATOM      7  C   LIG d   1       8.170   0.931  -4.119  0.00  0.00     0.143 A 
ATOM      8  O   LIG d   1       7.243   1.609  -3.409  0.00  0.00    -0.422 OA
ATOM      9  C   LIG d   1       6.129   1.009  -2.958  0.00  0.00     0.341 A 
ATOM     10  O   LIG d   1       5.321   1.661  -2.322  0.00  0.00    -0.245 OA
ATOM     11  C   LIG d   1       5.872  -0.355  -3.202  0.00  0.00     0.049 A 
ATOM     12 CL   LIG d   1      11.247  -1.377  -6.489  0.00  0.00    -0.080 Cl
ATOM     13  H   LIG d   1       8.789  -2.190  -5.350  0.00  0.00     0.064 H 
ATOM     14  H   LIG d   1       9.474   2.613  -4.369  0.00  0.00     0.069 H 
ENDROOT
BRANCH  11  15
ATOM     15  C   LIG d   1       4.610  -0.992  -2.678  0.00  0.00     0.056 C 
ATOM     16  H   LIG d   1       4.406  -0.622  -1.673  0.00  0.00     0.041 H 
ATOM     17  H   LIG d   1       4.734  -2.074  -2.649  0.00  0.00     0.041 H 
BRANCH  15  18
ATOM     18  C   LIG d   1       3.458  -0.642  -3.584  0.00  0.00     0.218 C 
ATOM     19  O   LIG d   1       2.327  -0.953  -3.275  0.00  0.00    -0.275 OA
ATOM     20  N   LIG d   1       3.684   0.016  -4.739  0.00  0.00    -0.306 N 
ATOM     21  H   LIG d   1       4.589   0.267  -4.984  0.00  0.00     0.149 HD
BRANCH  20  22
ATOM     22  C   LIG d   1       2.565   0.356  -5.619  0.00  0.00     0.088 C 
ATOM     23  H   LIG d   1       1.744  -0.341  -5.449  0.00  0.00     0.056 H 
ATOM     24  H   LIG d   1       2.229   1.370  -5.407  0.00  0.00     0.056 H 
BRANCH  22  25
ATOM     25  C   LIG d   1       3.010   0.265  -7.056  0.00  0.00     0.231 C 
ATOM     26  O   LIG d   1       2.253  -0.165  -7.900  0.00  0.00    -0.274 OA
ATOM     27  N   LIG d   1       4.251   0.662  -7.404  0.00  0.00    -0.309 N 
ATOM     28  H   LIG d   1       4.857   1.006  -6.730  0.00  0.00     0.149 HD
BRANCH  27  29
ATOM     29  C   LIG d   1       4.683   0.574  -8.801  0.00  0.00     0.051 C 
ATOM     30  H   LIG d   1       5.680   0.136  -8.845  0.00  0.00     0.052 H 
ATOM     31  H   LIG d   1       3.986  -0.051  -9.359  0.00  0.00     0.052 H 
BRANCH  29  32
ATOM     32  C   LIG d   1       4.714   1.954  -9.405  0.00  0.00     0.059 C 
ATOM     33  O   LIG d   1       5.713   2.628  -9.321  0.00  0.00    -0.548 OA
ATOM     34  O   LIG d   1       3.631   2.436 -10.035  0.00  0.00    -0.548 OA
ENDBRANCH  29  32
ENDBRANCH  27  29
ENDBRANCH  22  25
ENDBRANCH  20  22
ENDBRANCH  15  18
ENDBRANCH  11  15
BRANCH   1  35
ATOM     35  C   LIG d   1       6.519  -2.558  -4.175  0.00  0.00    -0.038 C 
ATOM     36  H   LIG d   1       5.448  -2.735  -4.260  0.00  0.00     0.028 H 
ATOM     37  H   LIG d   1       7.010  -2.844  -5.105  0.00  0.00     0.028 H 
ATOM     38  H   LIG d   1       6.922  -3.153  -3.354  0.00  0.00     0.028 H 
ENDBRANCH   1  35
BRANCH   5  39
ATOM     39  O   LIG d   1      11.374   1.474  -5.749  0.00  0.00    -0.493 OA
BRANCH  39  40
ATOM     40  C   LIG d   1      12.388   1.757  -4.784  0.00  0.00     0.079 C 
ATOM     41  H   LIG d   1      12.538   2.836  -4.720  0.00  0.00     0.066 H 
ATOM     42  H   LIG d   1      12.082   1.375  -3.811  0.00  0.00     0.066 H 
ATOM     43  H   LIG d   1      13.321   1.278  -5.085  0.00  0.00     0.066 H 
ENDBRANCH  39  40
ENDBRANCH   5  39
TORSDOF 9
ENDMDL
MODEL 3
REMARK VINA RESULT:      -5.9      5.311      8.838
REMARK  9 active torsions:
REMARK  status: ('A' for Active; 'I' for Inactive)
REMARK    1  A    between atoms: C_1  and  C_2 
REMARK    2  A    between atoms: C_6  and  O_24 
REMARK    3  A    between atoms: C_12  and  C_13 
REMARK    4  A    between atoms: C_13  and  C_14 
REMARK       I    between atoms: C_14  and  N_16 
REMARK    5  A    between atoms: N_16  and  C_17 
REMARK    6  A    between atoms: C_17  and  C_18 
REMARK       I    between atoms: C_18  and  N_20 
REMARK    7  A    between atoms: N_20  and  C_21 
REMARK    8  A    between atoms: C_21  and  C_22 
REMARK    9  A    between atoms: O_24  and  C_25 
ROOT
ATOM      1  C   LIG d   1       7.880  -3.812  -4.511  0.00  0.00    -0.029 A 
ATOM      2  C   LIG d   1       6.733  -2.930  -4.292  0.00  0.00     0.022 A 
ATOM      3  C   LIG d   1       6.902  -1.646  -3.763  0.00  0.00    -0.029 A 
ATOM      4  C   LIG d   1       5.814  -0.846  -3.564  0.00  0.00     0.083 A 
ATOM      5  C   LIG d   1       4.535  -1.299  -3.884  0.00  0.00     0.142 A 
ATOM      6  C   LIG d   1       4.350  -2.568  -4.410  0.00  0.00     0.025 A 
ATOM      7  C   LIG d   1       5.445  -3.393  -4.618  0.00  0.00     0.143 A 
ATOM      8  O   LIG d   1       5.285  -4.634  -5.128  0.00  0.00    -0.422 OA
ATOM      9  C   LIG d   1       6.334  -5.446  -5.335  0.00  0.00     0.341 A 
ATOM     10  O   LIG d   1       6.142  -6.556  -5.797  0.00  0.00    -0.245 OA
ATOM     11  C   LIG d   1       7.652  -5.046  -5.032  0.00  0.00     0.049 A 
ATOM     12 CL   LIG d   1       6.023   0.748  -2.908  0.00  0.00    -0.080 Cl
ATOM     13  H   LIG d   1       7.890  -1.288  -3.512  0.00  0.00     0.064 H 
ATOM     14  H   LIG d   1       3.356  -2.912  -4.656  0.00  0.00     0.069 H 
ENDROOT
BRANCH  11  15
ATOM     15  C   LIG d   1       8.803  -5.988  -5.279  0.00  0.00     0.056 C 
ATOM     16  H   LIG d   1       9.709  -5.413  -5.466  0.00  0.00     0.041 H 
ATOM     17  H   LIG d   1       8.582  -6.612  -6.144  0.00  0.00     0.041 H 
BRANCH  15  18
ATOM     18  C   LIG d   1       9.004  -6.862  -4.068  0.00  0.00     0.218 C 
ATOM     19  O   LIG d   1       9.774  -6.521  -3.195  0.00  0.00    -0.275 OA
ATOM     20  N   LIG d   1       8.329  -8.023  -3.954  0.00  0.00    -0.306 N 
ATOM     21  H   LIG d   1       7.710  -8.294  -4.651  0.00  0.00     0.149 HD
BRANCH  20  22
ATOM     22  C   LIG d   1       8.524  -8.872  -2.777  0.00  0.00     0.088 C 
ATOM     23  H   LIG d   1       9.227  -9.670  -3.017  0.00  0.00     0.056 H 
ATOM     24  H   LIG d   1       8.922  -8.273  -1.959  0.00  0.00     0.056 H 
BRANCH  22  25
ATOM     25  C   LIG d   1       7.204  -9.472  -2.366  0.00  0.00     0.231 C 
ATOM     26  O   LIG d   1       6.930  -9.584  -1.189  0.00  0.00    -0.274 OA
ATOM     27  N   LIG d   1       6.329  -9.885  -3.303  0.00  0.00    -0.309 N 
ATOM     28  H   LIG d   1       6.548  -9.795  -4.244  0.00  0.00     0.149 HD
BRANCH  27  29
ATOM     29  C   LIG d   1       5.046 -10.467  -2.903  0.00  0.00     0.051 C 
ATOM     30  H   LIG d   1       5.036 -11.528  -3.153  0.00  0.00     0.052 H 
ATOM     31  H   LIG d   1       4.911 -10.345  -1.828  0.00  0.00     0.052 H 
BRANCH  29  32
ATOM     32  C   LIG d   1       3.928  -9.768  -3.632  0.00  0.00     0.059 C 
ATOM     33  O   LIG d   1       4.177  -9.023  -4.548  0.00  0.00    -0.548 OA
ATOM     34  O   LIG d   1       2.653  -9.974  -3.262  0.00  0.00    -0.548 OA
ENDBRANCH  29  32
ENDBRANCH  27  29
ENDBRANCH  22  25
ENDBRANCH  20  22
ENDBRANCH  15  18
ENDBRANCH  11  15
BRANCH   1  35
ATOM     35  C   LIG d   1       9.278  -3.363  -4.172  0.00  0.00    -0.038 C 
ATOM     36  H   LIG d   1       9.960  -3.667  -4.966  0.00  0.00     0.028 H 
ATOM     37  H   LIG d   1       9.296  -2.278  -4.072  0.00  0.00     0.028 H 
ATOM     38  H   LIG d   1       9.589  -3.820  -3.232  0.00  0.00     0.028 H 
ENDBRANCH   1  35
BRANCH   5  39
ATOM     39  O   LIG d   1       3.463  -0.493  -3.680  0.00  0.00    -0.493 OA
BRANCH  39  40
ATOM     40  C   LIG d   1       2.963   0.221  -4.813  0.00  0.00     0.079 C 
ATOM     41  H   LIG d   1       3.749   0.307  -5.564  0.00  0.00     0.066 H 
ATOM     42  H   LIG d   1       2.114  -0.315  -5.235  0.00  0.00     0.066 H 
ATOM     43  H   LIG d   1       2.646   1.218  -4.503  0.00  0.00     0.066 H 
ENDBRANCH  39  40
ENDBRANCH   5  39
TORSDOF 9
ENDMDL
MODEL 4
REMARK VINA RESULT:      -5.9      1.725      2.345
REMARK  9 active torsions:
REMARK  status: ('A' for Active; 'I' for Inactive)
REMARK    1  A    between atoms: C_1  and  C_2 
REMARK    2  A    between atoms: C_6  and  O_24 
REMARK    3  A    between atoms: C_12  and  C_13 
REMARK    4  A    between atoms: C_13  and  C_14 
REMARK       I    between atoms: C_14  and  N_16 
REMARK    5  A    between atoms: N_16  and  C_17 
REMARK    6  A    between atoms: C_17  and  C_18 
REMARK       I    between atoms: C_18  and  N_20 
REMARK    7  A    between atoms: N_20  and  C_21 
REMARK    8  A    between atoms: C_21  and  C_22 
REMARK    9  A    between atoms: O_24  and  C_25 
ROOT
ATOM      1  C   LIG d   1       6.675  -0.839  -3.824  0.00  0.00    -0.029 A 
ATOM      2  C   LIG d   1       7.593  -1.748  -4.512  0.00  0.00     0.022 A 
ATOM      3  C   LIG d   1       8.863  -1.319  -4.916  0.00  0.00    -0.029 A 
ATOM      4  C   LIG d   1       9.698  -2.186  -5.560  0.00  0.00     0.083 A 
ATOM      5  C   LIG d   1       9.294  -3.495  -5.819  0.00  0.00     0.142 A 
ATOM      6  C   LIG d   1       8.041  -3.935  -5.426  0.00  0.00     0.025 A 
ATOM      7  C   LIG d   1       7.180  -3.068  -4.770  0.00  0.00     0.143 A 
ATOM      8  O   LIG d   1       5.954  -3.477  -4.380  0.00  0.00    -0.422 OA
ATOM      9  C   LIG d   1       5.109  -2.650  -3.745  0.00  0.00     0.341 A 
ATOM     10  O   LIG d   1       4.013  -3.063  -3.411  0.00  0.00    -0.245 OA
ATOM     11  C   LIG d   1       5.457  -1.315  -3.454  0.00  0.00     0.049 A 
ATOM     12 CL   LIG d   1      11.273  -1.656  -6.060  0.00  0.00    -0.080 Cl
ATOM     13  H   LIG d   1       9.182  -0.306  -4.718  0.00  0.00     0.064 H 
ATOM     14  H   LIG d   1       7.735  -4.951  -5.630  0.00  0.00     0.069 H 
ENDROOT
BRANCH  11  15
ATOM     15  C   LIG d   1       4.480  -0.417  -2.739  0.00  0.00     0.056 C 
ATOM     16  H   LIG d   1       5.024   0.281  -2.104  0.00  0.00     0.041 H 
ATOM     17  H   LIG d   1       3.812  -1.022  -2.127  0.00  0.00     0.041 H 
BRANCH  15  18
ATOM     18  C   LIG d   1       3.672   0.352  -3.753  0.00  0.00     0.218 C 
ATOM     19  O   LIG d   1       3.488   1.541  -3.606  0.00  0.00    -0.275 OA
ATOM     20  N   LIG d   1       3.154  -0.282  -4.824  0.00  0.00    -0.306 N 
ATOM     21  H   LIG d   1       3.304  -1.233  -4.943  0.00  0.00     0.149 HD
BRANCH  20  22
ATOM     22  C   LIG d   1       2.370   0.465  -5.809  0.00  0.00     0.088 C 
ATOM     23  H   LIG d   1       1.333   0.128  -5.780  0.00  0.00     0.056 H 
ATOM     24  H   LIG d   1       2.411   1.529  -5.577  0.00  0.00     0.056 H 
BRANCH  22  25
ATOM     25  C   LIG d   1       2.936   0.229  -7.186  0.00  0.00     0.231 C 
ATOM     26  O   LIG d   1       2.278  -0.356  -8.020  0.00  0.00    -0.274 OA
ATOM     27  N   LIG d   1       4.173   0.668  -7.491  0.00  0.00    -0.309 N 
ATOM     28  H   LIG d   1       4.699   1.136  -6.823  0.00  0.00     0.149 HD
BRANCH  27  29
ATOM     29  C   LIG d   1       4.723   0.439  -8.828  0.00  0.00     0.051 C 
ATOM     30  H   LIG d   1       5.749   0.083  -8.743  0.00  0.00     0.052 H 
ATOM     31  H   LIG d   1       4.120  -0.307  -9.346  0.00  0.00     0.052 H 
BRANCH  29  32
ATOM     32  C   LIG d   1       4.703   1.729  -9.607  0.00  0.00     0.059 C 
ATOM     33  O   LIG d   1       3.900   1.887 -10.495  0.00  0.00    -0.548 OA
ATOM     34  O   LIG d   1       5.579   2.704  -9.314  0.00  0.00    -0.548 OA
ENDBRANCH  29  32
ENDBRANCH  27  29
ENDBRANCH  22  25
ENDBRANCH  20  22
ENDBRANCH  15  18
ENDBRANCH  11  15
BRANCH   1  35
ATOM     35  C   LIG d   1       7.069   0.586  -3.531  0.00  0.00    -0.038 C 
ATOM     36  H   LIG d   1       6.176   1.207  -3.477  0.00  0.00     0.028 H 
ATOM     37  H   LIG d   1       7.599   0.627  -2.579  0.00  0.00     0.028 H 
ATOM     38  H   LIG d   1       7.720   0.954  -4.325  0.00  0.00     0.028 H 
ENDBRANCH   1  35
BRANCH   5  39
ATOM     39  O   LIG d   1      10.134  -4.345  -6.461  0.00  0.00    -0.493 OA
BRANCH  39  40
ATOM     40  C   LIG d   1      10.825  -5.305  -5.659  0.00  0.00     0.079 C 
ATOM     41  H   LIG d   1      10.781  -6.282  -6.143  0.00  0.00     0.066 H 
ATOM     42  H   LIG d   1      11.865  -5.003  -5.544  0.00  0.00     0.066 H 
ATOM     43  H   LIG d   1      10.353  -5.365  -4.677  0.00  0.00     0.066 H 
ENDBRANCH  39  40
ENDBRANCH   5  39
TORSDOF 9
ENDMDL
MODEL 5
REMARK VINA RESULT:      -5.9      5.601      8.097
REMARK  9 active torsions:
REMARK  status: ('A' for Active; 'I' for Inactive)
REMARK    1  A    between atoms: C_1  and  C_2 
REMARK    2  A    between atoms: C_6  and  O_24 
REMARK    3  A    between atoms: C_12  and  C_13 
REMARK    4  A    between atoms: C_13  and  C_14 
REMARK       I    between atoms: C_14  and  N_16 
REMARK    5  A    between atoms: N_16  and  C_17 
REMARK    6  A    between atoms: C_17  and  C_18 
REMARK       I    between atoms: C_18  and  N_20 
REMARK    7  A    between atoms: N_20  and  C_21 
REMARK    8  A    between atoms: C_21  and  C_22 
REMARK    9  A    between atoms: O_24  and  C_25 
ROOT
ATOM      1  C   LIG d   1      10.112   4.583  -4.644  0.00  0.00    -0.029 A 
ATOM      2  C   LIG d   1      10.217   5.167  -3.305  0.00  0.00     0.022 A 
ATOM      3  C   LIG d   1       9.800   6.480  -3.057  0.00  0.00    -0.029 A 
ATOM      4  C   LIG d   1       9.914   7.002  -1.801  0.00  0.00     0.083 A 
ATOM      5  C   LIG d   1      10.442   6.235  -0.763  0.00  0.00     0.142 A 
ATOM      6  C   LIG d   1      10.858   4.934  -0.991  0.00  0.00     0.025 A 
ATOM      7  C   LIG d   1      10.750   4.388  -2.261  0.00  0.00     0.143 A 
ATOM      8  O   LIG d   1      11.151   3.122  -2.504  0.00  0.00    -0.422 OA
ATOM      9  C   LIG d   1      11.053   2.579  -3.728  0.00  0.00     0.341 A 
ATOM     10  O   LIG d   1      11.428   1.433  -3.900  0.00  0.00    -0.245 OA
ATOM     11  C   LIG d   1      10.529   3.302  -4.820  0.00  0.00     0.049 A 
ATOM     12 CL   LIG d   1       9.397   8.630  -1.493  0.00  0.00    -0.080 Cl
ATOM     13  H   LIG d   1       9.390   7.079  -3.858  0.00  0.00     0.064 H 
ATOM     14  H   LIG d   1      11.266   4.346  -0.181  0.00  0.00     0.069 H 
ENDROOT
BRANCH  11  15
ATOM     15  C   LIG d   1      10.437   2.656  -6.179  0.00  0.00     0.056 C 
ATOM     16  H   LIG d   1      11.287   1.990  -6.323  0.00  0.00     0.041 H 
ATOM     17  H   LIG d   1      10.444   3.428  -6.948  0.00  0.00     0.041 H 
BRANCH  15  18
ATOM     18  C   LIG d   1       9.158   1.865  -6.273  0.00  0.00     0.218 C 
ATOM     19  O   LIG d   1       8.216   2.306  -6.896  0.00  0.00    -0.275 OA
ATOM     20  N   LIG d   1       9.061   0.666  -5.664  0.00  0.00    -0.306 N 
ATOM     21  H   LIG d   1       9.816   0.312  -5.168  0.00  0.00     0.149 HD
BRANCH  20  22
ATOM     22  C   LIG d   1       7.818  -0.103  -5.756  0.00  0.00     0.088 C 
ATOM     23  H   LIG d   1       7.177   0.332  -6.522  0.00  0.00     0.056 H 
ATOM     24  H   LIG d   1       8.047  -1.135  -6.018  0.00  0.00     0.056 H 
BRANCH  22  25
ATOM     25  C   LIG d   1       7.107  -0.069  -4.427  0.00  0.00     0.231 C 
ATOM     26  O   LIG d   1       7.213  -1.001  -3.658  0.00  0.00    -0.274 OA
ATOM     27  N   LIG d   1       6.352   0.997  -4.094  0.00  0.00    -0.309 N 
ATOM     28  H   LIG d   1       6.268   1.743  -4.709  0.00  0.00     0.149 HD
BRANCH  27  29
ATOM     29  C   LIG d   1       5.661   1.031  -2.803  0.00  0.00     0.051 C 
ATOM     30  H   LIG d   1       5.900   0.128  -2.240  0.00  0.00     0.052 H 
ATOM     31  H   LIG d   1       5.984   1.907  -2.240  0.00  0.00     0.052 H 
BRANCH  29  32
ATOM     32  C   LIG d   1       4.173   1.100  -3.032  0.00  0.00     0.059 C 
ATOM     33  O   LIG d   1       3.720   0.893  -4.132  0.00  0.00    -0.548 OA
ATOM     34  O   LIG d   1       3.350   1.394  -2.012  0.00  0.00    -0.548 OA
ENDBRANCH  29  32
ENDBRANCH  27  29
ENDBRANCH  22  25
ENDBRANCH  20  22
ENDBRANCH  15  18
ENDBRANCH  11  15
BRANCH   1  35
ATOM     35  C   LIG d   1       9.553   5.379  -5.794  0.00  0.00    -0.038 C 
ATOM     36  H   LIG d   1       8.646   5.890  -5.476  0.00  0.00     0.028 H 
ATOM     37  H   LIG d   1      10.290   6.114  -6.119  0.00  0.00     0.028 H 
ATOM     38  H   LIG d   1       9.321   4.708  -6.622  0.00  0.00     0.028 H 
ENDBRANCH   1  35
BRANCH   5  39
ATOM     39  O   LIG d   1      10.549   6.767   0.481  0.00  0.00    -0.493 OA
BRANCH  39  40
ATOM     40  C   LIG d   1      11.036   5.910   1.514  0.00  0.00     0.079 C 
ATOM     41  H   LIG d   1      10.302   5.856   2.319  0.00  0.00     0.066 H 
ATOM     42  H   LIG d   1      11.204   4.912   1.110  0.00  0.00     0.066 H 
ATOM     43  H   LIG d   1      11.974   6.307   1.904  0.00  0.00     0.066 H 
ENDBRANCH  39  40
ENDBRANCH   5  39
TORSDOF 9
ENDMDL
MODEL 6
REMARK VINA RESULT:      -5.9      3.509      5.615
REMARK  9 active torsions:
REMARK  status: ('A' for Active; 'I' for Inactive)
REMARK    1  A    between atoms: C_1  and  C_2 
REMARK    2  A    between atoms: C_6  and  O_24 
REMARK    3  A    between atoms: C_12  and  C_13 
REMARK    4  A    between atoms: C_13  and  C_14 
REMARK       I    between atoms: C_14  and  N_16 
REMARK    5  A    between atoms: N_16  and  C_17 
REMARK    6  A    between atoms: C_17  and  C_18 
REMARK       I    between atoms: C_18  and  N_20 
REMARK    7  A    between atoms: N_20  and  C_21 
REMARK    8  A    between atoms: C_21  and  C_22 
REMARK    9  A    between atoms: O_24  and  C_25 
ROOT
ATOM      1  C   LIG d   1       6.266  -3.050  -6.071  0.00  0.00    -0.029 A 
ATOM      2  C   LIG d   1       5.933  -2.151  -4.966  0.00  0.00     0.022 A 
ATOM      3  C   LIG d   1       6.580  -0.918  -4.819  0.00  0.00    -0.029 A 
ATOM      4  C   LIG d   1       6.253  -0.100  -3.776  0.00  0.00     0.083 A 
ATOM      5  C   LIG d   1       5.280  -0.485  -2.855  0.00  0.00     0.142 A 
ATOM      6  C   LIG d   1       4.629  -1.701  -2.985  0.00  0.00     0.025 A 
ATOM      7  C   LIG d   1       4.949  -2.544  -4.040  0.00  0.00     0.143 A 
ATOM      8  O   LIG d   1       4.328  -3.734  -4.183  0.00  0.00    -0.422 OA
ATOM      9  C   LIG d   1       4.626  -4.561  -5.198  0.00  0.00     0.341 A 
ATOM     10  O   LIG d   1       4.039  -5.625  -5.288  0.00  0.00    -0.245 OA
ATOM     11  C   LIG d   1       5.600  -4.231  -6.162  0.00  0.00     0.049 A 
ATOM     12 CL   LIG d   1       7.054   1.429  -3.594  0.00  0.00    -0.080 Cl
ATOM     13  H   LIG d   1       7.335  -0.614  -5.529  0.00  0.00     0.064 H 
ATOM     14  H   LIG d   1       3.876  -1.992  -2.268  0.00  0.00     0.069 H 
ENDROOT
BRANCH  11  15
ATOM     15  C   LIG d   1       5.907  -5.188  -7.286  0.00  0.00     0.056 C 
ATOM     16  H   LIG d   1       5.633  -6.199  -6.987  0.00  0.00     0.041 H 
ATOM     17  H   LIG d   1       6.971  -5.151  -7.513  0.00  0.00     0.041 H 
BRANCH  15  18
ATOM     18  C   LIG d   1       5.117  -4.795  -8.508  0.00  0.00     0.218 C 
ATOM     19  O   LIG d   1       5.651  -4.785  -9.597  0.00  0.00    -0.275 OA
ATOM     20  N   LIG d   1       3.818  -4.454  -8.391  0.00  0.00    -0.306 N 
ATOM     21  H   LIG d   1       3.391  -4.465  -7.520  0.00  0.00     0.149 HD
BRANCH  20  22
ATOM     22  C   LIG d   1       3.052  -4.073  -9.579  0.00  0.00     0.088 C 
ATOM     23  H   LIG d   1       3.651  -4.250 -10.472  0.00  0.00     0.056 H 
ATOM     24  H   LIG d   1       2.140  -4.667  -9.630  0.00  0.00     0.056 H 
BRANCH  22  25
ATOM     25  C   LIG d   1       2.693  -2.611  -9.497  0.00  0.00     0.231 C 
ATOM     26  O   LIG d   1       2.088  -2.084 -10.407  0.00  0.00    -0.274 OA
ATOM     27  N   LIG d   1       3.045  -1.889  -8.415  0.00  0.00    -0.309 N 
ATOM     28  H   LIG d   1       3.528  -2.311  -7.687  0.00  0.00     0.149 HD
BRANCH  27  29
ATOM     29  C   LIG d   1       2.696  -0.469  -8.336  0.00  0.00     0.051 C 
ATOM     30  H   LIG d   1       2.803  -0.014  -9.321  0.00  0.00     0.052 H 
ATOM     31  H   LIG d   1       1.665  -0.366  -7.998  0.00  0.00     0.052 H 
BRANCH  29  32
ATOM     32  C   LIG d   1       3.616   0.221  -7.362  0.00  0.00     0.059 C 
ATOM     33  O   LIG d   1       4.673   0.665  -7.740  0.00  0.00    -0.548 OA
ATOM     34  O   LIG d   1       3.260   0.340  -6.072  0.00  0.00    -0.548 OA
ENDBRANCH  29  32
ENDBRANCH  27  29
ENDBRANCH  22  25
ENDBRANCH  20  22
ENDBRANCH  15  18
ENDBRANCH  11  15
BRANCH   1  35
ATOM     35  C   LIG d   1       7.316  -2.675  -7.085  0.00  0.00    -0.038 C 
ATOM     36  H   LIG d   1       7.515  -3.527  -7.734  0.00  0.00     0.028 H 
ATOM     37  H   LIG d   1       6.960  -1.837  -7.684  0.00  0.00     0.028 H 
ATOM     38  H   LIG d   1       8.234  -2.389  -6.569  0.00  0.00     0.028 H 
ENDBRANCH   1  35
BRANCH   5  39
ATOM     39  O   LIG d   1       4.966   0.338  -1.822  0.00  0.00    -0.493 OA
BRANCH  39  40
ATOM     40  C   LIG d   1       3.900   1.266  -2.032  0.00  0.00     0.079 C 
ATOM     41  H   LIG d   1       3.062   0.755  -2.510  0.00  0.00     0.066 H 
ATOM     42  H   LIG d   1       3.577   1.673  -1.075  0.00  0.00     0.066 H 
ATOM     43  H   LIG d   1       4.245   2.076  -2.675  0.00  0.00     0.066 H 
ENDBRANCH  39  40
ENDBRANCH   5  39
TORSDOF 9
ENDMDL
MODEL 7
REMARK VINA RESULT:      -5.8      4.318      6.698
REMARK  9 active torsions:
REMARK  status: ('A' for Active; 'I' for Inactive)
REMARK    1  A    between atoms: C_1  and  C_2 
REMARK    2  A    between atoms: C_6  and  O_24 
REMARK    3  A    between atoms: C_12  and  C_13 
REMARK    4  A    between atoms: C_13  and  C_14 
REMARK       I    between atoms: C_14  and  N_16 
REMARK    5  A    between atoms: N_16  and  C_17 
REMARK    6  A    between atoms: C_17  and  C_18 
REMARK       I    between atoms: C_18  and  N_20 
REMARK    7  A    between atoms: N_20  and  C_21 
REMARK    8  A    between atoms: C_21  and  C_22 
REMARK    9  A    between atoms: O_24  and  C_25 
ROOT
ATOM      1  C   LIG d   1       9.076   2.182  -6.243  0.00  0.00    -0.029 A 
ATOM      2  C   LIG d   1       9.467   3.258  -5.330  0.00  0.00     0.022 A 
ATOM      3  C   LIG d   1      10.153   4.385  -5.797  0.00  0.00    -0.029 A 
ATOM      4  C   LIG d   1      10.511   5.371  -4.923  0.00  0.00     0.083 A 
ATOM      5  C   LIG d   1      10.197   5.263  -3.569  0.00  0.00     0.142 A 
ATOM      6  C   LIG d   1       9.518   4.154  -3.091  0.00  0.00     0.025 A 
ATOM      7  C   LIG d   1       9.147   3.144  -3.965  0.00  0.00     0.143 A 
ATOM      8  O   LIG d   1       8.486   2.054  -3.518  0.00  0.00    -0.422 OA
ATOM      9  C   LIG d   1       8.121   1.067  -4.350  0.00  0.00     0.341 A 
ATOM     10  O   LIG d   1       7.525   0.103  -3.902  0.00  0.00    -0.245 OA
ATOM     11  C   LIG d   1       8.408   1.116  -5.730  0.00  0.00     0.049 A 
ATOM     12 CL   LIG d   1      11.361   6.770  -5.502  0.00  0.00    -0.080 Cl
ATOM     13  H   LIG d   1      10.399   4.475  -6.845  0.00  0.00     0.064 H 
ATOM     14  H   LIG d   1       9.279   4.078  -2.040  0.00  0.00     0.069 H 
ENDROOT
BRANCH  11  15
ATOM     15  C   LIG d   1       7.981  -0.014  -6.632  0.00  0.00     0.056 C 
ATOM     16  H   LIG d   1       8.212  -0.967  -6.155  0.00  0.00     0.041 H 
ATOM     17  H   LIG d   1       8.513   0.057  -7.580  0.00  0.00     0.041 H 
BRANCH  15  18
ATOM     18  C   LIG d   1       6.497   0.076  -6.881  0.00  0.00     0.218 C 
ATOM     19  O   LIG d   1       6.044   1.005  -7.514  0.00  0.00    -0.275 OA
ATOM     20  N   LIG d   1       5.674  -0.877  -6.400  0.00  0.00    -0.306 N 
ATOM     21  H   LIG d   1       6.038  -1.622  -5.896  0.00  0.00     0.149 HD
BRANCH  20  22
ATOM     22  C   LIG d   1       4.233  -0.790  -6.642  0.00  0.00     0.088 C 
ATOM     23  H   LIG d   1       4.049  -0.188  -7.531  0.00  0.00     0.056 H 
ATOM     24  H   LIG d   1       3.827  -1.790  -6.791  0.00  0.00     0.056 H 
BRANCH  22  25
ATOM     25  C   LIG d   1       3.562  -0.149  -5.454  0.00  0.00     0.231 C 
ATOM     26  O   LIG d   1       2.786   0.770  -5.619  0.00  0.00    -0.274 OA
ATOM     27  N   LIG d   1       3.823  -0.595  -4.210  0.00  0.00    -0.309 N 
ATOM     28  H   LIG d   1       4.443  -1.329  -4.078  0.00  0.00     0.149 HD
BRANCH  27  29
ATOM     29  C   LIG d   1       3.171   0.029  -3.056  0.00  0.00     0.051 C 
ATOM     30  H   LIG d   1       2.259   0.529  -3.382  0.00  0.00     0.052 H 
ATOM     31  H   LIG d   1       2.923  -0.737  -2.321  0.00  0.00     0.052 H 
BRANCH  29  32
ATOM     32  C   LIG d   1       4.103   1.037  -2.436  0.00  0.00     0.059 C 
ATOM     33  O   LIG d   1       4.542   0.853  -1.327  0.00  0.00    -0.548 OA
ATOM     34  O   LIG d   1       4.445   2.144  -3.117  0.00  0.00    -0.548 OA
ENDBRANCH  29  32
ENDBRANCH  27  29
ENDBRANCH  22  25
ENDBRANCH  20  22
ENDBRANCH  15  18
ENDBRANCH  11  15
BRANCH   1  35
ATOM     35  C   LIG d   1       9.401   2.257  -7.712  0.00  0.00    -0.038 C 
ATOM     36  H   LIG d   1       9.218   1.287  -8.175  0.00  0.00     0.028 H 
ATOM     37  H   LIG d   1       8.771   3.010  -8.186  0.00  0.00     0.028 H 
ATOM     38  H   LIG d   1      10.449   2.528  -7.840  0.00  0.00     0.028 H 
ENDBRANCH   1  35
BRANCH   5  39
ATOM     39  O   LIG d   1      10.560   6.251  -2.712  0.00  0.00    -0.493 OA
BRANCH  39  40
ATOM     40  C   LIG d   1       9.511   6.907  -1.997  0.00  0.00     0.079 C 
ATOM     41  H   LIG d   1       8.551   6.656  -2.448  0.00  0.00     0.066 H 
ATOM     42  H   LIG d   1       9.520   6.580  -0.957  0.00  0.00     0.066 H 
ATOM     43  H   LIG d   1       9.662   7.986  -2.039  0.00  0.00     0.066 H 
ENDBRANCH  39  40
ENDBRANCH   5  39
TORSDOF 9
ENDMDL
MODEL 8
REMARK VINA RESULT:      -5.7      3.151      5.527
REMARK  9 active torsions:
REMARK  status: ('A' for Active; 'I' for Inactive)
REMARK    1  A    between atoms: C_1  and  C_2 
REMARK    2  A    between atoms: C_6  and  O_24 
REMARK    3  A    between atoms: C_12  and  C_13 
REMARK    4  A    between atoms: C_13  and  C_14 
REMARK       I    between atoms: C_14  and  N_16 
REMARK    5  A    between atoms: N_16  and  C_17 
REMARK    6  A    between atoms: C_17  and  C_18 
REMARK       I    between atoms: C_18  and  N_20 
REMARK    7  A    between atoms: N_20  and  C_21 
REMARK    8  A    between atoms: C_21  and  C_22 
REMARK    9  A    between atoms: O_24  and  C_25 
ROOT
ATOM      1  C   LIG d   1       4.579  -1.369  -5.693  0.00  0.00    -0.029 A 
ATOM      2  C   LIG d   1       4.045  -1.261  -7.052  0.00  0.00     0.022 A 
ATOM      3  C   LIG d   1       4.423  -2.167  -8.049  0.00  0.00    -0.029 A 
ATOM      4  C   LIG d   1       3.914  -2.040  -9.309  0.00  0.00     0.083 A 
ATOM      5  C   LIG d   1       3.020  -1.013  -9.610  0.00  0.00     0.142 A 
ATOM      6  C   LIG d   1       2.636  -0.107  -8.635  0.00  0.00     0.025 A 
ATOM      7  C   LIG d   1       3.143  -0.222  -7.349  0.00  0.00     0.143 A 
ATOM      8  O   LIG d   1       2.782   0.651  -6.385  0.00  0.00    -0.422 OA
ATOM      9  C   LIG d   1       3.264   0.555  -5.136  0.00  0.00     0.341 A 
ATOM     10  O   LIG d   1       2.910   1.365  -4.299  0.00  0.00    -0.245 OA
ATOM     11  C   LIG d   1       4.171  -0.461  -4.769  0.00  0.00     0.049 A 
ATOM     12 CL   LIG d   1       4.381  -3.165 -10.546  0.00  0.00    -0.080 Cl
ATOM     13  H   LIG d   1       5.115  -2.966  -7.822  0.00  0.00     0.064 H 
ATOM     14  H   LIG d   1       1.943   0.686  -8.876  0.00  0.00     0.069 H 
ENDROOT
BRANCH  11  15
ATOM     15  C   LIG d   1       4.690  -0.535  -3.355  0.00  0.00     0.056 C 
ATOM     16  H   LIG d   1       5.135  -1.515  -3.182  0.00  0.00     0.041 H 
ATOM     17  H   LIG d   1       3.868  -0.380  -2.658  0.00  0.00     0.041 H 
BRANCH  15  18
ATOM     18  C   LIG d   1       5.734   0.532  -3.148  0.00  0.00     0.218 C 
ATOM     19  O   LIG d   1       5.539   1.423  -2.349  0.00  0.00    -0.275 OA
ATOM     20  N   LIG d   1       6.884   0.497  -3.851  0.00  0.00    -0.306 N 
ATOM     21  H   LIG d   1       7.040  -0.218  -4.488  0.00  0.00     0.149 HD
BRANCH  20  22
ATOM     22  C   LIG d   1       7.897   1.534  -3.649  0.00  0.00     0.088 C 
ATOM     23  H   LIG d   1       7.470   2.353  -3.070  0.00  0.00     0.056 H 
ATOM     24  H   LIG d   1       8.746   1.114  -3.110  0.00  0.00     0.056 H 
BRANCH  22  25
ATOM     25  C   LIG d   1       8.359   2.052  -4.987  0.00  0.00     0.231 C 
ATOM     26  O   LIG d   1       9.249   2.875  -5.044  0.00  0.00    -0.274 OA
ATOM     27  N   LIG d   1       7.783   1.603  -6.120  0.00  0.00    -0.309 N 
ATOM     28  H   LIG d   1       7.072   0.945  -6.074  0.00  0.00     0.149 HD
BRANCH  27  29
ATOM     29  C   LIG d   1       8.232   2.107  -7.419  0.00  0.00     0.051 C 
ATOM     30  H   LIG d   1       8.374   3.186  -7.361  0.00  0.00     0.052 H 
ATOM     31  H   LIG d   1       9.175   1.630  -7.689  0.00  0.00     0.052 H 
BRANCH  29  32
ATOM     32  C   LIG d   1       7.194   1.793  -8.466  0.00  0.00     0.059 C 
ATOM     33  O   LIG d   1       6.043   1.624  -8.143  0.00  0.00    -0.548 OA
ATOM     34  O   LIG d   1       7.549   1.701  -9.758  0.00  0.00    -0.548 OA
ENDBRANCH  29  32
ENDBRANCH  27  29
ENDBRANCH  22  25
ENDBRANCH  20  22
ENDBRANCH  15  18
ENDBRANCH  11  15
BRANCH   1  35
ATOM     35  C   LIG d   1       5.552  -2.460  -5.328  0.00  0.00    -0.038 C 
ATOM     36  H   LIG d   1       5.014  -3.284  -4.859  0.00  0.00     0.028 H 
ATOM     37  H   LIG d   1       6.051  -2.818  -6.229  0.00  0.00     0.028 H 
ATOM     38  H   LIG d   1       6.295  -2.068  -4.633  0.00  0.00     0.028 H 
ENDBRANCH   1  35
BRANCH   5  39
ATOM     39  O   LIG d   1       2.523  -0.899 -10.868  0.00  0.00    -0.493 OA
BRANCH  39  40
ATOM     40  C   LIG d   1       1.208  -1.410 -11.095  0.00  0.00     0.079 C 
ATOM     41  H   LIG d   1       1.156  -2.444 -10.752  0.00  0.00     0.066 H 
ATOM     42  H   LIG d   1       0.484  -0.809 -10.546  0.00  0.00     0.066 H 
ATOM     43  H   LIG d   1       0.982  -1.369 -12.161  0.00  0.00     0.066 H 
ENDBRANCH  39  40
ENDBRANCH   5  39
TORSDOF 9
ENDMDL
MODEL 9
REMARK VINA RESULT:      -5.6      8.887     10.407
REMARK  9 active torsions:
REMARK  status: ('A' for Active; 'I' for Inactive)
REMARK    1  A    between atoms: C_1  and  C_2 
REMARK    2  A    between atoms: C_6  and  O_24 
REMARK    3  A    between atoms: C_12  and  C_13 
REMARK    4  A    between atoms: C_13  and  C_14 
REMARK       I    between atoms: C_14  and  N_16 
REMARK    5  A    between atoms: N_16  and  C_17 
REMARK    6  A    between atoms: C_17  and  C_18 
REMARK       I    between atoms: C_18  and  N_20 
REMARK    7  A    between atoms: N_20  and  C_21 
REMARK    8  A    between atoms: C_21  and  C_22 
REMARK    9  A    between atoms: O_24  and  C_25 
ROOT
ATOM      1  C   LIG d   1      11.550   8.123  -1.194  0.00  0.00    -0.029 A 
ATOM      2  C   LIG d   1      11.594   6.755  -1.715  0.00  0.00     0.022 A 
ATOM      3  C   LIG d   1      12.807   6.162  -2.082  0.00  0.00    -0.029 A 
ATOM      4  C   LIG d   1      12.819   4.888  -2.570  0.00  0.00     0.083 A 
ATOM      5  C   LIG d   1      11.630   4.172  -2.705  0.00  0.00     0.142 A 
ATOM      6  C   LIG d   1      10.420   4.744  -2.346  0.00  0.00     0.025 A 
ATOM      7  C   LIG d   1      10.391   6.038  -1.848  0.00  0.00     0.143 A 
ATOM      8  O   LIG d   1       9.222   6.614  -1.494  0.00  0.00    -0.422 OA
ATOM      9  C   LIG d   1       9.176   7.866  -1.011  0.00  0.00     0.341 A 
ATOM     10  O   LIG d   1       8.099   8.344  -0.704  0.00  0.00    -0.245 OA
ATOM     11  C   LIG d   1      10.343   8.641  -0.851  0.00  0.00     0.049 A 
ATOM     12 CL   LIG d   1      14.324   4.151  -3.025  0.00  0.00    -0.080 Cl
ATOM     13  H   LIG d   1      13.732   6.711  -1.980  0.00  0.00     0.064 H 
ATOM     14  H   LIG d   1       9.503   4.183  -2.453  0.00  0.00     0.069 H 
ENDROOT
BRANCH  11  15
ATOM     15  C   LIG d   1      10.249  10.044  -0.307  0.00  0.00     0.056 C 
ATOM     16  H   LIG d   1      11.199  10.321   0.150  0.00  0.00     0.041 H 
ATOM     17  H   LIG d   1       9.458  10.090   0.442  0.00  0.00     0.041 H 
BRANCH  15  18
ATOM     18  C   LIG d   1       9.934  10.998  -1.430  0.00  0.00     0.218 C 
ATOM     19  O   LIG d   1      10.712  11.886  -1.707  0.00  0.00    -0.275 OA
ATOM     20  N   LIG d   1       8.787  10.864  -2.127  0.00  0.00    -0.306 N 
ATOM     21  H   LIG d   1       8.167  10.151  -1.906  0.00  0.00     0.149 HD
BRANCH  20  22
ATOM     22  C   LIG d   1       8.482  11.791  -3.218  0.00  0.00     0.088 C 
ATOM     23  H   LIG d   1       7.401  11.905  -3.307  0.00  0.00     0.056 H 
ATOM     24  H   LIG d   1       8.932  12.760  -3.010  0.00  0.00     0.056 H 
BRANCH  22  25
ATOM     25  C   LIG d   1       9.037  11.247  -4.510  0.00  0.00     0.231 C 
ATOM     26  O   LIG d   1       9.431  12.008  -5.368  0.00  0.00    -0.274 OA
ATOM     27  N   LIG d   1       9.095   9.916  -4.711  0.00  0.00    -0.309 N 
ATOM     28  H   LIG d   1       8.780   9.307  -4.024  0.00  0.00     0.149 HD
BRANCH  27  29
ATOM     29  C   LIG d   1       9.635   9.388  -5.966  0.00  0.00     0.051 C 
ATOM     30  H   LIG d   1       9.119   9.851  -6.806  0.00  0.00     0.052 H 
ATOM     31  H   LIG d   1      10.700   9.609  -6.026  0.00  0.00     0.052 H 
BRANCH  29  32
ATOM     32  C   LIG d   1       9.428   7.895  -6.013  0.00  0.00     0.059 C 
ATOM     33  O   LIG d   1       9.495   7.309  -7.066  0.00  0.00    -0.548 OA
ATOM     34  O   LIG d   1       9.169   7.218  -4.882  0.00  0.00    -0.548 OA
ENDBRANCH  29  32
ENDBRANCH  27  29
ENDBRANCH  22  25
ENDBRANCH  20  22
ENDBRANCH  15  18
ENDBRANCH  11  15
BRANCH   1  35
ATOM     35  C   LIG d   1      12.811   8.933  -1.039  0.00  0.00    -0.038 C 
ATOM     36  H   LIG d   1      13.208   9.181  -2.023  0.00  0.00     0.028 H 
ATOM     37  H   LIG d   1      12.588   9.851  -0.494  0.00  0.00     0.028 H 
ATOM     38  H   LIG d   1      13.551   8.353  -0.485  0.00  0.00     0.028 H 
ENDBRANCH   1  35
BRANCH   5  39
ATOM     39  O   LIG d   1      11.657   2.906  -3.192  0.00  0.00    -0.493 OA
BRANCH  39  40
ATOM     40  C   LIG d   1      10.397   2.290  -3.471  0.00  0.00     0.079 C 
ATOM     41  H   LIG d   1      10.145   1.598  -2.667  0.00  0.00     0.066 H 
ATOM     42  H   LIG d   1       9.626   3.056  -3.545  0.00  0.00     0.066 H 
ATOM     43  H   LIG d   1      10.460   1.745  -4.413  0.00  0.00     0.066 H 
ENDBRANCH  39  40
ENDBRANCH   5  39
TORSDOF 9
ENDMDL
MODEL 10
REMARK VINA RESULT:      -5.6      3.608      5.185
REMARK  9 active torsions:
REMARK  status: ('A' for Active; 'I' for Inactive)
REMARK    1  A    between atoms: C_1  and  C_2 
REMARK    2  A    between atoms: C_6  and  O_24 
REMARK    3  A    between atoms: C_12  and  C_13 
REMARK    4  A    between atoms: C_13  and  C_14 
REMARK       I    between atoms: C_14  and  N_16 
REMARK    5  A    between atoms: N_16  and  C_17 
REMARK    6  A    between atoms: C_17  and  C_18 
REMARK       I    between atoms: C_18  and  N_20 
REMARK    7  A    between atoms: N_20  and  C_21 
REMARK    8  A    between atoms: C_21  and  C_22 
REMARK    9  A    between atoms: O_24  and  C_25 
ROOT
ATOM      1  C   LIG d   1       7.993   0.704  -6.095  0.00  0.00    -0.029 A 
ATOM      2  C   LIG d   1       8.533   2.012  -5.720  0.00  0.00     0.022 A 
ATOM      3  C   LIG d   1       9.203   2.810  -6.655  0.00  0.00    -0.029 A 
ATOM      4  C   LIG d   1       9.702   4.023  -6.278  0.00  0.00     0.083 A 
ATOM      5  C   LIG d   1       9.549   4.473  -4.967  0.00  0.00     0.142 A 
ATOM      6  C   LIG d   1       8.888   3.696  -4.029  0.00  0.00     0.025 A 
ATOM      7  C   LIG d   1       8.375   2.461  -4.396  0.00  0.00     0.143 A 
ATOM      8  O   LIG d   1       7.730   1.688  -3.496  0.00  0.00    -0.422 OA
ATOM      9  C   LIG d   1       7.228   0.490  -3.835  0.00  0.00     0.341 A 
ATOM     10  O   LIG d   1       6.653  -0.172  -2.990  0.00  0.00    -0.245 OA
ATOM     11  C   LIG d   1       7.349  -0.021  -5.143  0.00  0.00     0.049 A 
ATOM     12 CL   LIG d   1      10.532   5.014  -7.437  0.00  0.00    -0.080 Cl
ATOM     13  H   LIG d   1       9.325   2.467  -7.672  0.00  0.00     0.064 H 
ATOM     14  H   LIG d   1       8.774   4.052  -3.016  0.00  0.00     0.069 H 
ENDROOT
BRANCH  11  15
ATOM     15  C   LIG d   1       6.773  -1.372  -5.483  0.00  0.00     0.056 C 
ATOM     16  H   LIG d   1       7.015  -2.080  -4.691  0.00  0.00     0.041 H 
ATOM     17  H   LIG d   1       7.195  -1.720  -6.425  0.00  0.00     0.041 H 
BRANCH  15  18
ATOM     18  C   LIG d   1       5.276  -1.259  -5.615  0.00  0.00     0.218 C 
ATOM     19  O   LIG d   1       4.597  -2.261  -5.692  0.00  0.00    -0.275 OA
ATOM     20  N   LIG d   1       4.691  -0.045  -5.647  0.00  0.00    -0.306 N 
ATOM     21  H   LIG d   1       5.235   0.756  -5.583  0.00  0.00     0.149 HD
BRANCH  20  22
ATOM     22  C   LIG d   1       3.237   0.065  -5.775  0.00  0.00     0.088 C 
ATOM     23  H   LIG d   1       2.776  -0.889  -5.515  0.00  0.00     0.056 H 
ATOM     24  H   LIG d   1       2.869   0.840  -5.103  0.00  0.00     0.056 H 
BRANCH  22  25
ATOM     25  C   LIG d   1       2.882   0.423  -7.196  0.00  0.00     0.231 C 
ATOM     26  O   LIG d   1       2.373  -0.406  -7.921  0.00  0.00    -0.274 OA
ATOM     27  N   LIG d   1       3.132   1.663  -7.661  0.00  0.00    -0.309 N 
ATOM     28  H   LIG d   1       3.539   2.325  -7.081  0.00  0.00     0.149 HD
BRANCH  27  29
ATOM     29  C   LIG d   1       2.787   2.010  -9.041  0.00  0.00     0.051 C 
ATOM     30  H   LIG d   1       2.054   1.300  -9.422  0.00  0.00     0.052 H 
ATOM     31  H   LIG d   1       2.369   3.016  -9.069  0.00  0.00     0.052 H 
BRANCH  29  32
ATOM     32  C   LIG d   1       4.027   1.958  -9.897  0.00  0.00     0.059 C 
ATOM     33  O   LIG d   1       3.994   1.419 -10.977  0.00  0.00    -0.548 OA
ATOM     34  O   LIG d   1       5.170   2.510  -9.457  0.00  0.00    -0.548 OA
ENDBRANCH  29  32
ENDBRANCH  27  29
ENDBRANCH  22  25
ENDBRANCH  20  22
ENDBRANCH  15  18
ENDBRANCH  11  15
BRANCH   1  35
ATOM     35  C   LIG d   1       8.142   0.178  -7.499  0.00  0.00    -0.038 C 
ATOM     36  H   LIG d   1       8.390   0.999  -8.171  0.00  0.00     0.028 H 
ATOM     37  H   LIG d   1       8.939  -0.566  -7.525  0.00  0.00     0.028 H 
ATOM     38  H   LIG d   1       7.206  -0.282  -7.817  0.00  0.00     0.028 H 
ENDBRANCH   1  35
BRANCH   5  39
ATOM     39  O   LIG d   1      10.051   5.682  -4.606  0.00  0.00    -0.493 OA
BRANCH  39  40
ATOM     40  C   LIG d   1       9.989   6.022  -3.220  0.00  0.00     0.079 C 
ATOM     41  H   LIG d   1      10.016   5.112  -2.620  0.00  0.00     0.066 H 
ATOM     42  H   LIG d   1      10.840   6.652  -2.962  0.00  0.00     0.066 H 
ATOM     43  H   LIG d   1       9.063   6.562  -3.019  0.00  0.00     0.066 H 
ENDBRANCH  39  40
ENDBRANCH   5  39
TORSDOF 9
ENDMDL
