MODEL 1
REMARK VINA RESULT:      -7.9      0.000      0.000
REMARK  9 active torsions:
REMARK  status: ('A' for Active; 'I' for Inactive)
REMARK    1  A    between atoms: C_4  and  N_7 
REMARK    2  A    between atoms: N_10  and  C_13 
REMARK    3  A    between atoms: C_13  and  C_14 
REMARK    4  A    between atoms: C_16  and  C_19 
REMARK    5  A    between atoms: C_19  and  C_20 
REMARK    6  A    between atoms: C_26  and  C_28 
REMARK    7  A    between atoms: C_28  and  C_29 
REMARK       I    between atoms: C_29  and  N_31 
REMARK    8  A    between atoms: N_31  and  C_32 
REMARK    9  A    between atoms: C_32  and  C_33 
ROOT
ATOM      1  C   LIG d   1       6.723   0.860  -8.489  0.00  0.00     0.001 C 
ATOM      2  H   LIG d   1       7.259  -0.086  -8.565  0.00  0.00     0.033 H 
ATOM      3  H   LIG d   1       6.082   0.844  -7.607  0.00  0.00     0.033 H 
ENDROOT
BRANCH   1   4
ATOM      4  C   LIG d   1       7.712   1.990  -8.372  0.00  0.00     0.084 A 
ATOM      5  C   LIG d   1       8.668   2.147  -7.352  0.00  0.00     0.005 A 
ATOM      6  C   LIG d   1       9.362   3.276  -7.599  0.00  0.00     0.151 A 
ATOM      7  H   LIG d   1       8.821   1.479  -6.518  0.00  0.00     0.067 H 
ATOM      8  O   LIG d   1       8.873   3.826  -8.721  0.00  0.00    -0.358 OA
ATOM      9  N   LIG d   1       7.832   2.991  -9.196  0.00  0.00    -0.083 NA
BRANCH   6  10
ATOM     10  C   LIG d   1      10.483   3.829  -6.758  0.00  0.00     0.060 C 
ATOM     11  H   LIG d   1      10.941   4.673  -7.273  0.00  0.00     0.051 H 
ATOM     12  H   LIG d   1      11.232   3.054  -6.595  0.00  0.00     0.051 H 
BRANCH  10  13
ATOM     13  N   LIG d   1       9.950   4.275  -5.464  0.00  0.00    -0.292 N 
ATOM     14  C   LIG d   1      10.546   3.513  -4.358  0.00  0.00     0.015 C 
ATOM     15  C   LIG d   1       9.836   3.879  -3.050  0.00  0.00     0.025 C 
ATOM     16  H   LIG d   1      11.605   3.757  -4.278  0.00  0.00     0.044 H 
ATOM     17  H   LIG d   1      10.431   2.447  -4.548  0.00  0.00     0.044 H 
ATOM     18  N   LIG d   1       9.875   5.341  -2.890  0.00  0.00    -0.328 N 
ATOM     19  H   LIG d   1      10.347   3.406  -2.211  0.00  0.00     0.048 H 
ATOM     20  H   LIG d   1       8.801   3.543  -3.089  0.00  0.00     0.048 H 
ATOM     21  C   LIG d   1       9.416   6.176  -4.012  0.00  0.00     0.025 C 
ATOM     22  C   LIG d   1      10.147   5.720  -5.284  0.00  0.00     0.015 C 
ATOM     23  H   LIG d   1       8.340   6.055  -4.140  0.00  0.00     0.048 H 
ATOM     24  H   LIG d   1       9.648   7.222  -3.809  0.00  0.00     0.048 H 
ATOM     25  H   LIG d   1      11.212   5.933  -5.190  0.00  0.00     0.044 H 
ATOM     26  H   LIG d   1       9.743   6.252  -6.144  0.00  0.00     0.044 H 
BRANCH  18  27
ATOM     27  C   LIG d   1      10.331   5.921  -1.705  0.00  0.00     0.030 A 
ATOM     28  C   LIG d   1       9.874   7.176  -1.322  0.00  0.00    -0.041 A 
ATOM     29  C   LIG d   1      10.326   7.746  -0.149  0.00  0.00    -0.060 A 
ATOM     30  H   LIG d   1       9.166   7.706  -1.942  0.00  0.00     0.064 H 
ATOM     31  C   LIG d   1      11.233   7.069   0.647  0.00  0.00    -0.062 A 
ATOM     32  H   LIG d   1       9.971   8.722   0.149  0.00  0.00     0.062 H 
ATOM     33  C   LIG d   1      11.689   5.819   0.269  0.00  0.00    -0.060 A 
ATOM     34  H   LIG d   1      11.589   7.519   1.562  0.00  0.00     0.062 H 
ATOM     35  C   LIG d   1      11.241   5.244  -0.903  0.00  0.00    -0.041 A 
ATOM     36  H   LIG d   1      12.397   5.293   0.893  0.00  0.00     0.062 H 
ATOM     37  H   LIG d   1      11.597   4.267  -1.197  0.00  0.00     0.064 H 
ENDBRANCH  18  27
ENDBRANCH  10  13
ENDBRANCH   6  10
ENDBRANCH   1   4
BRANCH   1  38
ATOM     38  C   LIG d   1       5.865   1.060  -9.739  0.00  0.00     0.008 C 
ATOM     39  H   LIG d   1       6.241   1.912 -10.306  0.00  0.00     0.036 H 
ATOM     40  C   LIG d   1       4.413   1.322  -9.328  0.00  0.00    -0.020 C 
ATOM     41  C   LIG d   1       3.549   1.444 -10.587  0.00  0.00    -0.009 C 
ATOM     42  H   LIG d   1       4.358   2.249  -8.757  0.00  0.00     0.031 H 
ATOM     43  C   LIG d   1       3.695   0.170 -11.423  0.00  0.00    -0.033 C 
ATOM     44  H   LIG d   1       3.878   2.303 -11.171  0.00  0.00     0.032 H 
ATOM     45  H   LIG d   1       2.506   1.574 -10.301  0.00  0.00     0.032 H 
ATOM     46  N   LIG d   1       5.100  -0.008 -11.808  0.00  0.00     0.227 N 
ATOM     47  H   LIG d   1       3.082   0.254 -12.321  0.00  0.00     0.081 H 
ATOM     48  H   LIG d   1       3.366  -0.688 -10.839  0.00  0.00     0.081 H 
ATOM     49  C   LIG d   1       5.925  -0.198 -10.608  0.00  0.00    -0.030 C 
ATOM     50  H   LIG d   1       5.419   0.808 -12.308  0.00  0.00     0.201 HD
ATOM     51  H   LIG d   1       5.185  -0.819 -12.404  0.00  0.00     0.201 HD
ATOM     52  H   LIG d   1       6.957  -0.387 -10.903  0.00  0.00     0.082 H 
ATOM     53  H   LIG d   1       5.548  -1.050 -10.040  0.00  0.00     0.082 H 
BRANCH  40  54
ATOM     54  C   LIG d   1       3.907   0.160  -8.471  0.00  0.00     0.027 C 
ATOM     55  H   LIG d   1       3.224  -0.453  -9.058  0.00  0.00     0.036 H 
ATOM     56  H   LIG d   1       4.752  -0.446  -8.144  0.00  0.00     0.036 H 
BRANCH  54  57
ATOM     57  C   LIG d   1       3.184   0.704  -7.266  0.00  0.00     0.214 C 
ATOM     58  O   LIG d   1       2.847   1.868  -7.234  0.00  0.00    -0.276 OA
ATOM     59  N   LIG d   1       2.911  -0.105  -6.223  0.00  0.00    -0.311 N 
ATOM     60  H   LIG d   1       3.179  -1.037  -6.248  0.00  0.00     0.149 HD
BRANCH  59  61
ATOM     61  C   LIG d   1       2.207   0.423  -5.050  0.00  0.00     0.043 C 
ATOM     62  H   LIG d   1       2.031   1.490  -5.184  0.00  0.00     0.052 H 
ATOM     63  H   LIG d   1       1.253  -0.092  -4.936  0.00  0.00     0.052 H 
BRANCH  61  64
ATOM     64  C   LIG d   1       3.047   0.202  -3.819  0.00  0.00     0.007 A 
ATOM     65  S   LIG d   1       3.530  -1.334  -3.047  0.00  0.00    -0.100 SA
ATOM     66  C   LIG d   1       4.480  -0.651  -1.699  0.00  0.00    -0.024 A 
ATOM     67  C   LIG d   1       4.362   0.681  -1.919  0.00  0.00    -0.054 A 
ATOM     68  H   LIG d   1       5.008  -1.165  -0.910  0.00  0.00     0.069 H 
ATOM     69  C   LIG d   1       3.628   1.119  -3.006  0.00  0.00    -0.050 A 
ATOM     70  H   LIG d   1       4.835   1.391  -1.257  0.00  0.00     0.062 H 
ATOM     71  H   LIG d   1       3.518   2.174  -3.204  0.00  0.00     0.063 H 
ENDBRANCH  61  64
ENDBRANCH  59  61
ENDBRANCH  54  57
ENDBRANCH  40  54
ENDBRANCH   1  38
TORSDOF 9
ENDMDL
MODEL 2
REMARK VINA RESULT:      -7.2      8.104     10.712
REMARK  9 active torsions:
REMARK  status: ('A' for Active; 'I' for Inactive)
REMARK    1  A    between atoms: C_4  and  N_7 
REMARK    2  A    between atoms: N_10  and  C_13 
REMARK    3  A    between atoms: C_13  and  C_14 
REMARK    4  A    between atoms: C_16  and  C_19 
REMARK    5  A    between atoms: C_19  and  C_20 
REMARK    6  A    between atoms: C_26  and  C_28 
REMARK    7  A    between atoms: C_28  and  C_29 
REMARK       I    between atoms: C_29  and  N_31 
REMARK    8  A    between atoms: N_31  and  C_32 
REMARK    9  A    between atoms: C_32  and  C_33 
ROOT
ATOM      1  C   LIG d   1       6.974  -9.744  -5.890  0.00  0.00     0.001 C 
ATOM      2  H   LIG d   1       6.951 -10.046  -6.937  0.00  0.00     0.033 H 
ATOM      3  H   LIG d   1       7.656 -10.392  -5.339  0.00  0.00     0.033 H 
ENDROOT
BRANCH   1   4
ATOM      4  C   LIG d   1       7.445  -8.317  -5.790  0.00  0.00     0.084 A 
ATOM      5  C   LIG d   1       6.768  -7.188  -6.288  0.00  0.00     0.005 A 
ATOM      6  C   LIG d   1       7.506  -6.098  -6.001  0.00  0.00     0.151 A 
ATOM      7  H   LIG d   1       5.822  -7.194  -6.808  0.00  0.00     0.067 H 
ATOM      8  O   LIG d   1       8.610  -6.502  -5.355  0.00  0.00    -0.358 OA
ATOM      9  N   LIG d   1       8.547  -7.911  -5.227  0.00  0.00    -0.083 NA
BRANCH   6  10
ATOM     10  C   LIG d   1       7.158  -4.675  -6.353  0.00  0.00     0.060 C 
ATOM     11  H   LIG d   1       6.426  -4.668  -7.161  0.00  0.00     0.051 H 
ATOM     12  H   LIG d   1       8.056  -4.148  -6.673  0.00  0.00     0.051 H 
BRANCH  10  13
ATOM     13  N   LIG d   1       6.591  -4.004  -5.175  0.00  0.00    -0.292 N 
ATOM     14  C   LIG d   1       7.313  -2.759  -4.879  0.00  0.00     0.015 C 
ATOM     15  C   LIG d   1       6.814  -2.188  -3.547  0.00  0.00     0.025 C 
ATOM     16  H   LIG d   1       7.133  -2.037  -5.675  0.00  0.00     0.044 H 
ATOM     17  H   LIG d   1       8.380  -2.967  -4.809  0.00  0.00     0.044 H 
ATOM     18  N   LIG d   1       5.350  -2.058  -3.614  0.00  0.00    -0.328 N 
ATOM     19  H   LIG d   1       7.261  -1.208  -3.379  0.00  0.00     0.048 H 
ATOM     20  H   LIG d   1       7.084  -2.862  -2.735  0.00  0.00     0.048 H 
ATOM     21  C   LIG d   1       4.565  -3.230  -4.033  0.00  0.00     0.025 C 
ATOM     22  C   LIG d   1       5.153  -3.759  -5.350  0.00  0.00     0.015 C 
ATOM     23  H   LIG d   1       4.624  -4.002  -3.265  0.00  0.00     0.048 H 
ATOM     24  H   LIG d   1       3.525  -2.939  -4.184  0.00  0.00     0.048 H 
ATOM     25  H   LIG d   1       5.003  -3.022  -6.140  0.00  0.00     0.044 H 
ATOM     26  H   LIG d   1       4.655  -4.689  -5.621  0.00  0.00     0.044 H 
BRANCH  18  27
ATOM     27  C   LIG d   1       4.721  -0.855  -3.285  0.00  0.00     0.030 A 
ATOM     28  C   LIG d   1       5.035  -0.207  -2.096  0.00  0.00    -0.041 A 
ATOM     29  C   LIG d   1       4.412   0.983  -1.774  0.00  0.00    -0.060 A 
ATOM     30  H   LIG d   1       5.764  -0.635  -1.424  0.00  0.00     0.064 H 
ATOM     31  C   LIG d   1       3.477   1.531  -2.634  0.00  0.00    -0.062 A 
ATOM     32  H   LIG d   1       4.656   1.486  -0.850  0.00  0.00     0.062 H 
ATOM     33  C   LIG d   1       3.164   0.889  -3.818  0.00  0.00    -0.060 A 
ATOM     34  H   LIG d   1       2.989   2.459  -2.378  0.00  0.00     0.062 H 
ATOM     35  C   LIG d   1       3.782  -0.301  -4.146  0.00  0.00    -0.041 A 
ATOM     36  H   LIG d   1       2.434   1.321  -4.487  0.00  0.00     0.062 H 
ATOM     37  H   LIG d   1       3.538  -0.801  -5.072  0.00  0.00     0.064 H 
ENDBRANCH  18  27
ENDBRANCH  10  13
ENDBRANCH   6  10
ENDBRANCH   1   4
BRANCH   1  38
ATOM     38  C   LIG d   1       5.568  -9.861  -5.297  0.00  0.00     0.008 C 
ATOM     39  H   LIG d   1       4.917  -9.115  -5.755  0.00  0.00     0.036 H 
ATOM     40  C   LIG d   1       5.630  -9.626  -3.785  0.00  0.00    -0.020 C 
ATOM     41  C   LIG d   1       4.232  -9.822  -3.190  0.00  0.00    -0.009 C 
ATOM     42  H   LIG d   1       5.971  -8.610  -3.587  0.00  0.00     0.031 H 
ATOM     43  C   LIG d   1       3.726 -11.224  -3.540  0.00  0.00    -0.033 C 
ATOM     44  H   LIG d   1       3.553  -9.077  -3.604  0.00  0.00     0.032 H 
ATOM     45  H   LIG d   1       4.279  -9.712  -2.107  0.00  0.00     0.032 H 
ATOM     46  N   LIG d   1       3.665 -11.375  -4.999  0.00  0.00     0.227 N 
ATOM     47  H   LIG d   1       2.731 -11.366  -3.119  0.00  0.00     0.081 H 
ATOM     48  H   LIG d   1       4.405 -11.969  -3.126  0.00  0.00     0.081 H 
ATOM     49  C   LIG d   1       5.013 -11.260  -5.569  0.00  0.00    -0.030 C 
ATOM     50  H   LIG d   1       3.074 -10.654  -5.387  0.00  0.00     0.201 HD
ATOM     51  H   LIG d   1       3.281 -12.280  -5.227  0.00  0.00     0.201 HD
ATOM     52  H   LIG d   1       4.968 -11.430  -6.645  0.00  0.00     0.082 H 
ATOM     53  H   LIG d   1       5.665 -12.005  -5.111  0.00  0.00     0.082 H 
BRANCH  40  54
ATOM     54  C   LIG d   1       6.599 -10.626  -3.152  0.00  0.00     0.027 C 
ATOM     55  H   LIG d   1       6.035 -11.423  -2.669  0.00  0.00     0.036 H 
ATOM     56  H   LIG d   1       7.241 -11.050  -3.923  0.00  0.00     0.036 H 
BRANCH  54  57
ATOM     57  C   LIG d   1       7.448  -9.919  -2.126  0.00  0.00     0.214 C 
ATOM     58  O   LIG d   1       6.984  -9.642  -1.041  0.00  0.00    -0.276 OA
ATOM     59  N   LIG d   1       8.725  -9.597  -2.415  0.00  0.00    -0.311 N 
ATOM     60  H   LIG d   1       9.097  -9.820  -3.283  0.00  0.00     0.149 HD
BRANCH  59  61
ATOM     61  C   LIG d   1       9.551  -8.910  -1.418  0.00  0.00     0.043 C 
ATOM     62  H   LIG d   1       8.953  -8.707  -0.530  0.00  0.00     0.052 H 
ATOM     63  H   LIG d   1      10.397  -9.543  -1.149  0.00  0.00     0.052 H 
BRANCH  61  64
ATOM     64  C   LIG d   1      10.056  -7.612  -1.992  0.00  0.00     0.007 A 
ATOM     65  S   LIG d   1      11.482  -7.319  -3.025  0.00  0.00    -0.100 SA
ATOM     66  C   LIG d   1      11.300  -5.552  -3.210  0.00  0.00    -0.024 A 
ATOM     67  C   LIG d   1      10.187  -5.306  -2.477  0.00  0.00    -0.054 A 
ATOM     68  H   LIG d   1      11.920  -4.859  -3.759  0.00  0.00     0.069 H 
ATOM     69  C   LIG d   1       9.549  -6.362  -1.853  0.00  0.00    -0.050 A 
ATOM     70  H   LIG d   1       9.803  -4.302  -2.383  0.00  0.00     0.062 H 
ATOM     71  H   LIG d   1       8.660  -6.194  -1.263  0.00  0.00     0.063 H 
ENDBRANCH  61  64
ENDBRANCH  59  61
ENDBRANCH  54  57
ENDBRANCH  40  54
ENDBRANCH   1  38
TORSDOF 9
ENDMDL
MODEL 3
REMARK VINA RESULT:      -7.1      7.290     12.002
REMARK  9 active torsions:
REMARK  status: ('A' for Active; 'I' for Inactive)
REMARK    1  A    between atoms: C_4  and  N_7 
REMARK    2  A    between atoms: N_10  and  C_13 
REMARK    3  A    between atoms: C_13  and  C_14 
REMARK    4  A    between atoms: C_16  and  C_19 
REMARK    5  A    between atoms: C_19  and  C_20 
REMARK    6  A    between atoms: C_26  and  C_28 
REMARK    7  A    between atoms: C_28  and  C_29 
REMARK       I    between atoms: C_29  and  N_31 
REMARK    8  A    between atoms: N_31  and  C_32 
REMARK    9  A    between atoms: C_32  and  C_33 
ROOT
ATOM      1  C   LIG d   1       5.582  -2.968  -4.798  0.00  0.00     0.001 C 
ATOM      2  H   LIG d   1       6.550  -3.215  -4.363  0.00  0.00     0.033 H 
ATOM      3  H   LIG d   1       5.718  -2.236  -5.594  0.00  0.00     0.033 H 
ENDROOT
BRANCH   1   4
ATOM      4  C   LIG d   1       4.953  -4.215  -5.362  0.00  0.00     0.084 A 
ATOM      5  C   LIG d   1       5.503  -5.509  -5.320  0.00  0.00     0.005 A 
ATOM      6  C   LIG d   1       4.643  -6.350  -5.927  0.00  0.00     0.151 A 
ATOM      7  H   LIG d   1       6.450  -5.781  -4.878  0.00  0.00     0.067 H 
ATOM      8  O   LIG d   1       3.589  -5.633  -6.348  0.00  0.00    -0.358 OA
ATOM      9  N   LIG d   1       3.805  -4.285  -5.974  0.00  0.00    -0.083 NA
BRANCH   6  10
ATOM     10  C   LIG d   1       4.834  -7.833  -6.109  0.00  0.00     0.060 C 
ATOM     11  H   LIG d   1       5.579  -8.011  -6.885  0.00  0.00     0.051 H 
ATOM     12  H   LIG d   1       3.889  -8.289  -6.403  0.00  0.00     0.051 H 
BRANCH  10  13
ATOM     13  N   LIG d   1       5.292  -8.427  -4.846  0.00  0.00    -0.292 N 
ATOM     14  C   LIG d   1       4.518  -9.631  -4.518  0.00  0.00     0.015 C 
ATOM     15  C   LIG d   1       4.899 -10.114  -3.114  0.00  0.00     0.025 C 
ATOM     16  H   LIG d   1       4.739 -10.414  -5.244  0.00  0.00     0.044 H 
ATOM     17  H   LIG d   1       3.454  -9.398  -4.546  0.00  0.00     0.044 H 
ATOM     18  N   LIG d   1       6.360 -10.278  -3.058  0.00  0.00    -0.328 N 
ATOM     19  H   LIG d   1       4.415 -11.069  -2.911  0.00  0.00     0.048 H 
ATOM     20  H   LIG d   1       4.586  -9.376  -2.376  0.00  0.00     0.048 H 
ATOM     21  C   LIG d   1       7.204  -9.156  -3.497  0.00  0.00     0.025 C 
ATOM     22  C   LIG d   1       6.732  -8.714  -4.891  0.00  0.00     0.015 C 
ATOM     23  H   LIG d   1       7.107  -8.329  -2.794  0.00  0.00     0.048 H 
ATOM     24  H   LIG d   1       8.245  -9.479  -3.546  0.00  0.00     0.048 H 
ATOM     25  H   LIG d   1       6.922  -9.510  -5.612  0.00  0.00     0.044 H 
ATOM     26  H   LIG d   1       7.273  -7.816  -5.188  0.00  0.00     0.044 H 
BRANCH  18  27
ATOM     27  C   LIG d   1       6.930 -11.466  -2.595  0.00  0.00     0.030 A 
ATOM     28  C   LIG d   1       7.743 -12.221  -3.432  0.00  0.00    -0.041 A 
ATOM     29  C   LIG d   1       8.305 -13.395  -2.971  0.00  0.00    -0.060 A 
ATOM     30  H   LIG d   1       7.933 -11.891  -4.442  0.00  0.00     0.064 H 
ATOM     31  C   LIG d   1       8.061 -13.820  -1.677  0.00  0.00    -0.062 A 
ATOM     32  H   LIG d   1       8.937 -13.982  -3.621  0.00  0.00     0.062 H 
ATOM     33  C   LIG d   1       7.253 -13.070  -0.842  0.00  0.00    -0.060 A 
ATOM     34  H   LIG d   1       8.499 -14.740  -1.321  0.00  0.00     0.062 H 
ATOM     35  C   LIG d   1       6.688 -11.896  -1.296  0.00  0.00    -0.041 A 
ATOM     36  H   LIG d   1       7.065 -13.405   0.168  0.00  0.00     0.062 H 
ATOM     37  H   LIG d   1       6.057 -11.310  -0.643  0.00  0.00     0.064 H 
ENDBRANCH  18  27
ENDBRANCH  10  13
ENDBRANCH   6  10
ENDBRANCH   1   4
BRANCH   1  38
ATOM     38  C   LIG d   1       4.672  -2.382  -3.716  0.00  0.00     0.008 C 
ATOM     39  H   LIG d   1       4.184  -3.193  -3.173  0.00  0.00     0.036 H 
ATOM     40  C   LIG d   1       3.611  -1.491  -4.367  0.00  0.00    -0.020 C 
ATOM     41  C   LIG d   1       2.755  -0.849  -3.271  0.00  0.00    -0.009 C 
ATOM     42  H   LIG d   1       2.977  -2.095  -5.017  0.00  0.00     0.031 H 
ATOM     43  C   LIG d   1       3.661  -0.069  -2.316  0.00  0.00    -0.033 C 
ATOM     44  H   LIG d   1       2.228  -1.626  -2.719  0.00  0.00     0.032 H 
ATOM     45  H   LIG d   1       2.034  -0.169  -3.724  0.00  0.00     0.032 H 
ATOM     46  N   LIG d   1       4.636  -0.982  -1.706  0.00  0.00     0.227 N 
ATOM     47  H   LIG d   1       3.055   0.389  -1.534  0.00  0.00     0.081 H 
ATOM     48  H   LIG d   1       4.188   0.709  -2.868  0.00  0.00     0.081 H 
ATOM     49  C   LIG d   1       5.507  -1.547  -2.743  0.00  0.00    -0.030 C 
ATOM     50  H   LIG d   1       4.148  -1.729  -1.235  0.00  0.00     0.201 HD
ATOM     51  H   LIG d   1       5.197  -0.476  -1.036  0.00  0.00     0.201 HD
ATOM     52  H   LIG d   1       6.264  -2.178  -2.278  0.00  0.00     0.082 H 
ATOM     53  H   LIG d   1       5.995  -0.736  -3.287  0.00  0.00     0.082 H 
BRANCH  40  54
ATOM     54  C   LIG d   1       4.295  -0.397  -5.188  0.00  0.00     0.027 C 
ATOM     55  H   LIG d   1       4.365   0.513  -4.594  0.00  0.00     0.036 H 
ATOM     56  H   LIG d   1       5.296  -0.725  -5.470  0.00  0.00     0.036 H 
BRANCH  54  57
ATOM     57  C   LIG d   1       3.488  -0.124  -6.431  0.00  0.00     0.214 C 
ATOM     58  O   LIG d   1       3.025   0.979  -6.625  0.00  0.00    -0.276 OA
ATOM     59  N   LIG d   1       3.282  -1.108  -7.329  0.00  0.00    -0.311 N 
ATOM     60  H   LIG d   1       3.653  -1.991  -7.176  0.00  0.00     0.149 HD
BRANCH  59  61
ATOM     61  C   LIG d   1       2.497  -0.844  -8.539  0.00  0.00     0.043 C 
ATOM     62  H   LIG d   1       1.864  -1.704  -8.756  0.00  0.00     0.052 H 
ATOM     63  H   LIG d   1       1.873   0.037  -8.382  0.00  0.00     0.052 H 
BRANCH  61  64
ATOM     64  C   LIG d   1       3.428  -0.599  -9.698  0.00  0.00     0.007 A 
ATOM     65  S   LIG d   1       4.969  -1.410 -10.094  0.00  0.00    -0.100 SA
ATOM     66  C   LIG d   1       5.355  -0.504 -11.583  0.00  0.00    -0.024 A 
ATOM     67  C   LIG d   1       4.306   0.349 -11.673  0.00  0.00    -0.054 A 
ATOM     68  H   LIG d   1       6.208  -0.605 -12.238  0.00  0.00     0.069 H 
ATOM     69  C   LIG d   1       3.318   0.300 -10.707  0.00  0.00    -0.050 A 
ATOM     70  H   LIG d   1       4.241   1.054 -12.487  0.00  0.00     0.062 H 
ATOM     71  H   LIG d   1       2.470   0.967 -10.755  0.00  0.00     0.063 H 
ENDBRANCH  61  64
ENDBRANCH  59  61
ENDBRANCH  54  57
ENDBRANCH  40  54
ENDBRANCH   1  38
TORSDOF 9
ENDMDL
MODEL 4
REMARK VINA RESULT:      -7.0      4.457      9.516
REMARK  9 active torsions:
REMARK  status: ('A' for Active; 'I' for Inactive)
REMARK    1  A    between atoms: C_4  and  N_7 
REMARK    2  A    between atoms: N_10  and  C_13 
REMARK    3  A    between atoms: C_13  and  C_14 
REMARK    4  A    between atoms: C_16  and  C_19 
REMARK    5  A    between atoms: C_19  and  C_20 
REMARK    6  A    between atoms: C_26  and  C_28 
REMARK    7  A    between atoms: C_28  and  C_29 
REMARK       I    between atoms: C_29  and  N_31 
REMARK    8  A    between atoms: N_31  and  C_32 
REMARK    9  A    between atoms: C_32  and  C_33 
ROOT
ATOM      1  C   LIG d   1       5.183  -3.415  -4.147  0.00  0.00     0.001 C 
ATOM      2  H   LIG d   1       5.137  -3.937  -3.191  0.00  0.00     0.033 H 
ATOM      3  H   LIG d   1       6.198  -3.056  -4.317  0.00  0.00     0.033 H 
ENDROOT
BRANCH   1   4
ATOM      4  C   LIG d   1       4.790  -4.358  -5.253  0.00  0.00     0.084 A 
ATOM      5  C   LIG d   1       5.142  -4.232  -6.609  0.00  0.00     0.005 A 
ATOM      6  C   LIG d   1       4.604  -5.268  -7.281  0.00  0.00     0.151 A 
ATOM      7  H   LIG d   1       5.741  -3.442  -7.038  0.00  0.00     0.067 H 
ATOM      8  O   LIG d   1       3.929  -6.026  -6.402  0.00  0.00    -0.358 OA
ATOM      9  N   LIG d   1       4.066  -5.433  -5.123  0.00  0.00    -0.083 NA
BRANCH   6  10
ATOM     10  C   LIG d   1       4.729  -5.527  -8.760  0.00  0.00     0.060 C 
ATOM     11  H   LIG d   1       4.052  -6.332  -9.047  0.00  0.00     0.051 H 
ATOM     12  H   LIG d   1       5.753  -5.814  -8.994  0.00  0.00     0.051 H 
BRANCH  10  13
ATOM     13  N   LIG d   1       4.380  -4.308  -9.501  0.00  0.00    -0.292 N 
ATOM     14  C   LIG d   1       3.127  -3.727  -9.000  0.00  0.00     0.015 C 
ATOM     15  C   LIG d   1       2.704  -2.569  -9.911  0.00  0.00     0.025 C 
ATOM     16  H   LIG d   1       3.278  -3.356  -7.986  0.00  0.00     0.044 H 
ATOM     17  H   LIG d   1       2.349  -4.490  -8.997  0.00  0.00     0.044 H 
ATOM     18  N   LIG d   1       3.828  -1.626 -10.019  0.00  0.00    -0.328 N 
ATOM     19  H   LIG d   1       1.841  -2.062  -9.482  0.00  0.00     0.048 H 
ATOM     20  H   LIG d   1       2.454  -2.954 -10.899  0.00  0.00     0.048 H 
ATOM     21  C   LIG d   1       5.150  -2.157 -10.389  0.00  0.00     0.025 C 
ATOM     22  C   LIG d   1       5.477  -3.332  -9.454  0.00  0.00     0.015 C 
ATOM     23  H   LIG d   1       5.128  -2.502 -11.423  0.00  0.00     0.048 H 
ATOM     24  H   LIG d   1       5.903  -1.376 -10.276  0.00  0.00     0.048 H 
ATOM     25  H   LIG d   1       5.595  -2.966  -8.433  0.00  0.00     0.044 H 
ATOM     26  H   LIG d   1       6.401  -3.807  -9.780  0.00  0.00     0.044 H 
BRANCH  18  27
ATOM     27  C   LIG d   1       3.644  -0.262  -9.780  0.00  0.00     0.030 A 
ATOM     28  C   LIG d   1       3.194   0.174  -8.540  0.00  0.00    -0.041 A 
ATOM     29  C   LIG d   1       3.015   1.523  -8.308  0.00  0.00    -0.060 A 
ATOM     30  H   LIG d   1       2.985  -0.541  -7.760  0.00  0.00     0.064 H 
ATOM     31  C   LIG d   1       3.283   2.441  -9.308  0.00  0.00    -0.062 A 
ATOM     32  H   LIG d   1       2.665   1.863  -7.344  0.00  0.00     0.062 H 
ATOM     33  C   LIG d   1       3.732   2.010 -10.543  0.00  0.00    -0.060 A 
ATOM     34  H   LIG d   1       3.138   3.495  -9.125  0.00  0.00     0.062 H 
ATOM     35  C   LIG d   1       3.913   0.663 -10.782  0.00  0.00    -0.041 A 
ATOM     36  H   LIG d   1       3.941   2.729 -11.321  0.00  0.00     0.062 H 
ATOM     37  H   LIG d   1       4.264   0.326 -11.747  0.00  0.00     0.064 H 
ENDBRANCH  18  27
ENDBRANCH  10  13
ENDBRANCH   6  10
ENDBRANCH   1   4
BRANCH   1  38
ATOM     38  C   LIG d   1       4.219  -2.227  -4.123  0.00  0.00     0.008 C 
ATOM     39  H   LIG d   1       3.404  -2.406  -4.826  0.00  0.00     0.036 H 
ATOM     40  C   LIG d   1       4.967  -0.952  -4.522  0.00  0.00    -0.020 C 
ATOM     41  C   LIG d   1       4.013   0.242  -4.420  0.00  0.00    -0.009 C 
ATOM     42  H   LIG d   1       5.325  -1.046  -5.548  0.00  0.00     0.031 H 
ATOM     43  C   LIG d   1       3.453   0.319  -2.998  0.00  0.00    -0.033 C 
ATOM     44  H   LIG d   1       3.195   0.115  -5.128  0.00  0.00     0.032 H 
ATOM     45  H   LIG d   1       4.554   1.160  -4.648  0.00  0.00     0.032 H 
ATOM     46  N   LIG d   1       2.725  -0.917  -2.688  0.00  0.00     0.227 N 
ATOM     47  H   LIG d   1       2.772   1.168  -2.922  0.00  0.00     0.081 H 
ATOM     48  H   LIG d   1       4.271   0.447  -2.291  0.00  0.00     0.081 H 
ATOM     49  C   LIG d   1       3.649  -2.058  -2.713  0.00  0.00    -0.030 C 
ATOM     50  H   LIG d   1       1.997  -1.061  -3.372  0.00  0.00     0.201 HD
ATOM     51  H   LIG d   1       2.311  -0.842  -1.770  0.00  0.00     0.201 HD
ATOM     52  H   LIG d   1       3.116  -2.964  -2.426  0.00  0.00     0.082 H 
ATOM     53  H   LIG d   1       4.465  -1.880  -2.011  0.00  0.00     0.082 H 
BRANCH  40  54
ATOM     54  C   LIG d   1       6.154  -0.740  -3.581  0.00  0.00     0.027 C 
ATOM     55  H   LIG d   1       5.873  -0.042  -2.793  0.00  0.00     0.036 H 
ATOM     56  H   LIG d   1       6.441  -1.693  -3.137  0.00  0.00     0.036 H 
BRANCH  54  57
ATOM     57  C   LIG d   1       7.317  -0.178  -4.359  0.00  0.00     0.214 C 
ATOM     58  O   LIG d   1       8.298  -0.860  -4.561  0.00  0.00    -0.276 OA
ATOM     59  N   LIG d   1       7.264   1.083  -4.830  0.00  0.00    -0.311 N 
ATOM     60  H   LIG d   1       6.478   1.629  -4.670  0.00  0.00     0.149 HD
BRANCH  59  61
ATOM     61  C   LIG d   1       8.394   1.630  -5.587  0.00  0.00     0.043 C 
ATOM     62  H   LIG d   1       8.492   2.694  -5.373  0.00  0.00     0.052 H 
ATOM     63  H   LIG d   1       9.310   1.115  -5.296  0.00  0.00     0.052 H 
BRANCH  61  64
ATOM     64  C   LIG d   1       8.154   1.433  -7.061  0.00  0.00     0.007 A 
ATOM     65  S   LIG d   1       9.300   1.598  -8.420  0.00  0.00    -0.100 SA
ATOM     66  C   LIG d   1       8.178   1.189  -9.747  0.00  0.00    -0.024 A 
ATOM     67  C   LIG d   1       7.021   0.966  -9.078  0.00  0.00    -0.054 A 
ATOM     68  H   LIG d   1       8.370   1.140 -10.809  0.00  0.00     0.069 H 
ATOM     69  C   LIG d   1       7.008   1.090  -7.701  0.00  0.00    -0.050 A 
ATOM     70  H   LIG d   1       6.123   0.693  -9.611  0.00  0.00     0.062 H 
ATOM     71  H   LIG d   1       6.100   0.917  -7.143  0.00  0.00     0.063 H 
ENDBRANCH  61  64
ENDBRANCH  59  61
ENDBRANCH  54  57
ENDBRANCH  40  54
ENDBRANCH   1  38
TORSDOF 9
ENDMDL
MODEL 5
REMARK VINA RESULT:      -6.9      8.786     11.302
REMARK  9 active torsions:
REMARK  status: ('A' for Active; 'I' for Inactive)
REMARK    1  A    between atoms: C_4  and  N_7 
REMARK    2  A    between atoms: N_10  and  C_13 
REMARK    3  A    between atoms: C_13  and  C_14 
REMARK    4  A    between atoms: C_16  and  C_19 
REMARK    5  A    between atoms: C_19  and  C_20 
REMARK    6  A    between atoms: C_26  and  C_28 
REMARK    7  A    between atoms: C_28  and  C_29 
REMARK       I    between atoms: C_29  and  N_31 
REMARK    8  A    between atoms: N_31  and  C_32 
REMARK    9  A    between atoms: C_32  and  C_33 
ROOT
ATOM      1  C   LIG d   1       6.932  -9.807  -5.764  0.00  0.00     0.001 C 
ATOM      2  H   LIG d   1       7.008 -10.093  -6.813  0.00  0.00     0.033 H 
ATOM      3  H   LIG d   1       7.554 -10.468  -5.160  0.00  0.00     0.033 H 
ENDROOT
BRANCH   1   4
ATOM      4  C   LIG d   1       7.399  -8.384  -5.597  0.00  0.00     0.084 A 
ATOM      5  C   LIG d   1       6.802  -7.247  -6.172  0.00  0.00     0.005 A 
ATOM      6  C   LIG d   1       7.507  -6.165  -5.788  0.00  0.00     0.151 A 
ATOM      7  H   LIG d   1       5.930  -7.242  -6.808  0.00  0.00     0.067 H 
ATOM      8  O   LIG d   1       8.516  -6.583  -5.008  0.00  0.00    -0.358 OA
ATOM      9  N   LIG d   1       8.424  -7.991  -4.896  0.00  0.00    -0.083 NA
BRANCH   6  10
ATOM     10  C   LIG d   1       7.219  -4.737  -6.174  0.00  0.00     0.060 C 
ATOM     11  H   LIG d   1       6.523  -4.721  -7.012  0.00  0.00     0.051 H 
ATOM     12  H   LIG d   1       8.147  -4.245  -6.463  0.00  0.00     0.051 H 
BRANCH  10  13
ATOM     13  N   LIG d   1       6.625  -4.032  -5.030  0.00  0.00    -0.292 N 
ATOM     14  C   LIG d   1       7.339  -2.777  -4.756  0.00  0.00     0.015 C 
ATOM     15  C   LIG d   1       6.809  -2.166  -3.455  0.00  0.00     0.025 C 
ATOM     16  H   LIG d   1       7.177  -2.080  -5.578  0.00  0.00     0.044 H 
ATOM     17  H   LIG d   1       8.404  -2.981  -4.655  0.00  0.00     0.044 H 
ATOM     18  N   LIG d   1       5.347  -2.040  -3.559  0.00  0.00    -0.328 N 
ATOM     19  H   LIG d   1       7.251  -1.181  -3.306  0.00  0.00     0.048 H 
ATOM     20  H   LIG d   1       7.061  -2.814  -2.617  0.00  0.00     0.048 H 
ATOM     21  C   LIG d   1       4.573  -3.225  -3.959  0.00  0.00     0.025 C 
ATOM     22  C   LIG d   1       5.191  -3.794  -5.246  0.00  0.00     0.015 C 
ATOM     23  H   LIG d   1       4.615  -3.973  -3.167  0.00  0.00     0.048 H 
ATOM     24  H   LIG d   1       3.536  -2.940  -4.144  0.00  0.00     0.048 H 
ATOM     25  H   LIG d   1       5.060  -3.082  -6.062  0.00  0.00     0.044 H 
ATOM     26  H   LIG d   1       4.701  -4.733  -5.500  0.00  0.00     0.044 H 
BRANCH  18  27
ATOM     27  C   LIG d   1       4.710  -0.828  -3.282  0.00  0.00     0.030 A 
ATOM     28  C   LIG d   1       4.996  -0.144  -2.106  0.00  0.00    -0.041 A 
ATOM     29  C   LIG d   1       4.365   1.054  -1.836  0.00  0.00    -0.060 A 
ATOM     30  H   LIG d   1       5.709  -0.550  -1.405  0.00  0.00     0.064 H 
ATOM     31  C   LIG d   1       3.450   1.575  -2.734  0.00  0.00    -0.062 A 
ATOM     32  H   LIG d   1       4.586   1.586  -0.923  0.00  0.00     0.062 H 
ATOM     33  C   LIG d   1       3.165   0.896  -3.905  0.00  0.00    -0.060 A 
ATOM     34  H   LIG d   1       2.955   2.510  -2.518  0.00  0.00     0.062 H 
ATOM     35  C   LIG d   1       3.792  -0.302  -4.182  0.00  0.00    -0.041 A 
ATOM     36  H   LIG d   1       2.451   1.306  -4.604  0.00  0.00     0.062 H 
ATOM     37  H   LIG d   1       3.569  -0.831  -5.097  0.00  0.00     0.064 H 
ENDBRANCH  18  27
ENDBRANCH  10  13
ENDBRANCH   6  10
ENDBRANCH   1   4
BRANCH   1  38
ATOM     38  C   LIG d   1       5.475  -9.922  -5.310  0.00  0.00     0.008 C 
ATOM     39  H   LIG d   1       4.875  -9.165  -5.817  0.00  0.00     0.036 H 
ATOM     40  C   LIG d   1       5.392  -9.709  -3.796  0.00  0.00    -0.020 C 
ATOM     41  C   LIG d   1       3.943  -9.903  -3.341  0.00  0.00    -0.009 C 
ATOM     42  H   LIG d   1       5.719  -8.698  -3.551  0.00  0.00     0.031 H 
ATOM     43  C   LIG d   1       3.465 -11.296  -3.758  0.00  0.00    -0.033 C 
ATOM     44  H   LIG d   1       3.311  -9.148  -3.807  0.00  0.00     0.032 H 
ATOM     45  H   LIG d   1       3.886  -9.810  -2.257  0.00  0.00     0.032 H 
ATOM     46  N   LIG d   1       3.543 -11.427  -5.218  0.00  0.00     0.227 N 
ATOM     47  H   LIG d   1       2.433 -11.438  -3.437  0.00  0.00     0.081 H 
ATOM     48  H   LIG d   1       4.097 -12.052  -3.292  0.00  0.00     0.081 H 
ATOM     49  C   LIG d   1       4.940 -11.313  -5.655  0.00  0.00    -0.030 C 
ATOM     50  H   LIG d   1       2.997 -10.697  -5.651  0.00  0.00     0.201 HD
ATOM     51  H   LIG d   1       3.178 -12.326  -5.496  0.00  0.00     0.201 HD
ATOM     52  H   LIG d   1       4.998 -11.468  -6.732  0.00  0.00     0.082 H 
ATOM     53  H   LIG d   1       5.541 -12.069  -5.148  0.00  0.00     0.082 H 
BRANCH  40  54
ATOM     54  C   LIG d   1       6.291 -10.724  -3.087  0.00  0.00     0.027 C 
ATOM     55  H   LIG d   1       5.673 -11.455  -2.565  0.00  0.00     0.036 H 
ATOM     56  H   LIG d   1       6.914 -11.234  -3.821  0.00  0.00     0.036 H 
BRANCH  54  57
ATOM     57  C   LIG d   1       7.169 -10.008  -2.093  0.00  0.00     0.214 C 
ATOM     58  O   LIG d   1       6.691  -9.557  -1.075  0.00  0.00    -0.276 OA
ATOM     59  N   LIG d   1       8.488  -9.870  -2.337  0.00  0.00    -0.311 N 
ATOM     60  H   LIG d   1       8.871 -10.232  -3.152  0.00  0.00     0.149 HD
BRANCH  59  61
ATOM     61  C   LIG d   1       9.343  -9.174  -1.371  0.00  0.00     0.043 C 
ATOM     62  H   LIG d   1      10.169  -8.697  -1.897  0.00  0.00     0.052 H 
ATOM     63  H   LIG d   1       8.758  -8.417  -0.848  0.00  0.00     0.052 H 
BRANCH  61  64
ATOM     64  C   LIG d   1       9.886 -10.166  -0.376  0.00  0.00     0.007 A 
ATOM     65  S   LIG d   1       9.915 -11.949  -0.466  0.00  0.00    -0.100 SA
ATOM     66  C   LIG d   1      10.717 -12.268   1.097  0.00  0.00    -0.024 A 
ATOM     67  C   LIG d   1      10.899 -11.015   1.579  0.00  0.00    -0.054 A 
ATOM     68  H   LIG d   1      10.982 -13.214   1.544  0.00  0.00     0.069 H 
ATOM     69  C   LIG d   1      10.473  -9.937   0.825  0.00  0.00    -0.050 A 
ATOM     70  H   LIG d   1      11.371 -10.859   2.538  0.00  0.00     0.062 H 
ATOM     71  H   LIG d   1      10.607  -8.928   1.185  0.00  0.00     0.063 H 
ENDBRANCH  61  64
ENDBRANCH  59  61
ENDBRANCH  54  57
ENDBRANCH  40  54
ENDBRANCH   1  38
TORSDOF 9
ENDMDL
MODEL 6
REMARK VINA RESULT:      -6.9      4.179      8.738
REMARK  9 active torsions:
REMARK  status: ('A' for Active; 'I' for Inactive)
REMARK    1  A    between atoms: C_4  and  N_7 
REMARK    2  A    between atoms: N_10  and  C_13 
REMARK    3  A    between atoms: C_13  and  C_14 
REMARK    4  A    between atoms: C_16  and  C_19 
REMARK    5  A    between atoms: C_19  and  C_20 
REMARK    6  A    between atoms: C_26  and  C_28 
REMARK    7  A    between atoms: C_28  and  C_29 
REMARK       I    between atoms: C_29  and  N_31 
REMARK    8  A    between atoms: N_31  and  C_32 
REMARK    9  A    between atoms: C_32  and  C_33 
ROOT
ATOM      1  C   LIG d   1       9.550   6.133  -8.080  0.00  0.00     0.001 C 
ATOM      2  H   LIG d   1       9.102   5.877  -9.040  0.00  0.00     0.033 H 
ATOM      3  H   LIG d   1       8.771   6.461  -7.391  0.00  0.00     0.033 H 
ENDROOT
BRANCH   1   4
ATOM      4  C   LIG d   1      10.246   4.923  -7.513  0.00  0.00     0.084 A 
ATOM      5  C   LIG d   1       9.640   3.898  -6.764  0.00  0.00     0.005 A 
ATOM      6  C   LIG d   1      10.589   2.999  -6.441  0.00  0.00     0.151 A 
ATOM      7  H   LIG d   1       8.596   3.841  -6.495  0.00  0.00     0.067 H 
ATOM      8  O   LIG d   1      11.755   3.424  -6.950  0.00  0.00    -0.358 OA
ATOM      9  N   LIG d   1      11.512   4.643  -7.630  0.00  0.00    -0.083 NA
BRANCH   6  10
ATOM     10  C   LIG d   1      10.381   1.739  -5.640  0.00  0.00     0.060 C 
ATOM     11  H   LIG d   1      10.911   1.820  -4.691  0.00  0.00     0.051 H 
ATOM     12  H   LIG d   1      10.764   0.885  -6.198  0.00  0.00     0.051 H 
BRANCH  10  13
ATOM     13  N   LIG d   1       8.946   1.554  -5.384  0.00  0.00    -0.292 N 
ATOM     14  C   LIG d   1       8.469   0.287  -5.953  0.00  0.00     0.015 C 
ATOM     15  C   LIG d   1       6.943   0.216  -5.826  0.00  0.00     0.025 C 
ATOM     16  H   LIG d   1       8.918  -0.547  -5.413  0.00  0.00     0.044 H 
ATOM     17  H   LIG d   1       8.749   0.233  -7.005  0.00  0.00     0.044 H 
ATOM     18  N   LIG d   1       6.581   0.442  -4.418  0.00  0.00    -0.328 N 
ATOM     19  H   LIG d   1       6.594  -0.767  -6.140  0.00  0.00     0.048 H 
ATOM     20  H   LIG d   1       6.488   0.986  -6.448  0.00  0.00     0.048 H 
ATOM     21  C   LIG d   1       7.131   1.625  -3.738  0.00  0.00     0.025 C 
ATOM     22  C   LIG d   1       8.653   1.637  -3.946  0.00  0.00     0.015 C 
ATOM     23  H   LIG d   1       6.692   2.528  -4.165  0.00  0.00     0.048 H 
ATOM     24  H   LIG d   1       6.905   1.573  -2.673  0.00  0.00     0.048 H 
ATOM     25  H   LIG d   1       9.100   0.785  -3.434  0.00  0.00     0.044 H 
ATOM     26  H   LIG d   1       9.066   2.561  -3.544  0.00  0.00     0.044 H 
BRANCH  18  27
ATOM     27  C   LIG d   1       5.734  -0.443  -3.745  0.00  0.00     0.030 A 
ATOM     28  C   LIG d   1       5.465  -1.695  -4.284  0.00  0.00    -0.041 A 
ATOM     29  C   LIG d   1       4.628  -2.567  -3.615  0.00  0.00    -0.060 A 
ATOM     30  H   LIG d   1       5.908  -1.985  -5.224  0.00  0.00     0.064 H 
ATOM     31  C   LIG d   1       4.058  -2.195  -2.410  0.00  0.00    -0.062 A 
ATOM     32  H   LIG d   1       4.418  -3.540  -4.033  0.00  0.00     0.062 H 
ATOM     33  C   LIG d   1       4.326  -0.949  -1.872  0.00  0.00    -0.060 A 
ATOM     34  H   LIG d   1       3.401  -2.877  -1.892  0.00  0.00     0.062 H 
ATOM     35  C   LIG d   1       5.161  -0.073  -2.535  0.00  0.00    -0.041 A 
ATOM     36  H   LIG d   1       3.880  -0.663  -0.930  0.00  0.00     0.062 H 
ATOM     37  H   LIG d   1       5.370   0.900  -2.113  0.00  0.00     0.064 H 
ENDBRANCH  18  27
ENDBRANCH  10  13
ENDBRANCH   6  10
ENDBRANCH   1   4
BRANCH   1  38
ATOM     38  C   LIG d   1      10.566   7.260  -8.276  0.00  0.00     0.008 C 
ATOM     39  H   LIG d   1      11.529   6.836  -8.561  0.00  0.00     0.036 H 
ATOM     40  C   LIG d   1      10.718   8.046  -6.972  0.00  0.00    -0.020 C 
ATOM     41  C   LIG d   1      11.677   9.218  -7.201  0.00  0.00    -0.009 C 
ATOM     42  H   LIG d   1      11.121   7.392  -6.197  0.00  0.00     0.031 H 
ATOM     43  C   LIG d   1      11.146  10.088  -8.343  0.00  0.00    -0.033 C 
ATOM     44  H   LIG d   1      12.663   8.835  -7.463  0.00  0.00     0.032 H 
ATOM     45  H   LIG d   1      11.746   9.815  -6.291  0.00  0.00     0.032 H 
ATOM     46  N   LIG d   1      11.050   9.286  -9.569  0.00  0.00     0.227 N 
ATOM     47  H   LIG d   1      11.827  10.923  -8.510  0.00  0.00     0.081 H 
ATOM     48  H   LIG d   1      10.160  10.471  -8.081  0.00  0.00     0.081 H 
ATOM     49  C   LIG d   1      10.077   8.202  -9.379  0.00  0.00    -0.030 C 
ATOM     50  H   LIG d   1      11.953   8.891  -9.785  0.00  0.00     0.201 HD
ATOM     51  H   LIG d   1      10.750   9.874 -10.333  0.00  0.00     0.201 HD
ATOM     52  H   LIG d   1       9.968   7.646 -10.310  0.00  0.00     0.082 H 
ATOM     53  H   LIG d   1       9.113   8.626  -9.095  0.00  0.00     0.082 H 
BRANCH  40  54
ATOM     54  C   LIG d   1       9.353   8.580  -6.534  0.00  0.00     0.027 C 
ATOM     55  H   LIG d   1       9.000   9.313  -7.259  0.00  0.00     0.036 H 
ATOM     56  H   LIG d   1       8.642   7.756  -6.473  0.00  0.00     0.036 H 
BRANCH  54  57
ATOM     57  C   LIG d   1       9.480   9.234  -5.182  0.00  0.00     0.214 C 
ATOM     58  O   LIG d   1       9.201  10.405  -5.045  0.00  0.00    -0.276 OA
ATOM     59  N   LIG d   1       9.904   8.514  -4.123  0.00  0.00    -0.311 N 
ATOM     60  H   LIG d   1      10.127   7.576  -4.232  0.00  0.00     0.149 HD
BRANCH  59  61
ATOM     61  C   LIG d   1      10.028   9.149  -2.808  0.00  0.00     0.043 C 
ATOM     62  H   LIG d   1      10.847   9.868  -2.828  0.00  0.00     0.052 H 
ATOM     63  H   LIG d   1       9.098   9.663  -2.564  0.00  0.00     0.052 H 
BRANCH  61  64
ATOM     64  C   LIG d   1      10.308   8.097  -1.767  0.00  0.00     0.007 A 
ATOM     65  S   LIG d   1      10.978   8.290  -0.123  0.00  0.00    -0.100 SA
ATOM     66  C   LIG d   1      10.957   6.572   0.361  0.00  0.00    -0.024 A 
ATOM     67  C   LIG d   1      10.457   5.974  -0.747  0.00  0.00    -0.054 A 
ATOM     68  H   LIG d   1      11.268   6.125   1.294  0.00  0.00     0.069 H 
ATOM     69  C   LIG d   1      10.124   6.755  -1.838  0.00  0.00    -0.050 A 
ATOM     70  H   LIG d   1      10.318   4.903  -0.778  0.00  0.00     0.062 H 
ATOM     71  H   LIG d   1       9.723   6.304  -2.733  0.00  0.00     0.063 H 
ENDBRANCH  61  64
ENDBRANCH  59  61
ENDBRANCH  54  57
ENDBRANCH  40  54
ENDBRANCH   1  38
TORSDOF 9
ENDMDL
MODEL 7
REMARK VINA RESULT:      -6.8      5.520      7.160
REMARK  9 active torsions:
REMARK  status: ('A' for Active; 'I' for Inactive)
REMARK    1  A    between atoms: C_4  and  N_7 
REMARK    2  A    between atoms: N_10  and  C_13 
REMARK    3  A    between atoms: C_13  and  C_14 
REMARK    4  A    between atoms: C_16  and  C_19 
REMARK    5  A    between atoms: C_19  and  C_20 
REMARK    6  A    between atoms: C_26  and  C_28 
REMARK    7  A    between atoms: C_28  and  C_29 
REMARK       I    between atoms: C_29  and  N_31 
REMARK    8  A    between atoms: N_31  and  C_32 
REMARK    9  A    between atoms: C_32  and  C_33 
ROOT
ATOM      1  C   LIG d   1       5.712  -0.708 -10.283  0.00  0.00     0.001 C 
ATOM      2  H   LIG d   1       6.555  -0.145 -10.682  0.00  0.00     0.033 H 
ATOM      3  H   LIG d   1       5.041  -0.984 -11.096  0.00  0.00     0.033 H 
ENDROOT
BRANCH   1   4
ATOM      4  C   LIG d   1       6.217  -1.953  -9.602  0.00  0.00     0.084 A 
ATOM      5  C   LIG d   1       7.051  -1.994  -8.470  0.00  0.00     0.005 A 
ATOM      6  C   LIG d   1       7.279  -3.286  -8.164  0.00  0.00     0.151 A 
ATOM      7  H   LIG d   1       7.440  -1.139  -7.937  0.00  0.00     0.067 H 
ATOM      8  O   LIG d   1       6.630  -4.045  -9.060  0.00  0.00    -0.358 OA
ATOM      9  N   LIG d   1       5.959  -3.179  -9.958  0.00  0.00    -0.083 NA
BRANCH   6  10
ATOM     10  C   LIG d   1       8.123  -3.791  -7.023  0.00  0.00     0.060 C 
ATOM     11  H   LIG d   1       9.103  -3.313  -7.055  0.00  0.00     0.051 H 
ATOM     12  H   LIG d   1       8.243  -4.871  -7.108  0.00  0.00     0.051 H 
BRANCH  10  13
ATOM     13  N   LIG d   1       7.465  -3.471  -5.749  0.00  0.00    -0.292 N 
ATOM     14  C   LIG d   1       7.976  -2.209  -5.195  0.00  0.00     0.015 C 
ATOM     15  C   LIG d   1       7.403  -2.004  -3.788  0.00  0.00     0.025 C 
ATOM     16  H   LIG d   1       7.673  -1.381  -5.836  0.00  0.00     0.044 H 
ATOM     17  H   LIG d   1       9.064  -2.250  -5.142  0.00  0.00     0.044 H 
ATOM     18  N   LIG d   1       5.937  -2.103  -3.863  0.00  0.00    -0.328 N 
ATOM     19  H   LIG d   1       7.685  -1.018  -3.418  0.00  0.00     0.048 H 
ATOM     20  H   LIG d   1       7.787  -2.774  -3.120  0.00  0.00     0.048 H 
ATOM     21  C   LIG d   1       5.351  -3.279  -4.524  0.00  0.00     0.025 C 
ATOM     22  C   LIG d   1       6.005  -3.432  -5.906  0.00  0.00     0.015 C 
ATOM     23  H   LIG d   1       5.543  -4.169  -3.924  0.00  0.00     0.048 H 
ATOM     24  H   LIG d   1       4.276  -3.137  -4.639  0.00  0.00     0.048 H 
ATOM     25  H   LIG d   1       5.730  -2.586  -6.537  0.00  0.00     0.044 H 
ATOM     26  H   LIG d   1       5.664  -4.357  -6.368  0.00  0.00     0.044 H 
BRANCH  18  27
ATOM     27  C   LIG d   1       5.123  -1.108  -3.316  0.00  0.00     0.030 A 
ATOM     28  C   LIG d   1       3.740  -1.247  -3.341  0.00  0.00    -0.041 A 
ATOM     29  C   LIG d   1       2.939  -0.262  -2.799  0.00  0.00    -0.060 A 
ATOM     30  H   LIG d   1       3.294  -2.124  -3.785  0.00  0.00     0.064 H 
ATOM     31  C   LIG d   1       3.511   0.863  -2.231  0.00  0.00    -0.062 A 
ATOM     32  H   LIG d   1       1.865  -0.369  -2.818  0.00  0.00     0.062 H 
ATOM     33  C   LIG d   1       4.886   1.003  -2.204  0.00  0.00    -0.060 A 
ATOM     34  H   LIG d   1       2.882   1.634  -1.812  0.00  0.00     0.062 H 
ATOM     35  C   LIG d   1       5.693   0.023  -2.744  0.00  0.00    -0.041 A 
ATOM     36  H   LIG d   1       5.329   1.883  -1.759  0.00  0.00     0.062 H 
ATOM     37  H   LIG d   1       6.768   0.133  -2.722  0.00  0.00     0.064 H 
ENDBRANCH  18  27
ENDBRANCH  10  13
ENDBRANCH   6  10
ENDBRANCH   1   4
BRANCH   1  38
ATOM     38  C   LIG d   1       4.957   0.156  -9.270  0.00  0.00     0.008 C 
ATOM     39  H   LIG d   1       5.489   0.149  -8.318  0.00  0.00     0.036 H 
ATOM     40  C   LIG d   1       3.546  -0.404  -9.071  0.00  0.00    -0.020 C 
ATOM     41  C   LIG d   1       2.773   0.511  -8.116  0.00  0.00    -0.009 C 
ATOM     42  H   LIG d   1       3.608  -1.406  -8.645  0.00  0.00     0.031 H 
ATOM     43  C   LIG d   1       2.759   1.933  -8.682  0.00  0.00    -0.033 C 
ATOM     44  H   LIG d   1       3.259   0.512  -7.141  0.00  0.00     0.032 H 
ATOM     45  H   LIG d   1       1.750   0.150  -8.014  0.00  0.00     0.032 H 
ATOM     46  N   LIG d   1       4.136   2.421  -8.822  0.00  0.00     0.227 N 
ATOM     47  H   LIG d   1       2.210   2.588  -8.004  0.00  0.00     0.081 H 
ATOM     48  H   LIG d   1       2.273   1.932  -9.657  0.00  0.00     0.081 H 
ATOM     49  C   LIG d   1       4.862   1.591  -9.792  0.00  0.00    -0.030 C 
ATOM     50  H   LIG d   1       4.602   2.377  -7.928  0.00  0.00     0.201 HD
ATOM     51  H   LIG d   1       4.122   3.378  -9.145  0.00  0.00     0.201 HD
ATOM     52  H   LIG d   1       5.865   1.993  -9.935  0.00  0.00     0.082 H 
ATOM     53  H   LIG d   1       4.330   1.597 -10.744  0.00  0.00     0.082 H 
BRANCH  40  54
ATOM     54  C   LIG d   1       2.824  -0.463 -10.418  0.00  0.00     0.027 C 
ATOM     55  H   LIG d   1       2.040   0.293 -10.444  0.00  0.00     0.036 H 
ATOM     56  H   LIG d   1       3.536  -0.276 -11.221  0.00  0.00     0.036 H 
BRANCH  54  57
ATOM     57  C   LIG d   1       2.211  -1.828 -10.600  0.00  0.00     0.214 C 
ATOM     58  O   LIG d   1       1.238  -1.967 -11.309  0.00  0.00    -0.276 OA
ATOM     59  N   LIG d   1       2.747  -2.895  -9.973  0.00  0.00    -0.311 N 
ATOM     60  H   LIG d   1       3.526  -2.785  -9.407  0.00  0.00     0.149 HD
BRANCH  59  61
ATOM     61  C   LIG d   1       2.152  -4.223 -10.150  0.00  0.00     0.043 C 
ATOM     62  H   LIG d   1       1.115  -4.203  -9.816  0.00  0.00     0.052 H 
ATOM     63  H   LIG d   1       2.189  -4.501 -11.203  0.00  0.00     0.052 H 
BRANCH  61  64
ATOM     64  C   LIG d   1       2.922  -5.230  -9.337  0.00  0.00     0.007 A 
ATOM     65  S   LIG d   1       3.294  -6.935  -9.716  0.00  0.00    -0.100 SA
ATOM     66  C   LIG d   1       4.213  -7.328  -8.237  0.00  0.00    -0.024 A 
ATOM     67  C   LIG d   1       4.169  -6.155  -7.559  0.00  0.00    -0.054 A 
ATOM     68  H   LIG d   1       4.678  -8.260  -7.953  0.00  0.00     0.069 H 
ATOM     69  C   LIG d   1       3.508  -5.079  -8.123  0.00  0.00    -0.050 A 
ATOM     70  H   LIG d   1       4.645  -6.061  -6.595  0.00  0.00     0.062 H 
ATOM     71  H   LIG d   1       3.459  -4.133  -7.605  0.00  0.00     0.063 H 
ENDBRANCH  61  64
ENDBRANCH  59  61
ENDBRANCH  54  57
ENDBRANCH  40  54
ENDBRANCH   1  38
TORSDOF 9
ENDMDL
MODEL 8
REMARK VINA RESULT:      -6.8      1.854      2.254
REMARK  9 active torsions:
REMARK  status: ('A' for Active; 'I' for Inactive)
REMARK    1  A    between atoms: C_4  and  N_7 
REMARK    2  A    between atoms: N_10  and  C_13 
REMARK    3  A    between atoms: C_13  and  C_14 
REMARK    4  A    between atoms: C_16  and  C_19 
REMARK    5  A    between atoms: C_19  and  C_20 
REMARK    6  A    between atoms: C_26  and  C_28 
REMARK    7  A    between atoms: C_28  and  C_29 
REMARK       I    between atoms: C_29  and  N_31 
REMARK    8  A    between atoms: N_31  and  C_32 
REMARK    9  A    between atoms: C_32  and  C_33 
ROOT
ATOM      1  C   LIG d   1       6.972   0.295  -9.372  0.00  0.00     0.001 C 
ATOM      2  H   LIG d   1       7.382   0.478 -10.365  0.00  0.00     0.033 H 
ATOM      3  H   LIG d   1       6.871  -0.779  -9.213  0.00  0.00     0.033 H 
ENDROOT
BRANCH   1   4
ATOM      4  C   LIG d   1       7.895   0.874  -8.332  0.00  0.00     0.084 A 
ATOM      5  C   LIG d   1       8.459   2.162  -8.355  0.00  0.00     0.005 A 
ATOM      6  C   LIG d   1       9.223   2.304  -7.254  0.00  0.00     0.151 A 
ATOM      7  H   LIG d   1       8.304   2.909  -9.119  0.00  0.00     0.067 H 
ATOM      8  O   LIG d   1       9.164   1.159  -6.557  0.00  0.00    -0.358 OA
ATOM      9  N   LIG d   1       8.312   0.270  -7.256  0.00  0.00    -0.083 NA
BRANCH   6  10
ATOM     10  C   LIG d   1      10.015   3.530  -6.877  0.00  0.00     0.060 C 
ATOM     11  H   LIG d   1       9.824   4.323  -7.601  0.00  0.00     0.051 H 
ATOM     12  H   LIG d   1      11.078   3.290  -6.874  0.00  0.00     0.051 H 
BRANCH  10  13
ATOM     13  N   LIG d   1       9.611   3.981  -5.539  0.00  0.00    -0.292 N 
ATOM     14  C   LIG d   1      10.341   3.250  -4.494  0.00  0.00     0.015 C 
ATOM     15  C   LIG d   1       9.764   3.616  -3.122  0.00  0.00     0.025 C 
ATOM     16  H   LIG d   1      11.396   3.522  -4.530  0.00  0.00     0.044 H 
ATOM     17  H   LIG d   1      10.235   2.179  -4.659  0.00  0.00     0.044 H 
ATOM     18  N   LIG d   1       9.780   5.081  -2.984  0.00  0.00    -0.328 N 
ATOM     19  H   LIG d   1      10.374   3.169  -2.337  0.00  0.00     0.048 H 
ATOM     20  H   LIG d   1       8.740   3.253  -3.047  0.00  0.00     0.048 H 
ATOM     21  C   LIG d   1       9.182   5.888  -4.060  0.00  0.00     0.025 C 
ATOM     22  C   LIG d   1       9.786   5.432  -5.398  0.00  0.00     0.015 C 
ATOM     23  H   LIG d   1       8.102   5.738  -4.072  0.00  0.00     0.048 H 
ATOM     24  H   LIG d   1       9.406   6.942  -3.895  0.00  0.00     0.048 H 
ATOM     25  H   LIG d   1      10.849   5.674  -5.420  0.00  0.00     0.044 H 
ATOM     26  H   LIG d   1       9.279   5.942  -6.216  0.00  0.00     0.044 H 
BRANCH  18  27
ATOM     27  C   LIG d   1      10.343   5.689  -1.860  0.00  0.00     0.030 A 
ATOM     28  C   LIG d   1      11.405   5.083  -1.199  0.00  0.00    -0.041 A 
ATOM     29  C   LIG d   1      11.960   5.689  -0.089  0.00  0.00    -0.060 A 
ATOM     30  H   LIG d   1      11.794   4.141  -1.552  0.00  0.00     0.064 H 
ATOM     31  C   LIG d   1      11.461   6.897   0.365  0.00  0.00    -0.062 A 
ATOM     32  H   LIG d   1      12.784   5.218   0.426  0.00  0.00     0.062 H 
ATOM     33  C   LIG d   1      10.406   7.502  -0.292  0.00  0.00    -0.060 A 
ATOM     34  H   LIG d   1      11.895   7.366   1.236  0.00  0.00     0.062 H 
ATOM     35  C   LIG d   1       9.846   6.903  -1.402  0.00  0.00    -0.041 A 
ATOM     36  H   LIG d   1      10.020   8.446   0.065  0.00  0.00     0.062 H 
ATOM     37  H   LIG d   1       9.022   7.377  -1.916  0.00  0.00     0.064 H 
ENDBRANCH  18  27
ENDBRANCH  10  13
ENDBRANCH   6  10
ENDBRANCH   1   4
BRANCH   1  38
ATOM     38  C   LIG d   1       5.598   0.959  -9.259  0.00  0.00     0.008 C 
ATOM     39  H   LIG d   1       5.723   2.031  -9.102  0.00  0.00     0.036 H 
ATOM     40  C   LIG d   1       4.832   0.355  -8.079  0.00  0.00    -0.020 C 
ATOM     41  C   LIG d   1       3.431   0.970  -8.023  0.00  0.00    -0.009 C 
ATOM     42  H   LIG d   1       5.363   0.572  -7.151  0.00  0.00     0.031 H 
ATOM     43  C   LIG d   1       2.721   0.731  -9.358  0.00  0.00    -0.033 C 
ATOM     44  H   LIG d   1       3.511   2.041  -7.840  0.00  0.00     0.032 H 
ATOM     45  H   LIG d   1       2.860   0.504  -7.220  0.00  0.00     0.032 H 
ATOM     46  N   LIG d   1       3.488   1.356 -10.442  0.00  0.00     0.227 N 
ATOM     47  H   LIG d   1       1.723   1.169  -9.322  0.00  0.00     0.081 H 
ATOM     48  H   LIG d   1       2.641  -0.340  -9.541  0.00  0.00     0.081 H 
ATOM     49  C   LIG d   1       4.808   0.722 -10.548  0.00  0.00    -0.030 C 
ATOM     50  H   LIG d   1       3.604   2.340 -10.249  0.00  0.00     0.201 HD
ATOM     51  H   LIG d   1       2.992   1.243 -11.314  0.00  0.00     0.201 HD
ATOM     52  H   LIG d   1       5.350   1.150 -11.391  0.00  0.00     0.082 H 
ATOM     53  H   LIG d   1       4.683  -0.351 -10.706  0.00  0.00     0.082 H 
BRANCH  40  54
ATOM     54  C   LIG d   1       4.719  -1.159  -8.264  0.00  0.00     0.027 C 
ATOM     55  H   LIG d   1       3.702  -1.414  -8.561  0.00  0.00     0.036 H 
ATOM     56  H   LIG d   1       5.416  -1.485  -9.036  0.00  0.00     0.036 H 
BRANCH  54  57
ATOM     57  C   LIG d   1       5.050  -1.849  -6.966  0.00  0.00     0.214 C 
ATOM     58  O   LIG d   1       4.495  -2.886  -6.670  0.00  0.00    -0.276 OA
ATOM     59  N   LIG d   1       5.965  -1.314  -6.133  0.00  0.00    -0.311 N 
ATOM     60  H   LIG d   1       6.411  -0.485  -6.370  0.00  0.00     0.149 HD
BRANCH  59  61
ATOM     61  C   LIG d   1       6.288  -1.985  -4.870  0.00  0.00     0.043 C 
ATOM     62  H   LIG d   1       5.938  -3.016  -4.908  0.00  0.00     0.052 H 
ATOM     63  H   LIG d   1       7.368  -1.973  -4.718  0.00  0.00     0.052 H 
BRANCH  61  64
ATOM     64  C   LIG d   1       5.613  -1.264  -3.733  0.00  0.00     0.007 A 
ATOM     65  S   LIG d   1       5.874   0.400  -3.142  0.00  0.00    -0.100 SA
ATOM     66  C   LIG d   1       4.679   0.387  -1.815  0.00  0.00    -0.024 A 
ATOM     67  C   LIG d   1       4.176  -0.869  -1.903  0.00  0.00    -0.054 A 
ATOM     68  H   LIG d   1       4.428   1.172  -1.118  0.00  0.00     0.069 H 
ATOM     69  C   LIG d   1       4.654  -1.715  -2.887  0.00  0.00    -0.050 A 
ATOM     70  H   LIG d   1       3.411  -1.202  -1.218  0.00  0.00     0.062 H 
ATOM     71  H   LIG d   1       4.269  -2.719  -2.980  0.00  0.00     0.063 H 
ENDBRANCH  61  64
ENDBRANCH  59  61
ENDBRANCH  54  57
ENDBRANCH  40  54
ENDBRANCH   1  38
TORSDOF 9
ENDMDL
MODEL 9
REMARK VINA RESULT:      -6.8      6.104      9.341
REMARK  9 active torsions:
REMARK  status: ('A' for Active; 'I' for Inactive)
REMARK    1  A    between atoms: C_4  and  N_7 
REMARK    2  A    between atoms: N_10  and  C_13 
REMARK    3  A    between atoms: C_13  and  C_14 
REMARK    4  A    between atoms: C_16  and  C_19 
REMARK    5  A    between atoms: C_19  and  C_20 
REMARK    6  A    between atoms: C_26  and  C_28 
REMARK    7  A    between atoms: C_28  and  C_29 
REMARK       I    between atoms: C_29  and  N_31 
REMARK    8  A    between atoms: N_31  and  C_32 
REMARK    9  A    between atoms: C_32  and  C_33 
ROOT
ATOM      1  C   LIG d   1       0.593  -1.812 -12.429  0.00  0.00     0.001 C 
ATOM      2  H   LIG d   1      -0.098  -1.753 -11.588  0.00  0.00     0.033 H 
ATOM      3  H   LIG d   1       0.181  -1.265 -13.278  0.00  0.00     0.033 H 
ENDROOT
BRANCH   1   4
ATOM      4  C   LIG d   1       1.916  -1.209 -12.036  0.00  0.00     0.084 A 
ATOM      5  C   LIG d   1       2.208  -0.591 -10.806  0.00  0.00     0.005 A 
ATOM      6  C   LIG d   1       3.492  -0.183 -10.838  0.00  0.00     0.151 A 
ATOM      7  H   LIG d   1       1.524  -0.468  -9.981  0.00  0.00     0.067 H 
ATOM      8  O   LIG d   1       4.003  -0.513 -12.034  0.00  0.00    -0.358 OA
ATOM      9  N   LIG d   1       2.989  -1.168 -12.773  0.00  0.00    -0.083 NA
BRANCH   6  10
ATOM     10  C   LIG d   1       4.222   0.530  -9.729  0.00  0.00     0.060 C 
ATOM     11  H   LIG d   1       3.953   1.586  -9.737  0.00  0.00     0.051 H 
ATOM     12  H   LIG d   1       5.297   0.428  -9.877  0.00  0.00     0.051 H 
BRANCH  10  13
ATOM     13  N   LIG d   1       3.847  -0.061  -8.437  0.00  0.00    -0.292 N 
ATOM     14  C   LIG d   1       5.031  -0.555  -7.720  0.00  0.00     0.015 C 
ATOM     15  C   LIG d   1       4.584  -1.322  -6.471  0.00  0.00     0.025 C 
ATOM     16  H   LIG d   1       5.655   0.289  -7.426  0.00  0.00     0.044 H 
ATOM     17  H   LIG d   1       5.599  -1.219  -8.371  0.00  0.00     0.044 H 
ATOM     18  N   LIG d   1       3.695  -0.454  -5.683  0.00  0.00    -0.328 N 
ATOM     19  H   LIG d   1       5.456  -1.591  -5.875  0.00  0.00     0.048 H 
ATOM     20  H   LIG d   1       4.046  -2.222  -6.767  0.00  0.00     0.048 H 
ATOM     21  C   LIG d   1       2.560   0.184  -6.366  0.00  0.00     0.025 C 
ATOM     22  C   LIG d   1       3.089   0.897  -7.621  0.00  0.00     0.015 C 
ATOM     23  H   LIG d   1       1.832  -0.575  -6.652  0.00  0.00     0.048 H 
ATOM     24  H   LIG d   1       2.093   0.911  -5.700  0.00  0.00     0.048 H 
ATOM     25  H   LIG d   1       3.741   1.720  -7.327  0.00  0.00     0.044 H 
ATOM     26  H   LIG d   1       2.251   1.284  -8.199  0.00  0.00     0.044 H 
BRANCH  18  27
ATOM     27  C   LIG d   1       3.922  -0.244  -4.321  0.00  0.00     0.030 A 
ATOM     28  C   LIG d   1       3.535   0.951  -3.726  0.00  0.00    -0.041 A 
ATOM     29  C   LIG d   1       3.760   1.154  -2.379  0.00  0.00    -0.060 A 
ATOM     30  H   LIG d   1       3.060   1.719  -4.316  0.00  0.00     0.064 H 
ATOM     31  C   LIG d   1       4.369   0.170  -1.621  0.00  0.00    -0.062 A 
ATOM     32  H   LIG d   1       3.460   2.082  -1.916  0.00  0.00     0.062 H 
ATOM     33  C   LIG d   1       4.755  -1.021  -2.210  0.00  0.00    -0.060 A 
ATOM     34  H   LIG d   1       4.548   0.333  -0.569  0.00  0.00     0.062 H 
ATOM     35  C   LIG d   1       4.533  -1.230  -3.556  0.00  0.00    -0.041 A 
ATOM     36  H   LIG d   1       5.230  -1.787  -1.615  0.00  0.00     0.062 H 
ATOM     37  H   LIG d   1       4.834  -2.161  -4.016  0.00  0.00     0.064 H 
ENDBRANCH  18  27
ENDBRANCH  10  13
ENDBRANCH   6  10
ENDBRANCH   1   4
BRANCH   1  38
ATOM     38  C   LIG d   1       0.796  -3.278 -12.818  0.00  0.00     0.008 C 
ATOM     39  H   LIG d   1       1.646  -3.360 -13.496  0.00  0.00     0.036 H 
ATOM     40  C   LIG d   1      -0.464  -3.804 -13.511  0.00  0.00    -0.020 C 
ATOM     41  C   LIG d   1      -0.280  -5.291 -13.826  0.00  0.00    -0.009 C 
ATOM     42  H   LIG d   1      -0.626  -3.253 -14.438  0.00  0.00     0.031 H 
ATOM     43  C   LIG d   1       0.028  -6.047 -12.530  0.00  0.00    -0.033 C 
ATOM     44  H   LIG d   1       0.547  -5.416 -14.524  0.00  0.00     0.032 H 
ATOM     45  H   LIG d   1      -1.194  -5.686 -14.268  0.00  0.00     0.032 H 
ATOM     46  N   LIG d   1       1.258  -5.516 -11.931  0.00  0.00     0.227 N 
ATOM     47  H   LIG d   1       0.160  -7.106 -12.750  0.00  0.00     0.081 H 
ATOM     48  H   LIG d   1      -0.799  -5.922 -11.832  0.00  0.00     0.081 H 
ATOM     49  C   LIG d   1       1.065  -4.108 -11.561  0.00  0.00    -0.030 C 
ATOM     50  H   LIG d   1       2.014  -5.586 -12.595  0.00  0.00     0.201 HD
ATOM     51  H   LIG d   1       1.487  -6.050 -11.106  0.00  0.00     0.201 HD
ATOM     52  H   LIG d   1       1.961  -3.737 -11.064  0.00  0.00     0.082 H 
ATOM     53  H   LIG d   1       0.214  -4.025 -10.882  0.00  0.00     0.082 H 
BRANCH  40  54
ATOM     54  C   LIG d   1      -1.669  -3.622 -12.587  0.00  0.00     0.027 C 
ATOM     55  H   LIG d   1      -2.084  -4.597 -12.334  0.00  0.00     0.036 H 
ATOM     56  H   LIG d   1      -1.357  -3.112 -11.677  0.00  0.00     0.036 H 
BRANCH  54  57
ATOM     57  C   LIG d   1      -2.719  -2.798 -13.289  0.00  0.00     0.214 C 
ATOM     58  O   LIG d   1      -2.873  -2.904 -14.486  0.00  0.00    -0.276 OA
ATOM     59  N   LIG d   1      -3.487  -1.944 -12.583  0.00  0.00    -0.311 N 
ATOM     60  H   LIG d   1      -3.365  -1.860 -11.624  0.00  0.00     0.149 HD
BRANCH  59  61
ATOM     61  C   LIG d   1      -4.508  -1.143 -13.264  0.00  0.00     0.043 C 
ATOM     62  H   LIG d   1      -4.624  -1.498 -14.288  0.00  0.00     0.052 H 
ATOM     63  H   LIG d   1      -5.457  -1.238 -12.736  0.00  0.00     0.052 H 
BRANCH  61  64
ATOM     64  C   LIG d   1      -4.084   0.303 -13.279  0.00  0.00     0.007 A 
ATOM     65  S   LIG d   1      -5.060   1.765 -12.968  0.00  0.00    -0.100 SA
ATOM     66  C   LIG d   1      -3.773   2.981 -13.196  0.00  0.00    -0.024 A 
ATOM     67  C   LIG d   1      -2.704   2.205 -13.497  0.00  0.00    -0.054 A 
ATOM     68  H   LIG d   1      -3.832   4.056 -13.119  0.00  0.00     0.069 H 
ATOM     69  C   LIG d   1      -2.863   0.832 -13.540  0.00  0.00    -0.050 A 
ATOM     70  H   LIG d   1      -1.742   2.651 -13.699  0.00  0.00     0.062 H 
ATOM     71  H   LIG d   1      -2.027   0.190 -13.777  0.00  0.00     0.063 H 
ENDBRANCH  61  64
ENDBRANCH  59  61
ENDBRANCH  54  57
ENDBRANCH  40  54
ENDBRANCH   1  38
TORSDOF 9
ENDMDL
