MODEL 1
REMARK VINA RESULT:      -5.4      0.000      0.000
REMARK  0 active torsions:
REMARK  status: ('A' for Active; 'I' for Inactive)
ROOT
ATOM      1  C   LIG d   1       4.805   1.073  -2.229  0.00  0.00    -0.061 A 
ATOM      2  C   LIG d   1       3.440   0.880  -2.399  0.00  0.00    -0.060 A 
ATOM      3  C   LIG d   1       2.962  -0.266  -2.993  0.00  0.00    -0.038 A 
ATOM      4  C   LIG d   1       3.851  -1.243  -3.427  0.00  0.00     0.048 A 
ATOM      5  C   LIG d   1       5.233  -1.044  -3.252  0.00  0.00     0.018 A 
ATOM      6  C   LIG d   1       5.697   0.127  -2.648  0.00  0.00    -0.051 A 
ATOM      7  C   LIG d   1       5.888  -2.233  -3.803  0.00  0.00     0.066 A 
ATOM      8  C   LIG d   1       4.916  -3.041  -4.257  0.00  0.00     0.021 A 
ATOM      9  N   LIG d   1       3.692  -2.466  -4.040  0.00  0.00    -0.359 N 
ATOM     10  H   LIG d   1       2.840  -2.861  -4.283  0.00  0.00     0.165 HD
ATOM     11 CL   LIG d   1       7.596  -2.536  -3.866  0.00  0.00    -0.081 Cl
ATOM     12  H   LIG d   1       5.164   1.978  -1.761  0.00  0.00     0.062 H 
ATOM     13  H   LIG d   1       2.747   1.638  -2.062  0.00  0.00     0.062 H 
ATOM     14  H   LIG d   1       1.898  -0.406  -3.120  0.00  0.00     0.064 H 
ATOM     15  H   LIG d   1       6.757   0.283  -2.511  0.00  0.00     0.062 H 
ATOM     16  H   LIG d   1       5.075  -4.002  -4.723  0.00  0.00     0.082 H 
ENDROOT
TORSDOF 0
ENDMDL
MODEL 2
REMARK VINA RESULT:      -5.3      1.608      2.279
REMARK  0 active torsions:
REMARK  status: ('A' for Active; 'I' for Inactive)
ROOT
ATOM      1  C   LIG d   1       2.982   0.049  -2.704  0.00  0.00    -0.061 A 
ATOM      2  C   LIG d   1       3.869   1.009  -2.235  0.00  0.00    -0.060 A 
ATOM      3  C   LIG d   1       5.228   0.821  -2.340  0.00  0.00    -0.038 A 
ATOM      4  C   LIG d   1       5.722  -0.343  -2.921  0.00  0.00     0.048 A 
ATOM      5  C   LIG d   1       4.820  -1.312  -3.395  0.00  0.00     0.018 A 
ATOM      6  C   LIG d   1       3.445  -1.101  -3.278  0.00  0.00    -0.051 A 
ATOM      7  C   LIG d   1       5.640  -2.397  -3.941  0.00  0.00     0.066 A 
ATOM      8  C   LIG d   1       6.924  -2.040  -3.774  0.00  0.00     0.021 A 
ATOM      9  N   LIG d   1       6.992  -0.815  -3.166  0.00  0.00    -0.359 N 
ATOM     10  H   LIG d   1       7.813  -0.349  -2.942  0.00  0.00     0.165 HD
ATOM     11 CL   LIG d   1       5.063  -3.868  -4.660  0.00  0.00    -0.081 Cl
ATOM     12  H   LIG d   1       1.918   0.213  -2.615  0.00  0.00     0.062 H 
ATOM     13  H   LIG d   1       3.487   1.914  -1.783  0.00  0.00     0.062 H 
ATOM     14  H   LIG d   1       5.909   1.574  -1.972  0.00  0.00     0.064 H 
ATOM     15  H   LIG d   1       2.750  -1.844  -3.642  0.00  0.00     0.062 H 
ATOM     16  H   LIG d   1       7.777  -2.631  -4.076  0.00  0.00     0.082 H 
ENDROOT
TORSDOF 0
ENDMDL
MODEL 3
REMARK VINA RESULT:      -5.2      1.948      3.443
REMARK  0 active torsions:
REMARK  status: ('A' for Active; 'I' for Inactive)
ROOT
ATOM      1  C   LIG d   1       7.216  -2.402  -3.822  0.00  0.00    -0.061 A 
ATOM      2  C   LIG d   1       6.482  -3.288  -4.599  0.00  0.00    -0.060 A 
ATOM      3  C   LIG d   1       5.112  -3.185  -4.678  0.00  0.00    -0.038 A 
ATOM      4  C   LIG d   1       4.452  -2.182  -3.975  0.00  0.00     0.048 A 
ATOM      5  C   LIG d   1       5.200  -1.285  -3.190  0.00  0.00     0.018 A 
ATOM      6  C   LIG d   1       6.590  -1.410  -3.123  0.00  0.00    -0.051 A 
ATOM      7  C   LIG d   1       4.230  -0.366  -2.588  0.00  0.00     0.066 A 
ATOM      8  C   LIG d   1       3.015  -0.740  -3.022  0.00  0.00     0.021 A 
ATOM      9  N   LIG d   1       3.129  -1.824  -3.851  0.00  0.00    -0.359 N 
ATOM     10  H   LIG d   1       2.387  -2.272  -4.287  0.00  0.00     0.165 HD
ATOM     11 CL   LIG d   1       4.583   0.951  -1.514  0.00  0.00    -0.081 Cl
ATOM     12  H   LIG d   1       8.291  -2.497  -3.771  0.00  0.00     0.062 H 
ATOM     13  H   LIG d   1       6.993  -4.068  -5.146  0.00  0.00     0.062 H 
ATOM     14  H   LIG d   1       4.551  -3.880  -5.286  0.00  0.00     0.064 H 
ATOM     15  H   LIG d   1       7.166  -0.722  -2.521  0.00  0.00     0.062 H 
ATOM     16  H   LIG d   1       2.086  -0.257  -2.756  0.00  0.00     0.082 H 
ENDROOT
TORSDOF 0
ENDMDL
MODEL 4
REMARK VINA RESULT:      -5.1      2.418      2.956
REMARK  0 active torsions:
REMARK  status: ('A' for Active; 'I' for Inactive)
ROOT
ATOM      1  C   LIG d   1       4.364   0.605  -1.862  0.00  0.00    -0.061 A 
ATOM      2  C   LIG d   1       4.251  -0.778  -1.891  0.00  0.00    -0.060 A 
ATOM      3  C   LIG d   1       5.137  -1.540  -2.618  0.00  0.00    -0.038 A 
ATOM      4  C   LIG d   1       6.158  -0.921  -3.331  0.00  0.00     0.048 A 
ATOM      5  C   LIG d   1       6.270   0.481  -3.298  0.00  0.00     0.018 A 
ATOM      6  C   LIG d   1       5.359   1.234  -2.554  0.00  0.00    -0.051 A 
ATOM      7  C   LIG d   1       7.425   0.816  -4.134  0.00  0.00     0.066 A 
ATOM      8  C   LIG d   1       7.921  -0.342  -4.601  0.00  0.00     0.021 A 
ATOM      9  N   LIG d   1       7.176  -1.391  -4.132  0.00  0.00    -0.359 N 
ATOM     10  H   LIG d   1       7.340  -2.325  -4.333  0.00  0.00     0.165 HD
ATOM     11 CL   LIG d   1       8.034   2.408  -4.465  0.00  0.00    -0.081 Cl
ATOM     12  H   LIG d   1       3.660   1.189  -1.286  0.00  0.00     0.062 H 
ATOM     13  H   LIG d   1       3.458  -1.261  -1.338  0.00  0.00     0.062 H 
ATOM     14  H   LIG d   1       5.040  -2.616  -2.634  0.00  0.00     0.064 H 
ATOM     15  H   LIG d   1       5.443   2.311  -2.526  0.00  0.00     0.062 H 
ATOM     16  H   LIG d   1       8.779  -0.432  -5.250  0.00  0.00     0.082 H 
ENDROOT
TORSDOF 0
ENDMDL
MODEL 5
REMARK VINA RESULT:      -5.1      2.135      2.770
REMARK  0 active torsions:
REMARK  status: ('A' for Active; 'I' for Inactive)
ROOT
ATOM      1  C   LIG d   1       4.278  -0.947  -1.957  0.00  0.00    -0.061 A 
ATOM      2  C   LIG d   1       4.071   0.424  -1.887  0.00  0.00    -0.060 A 
ATOM      3  C   LIG d   1       4.926   1.298  -2.519  0.00  0.00    -0.038 A 
ATOM      4  C   LIG d   1       6.010   0.805  -3.239  0.00  0.00     0.048 A 
ATOM      5  C   LIG d   1       6.216  -0.585  -3.308  0.00  0.00     0.018 A 
ATOM      6  C   LIG d   1       5.336  -1.453  -2.658  0.00  0.00    -0.051 A 
ATOM      7  C   LIG d   1       7.417  -0.777  -4.125  0.00  0.00     0.066 A 
ATOM      8  C   LIG d   1       7.847   0.443  -4.484  0.00  0.00     0.021 A 
ATOM      9  N   LIG d   1       7.018   1.401  -3.963  0.00  0.00    -0.359 N 
ATOM     10  H   LIG d   1       7.125   2.358  -4.086  0.00  0.00     0.165 HD
ATOM     11 CL   LIG d   1       8.150  -2.294  -4.543  0.00  0.00    -0.081 Cl
ATOM     12  H   LIG d   1       3.597  -1.618  -1.455  0.00  0.00     0.062 H 
ATOM     13  H   LIG d   1       3.229   0.810  -1.328  0.00  0.00     0.062 H 
ATOM     14  H   LIG d   1       4.756   2.363  -2.458  0.00  0.00     0.064 H 
ATOM     15  H   LIG d   1       5.491  -2.521  -2.710  0.00  0.00     0.062 H 
ATOM     16  H   LIG d   1       8.716   0.641  -5.093  0.00  0.00     0.082 H 
ENDROOT
TORSDOF 0
ENDMDL
MODEL 6
REMARK VINA RESULT:      -4.8      2.465      3.086
REMARK  0 active torsions:
REMARK  status: ('A' for Active; 'I' for Inactive)
ROOT
ATOM      1  C   LIG d   1       5.065  -2.134  -2.976  0.00  0.00    -0.061 A 
ATOM      2  C   LIG d   1       3.923  -1.802  -2.260  0.00  0.00    -0.060 A 
ATOM      3  C   LIG d   1       2.922  -1.055  -2.840  0.00  0.00    -0.038 A 
ATOM      4  C   LIG d   1       3.054  -0.627  -4.158  0.00  0.00     0.048 A 
ATOM      5  C   LIG d   1       4.213  -0.966  -4.879  0.00  0.00     0.018 A 
ATOM      6  C   LIG d   1       5.216  -1.724  -4.271  0.00  0.00    -0.051 A 
ATOM      7  C   LIG d   1       4.049  -0.377  -6.211  0.00  0.00     0.066 A 
ATOM      8  C   LIG d   1       2.862   0.251  -6.218  0.00  0.00     0.021 A 
ATOM      9  N   LIG d   1       2.253   0.113  -4.999  0.00  0.00    -0.359 N 
ATOM     10  H   LIG d   1       1.387   0.480  -4.763  0.00  0.00     0.165 HD
ATOM     11 CL   LIG d   1       5.177  -0.468  -7.527  0.00  0.00    -0.081 Cl
ATOM     12  H   LIG d   1       5.841  -2.721  -2.506  0.00  0.00     0.062 H 
ATOM     13  H   LIG d   1       3.818  -2.134  -1.237  0.00  0.00     0.062 H 
ATOM     14  H   LIG d   1       2.037  -0.803  -2.275  0.00  0.00     0.064 H 
ATOM     15  H   LIG d   1       6.107  -1.986  -4.823  0.00  0.00     0.062 H 
ATOM     16  H   LIG d   1       2.448   0.786  -7.060  0.00  0.00     0.082 H 
ENDROOT
TORSDOF 0
ENDMDL
MODEL 7
REMARK VINA RESULT:      -4.4      2.474      3.779
REMARK  0 active torsions:
REMARK  status: ('A' for Active; 'I' for Inactive)
ROOT
ATOM      1  C   LIG d   1       7.813  -1.121  -4.572  0.00  0.00    -0.061 A 
ATOM      2  C   LIG d   1       8.141   0.228  -4.534  0.00  0.00    -0.060 A 
ATOM      3  C   LIG d   1       7.347   1.124  -3.856  0.00  0.00    -0.038 A 
ATOM      4  C   LIG d   1       6.205   0.678  -3.199  0.00  0.00     0.048 A 
ATOM      5  C   LIG d   1       5.877  -0.690  -3.240  0.00  0.00     0.018 A 
ATOM      6  C   LIG d   1       6.696  -1.582  -3.935  0.00  0.00    -0.051 A 
ATOM      7  C   LIG d   1       4.641  -0.834  -2.466  0.00  0.00     0.066 A 
ATOM      8  C   LIG d   1       4.309   0.390  -2.025  0.00  0.00     0.021 A 
ATOM      9  N   LIG d   1       5.233   1.307  -2.454  0.00  0.00    -0.359 N 
ATOM     10  H   LIG d   1       5.206   2.257  -2.261  0.00  0.00     0.165 HD
ATOM     11 CL   LIG d   1       3.767  -2.307  -2.180  0.00  0.00    -0.081 Cl
ATOM     12  H   LIG d   1       8.447  -1.812  -5.110  0.00  0.00     0.062 H 
ATOM     13  H   LIG d   1       9.028   0.577  -5.044  0.00  0.00     0.062 H 
ATOM     14  H   LIG d   1       7.611   2.172  -3.832  0.00  0.00     0.064 H 
ATOM     15  H   LIG d   1       6.447  -2.633  -3.968  0.00  0.00     0.062 H 
ATOM     16  H   LIG d   1       3.443   0.619  -1.422  0.00  0.00     0.082 H 
ENDROOT
TORSDOF 0
ENDMDL
MODEL 8
REMARK VINA RESULT:      -4.1      5.707      6.102
REMARK  0 active torsions:
REMARK  status: ('A' for Active; 'I' for Inactive)
ROOT
ATOM      1  C   LIG d   1       3.202   2.286  -9.748  0.00  0.00    -0.061 A 
ATOM      2  C   LIG d   1       3.968   1.495 -10.594  0.00  0.00    -0.060 A 
ATOM      3  C   LIG d   1       4.489   0.299 -10.157  0.00  0.00    -0.038 A 
ATOM      4  C   LIG d   1       4.247  -0.127  -8.855  0.00  0.00     0.048 A 
ATOM      5  C   LIG d   1       3.469   0.677  -8.001  0.00  0.00     0.018 A 
ATOM      6  C   LIG d   1       2.951   1.888  -8.465  0.00  0.00    -0.051 A 
ATOM      7  C   LIG d   1       3.401  -0.036  -6.723  0.00  0.00     0.066 A 
ATOM      8  C   LIG d   1       4.103  -1.172  -6.869  0.00  0.00     0.021 A 
ATOM      9  N   LIG d   1       4.616  -1.242  -8.137  0.00  0.00    -0.359 N 
ATOM     10  H   LIG d   1       5.159  -1.970  -8.479  0.00  0.00     0.165 HD
ATOM     11 CL   LIG d   1       2.574   0.489  -5.290  0.00  0.00    -0.081 Cl
ATOM     12  H   LIG d   1       2.800   3.222 -10.107  0.00  0.00     0.062 H 
ATOM     13  H   LIG d   1       4.157   1.824 -11.606  0.00  0.00     0.062 H 
ATOM     14  H   LIG d   1       5.084  -0.309 -10.824  0.00  0.00     0.064 H 
ATOM     15  H   LIG d   1       2.354   2.507  -7.812  0.00  0.00     0.062 H 
ATOM     16  H   LIG d   1       4.243  -1.918  -6.102  0.00  0.00     0.082 H 
ENDROOT
TORSDOF 0
ENDMDL
MODEL 9
REMARK VINA RESULT:      -4.1      8.262      9.475
REMARK  0 active torsions:
REMARK  status: ('A' for Active; 'I' for Inactive)
ROOT
ATOM      1  C   LIG d   1      10.384   7.917  -0.156  0.00  0.00    -0.061 A 
ATOM      2  C   LIG d   1      11.086   7.103   0.723  0.00  0.00    -0.060 A 
ATOM      3  C   LIG d   1      11.386   5.802   0.389  0.00  0.00    -0.038 A 
ATOM      4  C   LIG d   1      10.985   5.294  -0.843  0.00  0.00     0.048 A 
ATOM      5  C   LIG d   1      10.275   6.123  -1.731  0.00  0.00     0.018 A 
ATOM      6  C   LIG d   1       9.980   7.440  -1.371  0.00  0.00    -0.051 A 
ATOM      7  C   LIG d   1      10.004   5.307  -2.918  0.00  0.00     0.066 A 
ATOM      8  C   LIG d   1      10.537   4.096  -2.691  0.00  0.00     0.021 A 
ATOM      9  N   LIG d   1      11.127   4.070  -1.456  0.00  0.00    -0.359 N 
ATOM     10  H   LIG d   1      11.579   3.303  -1.070  0.00  0.00     0.165 HD
ATOM     11 CL   LIG d   1       9.149   5.809  -4.343  0.00  0.00    -0.081 Cl
ATOM     12  H   LIG d   1      10.157   8.936   0.122  0.00  0.00     0.062 H 
ATOM     13  H   LIG d   1      11.398   7.495   1.681  0.00  0.00     0.062 H 
ATOM     14  H   LIG d   1      11.932   5.177   1.080  0.00  0.00     0.064 H 
ATOM     15  H   LIG d   1       9.436   8.078  -2.051  0.00  0.00     0.062 H 
ATOM     16  H   LIG d   1      10.506   3.265  -3.381  0.00  0.00     0.082 H 
ENDROOT
TORSDOF 0
ENDMDL
MODEL 10
REMARK VINA RESULT:      -4.0      7.661      7.943
REMARK  0 active torsions:
REMARK  status: ('A' for Active; 'I' for Inactive)
ROOT
ATOM      1  C   LIG d   1       4.273   1.725 -10.123  0.00  0.00    -0.061 A 
ATOM      2  C   LIG d   1       3.516   1.720  -8.960  0.00  0.00    -0.060 A 
ATOM      3  C   LIG d   1       2.463   0.846  -8.810  0.00  0.00    -0.038 A 
ATOM      4  C   LIG d   1       2.153  -0.044  -9.834  0.00  0.00     0.048 A 
ATOM      5  C   LIG d   1       2.924  -0.036 -11.011  0.00  0.00     0.018 A 
ATOM      6  C   LIG d   1       3.987   0.860 -11.141  0.00  0.00    -0.051 A 
ATOM      7  C   LIG d   1       2.353  -1.071 -11.876  0.00  0.00     0.066 A 
ATOM      8  C   LIG d   1       1.323  -1.617 -11.209  0.00  0.00     0.021 A 
ATOM      9  N   LIG d   1       1.189  -1.015  -9.986  0.00  0.00    -0.359 N 
ATOM     10  H   LIG d   1       0.515  -1.240  -9.325  0.00  0.00     0.165 HD
ATOM     11 CL   LIG d   1       2.899  -1.505 -13.466  0.00  0.00    -0.081 Cl
ATOM     12  H   LIG d   1       5.097   2.417 -10.224  0.00  0.00     0.062 H 
ATOM     13  H   LIG d   1       3.755   2.411  -8.163  0.00  0.00     0.062 H 
ATOM     14  H   LIG d   1       1.880   0.851  -7.901  0.00  0.00     0.064 H 
ATOM     15  H   LIG d   1       4.581   0.868 -12.043  0.00  0.00     0.062 H 
ATOM     16  H   LIG d   1       0.695  -2.413 -11.580  0.00  0.00     0.082 H 
ENDROOT
TORSDOF 0
ENDMDL
