MODEL 1
REMARK VINA RESULT:      -6.7      0.000      0.000
REMARK  8 active torsions:
REMARK  status: ('A' for Active; 'I' for Inactive)
REMARK    1  A    between atoms: C_4  and  S_7 
REMARK    2  A    between atoms: S_7  and  C_8 
REMARK    3  A    between atoms: C_8  and  S_24 
REMARK    4  A    between atoms: C_9  and  S_10 
REMARK    5  A    between atoms: C_9  and  S_17 
REMARK    6  A    between atoms: S_10  and  C_11 
REMARK    7  A    between atoms: S_17  and  C_18 
REMARK    8  A    between atoms: S_24  and  C_25 
ROOT
ATOM      1  C   LIG d   1       5.541  -0.047  -7.476  0.00  0.00     0.071 C 
ATOM      2  C   LIG d   1       4.412  -0.541  -6.957  0.00  0.00     0.071 C 
ENDROOT
BRANCH   1   3
ATOM      3  S   LIG d   1       5.467   1.184  -8.736  0.00  0.00    -0.081 SA
BRANCH   3   4
ATOM      4  C   LIG d   1       5.303   0.259 -10.226  0.00  0.00     0.013 A 
ATOM      5  C   LIG d   1       4.413   0.674 -11.209  0.00  0.00    -0.048 A 
ATOM      6  C   LIG d   1       4.287  -0.053 -12.377  0.00  0.00    -0.061 A 
ATOM      7  H   LIG d   1       3.819   1.564 -11.061  0.00  0.00     0.063 H 
ATOM      8  C   LIG d   1       5.047  -1.193 -12.567  0.00  0.00    -0.062 A 
ATOM      9  H   LIG d   1       3.596   0.269 -13.141  0.00  0.00     0.062 H 
ATOM     10  C   LIG d   1       5.934  -1.610 -11.592  0.00  0.00    -0.061 A 
ATOM     11  H   LIG d   1       4.950  -1.759 -13.484  0.00  0.00     0.062 H 
ATOM     12  C   LIG d   1       6.064  -0.888 -10.422  0.00  0.00    -0.048 A 
ATOM     13  H   LIG d   1       6.524  -2.501 -11.744  0.00  0.00     0.062 H 
ATOM     14  H   LIG d   1       6.757  -1.214  -9.660  0.00  0.00     0.063 H 
ENDBRANCH   3   4
ENDBRANCH   1   3
BRANCH   1  15
ATOM     15  S   LIG d   1       7.103  -0.625  -6.900  0.00  0.00    -0.081 SA
BRANCH  15  16
ATOM     16  C   LIG d   1       7.709   0.699  -5.908  0.00  0.00     0.013 A 
ATOM     17  C   LIG d   1       7.430   0.735  -4.547  0.00  0.00    -0.048 A 
ATOM     18  C   LIG d   1       7.907   1.774  -3.774  0.00  0.00    -0.061 A 
ATOM     19  H   LIG d   1       6.842  -0.051  -4.095  0.00  0.00     0.063 H 
ATOM     20  C   LIG d   1       8.660   2.780  -4.351  0.00  0.00    -0.062 A 
ATOM     21  H   LIG d   1       7.691   1.801  -2.715  0.00  0.00     0.062 H 
ATOM     22  C   LIG d   1       8.938   2.749  -5.705  0.00  0.00    -0.061 A 
ATOM     23  H   LIG d   1       9.031   3.592  -3.744  0.00  0.00     0.062 H 
ATOM     24  C   LIG d   1       8.471   1.710  -6.485  0.00  0.00    -0.048 A 
ATOM     25  H   LIG d   1       9.527   3.537  -6.154  0.00  0.00     0.062 H 
ATOM     26  H   LIG d   1       8.693   1.683  -7.541  0.00  0.00     0.063 H 
ENDBRANCH  15  16
ENDBRANCH   1  15
BRANCH   2  27
ATOM     27  S   LIG d   1       4.486  -1.772  -5.698  0.00  0.00    -0.081 SA
BRANCH  27  28
ATOM     28  C   LIG d   1       4.329  -0.858  -4.200  0.00  0.00     0.013 A 
ATOM     29  C   LIG d   1       3.782   0.420  -4.217  0.00  0.00    -0.048 A 
ATOM     30  C   LIG d   1       3.660   1.133  -3.041  0.00  0.00    -0.061 A 
ATOM     31  H   LIG d   1       3.450   0.853  -5.149  0.00  0.00     0.063 H 
ATOM     32  C   LIG d   1       4.085   0.579  -1.847  0.00  0.00    -0.062 A 
ATOM     33  H   LIG d   1       3.235   2.125  -3.054  0.00  0.00     0.062 H 
ATOM     34  C   LIG d   1       4.632  -0.692  -1.826  0.00  0.00    -0.061 A 
ATOM     35  H   LIG d   1       3.989   1.140  -0.929  0.00  0.00     0.062 H 
ATOM     36  C   LIG d   1       4.749  -1.414  -2.996  0.00  0.00    -0.048 A 
ATOM     37  H   LIG d   1       4.962  -1.121  -0.891  0.00  0.00     0.062 H 
ATOM     38  H   LIG d   1       5.172  -2.408  -2.979  0.00  0.00     0.063 H 
ENDBRANCH  27  28
ENDBRANCH   2  27
BRANCH   2  39
ATOM     39  S   LIG d   1       2.850   0.037  -7.533  0.00  0.00    -0.081 SA
BRANCH  39  40
ATOM     40  C   LIG d   1       2.455  -1.053  -8.859  0.00  0.00     0.013 A 
ATOM     41  C   LIG d   1       3.063  -2.301  -8.939  0.00  0.00    -0.048 A 
ATOM     42  C   LIG d   1       2.751  -3.153  -9.980  0.00  0.00    -0.061 A 
ATOM     43  H   LIG d   1       3.777  -2.604  -8.189  0.00  0.00     0.063 H 
ATOM     44  C   LIG d   1       1.835  -2.766 -10.943  0.00  0.00    -0.062 A 
ATOM     45  H   LIG d   1       3.222  -4.123 -10.044  0.00  0.00     0.062 H 
ATOM     46  C   LIG d   1       1.229  -1.525 -10.866  0.00  0.00    -0.061 A 
ATOM     47  H   LIG d   1       1.593  -3.435 -11.756  0.00  0.00     0.062 H 
ATOM     48  C   LIG d   1       1.531  -0.670  -9.824  0.00  0.00    -0.048 A 
ATOM     49  H   LIG d   1       0.515  -1.226 -11.619  0.00  0.00     0.062 H 
ATOM     50  H   LIG d   1       1.053   0.297  -9.763  0.00  0.00     0.063 H 
ENDBRANCH  39  40
ENDBRANCH   2  39
TORSDOF 8
ENDMDL
MODEL 2
REMARK VINA RESULT:      -6.7      0.014      8.047
REMARK  8 active torsions:
REMARK  status: ('A' for Active; 'I' for Inactive)
REMARK    1  A    between atoms: C_4  and  S_7 
REMARK    2  A    between atoms: S_7  and  C_8 
REMARK    3  A    between atoms: C_8  and  S_24 
REMARK    4  A    between atoms: C_9  and  S_10 
REMARK    5  A    between atoms: C_9  and  S_17 
REMARK    6  A    between atoms: S_10  and  C_11 
REMARK    7  A    between atoms: S_17  and  C_18 
REMARK    8  A    between atoms: S_24  and  C_25 
ROOT
ATOM      1  C   LIG d   1       4.409  -0.551  -6.962  0.00  0.00     0.071 C 
ATOM      2  C   LIG d   1       5.538  -0.054  -7.479  0.00  0.00     0.071 C 
ENDROOT
BRANCH   1   3
ATOM      3  S   LIG d   1       4.483  -1.784  -5.705  0.00  0.00    -0.081 SA
BRANCH   3   4
ATOM      4  C   LIG d   1       4.325  -0.874  -4.206  0.00  0.00     0.013 A 
ATOM      5  C   LIG d   1       4.752  -1.428  -3.005  0.00  0.00    -0.048 A 
ATOM      6  C   LIG d   1       4.628  -0.711  -1.831  0.00  0.00    -0.061 A 
ATOM      7  H   LIG d   1       5.181  -2.420  -2.989  0.00  0.00     0.063 H 
ATOM      8  C   LIG d   1       4.078   0.558  -1.850  0.00  0.00    -0.062 A 
ATOM      9  H   LIG d   1       4.959  -1.142  -0.898  0.00  0.00     0.062 H 
ATOM     10  C   LIG d   1       3.652   1.114  -3.043  0.00  0.00    -0.061 A 
ATOM     11  H   LIG d   1       3.985   1.119  -0.931  0.00  0.00     0.062 H 
ATOM     12  C   LIG d   1       3.773   0.403  -4.220  0.00  0.00    -0.048 A 
ATOM     13  H   LIG d   1       3.223   2.105  -3.053  0.00  0.00     0.062 H 
ATOM     14  H   LIG d   1       3.440   0.838  -5.151  0.00  0.00     0.063 H 
ENDBRANCH   3   4
ENDBRANCH   1   3
BRANCH   1  15
ATOM     15  S   LIG d   1       2.847   0.027  -7.538  0.00  0.00    -0.081 SA
BRANCH  15  16
ATOM     16  C   LIG d   1       2.451  -1.064  -8.864  0.00  0.00     0.013 A 
ATOM     17  C   LIG d   1       3.062  -2.310  -8.949  0.00  0.00    -0.048 A 
ATOM     18  C   LIG d   1       2.749  -3.161  -9.989  0.00  0.00    -0.061 A 
ATOM     19  H   LIG d   1       3.781  -2.611  -8.200  0.00  0.00     0.063 H 
ATOM     20  C   LIG d   1       1.830  -2.776 -10.948  0.00  0.00    -0.062 A 
ATOM     21  H   LIG d   1       3.224  -4.130 -10.055  0.00  0.00     0.062 H 
ATOM     22  C   LIG d   1       1.220  -1.538 -10.869  0.00  0.00    -0.061 A 
ATOM     23  H   LIG d   1       1.587  -3.444 -11.761  0.00  0.00     0.062 H 
ATOM     24  C   LIG d   1       1.523  -0.683  -9.827  0.00  0.00    -0.048 A 
ATOM     25  H   LIG d   1       0.502  -1.239 -11.619  0.00  0.00     0.062 H 
ATOM     26  H   LIG d   1       1.043   0.283  -9.762  0.00  0.00     0.063 H 
ENDBRANCH  15  16
ENDBRANCH   1  15
BRANCH   2  27
ATOM     27  S   LIG d   1       5.464   1.179  -8.736  0.00  0.00    -0.081 SA
BRANCH  27  28
ATOM     28  C   LIG d   1       5.297   0.257 -10.228  0.00  0.00     0.013 A 
ATOM     29  C   LIG d   1       4.404   0.675 -11.209  0.00  0.00    -0.048 A 
ATOM     30  C   LIG d   1       4.276  -0.050 -12.377  0.00  0.00    -0.061 A 
ATOM     31  H   LIG d   1       3.814   1.566 -11.058  0.00  0.00     0.063 H 
ATOM     32  C   LIG d   1       5.032  -1.192 -12.571  0.00  0.00    -0.062 A 
ATOM     33  H   LIG d   1       3.583   0.274 -13.139  0.00  0.00     0.062 H 
ATOM     34  C   LIG d   1       5.920  -1.612 -11.596  0.00  0.00    -0.061 A 
ATOM     35  H   LIG d   1       4.929  -1.757 -13.485  0.00  0.00     0.062 H 
ATOM     36  C   LIG d   1       6.059  -0.888 -10.429  0.00  0.00    -0.048 A 
ATOM     37  H   LIG d   1       6.509  -2.504 -11.752  0.00  0.00     0.062 H 
ATOM     38  H   LIG d   1       6.756  -1.214  -9.670  0.00  0.00     0.063 H 
ENDBRANCH  27  28
ENDBRANCH   2  27
BRANCH   2  39
ATOM     39  S   LIG d   1       7.100  -0.632  -6.903  0.00  0.00    -0.081 SA
BRANCH  39  40
ATOM     40  C   LIG d   1       7.704   0.692  -5.910  0.00  0.00     0.013 A 
ATOM     41  C   LIG d   1       8.464   1.705  -6.486  0.00  0.00    -0.048 A 
ATOM     42  C   LIG d   1       8.936   2.741  -5.705  0.00  0.00    -0.061 A 
ATOM     43  H   LIG d   1       8.683   1.682  -7.543  0.00  0.00     0.063 H 
ATOM     44  C   LIG d   1       8.655   2.771  -4.350  0.00  0.00    -0.062 A 
ATOM     45  H   LIG d   1       9.526   3.528  -6.151  0.00  0.00     0.062 H 
ATOM     46  C   LIG d   1       7.902   1.765  -3.774  0.00  0.00    -0.061 A 
ATOM     47  H   LIG d   1       9.026   3.583  -3.742  0.00  0.00     0.062 H 
ATOM     48  C   LIG d   1       7.420   0.729  -4.550  0.00  0.00    -0.048 A 
ATOM     49  H   LIG d   1       7.684   1.792  -2.716  0.00  0.00     0.062 H 
ATOM     50  H   LIG d   1       6.826  -0.053  -4.100  0.00  0.00     0.063 H 
ENDBRANCH  39  40
ENDBRANCH   2  39
TORSDOF 8
ENDMDL
MODEL 3
REMARK VINA RESULT:      -6.7      0.009      4.331
REMARK  8 active torsions:
REMARK  status: ('A' for Active; 'I' for Inactive)
REMARK    1  A    between atoms: C_4  and  S_7 
REMARK    2  A    between atoms: S_7  and  C_8 
REMARK    3  A    between atoms: C_8  and  S_24 
REMARK    4  A    between atoms: C_9  and  S_10 
REMARK    5  A    between atoms: C_9  and  S_17 
REMARK    6  A    between atoms: S_10  and  C_11 
REMARK    7  A    between atoms: S_17  and  C_18 
REMARK    8  A    between atoms: S_24  and  C_25 
ROOT
ATOM      1  C   LIG d   1       4.416  -0.540  -6.964  0.00  0.00     0.071 C 
ATOM      2  C   LIG d   1       5.544  -0.045  -7.485  0.00  0.00     0.071 C 
ENDROOT
BRANCH   1   3
ATOM      3  S   LIG d   1       2.853   0.038  -7.539  0.00  0.00    -0.081 SA
BRANCH   3   4
ATOM      4  C   LIG d   1       2.455  -1.055  -8.862  0.00  0.00     0.013 A 
ATOM      5  C   LIG d   1       3.062  -2.303  -8.942  0.00  0.00    -0.048 A 
ATOM      6  C   LIG d   1       2.747  -3.158  -9.980  0.00  0.00    -0.061 A 
ATOM      7  H   LIG d   1       3.780  -2.604  -8.193  0.00  0.00     0.063 H 
ATOM      8  C   LIG d   1       1.829  -2.772 -10.939  0.00  0.00    -0.062 A 
ATOM      9  H   LIG d   1       3.219  -4.127 -10.043  0.00  0.00     0.062 H 
ATOM     10  C   LIG d   1       1.222  -1.532 -10.864  0.00  0.00    -0.061 A 
ATOM     11  H   LIG d   1       1.581  -3.445 -11.749  0.00  0.00     0.062 H 
ATOM     12  C   LIG d   1       1.532  -0.672  -9.829  0.00  0.00    -0.048 A 
ATOM     13  H   LIG d   1       0.505  -1.235 -11.615  0.00  0.00     0.062 H 
ATOM     14  H   LIG d   1       1.058   0.296  -9.770  0.00  0.00     0.063 H 
ENDBRANCH   3   4
ENDBRANCH   1   3
BRANCH   1  15
ATOM     15  S   LIG d   1       4.492  -1.770  -5.705  0.00  0.00    -0.081 SA
BRANCH  15  16
ATOM     16  C   LIG d   1       4.329  -0.858  -4.207  0.00  0.00     0.013 A 
ATOM     17  C   LIG d   1       3.775   0.417  -4.223  0.00  0.00    -0.048 A 
ATOM     18  C   LIG d   1       3.650   1.129  -3.047  0.00  0.00    -0.061 A 
ATOM     19  H   LIG d   1       3.442   0.850  -5.155  0.00  0.00     0.063 H 
ATOM     20  C   LIG d   1       4.076   0.576  -1.852  0.00  0.00    -0.062 A 
ATOM     21  H   LIG d   1       3.219   2.119  -3.059  0.00  0.00     0.062 H 
ATOM     22  C   LIG d   1       4.629  -0.691  -1.832  0.00  0.00    -0.061 A 
ATOM     23  H   LIG d   1       3.978   1.135  -0.934  0.00  0.00     0.062 H 
ATOM     24  C   LIG d   1       4.752  -1.413  -3.003  0.00  0.00    -0.048 A 
ATOM     25  H   LIG d   1       4.962  -1.120  -0.897  0.00  0.00     0.062 H 
ATOM     26  H   LIG d   1       5.179  -2.404  -2.986  0.00  0.00     0.063 H 
ENDBRANCH  15  16
ENDBRANCH   1  15
BRANCH   2  27
ATOM     27  S   LIG d   1       7.107  -0.622  -6.910  0.00  0.00    -0.081 SA
BRANCH  27  28
ATOM     28  C   LIG d   1       7.708   0.699  -5.912  0.00  0.00     0.013 A 
ATOM     29  C   LIG d   1       8.465   1.716  -6.484  0.00  0.00    -0.048 A 
ATOM     30  C   LIG d   1       8.935   2.750  -5.699  0.00  0.00    -0.061 A 
ATOM     31  H   LIG d   1       8.684   1.698  -7.542  0.00  0.00     0.063 H 
ATOM     32  C   LIG d   1       8.655   2.774  -4.345  0.00  0.00    -0.062 A 
ATOM     33  H   LIG d   1       9.522   3.540  -6.143  0.00  0.00     0.062 H 
ATOM     34  C   LIG d   1       7.904   1.764  -3.771  0.00  0.00    -0.061 A 
ATOM     35  H   LIG d   1       9.024   3.584  -3.733  0.00  0.00     0.062 H 
ATOM     36  C   LIG d   1       7.425   0.731  -4.551  0.00  0.00    -0.048 A 
ATOM     37  H   LIG d   1       7.688   1.786  -2.713  0.00  0.00     0.062 H 
ATOM     38  H   LIG d   1       6.834  -0.056  -4.104  0.00  0.00     0.063 H 
ENDBRANCH  27  28
ENDBRANCH   2  27
BRANCH   2  39
ATOM     39  S   LIG d   1       5.468   1.186  -8.744  0.00  0.00    -0.081 SA
BRANCH  39  40
ATOM     40  C   LIG d   1       5.299   0.260 -10.233  0.00  0.00     0.013 A 
ATOM     41  C   LIG d   1       4.407   0.678 -11.215  0.00  0.00    -0.048 A 
ATOM     42  C   LIG d   1       4.277  -0.049 -12.382  0.00  0.00    -0.061 A 
ATOM     43  H   LIG d   1       3.818   1.571 -11.067  0.00  0.00     0.063 H 
ATOM     44  C   LIG d   1       5.031  -1.193 -12.573  0.00  0.00    -0.062 A 
ATOM     45  H   LIG d   1       3.585   0.274 -13.145  0.00  0.00     0.062 H 
ATOM     46  C   LIG d   1       5.918  -1.613 -11.598  0.00  0.00    -0.061 A 
ATOM     47  H   LIG d   1       4.927  -1.761 -13.486  0.00  0.00     0.062 H 
ATOM     48  C   LIG d   1       6.059  -0.886 -10.432  0.00  0.00    -0.048 A 
ATOM     49  H   LIG d   1       6.505  -2.506 -11.751  0.00  0.00     0.062 H 
ATOM     50  H   LIG d   1       6.756  -1.211  -9.673  0.00  0.00     0.063 H 
ENDBRANCH  39  40
ENDBRANCH   2  39
TORSDOF 8
ENDMDL
MODEL 4
REMARK VINA RESULT:      -6.7      0.013      6.982
REMARK  8 active torsions:
REMARK  status: ('A' for Active; 'I' for Inactive)
REMARK    1  A    between atoms: C_4  and  S_7 
REMARK    2  A    between atoms: S_7  and  C_8 
REMARK    3  A    between atoms: C_8  and  S_24 
REMARK    4  A    between atoms: C_9  and  S_10 
REMARK    5  A    between atoms: C_9  and  S_17 
REMARK    6  A    between atoms: S_10  and  C_11 
REMARK    7  A    between atoms: S_17  and  C_18 
REMARK    8  A    between atoms: S_24  and  C_25 
ROOT
ATOM      1  C   LIG d   1       5.535  -0.048  -7.486  0.00  0.00     0.071 C 
ATOM      2  C   LIG d   1       4.408  -0.545  -6.963  0.00  0.00     0.071 C 
ENDROOT
BRANCH   1   3
ATOM      3  S   LIG d   1       7.100  -0.625  -6.917  0.00  0.00    -0.081 SA
BRANCH   3   4
ATOM      4  C   LIG d   1       7.705   0.698  -5.924  0.00  0.00     0.013 A 
ATOM      5  C   LIG d   1       8.465   1.710  -6.498  0.00  0.00    -0.048 A 
ATOM      6  C   LIG d   1       8.937   2.746  -5.717  0.00  0.00    -0.061 A 
ATOM      7  H   LIG d   1       8.686   1.687  -7.556  0.00  0.00     0.063 H 
ATOM      8  C   LIG d   1       8.655   2.777  -4.363  0.00  0.00    -0.062 A 
ATOM      9  H   LIG d   1       9.528   3.532  -6.163  0.00  0.00     0.062 H 
ATOM     10  C   LIG d   1       7.899   1.772  -3.787  0.00  0.00    -0.061 A 
ATOM     11  H   LIG d   1       9.023   3.591  -3.754  0.00  0.00     0.062 H 
ATOM     12  C   LIG d   1       7.424   0.733  -4.562  0.00  0.00    -0.048 A 
ATOM     13  H   LIG d   1       7.681   1.799  -2.730  0.00  0.00     0.062 H 
ATOM     14  H   LIG d   1       6.834  -0.051  -4.112  0.00  0.00     0.063 H 
ENDBRANCH   3   4
ENDBRANCH   1   3
BRANCH   1  15
ATOM     15  S   LIG d   1       5.454   1.182  -8.745  0.00  0.00    -0.081 SA
BRANCH  15  16
ATOM     16  C   LIG d   1       5.293   0.257 -10.236  0.00  0.00     0.013 A 
ATOM     17  C   LIG d   1       6.053  -0.891 -10.430  0.00  0.00    -0.048 A 
ATOM     18  C   LIG d   1       5.924  -1.613 -11.599  0.00  0.00    -0.061 A 
ATOM     19  H   LIG d   1       6.742  -1.218  -9.665  0.00  0.00     0.063 H 
ATOM     20  C   LIG d   1       5.042  -1.194 -12.580  0.00  0.00    -0.062 A 
ATOM     21  H   LIG d   1       6.514  -2.505 -11.750  0.00  0.00     0.062 H 
ATOM     22  C   LIG d   1       4.286  -0.052 -12.392  0.00  0.00    -0.061 A 
ATOM     23  H   LIG d   1       4.944  -1.760 -13.494  0.00  0.00     0.062 H 
ATOM     24  C   LIG d   1       4.403   0.672 -11.222  0.00  0.00    -0.048 A 
ATOM     25  H   LIG d   1       3.598   0.272 -13.159  0.00  0.00     0.062 H 
ATOM     26  H   LIG d   1       3.809   1.561 -11.073  0.00  0.00     0.063 H 
ENDBRANCH  15  16
ENDBRANCH   1  15
BRANCH   2  27
ATOM     27  S   LIG d   1       2.843   0.032  -7.532  0.00  0.00    -0.081 SA
BRANCH  27  28
ATOM     28  C   LIG d   1       2.448  -1.053  -8.863  0.00  0.00     0.013 A 
ATOM     29  C   LIG d   1       1.534  -0.661  -9.834  0.00  0.00    -0.048 A 
ATOM     30  C   LIG d   1       1.226  -1.513 -10.876  0.00  0.00    -0.061 A 
ATOM     31  H   LIG d   1       1.066   0.312  -9.775  0.00  0.00     0.063 H 
ATOM     32  C   LIG d   1       1.824  -2.758 -10.952  0.00  0.00    -0.062 A 
ATOM     33  H   LIG d   1       0.517  -1.208 -11.631  0.00  0.00     0.062 H 
ATOM     34  C   LIG d   1       2.733  -3.154  -9.987  0.00  0.00    -0.061 A 
ATOM     35  H   LIG d   1       1.582  -3.423 -11.768  0.00  0.00     0.062 H 
ATOM     36  C   LIG d   1       3.051  -2.303  -8.947  0.00  0.00    -0.048 A 
ATOM     37  H   LIG d   1       3.198  -4.126 -10.050  0.00  0.00     0.062 H 
ATOM     38  H   LIG d   1       3.764  -2.610  -8.195  0.00  0.00     0.063 H 
ENDBRANCH  27  28
ENDBRANCH   2  27
BRANCH   2  39
ATOM     39  S   LIG d   1       4.489  -1.775  -5.704  0.00  0.00    -0.081 SA
BRANCH  39  40
ATOM     40  C   LIG d   1       4.330  -0.862  -4.206  0.00  0.00     0.013 A 
ATOM     41  C   LIG d   1       3.780   0.415  -4.223  0.00  0.00    -0.048 A 
ATOM     42  C   LIG d   1       3.657   1.128  -3.047  0.00  0.00    -0.061 A 
ATOM     43  H   LIG d   1       3.448   0.848  -5.155  0.00  0.00     0.063 H 
ATOM     44  C   LIG d   1       4.081   0.573  -1.852  0.00  0.00    -0.062 A 
ATOM     45  H   LIG d   1       3.230   2.119  -3.059  0.00  0.00     0.062 H 
ATOM     46  C   LIG d   1       4.630  -0.696  -1.832  0.00  0.00    -0.061 A 
ATOM     47  H   LIG d   1       3.984   1.133  -0.934  0.00  0.00     0.062 H 
ATOM     48  C   LIG d   1       4.750  -1.418  -3.003  0.00  0.00    -0.048 A 
ATOM     49  H   LIG d   1       4.960  -1.126  -0.898  0.00  0.00     0.062 H 
ATOM     50  H   LIG d   1       5.173  -2.412  -2.985  0.00  0.00     0.063 H 
ENDBRANCH  39  40
ENDBRANCH   2  39
TORSDOF 8
ENDMDL
MODEL 5
REMARK VINA RESULT:      -6.6      3.078      5.818
REMARK  8 active torsions:
REMARK  status: ('A' for Active; 'I' for Inactive)
REMARK    1  A    between atoms: C_4  and  S_7 
REMARK    2  A    between atoms: S_7  and  C_8 
REMARK    3  A    between atoms: C_8  and  S_24 
REMARK    4  A    between atoms: C_9  and  S_10 
REMARK    5  A    between atoms: C_9  and  S_17 
REMARK    6  A    between atoms: S_10  and  C_11 
REMARK    7  A    between atoms: S_17  and  C_18 
REMARK    8  A    between atoms: S_24  and  C_25 
ROOT
ATOM      1  C   LIG d   1       5.213  -2.707  -7.027  0.00  0.00     0.071 C 
ATOM      2  C   LIG d   1       5.322  -2.426  -8.330  0.00  0.00     0.071 C 
ENDROOT
BRANCH   1   3
ATOM      3  S   LIG d   1       4.293  -4.116  -6.503  0.00  0.00    -0.081 SA
BRANCH   3   4
ATOM      4  C   LIG d   1       5.527  -5.262  -5.988  0.00  0.00     0.013 A 
ATOM      5  C   LIG d   1       5.184  -6.581  -5.715  0.00  0.00    -0.048 A 
ATOM      6  C   LIG d   1       6.154  -7.477  -5.312  0.00  0.00    -0.061 A 
ATOM      7  H   LIG d   1       4.158  -6.905  -5.818  0.00  0.00     0.063 H 
ATOM      8  C   LIG d   1       7.467  -7.063  -5.179  0.00  0.00    -0.062 A 
ATOM      9  H   LIG d   1       5.887  -8.502  -5.100  0.00  0.00     0.062 H 
ATOM     10  C   LIG d   1       7.814  -5.752  -5.449  0.00  0.00    -0.061 A 
ATOM     11  H   LIG d   1       8.225  -7.767  -4.867  0.00  0.00     0.062 H 
ATOM     12  C   LIG d   1       6.848  -4.850  -5.853  0.00  0.00    -0.048 A 
ATOM     13  H   LIG d   1       8.839  -5.432  -5.344  0.00  0.00     0.062 H 
ATOM     14  H   LIG d   1       7.120  -3.826  -6.064  0.00  0.00     0.063 H 
ENDBRANCH   3   4
ENDBRANCH   1   3
BRANCH   1  15
ATOM     15  S   LIG d   1       5.989  -1.668  -5.834  0.00  0.00    -0.081 SA
BRANCH  15  16
ATOM     16  C   LIG d   1       4.745  -1.420  -4.610  0.00  0.00     0.013 A 
ATOM     17  C   LIG d   1       3.737  -0.486  -4.819  0.00  0.00    -0.048 A 
ATOM     18  C   LIG d   1       2.765  -0.295  -3.858  0.00  0.00    -0.061 A 
ATOM     19  H   LIG d   1       3.714   0.089  -5.734  0.00  0.00     0.063 H 
ATOM     20  C   LIG d   1       2.793  -1.030  -2.687  0.00  0.00    -0.062 A 
ATOM     21  H   LIG d   1       1.981   0.430  -4.021  0.00  0.00     0.062 H 
ATOM     22  C   LIG d   1       3.794  -1.960  -2.474  0.00  0.00    -0.061 A 
ATOM     23  H   LIG d   1       2.032  -0.878  -1.937  0.00  0.00     0.062 H 
ATOM     24  C   LIG d   1       4.767  -2.162  -3.433  0.00  0.00    -0.048 A 
ATOM     25  H   LIG d   1       3.814  -2.533  -1.558  0.00  0.00     0.062 H 
ATOM     26  H   LIG d   1       5.546  -2.891  -3.270  0.00  0.00     0.063 H 
ENDBRANCH  15  16
ENDBRANCH   1  15
BRANCH   2  27
ATOM     27  S   LIG d   1       6.242  -1.016  -8.854  0.00  0.00    -0.081 SA
BRANCH  27  28
ATOM     28  C   LIG d   1       5.014   0.221  -9.113  0.00  0.00     0.013 A 
ATOM     29  C   LIG d   1       4.881   0.819 -10.361  0.00  0.00    -0.048 A 
ATOM     30  C   LIG d   1       3.918   1.788 -10.562  0.00  0.00    -0.061 A 
ATOM     31  H   LIG d   1       5.530   0.526 -11.174  0.00  0.00     0.063 H 
ATOM     32  C   LIG d   1       3.088   2.165  -9.522  0.00  0.00    -0.062 A 
ATOM     33  H   LIG d   1       3.815   2.253 -11.530  0.00  0.00     0.062 H 
ATOM     34  C   LIG d   1       3.217   1.573  -8.278  0.00  0.00    -0.061 A 
ATOM     35  H   LIG d   1       2.335   2.923  -9.681  0.00  0.00     0.062 H 
ATOM     36  C   LIG d   1       4.173   0.598  -8.073  0.00  0.00    -0.048 A 
ATOM     37  H   LIG d   1       2.566   1.870  -7.469  0.00  0.00     0.062 H 
ATOM     38  H   LIG d   1       4.271   0.132  -7.103  0.00  0.00     0.063 H 
ENDBRANCH  27  28
ENDBRANCH   2  27
BRANCH   2  39
ATOM     39  S   LIG d   1       4.546  -3.464  -9.524  0.00  0.00    -0.081 SA
BRANCH  39  40
ATOM     40  C   LIG d   1       3.298  -2.441 -10.231  0.00  0.00     0.013 A 
ATOM     41  C   LIG d   1       2.269  -1.947  -9.437  0.00  0.00    -0.048 A 
ATOM     42  C   LIG d   1       1.292  -1.146  -9.994  0.00  0.00    -0.061 A 
ATOM     43  H   LIG d   1       2.234  -2.189  -8.385  0.00  0.00     0.063 H 
ATOM     44  C   LIG d   1       1.337  -0.836 -11.342  0.00  0.00    -0.062 A 
ATOM     45  H   LIG d   1       0.493  -0.762  -9.379  0.00  0.00     0.062 H 
ATOM     46  C   LIG d   1       2.358  -1.326 -12.135  0.00  0.00    -0.061 A 
ATOM     47  H   LIG d   1       0.571  -0.209 -11.776  0.00  0.00     0.062 H 
ATOM     48  C   LIG d   1       3.342  -2.123 -11.583  0.00  0.00    -0.048 A 
ATOM     49  H   LIG d   1       2.390  -1.082 -13.187  0.00  0.00     0.062 H 
ATOM     50  H   LIG d   1       4.143  -2.500 -12.203  0.00  0.00     0.063 H 
ENDBRANCH  39  40
ENDBRANCH   2  39
TORSDOF 8
ENDMDL
MODEL 6
REMARK VINA RESULT:      -6.6      3.109      6.990
REMARK  8 active torsions:
REMARK  status: ('A' for Active; 'I' for Inactive)
REMARK    1  A    between atoms: C_4  and  S_7 
REMARK    2  A    between atoms: S_7  and  C_8 
REMARK    3  A    between atoms: C_8  and  S_24 
REMARK    4  A    between atoms: C_9  and  S_10 
REMARK    5  A    between atoms: C_9  and  S_17 
REMARK    6  A    between atoms: S_10  and  C_11 
REMARK    7  A    between atoms: S_17  and  C_18 
REMARK    8  A    between atoms: S_24  and  C_25 
ROOT
ATOM      1  C   LIG d   1       5.239  -2.781  -7.020  0.00  0.00     0.071 C 
ATOM      2  C   LIG d   1       5.362  -2.523  -8.327  0.00  0.00     0.071 C 
ENDROOT
BRANCH   1   3
ATOM      3  S   LIG d   1       6.012  -1.727  -5.837  0.00  0.00    -0.081 SA
BRANCH   3   4
ATOM      4  C   LIG d   1       4.775  -1.489  -4.606  0.00  0.00     0.013 A 
ATOM      5  C   LIG d   1       4.795  -2.248  -3.441  0.00  0.00    -0.048 A 
ATOM      6  C   LIG d   1       3.824  -2.057  -2.478  0.00  0.00    -0.061 A 
ATOM      7  H   LIG d   1       5.570  -2.986  -3.290  0.00  0.00     0.063 H 
ATOM      8  C   LIG d   1       2.832  -1.113  -2.671  0.00  0.00    -0.062 A 
ATOM      9  H   LIG d   1       3.840  -2.647  -1.573  0.00  0.00     0.062 H 
ATOM     10  C   LIG d   1       2.808  -0.356  -3.828  0.00  0.00    -0.061 A 
ATOM     11  H   LIG d   1       2.076  -0.964  -1.914  0.00  0.00     0.062 H 
ATOM     12  C   LIG d   1       3.776  -0.541  -4.796  0.00  0.00    -0.048 A 
ATOM     13  H   LIG d   1       2.032   0.380  -3.975  0.00  0.00     0.062 H 
ATOM     14  H   LIG d   1       3.756   0.051  -5.699  0.00  0.00     0.063 H 
ENDBRANCH   3   4
ENDBRANCH   1   3
BRANCH   1  15
ATOM     15  S   LIG d   1       4.303  -4.173  -6.481  0.00  0.00    -0.081 SA
BRANCH  15  16
ATOM     16  C   LIG d   1       5.525  -5.344  -5.990  0.00  0.00     0.013 A 
ATOM     17  C   LIG d   1       6.861  -4.967  -5.909  0.00  0.00    -0.048 A 
ATOM     18  C   LIG d   1       7.814  -5.887  -5.525  0.00  0.00    -0.061 A 
ATOM     19  H   LIG d   1       7.150  -3.954  -6.147  0.00  0.00     0.063 H 
ATOM     20  C   LIG d   1       7.444  -7.185  -5.221  0.00  0.00    -0.062 A 
ATOM     21  H   LIG d   1       8.852  -5.594  -5.461  0.00  0.00     0.062 H 
ATOM     22  C   LIG d   1       6.117  -7.565  -5.301  0.00  0.00    -0.061 A 
ATOM     23  H   LIG d   1       8.192  -7.903  -4.921  0.00  0.00     0.062 H 
ATOM     24  C   LIG d   1       5.155  -6.648  -5.678  0.00  0.00    -0.048 A 
ATOM     25  H   LIG d   1       5.830  -8.580  -5.064  0.00  0.00     0.062 H 
ATOM     26  H   LIG d   1       4.118  -6.944  -5.736  0.00  0.00     0.063 H 
ENDBRANCH  15  16
ENDBRANCH   1  15
BRANCH   2  27
ATOM     27  S   LIG d   1       4.589  -3.577  -9.509  0.00  0.00    -0.081 SA
BRANCH  27  28
ATOM     28  C   LIG d   1       3.352  -2.558 -10.243  0.00  0.00     0.013 A 
ATOM     29  C   LIG d   1       2.317  -2.051  -9.466  0.00  0.00    -0.048 A 
ATOM     30  C   LIG d   1       1.349  -1.252 -10.043  0.00  0.00    -0.061 A 
ATOM     31  H   LIG d   1       2.270  -2.279  -8.411  0.00  0.00     0.063 H 
ATOM     32  C   LIG d   1       1.408  -0.959 -11.394  0.00  0.00    -0.062 A 
ATOM     33  H   LIG d   1       0.546  -0.858  -9.440  0.00  0.00     0.062 H 
ATOM     34  C   LIG d   1       2.436  -1.464 -12.171  0.00  0.00    -0.061 A 
ATOM     35  H   LIG d   1       0.650  -0.335 -11.843  0.00  0.00     0.062 H 
ATOM     36  C   LIG d   1       3.411  -2.256 -11.598  0.00  0.00    -0.048 A 
ATOM     37  H   LIG d   1       2.478  -1.233 -13.225  0.00  0.00     0.062 H 
ATOM     38  H   LIG d   1       4.216  -2.646 -12.204  0.00  0.00     0.063 H 
ENDBRANCH  27  28
ENDBRANCH   2  27
BRANCH   2  39
ATOM     39  S   LIG d   1       6.298  -1.131  -8.866  0.00  0.00    -0.081 SA
BRANCH  39  40
ATOM     40  C   LIG d   1       5.084   0.116  -9.143  0.00  0.00     0.013 A 
ATOM     41  C   LIG d   1       4.259   0.528  -8.102  0.00  0.00    -0.048 A 
ATOM     42  C   LIG d   1       3.309   1.506  -8.323  0.00  0.00    -0.061 A 
ATOM     43  H   LIG d   1       4.361   0.086  -7.123  0.00  0.00     0.063 H 
ATOM     44  C   LIG d   1       3.177   2.074  -9.578  0.00  0.00    -0.062 A 
ATOM     45  H   LIG d   1       2.667   1.827  -7.516  0.00  0.00     0.062 H 
ATOM     46  C   LIG d   1       3.995   1.666 -10.615  0.00  0.00    -0.061 A 
ATOM     47  H   LIG d   1       2.433   2.838  -9.747  0.00  0.00     0.062 H 
ATOM     48  C   LIG d   1       4.952   0.693 -10.400  0.00  0.00    -0.048 A 
ATOM     49  H   LIG d   1       3.890   2.111 -11.593  0.00  0.00     0.062 H 
ATOM     50  H   LIG d   1       5.595   0.379 -11.210  0.00  0.00     0.063 H 
ENDBRANCH  39  40
ENDBRANCH   2  39
TORSDOF 8
ENDMDL
MODEL 7
REMARK VINA RESULT:      -6.6      3.070      5.029
REMARK  8 active torsions:
REMARK  status: ('A' for Active; 'I' for Inactive)
REMARK    1  A    between atoms: C_4  and  S_7 
REMARK    2  A    between atoms: S_7  and  C_8 
REMARK    3  A    between atoms: C_8  and  S_24 
REMARK    4  A    between atoms: C_9  and  S_10 
REMARK    5  A    between atoms: C_9  and  S_17 
REMARK    6  A    between atoms: S_10  and  C_11 
REMARK    7  A    between atoms: S_17  and  C_18 
REMARK    8  A    between atoms: S_24  and  C_25 
ROOT
ATOM      1  C   LIG d   1       5.320  -2.430  -8.320  0.00  0.00     0.071 C 
ATOM      2  C   LIG d   1       5.212  -2.707  -7.016  0.00  0.00     0.071 C 
ENDROOT
BRANCH   1   3
ATOM      3  S   LIG d   1       4.541  -3.472  -9.509  0.00  0.00    -0.081 SA
BRANCH   3   4
ATOM      4  C   LIG d   1       3.303  -2.445 -10.229  0.00  0.00     0.013 A 
ATOM      5  C   LIG d   1       3.363  -2.123 -11.580  0.00  0.00    -0.048 A 
ATOM      6  C   LIG d   1       2.390  -1.320 -12.141  0.00  0.00    -0.061 A 
ATOM      7  H   LIG d   1       4.170  -2.502 -12.191  0.00  0.00     0.063 H 
ATOM      8  C   LIG d   1       1.358  -0.834 -11.359  0.00  0.00    -0.062 A 
ATOM      9  H   LIG d   1       2.437  -1.069 -13.190  0.00  0.00     0.062 H 
ATOM     10  C   LIG d   1       1.294  -1.151 -10.015  0.00  0.00    -0.061 A 
ATOM     11  H   LIG d   1       0.595  -0.208 -11.801  0.00  0.00     0.062 H 
ATOM     12  C   LIG d   1       2.263  -1.955  -9.447  0.00  0.00    -0.048 A 
ATOM     13  H   LIG d   1       0.486  -0.770  -9.408  0.00  0.00     0.062 H 
ATOM     14  H   LIG d   1       2.212  -2.202  -8.397  0.00  0.00     0.063 H 
ENDBRANCH   3   4
ENDBRANCH   1   3
BRANCH   1  15
ATOM     15  S   LIG d   1       6.239  -1.023  -8.849  0.00  0.00    -0.081 SA
BRANCH  15  16
ATOM     16  C   LIG d   1       5.012   0.215  -9.110  0.00  0.00     0.013 A 
ATOM     17  C   LIG d   1       4.167   0.590  -8.071  0.00  0.00    -0.048 A 
ATOM     18  C   LIG d   1       3.207   1.559  -8.280  0.00  0.00    -0.061 A 
ATOM     19  H   LIG d   1       4.263   0.123  -7.102  0.00  0.00     0.063 H 
ATOM     20  C   LIG d   1       3.083   2.157  -9.521  0.00  0.00    -0.062 A 
ATOM     21  H   LIG d   1       2.551   1.851  -7.472  0.00  0.00     0.062 H 
ATOM     22  C   LIG d   1       3.920   1.786 -10.558  0.00  0.00    -0.061 A 
ATOM     23  H   LIG d   1       2.331   2.915  -9.682  0.00  0.00     0.062 H 
ATOM     24  C   LIG d   1       4.888   0.822 -10.355  0.00  0.00    -0.048 A 
ATOM     25  H   LIG d   1       3.820   2.254 -11.526  0.00  0.00     0.062 H 
ATOM     26  H   LIG d   1       5.545   0.536 -11.163  0.00  0.00     0.063 H 
ENDBRANCH  15  16
ENDBRANCH   1  15
BRANCH   2  27
ATOM     27  S   LIG d   1       5.991  -1.666  -5.826  0.00  0.00    -0.081 SA
BRANCH  27  28
ATOM     28  C   LIG d   1       4.747  -1.410  -4.605  0.00  0.00     0.013 A 
ATOM     29  C   LIG d   1       4.755  -2.161  -3.435  0.00  0.00    -0.048 A 
ATOM     30  C   LIG d   1       3.779  -1.958  -2.479  0.00  0.00    -0.061 A 
ATOM     31  H   LIG d   1       5.525  -2.901  -3.273  0.00  0.00     0.063 H 
ATOM     32  C   LIG d   1       2.793  -1.010  -2.687  0.00  0.00    -0.062 A 
ATOM     33  H   LIG d   1       3.785  -2.540  -1.571  0.00  0.00     0.062 H 
ATOM     34  C   LIG d   1       2.781  -0.262  -3.850  0.00  0.00    -0.061 A 
ATOM     35  H   LIG d   1       2.031  -0.854  -1.938  0.00  0.00     0.062 H 
ATOM     36  C   LIG d   1       3.758  -0.454  -4.806  0.00  0.00    -0.048 A 
ATOM     37  H   LIG d   1       2.009   0.477  -4.008  0.00  0.00     0.062 H 
ATOM     38  H   LIG d   1       3.751   0.134  -5.713  0.00  0.00     0.063 H 
ENDBRANCH  27  28
ENDBRANCH   2  27
BRANCH   2  39
ATOM     39  S   LIG d   1       4.293  -4.115  -6.487  0.00  0.00    -0.081 SA
BRANCH  39  40
ATOM     40  C   LIG d   1       5.528  -5.260  -5.969  0.00  0.00     0.013 A 
ATOM     41  C   LIG d   1       6.827  -4.824  -5.732  0.00  0.00    -0.048 A 
ATOM     42  C   LIG d   1       7.793  -5.724  -5.327  0.00  0.00    -0.061 A 
ATOM     43  H   LIG d   1       7.081  -3.782  -5.864  0.00  0.00     0.063 H 
ATOM     44  C   LIG d   1       7.469  -7.059  -5.158  0.00  0.00    -0.062 A 
ATOM     45  H   LIG d   1       8.802  -5.387  -5.143  0.00  0.00     0.062 H 
ATOM     46  C   LIG d   1       6.178  -7.496  -5.394  0.00  0.00    -0.061 A 
ATOM     47  H   LIG d   1       8.226  -7.760  -4.841  0.00  0.00     0.062 H 
ATOM     48  C   LIG d   1       5.205  -6.600  -5.793  0.00  0.00    -0.048 A 
ATOM     49  H   LIG d   1       5.929  -8.538  -5.261  0.00  0.00     0.062 H 
ATOM     50  H   LIG d   1       4.196  -6.942  -5.971  0.00  0.00     0.063 H 
ENDBRANCH  39  40
ENDBRANCH   2  39
TORSDOF 8
ENDMDL
MODEL 8
REMARK VINA RESULT:      -6.5      0.363      5.791
REMARK  8 active torsions:
REMARK  status: ('A' for Active; 'I' for Inactive)
REMARK    1  A    between atoms: C_4  and  S_7 
REMARK    2  A    between atoms: S_7  and  C_8 
REMARK    3  A    between atoms: C_8  and  S_24 
REMARK    4  A    between atoms: C_9  and  S_10 
REMARK    5  A    between atoms: C_9  and  S_17 
REMARK    6  A    between atoms: S_10  and  C_11 
REMARK    7  A    between atoms: S_17  and  C_18 
REMARK    8  A    between atoms: S_24  and  C_25 
ROOT
ATOM      1  C   LIG d   1       5.307  -0.919  -6.652  0.00  0.00     0.071 C 
ATOM      2  C   LIG d   1       4.671  -0.114  -7.511  0.00  0.00     0.071 C 
ENDROOT
BRANCH   1   3
ATOM      3  S   LIG d   1       7.066  -1.021  -6.678  0.00  0.00    -0.081 SA
BRANCH   3   4
ATOM      4  C   LIG d   1       7.587   0.377  -5.742  0.00  0.00     0.013 A 
ATOM      5  C   LIG d   1       8.192   1.456  -6.377  0.00  0.00    -0.048 A 
ATOM      6  C   LIG d   1       8.598   2.551  -5.641  0.00  0.00    -0.061 A 
ATOM      7  H   LIG d   1       8.343   1.438  -7.447  0.00  0.00     0.063 H 
ATOM      8  C   LIG d   1       8.405   2.574  -4.271  0.00  0.00    -0.062 A 
ATOM      9  H   LIG d   1       9.068   3.388  -6.134  0.00  0.00     0.062 H 
ATOM     10  C   LIG d   1       7.804   1.504  -3.635  0.00  0.00    -0.061 A 
ATOM     11  H   LIG d   1       8.721   3.434  -3.697  0.00  0.00     0.062 H 
ATOM     12  C   LIG d   1       7.395   0.405  -4.365  0.00  0.00    -0.048 A 
ATOM     13  H   LIG d   1       7.656   1.526  -2.566  0.00  0.00     0.062 H 
ATOM     14  H   LIG d   1       6.926  -0.430  -3.867  0.00  0.00     0.063 H 
ENDBRANCH   3   4
ENDBRANCH   1   3
BRANCH   1  15
ATOM     15  S   LIG d   1       4.386  -1.877  -5.495  0.00  0.00    -0.081 SA
BRANCH  15  16
ATOM     16  C   LIG d   1       4.320  -0.860  -4.057  0.00  0.00     0.013 A 
ATOM     17  C   LIG d   1       3.881   0.456  -4.152  0.00  0.00    -0.048 A 
ATOM     18  C   LIG d   1       3.831   1.248  -3.024  0.00  0.00    -0.061 A 
ATOM     19  H   LIG d   1       3.578   0.856  -5.109  0.00  0.00     0.063 H 
ATOM     20  C   LIG d   1       4.218   0.737  -1.798  0.00  0.00    -0.062 A 
ATOM     21  H   LIG d   1       3.489   2.271  -3.098  0.00  0.00     0.062 H 
ATOM     22  C   LIG d   1       4.657  -0.571  -1.699  0.00  0.00    -0.061 A 
ATOM     23  H   LIG d   1       4.179   1.359  -0.917  0.00  0.00     0.062 H 
ATOM     24  C   LIG d   1       4.703  -1.373  -2.822  0.00  0.00    -0.048 A 
ATOM     25  H   LIG d   1       4.959  -0.968  -0.740  0.00  0.00     0.062 H 
ATOM     26  H   LIG d   1       5.041  -2.396  -2.743  0.00  0.00     0.063 H 
ENDBRANCH  15  16
ENDBRANCH   1  15
BRANCH   2  27
ATOM     27  S   LIG d   1       2.911  -0.012  -7.485  0.00  0.00    -0.081 SA
BRANCH  27  28
ATOM     28  C   LIG d   1       2.409  -0.964  -8.879  0.00  0.00     0.013 A 
ATOM     29  C   LIG d   1       2.853  -2.274  -9.025  0.00  0.00    -0.048 A 
ATOM     30  C   LIG d   1       2.457  -3.018 -10.119  0.00  0.00    -0.061 A 
ATOM     31  H   LIG d   1       3.506  -2.709  -8.282  0.00  0.00     0.063 H 
ATOM     32  C   LIG d   1       1.622  -2.461 -11.070  0.00  0.00    -0.062 A 
ATOM     33  H   LIG d   1       2.802  -4.035 -10.232  0.00  0.00     0.062 H 
ATOM     34  C   LIG d   1       1.179  -1.158 -10.930  0.00  0.00    -0.061 A 
ATOM     35  H   LIG d   1       1.315  -3.045 -11.925  0.00  0.00     0.062 H 
ATOM     36  C   LIG d   1       1.564  -0.411  -9.835  0.00  0.00    -0.048 A 
ATOM     37  H   LIG d   1       0.527  -0.727 -11.675  0.00  0.00     0.062 H 
ATOM     38  H   LIG d   1       1.215   0.606  -9.722  0.00  0.00     0.063 H 
ENDBRANCH  27  28
ENDBRANCH   2  27
BRANCH   2  39
ATOM     39  S   LIG d   1       5.592   0.843  -8.668  0.00  0.00    -0.081 SA
BRANCH  39  40
ATOM     40  C   LIG d   1       5.365  -0.003 -10.197  0.00  0.00     0.013 A 
ATOM     41  C   LIG d   1       5.976  -1.234 -10.408  0.00  0.00    -0.048 A 
ATOM     42  C   LIG d   1       5.797  -1.895 -11.607  0.00  0.00    -0.061 A 
ATOM     43  H   LIG d   1       6.589  -1.674  -9.636  0.00  0.00     0.063 H 
ATOM     44  C   LIG d   1       5.012  -1.333 -12.598  0.00  0.00    -0.062 A 
ATOM     45  H   LIG d   1       6.271  -2.851 -11.773  0.00  0.00     0.062 H 
ATOM     46  C   LIG d   1       4.404  -0.108 -12.392  0.00  0.00    -0.061 A 
ATOM     47  H   LIG d   1       4.874  -1.852 -13.535  0.00  0.00     0.062 H 
ATOM     48  C   LIG d   1       4.573   0.556 -11.192  0.00  0.00    -0.048 A 
ATOM     49  H   LIG d   1       3.791   0.328 -13.167  0.00  0.00     0.062 H 
ATOM     50  H   LIG d   1       4.092   1.510 -11.030  0.00  0.00     0.063 H 
ENDBRANCH  39  40
ENDBRANCH   2  39
TORSDOF 8
ENDMDL
MODEL 9
REMARK VINA RESULT:      -6.5      0.356      5.677
REMARK  8 active torsions:
REMARK  status: ('A' for Active; 'I' for Inactive)
REMARK    1  A    between atoms: C_4  and  S_7 
REMARK    2  A    between atoms: S_7  and  C_8 
REMARK    3  A    between atoms: C_8  and  S_24 
REMARK    4  A    between atoms: C_9  and  S_10 
REMARK    5  A    between atoms: C_9  and  S_17 
REMARK    6  A    between atoms: S_10  and  C_11 
REMARK    7  A    between atoms: S_17  and  C_18 
REMARK    8  A    between atoms: S_24  and  C_25 
ROOT
ATOM      1  C   LIG d   1       4.645  -0.139  -7.550  0.00  0.00     0.071 C 
ATOM      2  C   LIG d   1       5.281  -0.942  -6.689  0.00  0.00     0.071 C 
ENDROOT
BRANCH   1   3
ATOM      3  S   LIG d   1       5.568   0.825  -8.701  0.00  0.00    -0.081 SA
BRANCH   3   4
ATOM      4  C   LIG d   1       5.358  -0.021 -10.231  0.00  0.00     0.013 A 
ATOM      5  C   LIG d   1       4.571   0.535 -11.233  0.00  0.00    -0.048 A 
ATOM      6  C   LIG d   1       4.409  -0.130 -12.432  0.00  0.00    -0.061 A 
ATOM      7  H   LIG d   1       4.086   1.488 -11.074  0.00  0.00     0.063 H 
ATOM      8  C   LIG d   1       5.028  -1.350 -12.636  0.00  0.00    -0.062 A 
ATOM      9  H   LIG d   1       3.797   0.302 -13.210  0.00  0.00     0.062 H 
ATOM     10  C   LIG d   1       5.812  -1.907 -11.643  0.00  0.00    -0.061 A 
ATOM     11  H   LIG d   1       4.903  -1.867 -13.577  0.00  0.00     0.062 H 
ATOM     12  C   LIG d   1       5.978  -1.247 -10.441  0.00  0.00    -0.048 A 
ATOM     13  H   LIG d   1       6.293  -2.860 -11.806  0.00  0.00     0.062 H 
ATOM     14  H   LIG d   1       6.591  -1.683  -9.666  0.00  0.00     0.063 H 
ENDBRANCH   3   4
ENDBRANCH   1   3
BRANCH   1  15
ATOM     15  S   LIG d   1       2.886  -0.047  -7.534  0.00  0.00    -0.081 SA
BRANCH  15  16
ATOM     16  C   LIG d   1       2.396  -1.003  -8.931  0.00  0.00     0.013 A 
ATOM     17  C   LIG d   1       1.551  -0.456  -9.890  0.00  0.00    -0.048 A 
ATOM     18  C   LIG d   1       1.170  -1.209 -10.982  0.00  0.00    -0.061 A 
ATOM     19  H   LIG d   1       1.195   0.558  -9.781  0.00  0.00     0.063 H 
ATOM     20  C   LIG d   1       1.625  -2.507 -11.123  0.00  0.00    -0.062 A 
ATOM     21  H   LIG d   1       0.514  -0.783 -11.728  0.00  0.00     0.062 H 
ATOM     22  C   LIG d   1       2.464  -3.057 -10.170  0.00  0.00    -0.061 A 
ATOM     23  H   LIG d   1       1.324  -3.094 -11.977  0.00  0.00     0.062 H 
ATOM     24  C   LIG d   1       2.856  -2.308  -9.078  0.00  0.00    -0.048 A 
ATOM     25  H   LIG d   1       2.817  -4.072 -10.283  0.00  0.00     0.062 H 
ATOM     26  H   LIG d   1       3.515  -2.735  -8.337  0.00  0.00     0.063 H 
ENDBRANCH  15  16
ENDBRANCH   1  15
BRANCH   2  27
ATOM     27  S   LIG d   1       4.358  -1.907  -5.538  0.00  0.00    -0.081 SA
BRANCH  27  28
ATOM     28  C   LIG d   1       4.267  -0.887  -4.105  0.00  0.00     0.013 A 
ATOM     29  C   LIG d   1       3.779   0.411  -4.203  0.00  0.00    -0.048 A 
ATOM     30  C   LIG d   1       3.708   1.208  -3.078  0.00  0.00    -0.061 A 
ATOM     31  H   LIG d   1       3.454   0.796  -5.159  0.00  0.00     0.063 H 
ATOM     32  C   LIG d   1       4.124   0.716  -1.854  0.00  0.00    -0.062 A 
ATOM     33  H   LIG d   1       3.330   2.216  -3.153  0.00  0.00     0.062 H 
ATOM     34  C   LIG d   1       4.612  -0.575  -1.751  0.00  0.00    -0.061 A 
ATOM     35  H   LIG d   1       4.068   1.341  -0.975  0.00  0.00     0.062 H 
ATOM     36  C   LIG d   1       4.678  -1.379  -2.871  0.00  0.00    -0.048 A 
ATOM     37  H   LIG d   1       4.935  -0.955  -0.794  0.00  0.00     0.062 H 
ATOM     38  H   LIG d   1       5.054  -2.389  -2.791  0.00  0.00     0.063 H 
ENDBRANCH  27  28
ENDBRANCH   2  27
BRANCH   2  39
ATOM     39  S   LIG d   1       7.040  -1.035  -6.705  0.00  0.00    -0.081 SA
BRANCH  39  40
ATOM     40  C   LIG d   1       7.549   0.380  -5.785  0.00  0.00     0.013 A 
ATOM     41  C   LIG d   1       7.297   0.450  -4.420  0.00  0.00    -0.048 A 
ATOM     42  C   LIG d   1       7.697   1.560  -3.702  0.00  0.00    -0.061 A 
ATOM     43  H   LIG d   1       6.791  -0.362  -3.920  0.00  0.00     0.063 H 
ATOM     44  C   LIG d   1       8.347   2.601  -4.341  0.00  0.00    -0.062 A 
ATOM     45  H   LIG d   1       7.502   1.617  -2.642  0.00  0.00     0.062 H 
ATOM     46  C   LIG d   1       8.598   2.535  -5.700  0.00  0.00    -0.061 A 
ATOM     47  H   LIG d   1       8.658   3.469  -3.778  0.00  0.00     0.062 H 
ATOM     48  C   LIG d   1       8.207   1.425  -6.423  0.00  0.00    -0.048 A 
ATOM     49  H   LIG d   1       9.105   3.350  -6.195  0.00  0.00     0.062 H 
ATOM     50  H   LIG d   1       8.409   1.372  -7.483  0.00  0.00     0.063 H 
ENDBRANCH  39  40
ENDBRANCH   2  39
TORSDOF 8
ENDMDL
MODEL 10
REMARK VINA RESULT:      -6.4      3.038      6.454
REMARK  8 active torsions:
REMARK  status: ('A' for Active; 'I' for Inactive)
REMARK    1  A    between atoms: C_4  and  S_7 
REMARK    2  A    between atoms: S_7  and  C_8 
REMARK    3  A    between atoms: C_8  and  S_24 
REMARK    4  A    between atoms: C_9  and  S_10 
REMARK    5  A    between atoms: C_9  and  S_17 
REMARK    6  A    between atoms: S_10  and  C_11 
REMARK    7  A    between atoms: S_17  and  C_18 
REMARK    8  A    between atoms: S_24  and  C_25 
ROOT
ATOM      1  C   LIG d   1       6.363  -2.741  -5.257  0.00  0.00     0.071 C 
ATOM      2  C   LIG d   1       6.102  -2.819  -6.567  0.00  0.00     0.071 C 
ENDROOT
BRANCH   1   3
ATOM      3  S   LIG d   1       7.983  -2.320  -4.704  0.00  0.00    -0.081 SA
BRANCH   3   4
ATOM      4  C   LIG d   1       8.597  -3.817  -4.006  0.00  0.00     0.013 A 
ATOM      5  C   LIG d   1       8.426  -5.021  -4.679  0.00  0.00    -0.048 A 
ATOM      6  C   LIG d   1       8.910  -6.192  -4.129  0.00  0.00    -0.061 A 
ATOM      7  H   LIG d   1       7.916  -5.041  -5.631  0.00  0.00     0.063 H 
ATOM      8  C   LIG d   1       9.562  -6.167  -2.911  0.00  0.00    -0.062 A 
ATOM      9  H   LIG d   1       8.777  -7.128  -4.652  0.00  0.00     0.062 H 
ATOM     10  C   LIG d   1       9.735  -4.971  -2.237  0.00  0.00    -0.061 A 
ATOM     11  H   LIG d   1       9.944  -7.084  -2.484  0.00  0.00     0.062 H 
ATOM     12  C   LIG d   1       9.254  -3.796  -2.781  0.00  0.00    -0.048 A 
ATOM     13  H   LIG d   1      10.245  -4.956  -1.286  0.00  0.00     0.062 H 
ATOM     14  H   LIG d   1       9.389  -2.863  -2.255  0.00  0.00     0.063 H 
ENDBRANCH   3   4
ENDBRANCH   1   3
BRANCH   1  15
ATOM     15  S   LIG d   1       5.086  -3.058  -4.084  0.00  0.00    -0.081 SA
BRANCH  15  16
ATOM     16  C   LIG d   1       4.708  -1.469  -3.425  0.00  0.00     0.013 A 
ATOM     17  C   LIG d   1       3.388  -1.118  -3.164  0.00  0.00    -0.048 A 
ATOM     18  C   LIG d   1       3.097   0.129  -2.647  0.00  0.00    -0.061 A 
ATOM     19  H   LIG d   1       2.593  -1.821  -3.363  0.00  0.00     0.063 H 
ATOM     20  C   LIG d   1       4.115   1.030  -2.391  0.00  0.00    -0.062 A 
ATOM     21  H   LIG d   1       2.071   0.401  -2.443  0.00  0.00     0.062 H 
ATOM     22  C   LIG d   1       5.429   0.685  -2.651  0.00  0.00    -0.061 A 
ATOM     23  H   LIG d   1       3.884   2.004  -1.988  0.00  0.00     0.062 H 
ATOM     24  C   LIG d   1       5.730  -0.562  -3.161  0.00  0.00    -0.048 A 
ATOM     25  H   LIG d   1       6.222   1.391  -2.451  0.00  0.00     0.062 H 
ATOM     26  H   LIG d   1       6.756  -0.833  -3.359  0.00  0.00     0.063 H 
ENDBRANCH  15  16
ENDBRANCH   1  15
BRANCH   2  27
ATOM     27  S   LIG d   1       4.483  -3.240  -7.120  0.00  0.00    -0.081 SA
BRANCH  27  28
ATOM     28  C   LIG d   1       3.806  -1.707  -7.663  0.00  0.00     0.013 A 
ATOM     29  C   LIG d   1       3.823  -0.600  -6.820  0.00  0.00    -0.048 A 
ATOM     30  C   LIG d   1       3.293   0.600  -7.249  0.00  0.00    -0.061 A 
ATOM     31  H   LIG d   1       4.253  -0.680  -5.832  0.00  0.00     0.063 H 
ATOM     32  C   LIG d   1       2.743   0.703  -8.513  0.00  0.00    -0.062 A 
ATOM     33  H   LIG d   1       3.306   1.459  -6.595  0.00  0.00     0.062 H 
ATOM     34  C   LIG d   1       2.722  -0.396  -9.355  0.00  0.00    -0.061 A 
ATOM     35  H   LIG d   1       2.328   1.643  -8.846  0.00  0.00     0.062 H 
ATOM     36  C   LIG d   1       3.258  -1.597  -8.935  0.00  0.00    -0.048 A 
ATOM     37  H   LIG d   1       2.292  -0.312 -10.341  0.00  0.00     0.062 H 
ATOM     38  H   LIG d   1       3.246  -2.454  -9.594  0.00  0.00     0.063 H 
ENDBRANCH  27  28
ENDBRANCH   2  27
BRANCH   2  39
ATOM     39  S   LIG d   1       7.379  -2.502  -7.740  0.00  0.00    -0.081 SA
BRANCH  39  40
ATOM     40  C   LIG d   1       7.103  -0.832  -8.228  0.00  0.00     0.013 A 
ATOM     41  C   LIG d   1       7.376   0.207  -7.344  0.00  0.00    -0.048 A 
ATOM     42  C   LIG d   1       7.159   1.514  -7.730  0.00  0.00    -0.061 A 
ATOM     43  H   LIG d   1       7.759  -0.009  -6.358  0.00  0.00     0.063 H 
ATOM     44  C   LIG d   1       6.668   1.792  -8.994  0.00  0.00    -0.062 A 
ATOM     45  H   LIG d   1       7.371   2.322  -7.045  0.00  0.00     0.062 H 
ATOM     46  C   LIG d   1       6.394   0.762  -9.875  0.00  0.00    -0.061 A 
ATOM     47  H   LIG d   1       6.498   2.816  -9.293  0.00  0.00     0.062 H 
ATOM     48  C   LIG d   1       6.616  -0.549  -9.498  0.00  0.00    -0.048 A 
ATOM     49  H   LIG d   1       6.011   0.982 -10.860  0.00  0.00     0.062 H 
ATOM     50  H   LIG d   1       6.406  -1.352 -10.189  0.00  0.00     0.063 H 
ENDBRANCH  39  40
ENDBRANCH   2  39
TORSDOF 8
ENDMDL
