MODEL 1
REMARK VINA RESULT:      -6.7      0.000      0.000
REMARK  5 active torsions:
REMARK  status: ('A' for Active; 'I' for Inactive)
REMARK    1  A    between atoms: C_1  and  C_2 
REMARK    2  A    between atoms: C_2  and  C_3 
REMARK    3  A    between atoms: C_2  and  N_4 
REMARK    4  A    between atoms: C_6  and  C_15 
REMARK       I    between atoms: C_15  and  N_17 
REMARK    5  A    between atoms: N_17  and  C_18 
ROOT
ATOM      1  N   LIG d   1       5.251  -6.617  -6.443  0.00  0.00    -0.311 N 
ATOM      2  C   LIG d   1       5.314  -5.510  -5.666  0.00  0.00     0.021 A 
ATOM      3  C   LIG d   1       4.841  -4.301  -6.082  0.00  0.00     0.061 A 
ATOM      4  C   LIG d   1       4.241  -4.190  -7.422  0.00  0.00     0.001 A 
ATOM      5  C   LIG d   1       3.740  -2.986  -7.909  0.00  0.00    -0.053 A 
ATOM      6  C   LIG d   1       3.188  -2.939  -9.171  0.00  0.00    -0.061 A 
ATOM      7  C   LIG d   1       3.128  -4.079  -9.961  0.00  0.00    -0.061 A 
ATOM      8  C   LIG d   1       3.617  -5.282  -9.499  0.00  0.00    -0.049 A 
ATOM      9  C   LIG d   1       4.180  -5.350  -8.225  0.00  0.00     0.047 A 
ATOM     10  C   LIG d   1       4.723  -6.602  -7.682  0.00  0.00     0.259 A 
ATOM     11  O   LIG d   1       4.693  -7.622  -8.347  0.00  0.00    -0.267 OA
ATOM     12  H   LIG d   1       5.754  -5.587  -4.682  0.00  0.00     0.082 H 
ATOM     13  H   LIG d   1       3.782  -2.094  -7.301  0.00  0.00     0.062 H 
ATOM     14  H   LIG d   1       2.798  -2.006  -9.549  0.00  0.00     0.062 H 
ATOM     15  H   LIG d   1       2.692  -4.024 -10.947  0.00  0.00     0.062 H 
ATOM     16  H   LIG d   1       3.566  -6.164 -10.119  0.00  0.00     0.062 H 
ENDROOT
BRANCH   3  17
ATOM     17  C   LIG d   1       4.930  -3.124  -5.205  0.00  0.00     0.250 C 
ATOM     18  O   LIG d   1       5.932  -2.434  -5.213  0.00  0.00    -0.270 OA
ATOM     19  N   LIG d   1       3.900  -2.808  -4.395  0.00  0.00    -0.281 N 
ATOM     20  H   LIG d   1       3.130  -3.395  -4.337  0.00  0.00     0.155 HD
BRANCH  19  21
ATOM     21  C   LIG d   1       3.942  -1.634  -3.638  0.00  0.00     0.043 A 
ATOM     22  C   LIG d   1       3.444  -0.434  -4.167  0.00  0.00     0.021 A 
ATOM     23  C   LIG d   1       3.485   0.741  -3.397  0.00  0.00     0.048 A 
ATOM     24  C   LIG d   1       2.830  -0.063  -5.443  0.00  0.00    -0.035 A 
ATOM     25  C   LIG d   1       4.030   0.702  -2.116  0.00  0.00    -0.038 A 
ATOM     26  N   LIG d   1       2.930   1.744  -4.159  0.00  0.00    -0.361 N 
ATOM     27  C   LIG d   1       4.519  -0.482  -1.610  0.00  0.00    -0.058 A 
ATOM     28  H   LIG d   1       4.067   1.601  -1.519  0.00  0.00     0.064 H 
ATOM     29  C   LIG d   1       4.477  -1.646  -2.363  0.00  0.00    -0.040 A 
ATOM     30  H   LIG d   1       4.940  -0.504  -0.615  0.00  0.00     0.062 H 
ATOM     31  H   LIG d   1       4.866  -2.566  -1.952  0.00  0.00     0.064 H 
ATOM     32  C   LIG d   1       2.553   1.249  -5.378  0.00  0.00     0.003 A 
ATOM     33  H   LIG d   1       2.830   2.668  -3.877  0.00  0.00     0.165 HD
ATOM     34  H   LIG d   1       2.092   1.825  -6.167  0.00  0.00     0.081 H 
ATOM     35  H   LIG d   1       2.637  -0.720  -6.279  0.00  0.00     0.064 H 
ENDBRANCH  19  21
ENDBRANCH   3  17
BRANCH   1  36
ATOM     36  C   LIG d   1       5.782  -7.877  -5.920  0.00  0.00     0.032 C 
ATOM     37  H   LIG d   1       5.950  -8.571  -6.743  0.00  0.00     0.052 H 
BRANCH  36  38
ATOM     38  C   LIG d   1       7.105  -7.613  -5.199  0.00  0.00    -0.044 C 
ATOM     39  H   LIG d   1       7.899  -8.188  -5.675  0.00  0.00     0.025 H 
ATOM     40  H   LIG d   1       7.343  -6.550  -5.254  0.00  0.00     0.025 H 
ATOM     41  H   LIG d   1       7.017  -7.912  -4.154  0.00  0.00     0.025 H 
ENDBRANCH  36  38
BRANCH  36  42
ATOM     42  C   LIG d   1       4.779  -8.486  -4.938  0.00  0.00    -0.044 C 
ATOM     43  H   LIG d   1       3.781  -8.104  -5.157  0.00  0.00     0.025 H 
ATOM     44  H   LIG d   1       4.783  -9.571  -5.040  0.00  0.00     0.025 H 
ATOM     45  H   LIG d   1       5.056  -8.215  -3.920  0.00  0.00     0.025 H 
ENDBRANCH  36  42
ENDBRANCH   1  36
TORSDOF 5
ENDMDL
MODEL 2
REMARK VINA RESULT:      -6.7      5.514      8.502
REMARK  5 active torsions:
REMARK  status: ('A' for Active; 'I' for Inactive)
REMARK    1  A    between atoms: C_1  and  C_2 
REMARK    2  A    between atoms: C_2  and  C_3 
REMARK    3  A    between atoms: C_2  and  N_4 
REMARK    4  A    between atoms: C_6  and  C_15 
REMARK       I    between atoms: C_15  and  N_17 
REMARK    5  A    between atoms: N_17  and  C_18 
ROOT
ATOM      1  N   LIG d   1       9.901   4.178  -4.206  0.00  0.00    -0.311 N 
ATOM      2  C   LIG d   1       9.106   3.166  -3.781  0.00  0.00     0.021 A 
ATOM      3  C   LIG d   1       8.475   2.324  -4.647  0.00  0.00     0.061 A 
ATOM      4  C   LIG d   1       8.659   2.517  -6.095  0.00  0.00     0.001 A 
ATOM      5  C   LIG d   1       8.043   1.694  -7.034  0.00  0.00    -0.053 A 
ATOM      6  C   LIG d   1       8.251   1.919  -8.377  0.00  0.00    -0.061 A 
ATOM      7  C   LIG d   1       9.067   2.958  -8.804  0.00  0.00    -0.061 A 
ATOM      8  C   LIG d   1       9.687   3.785  -7.892  0.00  0.00    -0.049 A 
ATOM      9  C   LIG d   1       9.489   3.574  -6.528  0.00  0.00     0.047 A 
ATOM     10  C   LIG d   1      10.119   4.426  -5.511  0.00  0.00     0.259 A 
ATOM     11  O   LIG d   1      10.838   5.351  -5.846  0.00  0.00    -0.267 OA
ATOM     12  H   LIG d   1       8.968   3.022  -2.719  0.00  0.00     0.082 H 
ATOM     13  H   LIG d   1       7.407   0.882  -6.710  0.00  0.00     0.062 H 
ATOM     14  H   LIG d   1       7.774   1.280  -9.106  0.00  0.00     0.062 H 
ATOM     15  H   LIG d   1       9.218   3.119  -9.861  0.00  0.00     0.062 H 
ATOM     16  H   LIG d   1      10.321   4.590  -8.232  0.00  0.00     0.062 H 
ENDROOT
BRANCH   3  17
ATOM     17  C   LIG d   1       7.620   1.239  -4.142  0.00  0.00     0.250 C 
ATOM     18  O   LIG d   1       8.116   0.178  -3.812  0.00  0.00    -0.270 OA
ATOM     19  N   LIG d   1       6.289   1.420  -4.043  0.00  0.00    -0.281 N 
ATOM     20  H   LIG d   1       5.884   2.239  -4.371  0.00  0.00     0.155 HD
BRANCH  19  21
ATOM     21  C   LIG d   1       5.489   0.428  -3.470  0.00  0.00     0.043 A 
ATOM     22  C   LIG d   1       5.086  -0.681  -4.228  0.00  0.00     0.021 A 
ATOM     23  C   LIG d   1       4.285  -1.676  -3.641  0.00  0.00     0.048 A 
ATOM     24  C   LIG d   1       5.314  -1.104  -5.610  0.00  0.00    -0.035 A 
ATOM     25  C   LIG d   1       3.893  -1.545  -2.312  0.00  0.00    -0.038 A 
ATOM     26  N   LIG d   1       4.055  -2.631  -4.606  0.00  0.00    -0.361 N 
ATOM     27  C   LIG d   1       4.293  -0.449  -1.579  0.00  0.00    -0.058 A 
ATOM     28  H   LIG d   1       3.277  -2.304  -1.854  0.00  0.00     0.064 H 
ATOM     29  C   LIG d   1       5.086   0.534  -2.151  0.00  0.00    -0.040 A 
ATOM     30  H   LIG d   1       3.984  -0.354  -0.548  0.00  0.00     0.062 H 
ATOM     31  H   LIG d   1       5.390   1.389  -1.563  0.00  0.00     0.064 H 
ATOM     32  C   LIG d   1       4.668  -2.269  -5.775  0.00  0.00     0.003 A 
ATOM     33  H   LIG d   1       3.527  -3.436  -4.479  0.00  0.00     0.165 HD
ATOM     34  H   LIG d   1       4.645  -2.840  -6.691  0.00  0.00     0.081 H 
ATOM     35  H   LIG d   1       5.892  -0.579  -6.357  0.00  0.00     0.064 H 
ENDBRANCH  19  21
ENDBRANCH   3  17
BRANCH   1  36
ATOM     36  C   LIG d   1      10.542   5.037  -3.209  0.00  0.00     0.032 C 
ATOM     37  H   LIG d   1      11.402   5.534  -3.657  0.00  0.00     0.052 H 
BRANCH  36  38
ATOM     38  C   LIG d   1       9.543   6.087  -2.721  0.00  0.00    -0.044 C 
ATOM     39  H   LIG d   1       9.075   5.742  -1.799  0.00  0.00     0.025 H 
ATOM     40  H   LIG d   1      10.065   7.026  -2.534  0.00  0.00     0.025 H 
ATOM     41  H   LIG d   1       8.777   6.242  -3.481  0.00  0.00     0.025 H 
ENDBRANCH  36  38
BRANCH  36  42
ATOM     42  C   LIG d   1      11.007   4.186  -2.025  0.00  0.00    -0.044 C 
ATOM     43  H   LIG d   1      10.637   4.623  -1.097  0.00  0.00     0.025 H 
ATOM     44  H   LIG d   1      10.616   3.173  -2.130  0.00  0.00     0.025 H 
ATOM     45  H   LIG d   1      12.095   4.156  -2.004  0.00  0.00     0.025 H 
ENDBRANCH  36  42
ENDBRANCH   1  36
TORSDOF 5
ENDMDL
MODEL 3
REMARK VINA RESULT:      -6.6      2.031      7.419
REMARK  5 active torsions:
REMARK  status: ('A' for Active; 'I' for Inactive)
REMARK    1  A    between atoms: C_1  and  C_2 
REMARK    2  A    between atoms: C_2  and  C_3 
REMARK    3  A    between atoms: C_2  and  N_4 
REMARK    4  A    between atoms: C_6  and  C_15 
REMARK       I    between atoms: C_15  and  N_17 
REMARK    5  A    between atoms: N_17  and  C_18 
ROOT
ATOM      1  N   LIG d   1       3.252  -0.135  -6.888  0.00  0.00    -0.311 N 
ATOM      2  C   LIG d   1       3.739  -1.384  -7.084  0.00  0.00     0.021 A 
ATOM      3  C   LIG d   1       4.139  -2.179  -6.051  0.00  0.00     0.061 A 
ATOM      4  C   LIG d   1       4.041  -1.666  -4.674  0.00  0.00     0.001 A 
ATOM      5  C   LIG d   1       4.434  -2.425  -3.575  0.00  0.00    -0.053 A 
ATOM      6  C   LIG d   1       4.320  -1.897  -2.308  0.00  0.00    -0.061 A 
ATOM      7  C   LIG d   1       3.820  -0.615  -2.116  0.00  0.00    -0.061 A 
ATOM      8  C   LIG d   1       3.425   0.153  -3.190  0.00  0.00    -0.049 A 
ATOM      9  C   LIG d   1       3.532  -0.364  -4.481  0.00  0.00     0.047 A 
ATOM     10  C   LIG d   1       3.133   0.411  -5.663  0.00  0.00     0.259 A 
ATOM     11  O   LIG d   1       2.694   1.540  -5.536  0.00  0.00    -0.267 OA
ATOM     12  H   LIG d   1       3.813  -1.763  -8.093  0.00  0.00     0.082 H 
ATOM     13  H   LIG d   1       4.823  -3.423  -3.715  0.00  0.00     0.062 H 
ATOM     14  H   LIG d   1       4.623  -2.485  -1.454  0.00  0.00     0.062 H 
ATOM     15  H   LIG d   1       3.738  -0.218  -1.116  0.00  0.00     0.062 H 
ATOM     16  H   LIG d   1       3.036   1.148  -3.033  0.00  0.00     0.062 H 
ENDROOT
BRANCH   3  17
ATOM     17  C   LIG d   1       4.663  -3.529  -6.309  0.00  0.00     0.250 C 
ATOM     18  O   LIG d   1       5.850  -3.691  -6.518  0.00  0.00    -0.270 OA
ATOM     19  N   LIG d   1       3.828  -4.586  -6.312  0.00  0.00    -0.281 N 
ATOM     20  H   LIG d   1       2.871  -4.450  -6.215  0.00  0.00     0.155 HD
BRANCH  19  21
ATOM     21  C   LIG d   1       4.338  -5.879  -6.455  0.00  0.00     0.043 A 
ATOM     22  C   LIG d   1       4.295  -6.522  -7.701  0.00  0.00     0.021 A 
ATOM     23  C   LIG d   1       4.814  -7.821  -7.837  0.00  0.00     0.048 A 
ATOM     24  C   LIG d   1       3.800  -6.140  -9.024  0.00  0.00    -0.035 A 
ATOM     25  C   LIG d   1       5.359  -8.461  -6.728  0.00  0.00    -0.038 A 
ATOM     26  N   LIG d   1       4.645  -8.188  -9.153  0.00  0.00    -0.361 N 
ATOM     27  C   LIG d   1       5.391  -7.820  -5.508  0.00  0.00    -0.058 A 
ATOM     28  H   LIG d   1       5.758  -9.459  -6.823  0.00  0.00     0.064 H 
ATOM     29  C   LIG d   1       4.884  -6.537  -5.368  0.00  0.00    -0.040 A 
ATOM     30  H   LIG d   1       5.816  -8.324  -4.651  0.00  0.00     0.062 H 
ATOM     31  H   LIG d   1       4.916  -6.049  -4.405  0.00  0.00     0.064 H 
ATOM     32  C   LIG d   1       4.031  -7.178  -9.844  0.00  0.00     0.003 A 
ATOM     33  H   LIG d   1       4.912  -9.042  -9.532  0.00  0.00     0.165 HD
ATOM     34  H   LIG d   1       3.779  -7.208 -10.893  0.00  0.00     0.081 H 
ATOM     35  H   LIG d   1       3.336  -5.202  -9.292  0.00  0.00     0.064 H 
ENDBRANCH  19  21
ENDBRANCH   3  17
BRANCH   1  36
ATOM     36  C   LIG d   1       2.844   0.652  -8.053  0.00  0.00     0.032 C 
ATOM     37  H   LIG d   1       2.171   1.449  -7.735  0.00  0.00     0.052 H 
BRANCH  36  38
ATOM     38  C   LIG d   1       4.080   1.262  -8.715  0.00  0.00    -0.044 C 
ATOM     39  H   LIG d   1       4.978   0.831  -8.274  0.00  0.00     0.025 H 
ATOM     40  H   LIG d   1       4.062   1.049  -9.784  0.00  0.00     0.025 H 
ATOM     41  H   LIG d   1       4.081   2.341  -8.560  0.00  0.00     0.025 H 
ENDBRANCH  36  38
BRANCH  36  42
ATOM     42  C   LIG d   1       2.122  -0.253  -9.054  0.00  0.00    -0.044 C 
ATOM     43  H   LIG d   1       2.157   0.202 -10.044  0.00  0.00     0.025 H 
ATOM     44  H   LIG d   1       2.613  -1.226  -9.083  0.00  0.00     0.025 H 
ATOM     45  H   LIG d   1       1.084  -0.377  -8.749  0.00  0.00     0.025 H 
ENDBRANCH  36  42
ENDBRANCH   1  36
TORSDOF 5
ENDMDL
MODEL 4
REMARK VINA RESULT:      -6.6      2.697      3.536
REMARK  5 active torsions:
REMARK  status: ('A' for Active; 'I' for Inactive)
REMARK    1  A    between atoms: C_1  and  C_2 
REMARK    2  A    between atoms: C_2  and  C_3 
REMARK    3  A    between atoms: C_2  and  N_4 
REMARK    4  A    between atoms: C_6  and  C_15 
REMARK       I    between atoms: C_15  and  N_17 
REMARK    5  A    between atoms: N_17  and  C_18 
ROOT
ATOM      1  N   LIG d   1       9.053  -4.954  -4.003  0.00  0.00    -0.311 N 
ATOM      2  C   LIG d   1       8.436  -3.777  -3.737  0.00  0.00     0.021 A 
ATOM      3  C   LIG d   1       7.277  -3.408  -4.352  0.00  0.00     0.061 A 
ATOM      4  C   LIG d   1       6.671  -4.317  -5.341  0.00  0.00     0.001 A 
ATOM      5  C   LIG d   1       5.490  -4.001  -6.006  0.00  0.00    -0.053 A 
ATOM      6  C   LIG d   1       4.966  -4.888  -6.921  0.00  0.00    -0.061 A 
ATOM      7  C   LIG d   1       5.605  -6.092  -7.187  0.00  0.00    -0.061 A 
ATOM      8  C   LIG d   1       6.775  -6.425  -6.540  0.00  0.00    -0.049 A 
ATOM      9  C   LIG d   1       7.321  -5.540  -5.610  0.00  0.00     0.047 A 
ATOM     10  C   LIG d   1       8.569  -5.839  -4.895  0.00  0.00     0.259 A 
ATOM     11  O   LIG d   1       9.161  -6.882  -5.105  0.00  0.00    -0.267 OA
ATOM     12  H   LIG d   1       8.878  -3.108  -3.013  0.00  0.00     0.082 H 
ATOM     13  H   LIG d   1       4.986  -3.067  -5.804  0.00  0.00     0.062 H 
ATOM     14  H   LIG d   1       4.049  -4.644  -7.437  0.00  0.00     0.062 H 
ATOM     15  H   LIG d   1       5.180  -6.774  -7.907  0.00  0.00     0.062 H 
ATOM     16  H   LIG d   1       7.266  -7.363  -6.751  0.00  0.00     0.062 H 
ENDROOT
BRANCH   3  17
ATOM     17  C   LIG d   1       6.641  -2.121  -4.034  0.00  0.00     0.250 C 
ATOM     18  O   LIG d   1       7.174  -1.080  -4.371  0.00  0.00    -0.270 OA
ATOM     19  N   LIG d   1       5.468  -2.094  -3.373  0.00  0.00    -0.281 N 
ATOM     20  H   LIG d   1       5.077  -2.920  -3.043  0.00  0.00     0.155 HD
BRANCH  19  21
ATOM     21  C   LIG d   1       4.813  -0.879  -3.160  0.00  0.00     0.043 A 
ATOM     22  C   LIG d   1       4.038  -0.306  -4.179  0.00  0.00     0.021 A 
ATOM     23  C   LIG d   1       3.379   0.915  -3.955  0.00  0.00     0.048 A 
ATOM     24  C   LIG d   1       3.710  -0.700  -5.550  0.00  0.00    -0.035 A 
ATOM     25  C   LIG d   1       3.510   1.549  -2.723  0.00  0.00    -0.038 A 
ATOM     26  N   LIG d   1       2.699   1.227  -5.111  0.00  0.00    -0.361 N 
ATOM     27  C   LIG d   1       4.277   0.977  -1.731  0.00  0.00    -0.058 A 
ATOM     28  H   LIG d   1       3.008   2.488  -2.543  0.00  0.00     0.064 H 
ATOM     29  C   LIG d   1       4.927  -0.229  -1.944  0.00  0.00    -0.040 A 
ATOM     30  H   LIG d   1       4.374   1.475  -0.777  0.00  0.00     0.062 H 
ATOM     31  H   LIG d   1       5.526  -0.664  -1.157  0.00  0.00     0.064 H 
ATOM     32  C   LIG d   1       2.915   0.257  -6.054  0.00  0.00     0.003 A 
ATOM     33  H   LIG d   1       2.157   2.021  -5.243  0.00  0.00     0.165 HD
ATOM     34  H   LIG d   1       2.500   0.257  -7.051  0.00  0.00     0.081 H 
ATOM     35  H   LIG d   1       4.044  -1.592  -6.060  0.00  0.00     0.064 H 
ENDBRANCH  19  21
ENDBRANCH   3  17
BRANCH   1  36
ATOM     36  C   LIG d   1      10.295  -5.273  -3.297  0.00  0.00     0.032 C 
ATOM     37  H   LIG d   1      10.812  -6.080  -3.817  0.00  0.00     0.052 H 
BRANCH  36  38
ATOM     38  C   LIG d   1      11.192  -4.035  -3.257  0.00  0.00    -0.044 C 
ATOM     39  H   LIG d   1      11.481  -3.763  -4.272  0.00  0.00     0.025 H 
ATOM     40  H   LIG d   1      10.650  -3.208  -2.799  0.00  0.00     0.025 H 
ATOM     41  H   LIG d   1      12.086  -4.252  -2.671  0.00  0.00     0.025 H 
ENDBRANCH  36  38
BRANCH  36  42
ATOM     42  C   LIG d   1       9.971  -5.716  -1.868  0.00  0.00    -0.044 C 
ATOM     43  H   LIG d   1      10.287  -6.750  -1.729  0.00  0.00     0.025 H 
ATOM     44  H   LIG d   1      10.500  -5.076  -1.161  0.00  0.00     0.025 H 
ATOM     45  H   LIG d   1       8.899  -5.638  -1.697  0.00  0.00     0.025 H 
ENDBRANCH  36  42
ENDBRANCH   1  36
TORSDOF 5
ENDMDL
MODEL 5
REMARK VINA RESULT:      -6.6      5.618      7.949
REMARK  5 active torsions:
REMARK  status: ('A' for Active; 'I' for Inactive)
REMARK    1  A    between atoms: C_1  and  C_2 
REMARK    2  A    between atoms: C_2  and  C_3 
REMARK    3  A    between atoms: C_2  and  N_4 
REMARK    4  A    between atoms: C_6  and  C_15 
REMARK       I    between atoms: C_15  and  N_17 
REMARK    5  A    between atoms: N_17  and  C_18 
ROOT
ATOM      1  N   LIG d   1      11.240   0.012  -5.504  0.00  0.00    -0.311 N 
ATOM      2  C   LIG d   1       9.906  -0.016  -5.272  0.00  0.00     0.021 A 
ATOM      3  C   LIG d   1       9.271   0.958  -4.561  0.00  0.00     0.061 A 
ATOM      4  C   LIG d   1      10.059   2.081  -4.024  0.00  0.00     0.001 A 
ATOM      5  C   LIG d   1       9.473   3.108  -3.288  0.00  0.00    -0.053 A 
ATOM      6  C   LIG d   1      10.257   4.134  -2.810  0.00  0.00    -0.061 A 
ATOM      7  C   LIG d   1      11.624   4.155  -3.052  0.00  0.00    -0.061 A 
ATOM      8  C   LIG d   1      12.224   3.149  -3.778  0.00  0.00    -0.049 A 
ATOM      9  C   LIG d   1      11.448   2.100  -4.271  0.00  0.00     0.047 A 
ATOM     10  C   LIG d   1      12.034   0.998  -5.045  0.00  0.00     0.259 A 
ATOM     11  O   LIG d   1      13.230   0.978  -5.275  0.00  0.00    -0.267 OA
ATOM     12  H   LIG d   1       9.325  -0.838  -5.664  0.00  0.00     0.082 H 
ATOM     13  H   LIG d   1       8.410   3.100  -3.096  0.00  0.00     0.062 H 
ATOM     14  H   LIG d   1       9.804   4.932  -2.240  0.00  0.00     0.062 H 
ATOM     15  H   LIG d   1      12.223   4.967  -2.669  0.00  0.00     0.062 H 
ATOM     16  H   LIG d   1      13.288   3.172  -3.963  0.00  0.00     0.062 H 
ENDROOT
BRANCH   3  17
ATOM     17  C   LIG d   1       7.820   0.889  -4.332  0.00  0.00     0.250 C 
ATOM     18  O   LIG d   1       7.052   1.366  -5.146  0.00  0.00    -0.270 OA
ATOM     19  N   LIG d   1       7.340   0.294  -3.222  0.00  0.00    -0.281 N 
ATOM     20  H   LIG d   1       7.952  -0.025  -2.539  0.00  0.00     0.155 HD
BRANCH  19  21
ATOM     21  C   LIG d   1       5.962   0.137  -3.053  0.00  0.00     0.043 A 
ATOM     22  C   LIG d   1       5.326  -1.033  -3.490  0.00  0.00     0.021 A 
ATOM     23  C   LIG d   1       3.940  -1.185  -3.312  0.00  0.00     0.048 A 
ATOM     24  C   LIG d   1       5.788  -2.257  -4.147  0.00  0.00    -0.035 A 
ATOM     25  C   LIG d   1       3.210  -0.164  -2.710  0.00  0.00    -0.038 A 
ATOM     26  N   LIG d   1       3.598  -2.417  -3.823  0.00  0.00    -0.361 N 
ATOM     27  C   LIG d   1       3.847   0.982  -2.288  0.00  0.00    -0.058 A 
ATOM     28  H   LIG d   1       2.145  -0.272  -2.570  0.00  0.00     0.064 H 
ATOM     29  C   LIG d   1       5.215   1.137  -2.457  0.00  0.00    -0.040 A 
ATOM     30  H   LIG d   1       3.274   1.771  -1.821  0.00  0.00     0.062 H 
ATOM     31  H   LIG d   1       5.699   2.043  -2.122  0.00  0.00     0.064 H 
ATOM     32  C   LIG d   1       4.711  -3.038  -4.324  0.00  0.00     0.003 A 
ATOM     33  H   LIG d   1       2.700  -2.786  -3.836  0.00  0.00     0.165 HD
ATOM     34  H   LIG d   1       4.723  -4.015  -4.784  0.00  0.00     0.081 H 
ATOM     35  H   LIG d   1       6.804  -2.488  -4.435  0.00  0.00     0.064 H 
ENDBRANCH  19  21
ENDBRANCH   3  17
BRANCH   1  36
ATOM     36  C   LIG d   1      11.843  -1.075  -6.278  0.00  0.00     0.032 C 
ATOM     37  H   LIG d   1      12.852  -0.791  -6.578  0.00  0.00     0.052 H 
BRANCH  36  38
ATOM     38  C   LIG d   1      11.904  -2.340  -5.421  0.00  0.00    -0.044 C 
ATOM     39  H   LIG d   1      11.904  -2.064  -4.366  0.00  0.00     0.025 H 
ATOM     40  H   LIG d   1      11.036  -2.964  -5.633  0.00  0.00     0.025 H 
ATOM     41  H   LIG d   1      12.815  -2.893  -5.652  0.00  0.00     0.025 H 
ENDBRANCH  36  38
BRANCH  36  42
ATOM     42  C   LIG d   1      10.999  -1.343  -7.525  0.00  0.00    -0.044 C 
ATOM     43  H   LIG d   1      11.656  -1.534  -8.374  0.00  0.00     0.025 H 
ATOM     44  H   LIG d   1      10.364  -2.214  -7.354  0.00  0.00     0.025 H 
ATOM     45  H   LIG d   1      10.376  -0.475  -7.737  0.00  0.00     0.025 H 
ENDBRANCH  36  42
ENDBRANCH   1  36
TORSDOF 5
ENDMDL
MODEL 6
REMARK VINA RESULT:      -6.5      2.718      7.178
REMARK  5 active torsions:
REMARK  status: ('A' for Active; 'I' for Inactive)
REMARK    1  A    between atoms: C_1  and  C_2 
REMARK    2  A    between atoms: C_2  and  C_3 
REMARK    3  A    between atoms: C_2  and  N_4 
REMARK    4  A    between atoms: C_6  and  C_15 
REMARK       I    between atoms: C_15  and  N_17 
REMARK    5  A    between atoms: N_17  and  C_18 
ROOT
ATOM      1  N   LIG d   1       3.724  -0.680  -6.880  0.00  0.00    -0.311 N 
ATOM      2  C   LIG d   1       4.390  -1.824  -6.590  0.00  0.00     0.021 A 
ATOM      3  C   LIG d   1       4.737  -2.160  -5.316  0.00  0.00     0.061 A 
ATOM      4  C   LIG d   1       4.379  -1.251  -4.213  0.00  0.00     0.001 A 
ATOM      5  C   LIG d   1       4.705  -1.534  -2.889  0.00  0.00    -0.053 A 
ATOM      6  C   LIG d   1       4.345  -0.648  -1.897  0.00  0.00    -0.061 A 
ATOM      7  C   LIG d   1       3.663   0.522  -2.203  0.00  0.00    -0.061 A 
ATOM      8  C   LIG d   1       3.330   0.820  -3.506  0.00  0.00    -0.049 A 
ATOM      9  C   LIG d   1       3.686  -0.063  -4.526  0.00  0.00     0.047 A 
ATOM     10  C   LIG d   1       3.364   0.207  -5.934  0.00  0.00     0.259 A 
ATOM     11  O   LIG d   1       2.770   1.224  -6.242  0.00  0.00    -0.267 OA
ATOM     12  H   LIG d   1       4.654  -2.492  -7.396  0.00  0.00     0.082 H 
ATOM     13  H   LIG d   1       5.235  -2.442  -2.642  0.00  0.00     0.062 H 
ATOM     14  H   LIG d   1       4.597  -0.867  -0.869  0.00  0.00     0.062 H 
ATOM     15  H   LIG d   1       3.389   1.203  -1.412  0.00  0.00     0.062 H 
ATOM     16  H   LIG d   1       2.799   1.732  -3.737  0.00  0.00     0.062 H 
ENDROOT
BRANCH   3  17
ATOM     17  C   LIG d   1       5.460  -3.412  -5.046  0.00  0.00     0.250 C 
ATOM     18  O   LIG d   1       4.856  -4.388  -4.644  0.00  0.00    -0.270 OA
ATOM     19  N   LIG d   1       6.791  -3.477  -5.244  0.00  0.00    -0.281 N 
ATOM     20  H   LIG d   1       7.285  -2.681  -5.498  0.00  0.00     0.155 HD
BRANCH  19  21
ATOM     21  C   LIG d   1       7.462  -4.693  -5.086  0.00  0.00     0.043 A 
ATOM     22  C   LIG d   1       8.476  -4.820  -4.125  0.00  0.00     0.021 A 
ATOM     23  C   LIG d   1       9.143  -6.048  -3.969  0.00  0.00     0.048 A 
ATOM     24  C   LIG d   1       9.069  -3.907  -3.147  0.00  0.00    -0.035 A 
ATOM     25  C   LIG d   1       8.795  -7.124  -4.780  0.00  0.00    -0.038 A 
ATOM     26  N   LIG d   1      10.068  -5.881  -2.963  0.00  0.00    -0.361 N 
ATOM     27  C   LIG d   1       7.800  -6.985  -5.723  0.00  0.00    -0.058 A 
ATOM     28  H   LIG d   1       9.303  -8.070  -4.668  0.00  0.00     0.064 H 
ATOM     29  C   LIG d   1       7.135  -5.778  -5.879  0.00  0.00    -0.040 A 
ATOM     30  H   LIG d   1       7.535  -7.825  -6.348  0.00  0.00     0.062 H 
ATOM     31  H   LIG d   1       6.358  -5.684  -6.624  0.00  0.00     0.064 H 
ATOM     32  C   LIG d   1      10.016  -4.597  -2.491  0.00  0.00     0.003 A 
ATOM     33  H   LIG d   1      10.674  -6.568  -2.644  0.00  0.00     0.165 HD
ATOM     34  H   LIG d   1      10.637  -4.200  -1.701  0.00  0.00     0.081 H 
ATOM     35  H   LIG d   1       8.797  -2.875  -2.983  0.00  0.00     0.064 H 
ENDBRANCH  19  21
ENDBRANCH   3  17
BRANCH   1  36
ATOM     36  C   LIG d   1       3.388  -0.395  -8.277  0.00  0.00     0.032 C 
ATOM     37  H   LIG d   1       2.637   0.394  -8.316  0.00  0.00     0.052 H 
BRANCH  36  38
ATOM     38  C   LIG d   1       4.645   0.060  -9.021  0.00  0.00    -0.044 C 
ATOM     39  H   LIG d   1       4.589  -0.266 -10.060  0.00  0.00     0.025 H 
ATOM     40  H   LIG d   1       4.714   1.148  -8.985  0.00  0.00     0.025 H 
ATOM     41  H   LIG d   1       5.526  -0.377  -8.550  0.00  0.00     0.025 H 
ENDBRANCH  36  38
BRANCH  36  42
ATOM     42  C   LIG d   1       2.834  -1.659  -8.937  0.00  0.00    -0.044 C 
ATOM     43  H   LIG d   1       2.019  -2.057  -8.332  0.00  0.00     0.025 H 
ATOM     44  H   LIG d   1       2.462  -1.416  -9.933  0.00  0.00     0.025 H 
ATOM     45  H   LIG d   1       3.624  -2.405  -9.016  0.00  0.00     0.025 H 
ENDBRANCH  36  42
ENDBRANCH   1  36
TORSDOF 5
ENDMDL
MODEL 7
REMARK VINA RESULT:      -6.5      4.767      6.609
REMARK  5 active torsions:
REMARK  status: ('A' for Active; 'I' for Inactive)
REMARK    1  A    between atoms: C_1  and  C_2 
REMARK    2  A    between atoms: C_2  and  C_3 
REMARK    3  A    between atoms: C_2  and  N_4 
REMARK    4  A    between atoms: C_6  and  C_15 
REMARK       I    between atoms: C_15  and  N_17 
REMARK    5  A    between atoms: N_17  and  C_18 
ROOT
ATOM      1  N   LIG d   1       6.077  -2.935  -5.034  0.00  0.00    -0.311 N 
ATOM      2  C   LIG d   1       7.001  -1.987  -5.324  0.00  0.00     0.021 A 
ATOM      3  C   LIG d   1       7.012  -0.770  -4.711  0.00  0.00     0.061 A 
ATOM      4  C   LIG d   1       5.986  -0.470  -3.697  0.00  0.00     0.001 A 
ATOM      5  C   LIG d   1       5.940   0.753  -3.034  0.00  0.00    -0.053 A 
ATOM      6  C   LIG d   1       4.959   0.980  -2.093  0.00  0.00    -0.061 A 
ATOM      7  C   LIG d   1       4.016   0.003  -1.802  0.00  0.00    -0.061 A 
ATOM      8  C   LIG d   1       4.044  -1.215  -2.446  0.00  0.00    -0.049 A 
ATOM      9  C   LIG d   1       5.029  -1.465  -3.401  0.00  0.00     0.047 A 
ATOM     10  C   LIG d   1       5.104  -2.741  -4.124  0.00  0.00     0.259 A 
ATOM     11  O   LIG d   1       4.292  -3.621  -3.899  0.00  0.00    -0.267 OA
ATOM     12  H   LIG d   1       7.754  -2.203  -6.067  0.00  0.00     0.082 H 
ATOM     13  H   LIG d   1       6.670   1.518  -3.254  0.00  0.00     0.062 H 
ATOM     14  H   LIG d   1       4.922   1.929  -1.577  0.00  0.00     0.062 H 
ATOM     15  H   LIG d   1       3.255   0.199  -1.062  0.00  0.00     0.062 H 
ATOM     16  H   LIG d   1       3.308  -1.970  -2.213  0.00  0.00     0.062 H 
ENDROOT
BRANCH   3  17
ATOM     17  C   LIG d   1       8.032   0.230  -5.057  0.00  0.00     0.250 C 
ATOM     18  O   LIG d   1       9.213  -0.045  -4.955  0.00  0.00    -0.270 OA
ATOM     19  N   LIG d   1       7.660   1.451  -5.489  0.00  0.00    -0.281 N 
ATOM     20  H   LIG d   1       6.721   1.695  -5.505  0.00  0.00     0.155 HD
BRANCH  19  21
ATOM     21  C   LIG d   1       8.626   2.366  -5.915  0.00  0.00     0.043 A 
ATOM     22  C   LIG d   1       9.298   3.169  -4.982  0.00  0.00     0.021 A 
ATOM     23  C   LIG d   1      10.273   4.084  -5.419  0.00  0.00     0.048 A 
ATOM     24  C   LIG d   1       9.237   3.304  -3.526  0.00  0.00    -0.035 A 
ATOM     25  C   LIG d   1      10.553   4.190  -6.778  0.00  0.00    -0.038 A 
ATOM     26  N   LIG d   1      10.762   4.719  -4.300  0.00  0.00    -0.361 N 
ATOM     27  C   LIG d   1       9.883   3.398  -7.685  0.00  0.00    -0.058 A 
ATOM     28  H   LIG d   1      11.298   4.891  -7.122  0.00  0.00     0.064 H 
ATOM     29  C   LIG d   1       8.924   2.490  -7.260  0.00  0.00    -0.040 A 
ATOM     30  H   LIG d   1      10.106   3.485  -8.738  0.00  0.00     0.062 H 
ATOM     31  H   LIG d   1       8.406   1.877  -7.984  0.00  0.00     0.064 H 
ATOM     32  C   LIG d   1      10.127   4.248  -3.182  0.00  0.00     0.003 A 
ATOM     33  H   LIG d   1      11.448   5.406  -4.304  0.00  0.00     0.165 HD
ATOM     34  H   LIG d   1      10.321   4.579  -2.172  0.00  0.00     0.081 H 
ATOM     35  H   LIG d   1       8.596   2.750  -2.855  0.00  0.00     0.064 H 
ENDBRANCH  19  21
ENDBRANCH   3  17
BRANCH   1  36
ATOM     36  C   LIG d   1       6.137  -4.216  -5.739  0.00  0.00     0.032 C 
ATOM     37  H   LIG d   1       5.253  -4.807  -5.495  0.00  0.00     0.052 H 
BRANCH  36  38
ATOM     38  C   LIG d   1       6.184  -3.967  -7.247  0.00  0.00    -0.044 C 
ATOM     39  H   LIG d   1       6.477  -4.885  -7.758  0.00  0.00     0.025 H 
ATOM     40  H   LIG d   1       5.198  -3.657  -7.595  0.00  0.00     0.025 H 
ATOM     41  H   LIG d   1       6.910  -3.184  -7.464  0.00  0.00     0.025 H 
ENDBRANCH  36  38
BRANCH  36  42
ATOM     42  C   LIG d   1       7.392  -4.979  -5.308  0.00  0.00    -0.044 C 
ATOM     43  H   LIG d   1       7.458  -5.913  -5.866  0.00  0.00     0.025 H 
ATOM     44  H   LIG d   1       8.274  -4.371  -5.512  0.00  0.00     0.025 H 
ATOM     45  H   LIG d   1       7.338  -5.195  -4.242  0.00  0.00     0.025 H 
ENDBRANCH  36  42
ENDBRANCH   1  36
TORSDOF 5
ENDMDL
MODEL 8
REMARK VINA RESULT:      -6.5      5.189      6.922
REMARK  5 active torsions:
REMARK  status: ('A' for Active; 'I' for Inactive)
REMARK    1  A    between atoms: C_1  and  C_2 
REMARK    2  A    between atoms: C_2  and  C_3 
REMARK    3  A    between atoms: C_2  and  N_4 
REMARK    4  A    between atoms: C_6  and  C_15 
REMARK       I    between atoms: C_15  and  N_17 
REMARK    5  A    between atoms: N_17  and  C_18 
ROOT
ATOM      1  N   LIG d   1       6.251  -2.596  -4.643  0.00  0.00    -0.311 N 
ATOM      2  C   LIG d   1       7.102  -1.564  -4.853  0.00  0.00     0.021 A 
ATOM      3  C   LIG d   1       6.855  -0.310  -4.379  0.00  0.00     0.061 A 
ATOM      4  C   LIG d   1       5.621  -0.064  -3.612  0.00  0.00     0.001 A 
ATOM      5  C   LIG d   1       5.308   1.192  -3.101  0.00  0.00    -0.053 A 
ATOM      6  C   LIG d   1       4.141   1.366  -2.390  0.00  0.00    -0.061 A 
ATOM      7  C   LIG d   1       3.274   0.301  -2.180  0.00  0.00    -0.061 A 
ATOM      8  C   LIG d   1       3.565  -0.951  -2.676  0.00  0.00    -0.049 A 
ATOM      9  C   LIG d   1       4.741  -1.147  -3.398  0.00  0.00     0.047 A 
ATOM     10  C   LIG d   1       5.100  -2.457  -3.957  0.00  0.00     0.259 A 
ATOM     11  O   LIG d   1       4.363  -3.414  -3.797  0.00  0.00    -0.267 OA
ATOM     12  H   LIG d   1       8.007  -1.740  -5.415  0.00  0.00     0.082 H 
ATOM     13  H   LIG d   1       5.977   2.025  -3.260  0.00  0.00     0.062 H 
ATOM     14  H   LIG d   1       3.897   2.340  -1.992  0.00  0.00     0.062 H 
ATOM     15  H   LIG d   1       2.364   0.456  -1.620  0.00  0.00     0.062 H 
ATOM     16  H   LIG d   1       2.886  -1.774  -2.508  0.00  0.00     0.062 H 
ENDROOT
BRANCH   3  17
ATOM     17  C   LIG d   1       7.806   0.783  -4.631  0.00  0.00     0.250 C 
ATOM     18  O   LIG d   1       7.642   1.526  -5.580  0.00  0.00    -0.270 OA
ATOM     19  N   LIG d   1       8.858   0.963  -3.809  0.00  0.00    -0.281 N 
ATOM     20  H   LIG d   1       9.029   0.331  -3.093  0.00  0.00     0.155 HD
BRANCH  19  21
ATOM     21  C   LIG d   1       9.704   2.061  -3.986  0.00  0.00     0.043 A 
ATOM     22  C   LIG d   1      10.866   1.939  -4.763  0.00  0.00     0.021 A 
ATOM     23  C   LIG d   1      11.709   3.050  -4.940  0.00  0.00     0.048 A 
ATOM     24  C   LIG d   1      11.478   0.840  -5.509  0.00  0.00    -0.035 A 
ATOM     25  C   LIG d   1      11.385   4.260  -4.334  0.00  0.00    -0.038 A 
ATOM     26  N   LIG d   1      12.751   2.643  -5.742  0.00  0.00    -0.361 N 
ATOM     27  C   LIG d   1      10.243   4.366  -3.571  0.00  0.00    -0.058 A 
ATOM     28  H   LIG d   1      12.028   5.118  -4.464  0.00  0.00     0.064 H 
ATOM     29  C   LIG d   1       9.404   3.275  -3.395  0.00  0.00    -0.040 A 
ATOM     30  H   LIG d   1       9.998   5.309  -3.103  0.00  0.00     0.062 H 
ATOM     31  H   LIG d   1       8.513   3.373  -2.792  0.00  0.00     0.064 H 
ATOM     32  C   LIG d   1      12.602   1.321  -6.064  0.00  0.00     0.003 A 
ATOM     33  H   LIG d   1      13.489   3.206  -6.027  0.00  0.00     0.165 HD
ATOM     34  H   LIG d   1      13.282   0.751  -6.681  0.00  0.00     0.081 H 
ATOM     35  H   LIG d   1      11.099  -0.168  -5.597  0.00  0.00     0.064 H 
ENDBRANCH  19  21
ENDBRANCH   3  17
BRANCH   1  36
ATOM     36  C   LIG d   1       6.592  -3.912  -5.186  0.00  0.00     0.032 C 
ATOM     37  H   LIG d   1       5.883  -4.653  -4.816  0.00  0.00     0.052 H 
BRANCH  36  38
ATOM     38  C   LIG d   1       6.529  -3.866  -6.714  0.00  0.00    -0.044 C 
ATOM     39  H   LIG d   1       5.504  -4.039  -7.041  0.00  0.00     0.025 H 
ATOM     40  H   LIG d   1       6.860  -2.887  -7.061  0.00  0.00     0.025 H 
ATOM     41  H   LIG d   1       7.178  -4.638  -7.128  0.00  0.00     0.025 H 
ENDBRANCH  36  38
BRANCH  36  42
ATOM     42  C   LIG d   1       8.006  -4.297  -4.745  0.00  0.00    -0.044 C 
ATOM     43  H   LIG d   1       8.355  -3.589  -3.992  0.00  0.00     0.025 H 
ATOM     44  H   LIG d   1       7.994  -5.301  -4.321  0.00  0.00     0.025 H 
ATOM     45  H   LIG d   1       8.674  -4.272  -5.604  0.00  0.00     0.025 H 
ENDBRANCH  36  42
ENDBRANCH   1  36
TORSDOF 5
ENDMDL
MODEL 9
REMARK VINA RESULT:      -6.3      3.102      4.218
REMARK  5 active torsions:
REMARK  status: ('A' for Active; 'I' for Inactive)
REMARK    1  A    between atoms: C_1  and  C_2 
REMARK    2  A    between atoms: C_2  and  C_3 
REMARK    3  A    between atoms: C_2  and  N_4 
REMARK    4  A    between atoms: C_6  and  C_15 
REMARK       I    between atoms: C_15  and  N_17 
REMARK    5  A    between atoms: N_17  and  C_18 
ROOT
ATOM      1  N   LIG d   1       3.771  -2.796  -9.920  0.00  0.00    -0.311 N 
ATOM      2  C   LIG d   1       4.075  -2.663  -8.607  0.00  0.00     0.021 A 
ATOM      3  C   LIG d   1       4.229  -1.445  -8.016  0.00  0.00     0.061 A 
ATOM      4  C   LIG d   1       4.061  -0.228  -8.828  0.00  0.00     0.001 A 
ATOM      5  C   LIG d   1       4.206   1.046  -8.287  0.00  0.00    -0.053 A 
ATOM      6  C   LIG d   1       4.036   2.151  -9.094  0.00  0.00    -0.061 A 
ATOM      7  C   LIG d   1       3.725   2.005 -10.439  0.00  0.00    -0.061 A 
ATOM      8  C   LIG d   1       3.576   0.754 -10.995  0.00  0.00    -0.049 A 
ATOM      9  C   LIG d   1       3.743  -0.377 -10.196  0.00  0.00     0.047 A 
ATOM     10  C   LIG d   1       3.604  -1.736 -10.735  0.00  0.00     0.259 A 
ATOM     11  O   LIG d   1       3.336  -1.905 -11.911  0.00  0.00    -0.267 OA
ATOM     12  H   LIG d   1       4.200  -3.553  -8.008  0.00  0.00     0.082 H 
ATOM     13  H   LIG d   1       4.447   1.168  -7.242  0.00  0.00     0.062 H 
ATOM     14  H   LIG d   1       4.147   3.140  -8.675  0.00  0.00     0.062 H 
ATOM     15  H   LIG d   1       3.596   2.882 -11.055  0.00  0.00     0.062 H 
ATOM     16  H   LIG d   1       3.333   0.648 -12.042  0.00  0.00     0.062 H 
ENDROOT
BRANCH   3  17
ATOM     17  C   LIG d   1       4.560  -1.346  -6.586  0.00  0.00     0.250 C 
ATOM     18  O   LIG d   1       5.710  -1.148  -6.240  0.00  0.00    -0.270 OA
ATOM     19  N   LIG d   1       3.590  -1.474  -5.660  0.00  0.00    -0.281 N 
ATOM     20  H   LIG d   1       2.686  -1.701  -5.931  0.00  0.00     0.155 HD
BRANCH  19  21
ATOM     21  C   LIG d   1       3.885  -1.280  -4.308  0.00  0.00     0.043 A 
ATOM     22  C   LIG d   1       3.708  -0.019  -3.720  0.00  0.00     0.021 A 
ATOM     23  C   LIG d   1       4.002   0.167  -2.358  0.00  0.00     0.048 A 
ATOM     24  C   LIG d   1       3.245   1.278  -4.217  0.00  0.00    -0.035 A 
ATOM     25  C   LIG d   1       4.477  -0.904  -1.608  0.00  0.00    -0.038 A 
ATOM     26  N   LIG d   1       3.730   1.483  -2.061  0.00  0.00    -0.361 N 
ATOM     27  C   LIG d   1       4.651  -2.137  -2.198  0.00  0.00    -0.058 A 
ATOM     28  H   LIG d   1       4.708  -0.770  -0.562  0.00  0.00     0.064 H 
ATOM     29  C   LIG d   1       4.358  -2.328  -3.540  0.00  0.00    -0.040 A 
ATOM     30  H   LIG d   1       5.020  -2.964  -1.608  0.00  0.00     0.062 H 
ATOM     31  H   LIG d   1       4.501  -3.301  -3.988  0.00  0.00     0.064 H 
ATOM     32  C   LIG d   1       3.288   2.132  -3.182  0.00  0.00     0.003 A 
ATOM     33  H   LIG d   1       3.845   1.893  -1.188  0.00  0.00     0.165 HD
ATOM     34  H   LIG d   1       3.006   3.174  -3.227  0.00  0.00     0.081 H 
ATOM     35  H   LIG d   1       2.929   1.505  -5.225  0.00  0.00     0.064 H 
ENDBRANCH  19  21
ENDBRANCH   3  17
BRANCH   1  36
ATOM     36  C   LIG d   1       3.622  -4.142 -10.477  0.00  0.00     0.032 C 
ATOM     37  H   LIG d   1       3.131  -4.082 -11.448  0.00  0.00     0.052 H 
BRANCH  36  38
ATOM     38  C   LIG d   1       5.002  -4.781 -10.642  0.00  0.00    -0.044 C 
ATOM     39  H   LIG d   1       4.908  -5.866 -10.592  0.00  0.00     0.025 H 
ATOM     40  H   LIG d   1       5.420  -4.497 -11.608  0.00  0.00     0.025 H 
ATOM     41  H   LIG d   1       5.661  -4.437  -9.844  0.00  0.00     0.025 H 
ENDBRANCH  36  38
BRANCH  36  42
ATOM     42  C   LIG d   1       2.774  -4.995  -9.530  0.00  0.00    -0.044 C 
ATOM     43  H   LIG d   1       2.586  -5.966  -9.989  0.00  0.00     0.025 H 
ATOM     44  H   LIG d   1       3.309  -5.135  -8.590  0.00  0.00     0.025 H 
ATOM     45  H   LIG d   1       1.827  -4.493  -9.339  0.00  0.00     0.025 H 
ENDBRANCH  36  42
ENDBRANCH   1  36
TORSDOF 5
ENDMDL
MODEL 10
REMARK VINA RESULT:      -6.0      5.387      7.397
REMARK  5 active torsions:
REMARK  status: ('A' for Active; 'I' for Inactive)
REMARK    1  A    between atoms: C_1  and  C_2 
REMARK    2  A    between atoms: C_2  and  C_3 
REMARK    3  A    between atoms: C_2  and  N_4 
REMARK    4  A    between atoms: C_6  and  C_15 
REMARK       I    between atoms: C_15  and  N_17 
REMARK    5  A    between atoms: N_17  and  C_18 
ROOT
ATOM      1  N   LIG d   1       4.692  -0.569  -3.733  0.00  0.00    -0.311 N 
ATOM      2  C   LIG d   1       5.661   0.361  -3.910  0.00  0.00     0.021 A 
ATOM      3  C   LIG d   1       6.912   0.034  -4.344  0.00  0.00     0.061 A 
ATOM      4  C   LIG d   1       7.224  -1.376  -4.630  0.00  0.00     0.001 A 
ATOM      5  C   LIG d   1       8.481  -1.778  -5.074  0.00  0.00    -0.053 A 
ATOM      6  C   LIG d   1       8.718  -3.111  -5.328  0.00  0.00    -0.061 A 
ATOM      7  C   LIG d   1       7.719  -4.057  -5.143  0.00  0.00    -0.061 A 
ATOM      8  C   LIG d   1       6.468  -3.682  -4.704  0.00  0.00    -0.049 A 
ATOM      9  C   LIG d   1       6.207  -2.337  -4.442  0.00  0.00     0.047 A 
ATOM     10  C   LIG d   1       4.895  -1.879  -3.967  0.00  0.00     0.259 A 
ATOM     11  O   LIG d   1       3.995  -2.679  -3.788  0.00  0.00    -0.267 OA
ATOM     12  H   LIG d   1       5.436   1.396  -3.701  0.00  0.00     0.082 H 
ATOM     13  H   LIG d   1       9.264  -1.048  -5.222  0.00  0.00     0.062 H 
ATOM     14  H   LIG d   1       9.693  -3.424  -5.673  0.00  0.00     0.062 H 
ATOM     15  H   LIG d   1       7.924  -5.098  -5.346  0.00  0.00     0.062 H 
ATOM     16  H   LIG d   1       5.696  -4.423  -4.564  0.00  0.00     0.062 H 
ENDROOT
BRANCH   3  17
ATOM     17  C   LIG d   1       7.935   1.076  -4.523  0.00  0.00     0.250 C 
ATOM     18  O   LIG d   1       7.951   1.743  -5.540  0.00  0.00    -0.270 OA
ATOM     19  N   LIG d   1       8.851   1.292  -3.560  0.00  0.00    -0.281 N 
ATOM     20  H   LIG d   1       8.882   0.715  -2.780  0.00  0.00     0.155 HD
BRANCH  19  21
ATOM     21  C   LIG d   1       9.759   2.347  -3.683  0.00  0.00     0.043 A 
ATOM     22  C   LIG d   1      11.075   2.101  -4.100  0.00  0.00     0.021 A 
ATOM     23  C   LIG d   1      11.981   3.169  -4.226  0.00  0.00     0.048 A 
ATOM     24  C   LIG d   1      11.814   0.895  -4.477  0.00  0.00    -0.035 A 
ATOM     25  C   LIG d   1      11.562   4.462  -3.925  0.00  0.00    -0.038 A 
ATOM     26  N   LIG d   1      13.177   2.638  -4.653  0.00  0.00    -0.361 N 
ATOM     27  C   LIG d   1      10.267   4.689  -3.512  0.00  0.00    -0.058 A 
ATOM     28  H   LIG d   1      12.251   5.288  -4.017  0.00  0.00     0.064 H 
ATOM     29  C   LIG d   1       9.367   3.641  -3.390  0.00  0.00    -0.040 A 
ATOM     30  H   LIG d   1       9.949   5.696  -3.280  0.00  0.00     0.062 H 
ATOM     31  H   LIG d   1       8.356   3.835  -3.064  0.00  0.00     0.064 H 
ATOM     32  C   LIG d   1      13.061   1.281  -4.788  0.00  0.00     0.003 A 
ATOM     33  H   LIG d   1      13.985   3.148  -4.822  0.00  0.00     0.165 HD
ATOM     34  H   LIG d   1      13.853   0.619  -5.109  0.00  0.00     0.081 H 
ATOM     35  H   LIG d   1      11.429  -0.114  -4.499  0.00  0.00     0.064 H 
ENDBRANCH  19  21
ENDBRANCH   3  17
BRANCH   1  36
ATOM     36  C   LIG d   1       3.375  -0.133  -3.264  0.00  0.00     0.032 C 
ATOM     37  H   LIG d   1       2.877  -0.960  -2.758  0.00  0.00     0.052 H 
BRANCH  36  38
ATOM     38  C   LIG d   1       3.540   1.035  -2.291  0.00  0.00    -0.044 C 
ATOM     39  H   LIG d   1       4.219   1.773  -2.720  0.00  0.00     0.025 H 
ATOM     40  H   LIG d   1       2.570   1.497  -2.109  0.00  0.00     0.025 H 
ATOM     41  H   LIG d   1       3.952   0.669  -1.349  0.00  0.00     0.025 H 
ENDBRANCH  36  38
BRANCH  36  42
ATOM     42  C   LIG d   1       2.530   0.315  -4.459  0.00  0.00    -0.044 C 
ATOM     43  H   LIG d   1       1.513  -0.060  -4.344  0.00  0.00     0.025 H 
ATOM     44  H   LIG d   1       2.513   1.404  -4.505  0.00  0.00     0.025 H 
ATOM     45  H   LIG d   1       2.961  -0.081  -5.378  0.00  0.00     0.025 H 
ENDBRANCH  36  42
ENDBRANCH   1  36
TORSDOF 5
ENDMDL
