MODEL 1
REMARK VINA RESULT:      -7.3      0.000      0.000
REMARK  5 active torsions:
REMARK  status: ('A' for Active; 'I' for Inactive)
REMARK    1  A    between atoms: C_1  and  C_2 
REMARK    2  A    between atoms: C_2  and  C_3 
REMARK    3  A    between atoms: C_2  and  N_16 
REMARK    4  A    between atoms: N_12  and  C_15 
REMARK    5  A    between atoms: N_16  and  C_17 
ROOT
ATOM      1  C   LIG d   1       7.003  -1.921  -6.486  0.00  0.00     0.051 C 
ENDROOT
BRANCH   1   2
ATOM      2  C   LIG d   1       7.430  -3.155  -7.238  0.00  0.00    -0.022 C 
ATOM      3  H   LIG d   1       6.844  -3.245  -8.152  0.00  0.00     0.029 H 
ATOM      4  H   LIG d   1       8.488  -3.078  -7.491  0.00  0.00     0.029 H 
ATOM      5  H   LIG d   1       7.269  -4.034  -6.614  0.00  0.00     0.029 H 
ENDBRANCH   1   2
BRANCH   1   6
ATOM      6  C   LIG d   1       6.410  -0.794  -7.206  0.00  0.00     0.052 A 
ATOM      7  C   LIG d   1       7.213   0.255  -7.654  0.00  0.00    -0.023 A 
ATOM      8  N   LIG d   1       6.698   1.309  -8.328  0.00  0.00    -0.356 N 
ATOM      9  O   LIG d   1       8.538   0.214  -7.414  0.00  0.00    -0.861 OA
ATOM     10  C   LIG d   1       5.349   1.413  -8.601  0.00  0.00     0.052 A 
ATOM     11  C   LIG d   1       4.467   0.404  -8.181  0.00  0.00     0.046 A 
ATOM     12  C   LIG d   1       4.849   2.513  -9.291  0.00  0.00    -0.037 A 
ATOM     13  C   LIG d   1       5.009  -0.757  -7.451  0.00  0.00     0.198 A 
ATOM     14  C   LIG d   1       3.103   0.508  -8.456  0.00  0.00    -0.049 A 
ATOM     15  O   LIG d   1       4.279  -1.655  -7.067  0.00  0.00    -0.286 OA
ATOM     16  C   LIG d   1       2.629   1.606  -9.140  0.00  0.00    -0.061 A 
ATOM     17  H   LIG d   1       2.423  -0.266  -8.134  0.00  0.00     0.062 H 
ATOM     18  C   LIG d   1       3.500   2.603  -9.555  0.00  0.00    -0.060 A 
ATOM     19  H   LIG d   1       1.573   1.690  -9.355  0.00  0.00     0.062 H 
ATOM     20  H   LIG d   1       3.115   3.459 -10.091  0.00  0.00     0.062 H 
ATOM     21  H   LIG d   1       5.517   3.294  -9.619  0.00  0.00     0.064 H 
BRANCH   8  22
ATOM     22  C   LIG d   1       7.600   2.374  -8.776  0.00  0.00     0.011 C 
ATOM     23  H   LIG d   1       8.456   1.934  -9.287  0.00  0.00     0.045 H 
ATOM     24  H   LIG d   1       7.068   3.036  -9.459  0.00  0.00     0.045 H 
ATOM     25  H   LIG d   1       7.946   2.943  -7.912  0.00  0.00     0.045 H 
ENDBRANCH   8  22
ENDBRANCH   1   6
BRANCH   1  26
ATOM     26  N   LIG d   1       7.162  -1.857  -5.189  0.00  0.00    -0.251 NA
BRANCH  26  27
ATOM     27  C   LIG d   1       6.083  -1.976  -4.363  0.00  0.00     0.072 A 
ATOM     28  C   LIG d   1       5.631  -0.845  -3.557  0.00  0.00     0.007 A 
ATOM     29  C   LIG d   1       4.502  -1.010  -2.716  0.00  0.00    -0.016 A 
ATOM     30  C   LIG d   1       6.283   0.394  -3.604  0.00  0.00    -0.052 A 
ATOM     31  C   LIG d   1       3.855  -2.256  -2.669  0.00  0.00    -0.054 A 
ATOM     32  C   LIG d   1       4.057   0.076  -1.944  0.00  0.00    -0.054 A 
ATOM     33  C   LIG d   1       4.297  -3.299  -3.424  0.00  0.00    -0.059 A 
ATOM     34  H   LIG d   1       2.997  -2.387  -2.026  0.00  0.00     0.062 H 
ATOM     35  C   LIG d   1       5.394  -3.180  -4.265  0.00  0.00    -0.036 A 
ATOM     36  H   LIG d   1       3.779  -4.244  -3.367  0.00  0.00     0.062 H 
ATOM     37  H   LIG d   1       5.715  -4.029  -4.850  0.00  0.00     0.064 H 
ATOM     38  C   LIG d   1       4.722   1.263  -2.004  0.00  0.00    -0.061 A 
ATOM     39  H   LIG d   1       3.202  -0.034  -1.294  0.00  0.00     0.062 H 
ATOM     40  C   LIG d   1       5.828   1.424  -2.836  0.00  0.00    -0.061 A 
ATOM     41  H   LIG d   1       4.382   2.095  -1.406  0.00  0.00     0.062 H 
ATOM     42  H   LIG d   1       6.332   2.379  -2.873  0.00  0.00     0.062 H 
ATOM     43  H   LIG d   1       7.141   0.532  -4.244  0.00  0.00     0.062 H 
ENDBRANCH  26  27
ENDBRANCH   1  26
TORSDOF 5
ENDMDL
MODEL 2
REMARK VINA RESULT:      -7.2      1.687      3.239
REMARK  5 active torsions:
REMARK  status: ('A' for Active; 'I' for Inactive)
REMARK    1  A    between atoms: C_1  and  C_2 
REMARK    2  A    between atoms: C_2  and  C_3 
REMARK    3  A    between atoms: C_2  and  N_16 
REMARK    4  A    between atoms: N_12  and  C_15 
REMARK    5  A    between atoms: N_16  and  C_17 
ROOT
ATOM      1  C   LIG d   1       7.585  -1.311  -6.712  0.00  0.00     0.051 C 
ENDROOT
BRANCH   1   2
ATOM      2  C   LIG d   1       8.831  -1.114  -7.537  0.00  0.00    -0.022 C 
ATOM      3  H   LIG d   1       9.698  -1.066  -6.880  0.00  0.00     0.029 H 
ATOM      4  H   LIG d   1       8.945  -1.949  -8.228  0.00  0.00     0.029 H 
ATOM      5  H   LIG d   1       8.750  -0.185  -8.100  0.00  0.00     0.029 H 
ENDBRANCH   1   2
BRANCH   1   6
ATOM      6  C   LIG d   1       6.271  -1.271  -7.351  0.00  0.00     0.052 A 
ATOM      7  C   LIG d   1       5.586  -2.454  -7.626  0.00  0.00    -0.023 A 
ATOM      8  N   LIG d   1       4.366  -2.453  -8.211  0.00  0.00    -0.356 N 
ATOM      9  O   LIG d   1       6.153  -3.631  -7.294  0.00  0.00    -0.861 OA
ATOM     10  C   LIG d   1       3.734  -1.282  -8.580  0.00  0.00     0.052 A 
ATOM     11  C   LIG d   1       4.355  -0.045  -8.346  0.00  0.00     0.046 A 
ATOM     12  C   LIG d   1       2.482  -1.314  -9.186  0.00  0.00    -0.037 A 
ATOM     13  C   LIG d   1       5.681  -0.024  -7.703  0.00  0.00     0.198 A 
ATOM     14  C   LIG d   1       3.717   1.139  -8.719  0.00  0.00    -0.049 A 
ATOM     15  O   LIG d   1       6.257   1.029  -7.482  0.00  0.00    -0.286 OA
ATOM     16  C   LIG d   1       2.478   1.085  -9.317  0.00  0.00    -0.061 A 
ATOM     17  H   LIG d   1       4.193   2.092  -8.540  0.00  0.00     0.062 H 
ATOM     18  C   LIG d   1       1.864  -0.137  -9.549  0.00  0.00    -0.060 A 
ATOM     19  H   LIG d   1       1.981   2.000  -9.608  0.00  0.00     0.062 H 
ATOM     20  H   LIG d   1       0.892  -0.166 -10.019  0.00  0.00     0.062 H 
ATOM     21  H   LIG d   1       1.995  -2.259  -9.371  0.00  0.00     0.064 H 
BRANCH   8  22
ATOM     22  C   LIG d   1       3.700  -3.733  -8.466  0.00  0.00     0.011 C 
ATOM     23  H   LIG d   1       2.620  -3.584  -8.478  0.00  0.00     0.045 H 
ATOM     24  H   LIG d   1       4.024  -4.126  -9.429  0.00  0.00     0.045 H 
ATOM     25  H   LIG d   1       3.959  -4.440  -7.677  0.00  0.00     0.045 H 
ENDBRANCH   8  22
ENDBRANCH   1   6
BRANCH   1  26
ATOM     26  N   LIG d   1       7.680  -1.520  -5.424  0.00  0.00    -0.251 NA
BRANCH  26  27
ATOM     27  C   LIG d   1       7.058  -0.677  -4.549  0.00  0.00     0.072 A 
ATOM     28  C   LIG d   1       5.894  -1.121  -3.786  0.00  0.00     0.007 A 
ATOM     29  C   LIG d   1       5.280  -0.216  -2.885  0.00  0.00    -0.016 A 
ATOM     30  C   LIG d   1       5.380  -2.417  -3.922  0.00  0.00    -0.052 A 
ATOM     31  C   LIG d   1       5.796   1.085  -2.755  0.00  0.00    -0.054 A 
ATOM     32  C   LIG d   1       4.165  -0.638  -2.141  0.00  0.00    -0.054 A 
ATOM     33  C   LIG d   1       6.878   1.478  -3.482  0.00  0.00    -0.059 A 
ATOM     34  H   LIG d   1       5.328   1.779  -2.073  0.00  0.00     0.062 H 
ATOM     35  C   LIG d   1       7.514   0.624  -4.371  0.00  0.00    -0.036 A 
ATOM     36  H   LIG d   1       7.253   2.484  -3.361  0.00  0.00     0.062 H 
ATOM     37  H   LIG d   1       8.370   0.972  -4.929  0.00  0.00     0.064 H 
ATOM     38  C   LIG d   1       3.683  -1.900  -2.307  0.00  0.00    -0.061 A 
ATOM     39  H   LIG d   1       3.683   0.041  -1.454  0.00  0.00     0.062 H 
ATOM     40  C   LIG d   1       4.293  -2.790  -3.190  0.00  0.00    -0.061 A 
ATOM     41  H   LIG d   1       2.823  -2.221  -1.739  0.00  0.00     0.062 H 
ATOM     42  H   LIG d   1       3.897  -3.790  -3.296  0.00  0.00     0.062 H 
ATOM     43  H   LIG d   1       5.842  -3.115  -4.602  0.00  0.00     0.062 H 
ENDBRANCH  26  27
ENDBRANCH   1  26
TORSDOF 5
ENDMDL
MODEL 3
REMARK VINA RESULT:      -7.0      1.581      2.838
REMARK  5 active torsions:
REMARK  status: ('A' for Active; 'I' for Inactive)
REMARK    1  A    between atoms: C_1  and  C_2 
REMARK    2  A    between atoms: C_2  and  C_3 
REMARK    3  A    between atoms: C_2  and  N_16 
REMARK    4  A    between atoms: N_12  and  C_15 
REMARK    5  A    between atoms: N_16  and  C_17 
ROOT
ATOM      1  C   LIG d   1       7.349  -0.950  -7.097  0.00  0.00     0.051 C 
ENDROOT
BRANCH   1   2
ATOM      2  C   LIG d   1       8.656  -0.703  -7.807  0.00  0.00    -0.022 C 
ATOM      3  H   LIG d   1       8.676   0.318  -8.185  0.00  0.00     0.029 H 
ATOM      4  H   LIG d   1       9.481  -0.848  -7.109  0.00  0.00     0.029 H 
ATOM      5  H   LIG d   1       8.755  -1.401  -8.637  0.00  0.00     0.029 H 
ENDBRANCH   1   2
BRANCH   1   6
ATOM      6  C   LIG d   1       6.084  -0.689  -7.783  0.00  0.00     0.052 A 
ATOM      7  C   LIG d   1       5.717   0.617  -8.106  0.00  0.00    -0.023 A 
ATOM      8  N   LIG d   1       4.556   0.894  -8.746  0.00  0.00    -0.356 N 
ATOM      9  O   LIG d   1       6.543   1.630  -7.780  0.00  0.00    -0.861 OA
ATOM     10  C   LIG d   1       3.665  -0.098  -9.103  0.00  0.00     0.052 A 
ATOM     11  C   LIG d   1       3.952  -1.440  -8.809  0.00  0.00     0.046 A 
ATOM     12  C   LIG d   1       2.476   0.219  -9.753  0.00  0.00    -0.037 A 
ATOM     13  C   LIG d   1       5.214  -1.764  -8.119  0.00  0.00     0.198 A 
ATOM     14  C   LIG d   1       3.051  -2.444  -9.169  0.00  0.00    -0.049 A 
ATOM     15  O   LIG d   1       5.503  -2.917  -7.844  0.00  0.00    -0.286 OA
ATOM     16  C   LIG d   1       1.881  -2.108  -9.812  0.00  0.00    -0.061 A 
ATOM     17  H   LIG d   1       3.270  -3.477  -8.944  0.00  0.00     0.062 H 
ATOM     18  C   LIG d   1       1.596  -0.781 -10.103  0.00  0.00    -0.060 A 
ATOM     19  H   LIG d   1       1.180  -2.881 -10.093  0.00  0.00     0.062 H 
ATOM     20  H   LIG d   1       0.674  -0.531 -10.608  0.00  0.00     0.062 H 
ATOM     21  H   LIG d   1       2.245   1.248  -9.985  0.00  0.00     0.064 H 
BRANCH   8  22
ATOM     22  C   LIG d   1       4.236   2.288  -9.062  0.00  0.00     0.011 C 
ATOM     23  H   LIG d   1       3.893   2.357 -10.095  0.00  0.00     0.045 H 
ATOM     24  H   LIG d   1       3.450   2.641  -8.394  0.00  0.00     0.045 H 
ATOM     25  H   LIG d   1       5.127   2.904  -8.934  0.00  0.00     0.045 H 
ENDBRANCH   8  22
ENDBRANCH   1   6
BRANCH   1  26
ATOM     26  N   LIG d   1       7.346  -1.399  -5.868  0.00  0.00    -0.251 NA
BRANCH  26  27
ATOM     27  C   LIG d   1       6.862  -0.620  -4.858  0.00  0.00     0.072 A 
ATOM     28  C   LIG d   1       5.790  -1.104  -3.992  0.00  0.00     0.007 A 
ATOM     29  C   LIG d   1       5.319  -0.264  -2.952  0.00  0.00    -0.016 A 
ATOM     30  C   LIG d   1       5.227  -2.374  -4.163  0.00  0.00    -0.052 A 
ATOM     31  C   LIG d   1       5.883   1.012  -2.786  0.00  0.00    -0.054 A 
ATOM     32  C   LIG d   1       4.293  -0.724  -2.109  0.00  0.00    -0.054 A 
ATOM     33  C   LIG d   1       6.878   1.444  -3.610  0.00  0.00    -0.059 A 
ATOM     34  H   LIG d   1       5.524   1.657  -1.998  0.00  0.00     0.062 H 
ATOM     35  C   LIG d   1       7.373   0.653  -4.637  0.00  0.00    -0.036 A 
ATOM     36  H   LIG d   1       7.293   2.429  -3.459  0.00  0.00     0.062 H 
ATOM     37  H   LIG d   1       8.163   1.030  -5.269  0.00  0.00     0.064 H 
ATOM     38  C   LIG d   1       3.759  -1.960  -2.312  0.00  0.00    -0.061 A 
ATOM     39  H   LIG d   1       3.919  -0.096  -1.315  0.00  0.00     0.062 H 
ATOM     40  C   LIG d   1       4.228  -2.786  -3.332  0.00  0.00    -0.061 A 
ATOM     41  H   LIG d   1       2.967  -2.311  -1.667  0.00  0.00     0.062 H 
ATOM     42  H   LIG d   1       3.794  -3.766  -3.465  0.00  0.00     0.062 H 
ATOM     43  H   LIG d   1       5.580  -3.023  -4.950  0.00  0.00     0.062 H 
ENDBRANCH  26  27
ENDBRANCH   1  26
TORSDOF 5
ENDMDL
MODEL 4
REMARK VINA RESULT:      -7.0      1.439      5.180
REMARK  5 active torsions:
REMARK  status: ('A' for Active; 'I' for Inactive)
REMARK    1  A    between atoms: C_1  and  C_2 
REMARK    2  A    between atoms: C_2  and  C_3 
REMARK    3  A    between atoms: C_2  and  N_16 
REMARK    4  A    between atoms: N_12  and  C_15 
REMARK    5  A    between atoms: N_16  and  C_17 
ROOT
ATOM      1  C   LIG d   1       6.395  -2.324  -7.335  0.00  0.00     0.051 C 
ENDROOT
BRANCH   1   2
ATOM      2  C   LIG d   1       6.959  -3.715  -7.197  0.00  0.00    -0.022 C 
ATOM      3  H   LIG d   1       7.389  -4.028  -8.147  0.00  0.00     0.029 H 
ATOM      4  H   LIG d   1       7.733  -3.718  -6.429  0.00  0.00     0.029 H 
ATOM      5  H   LIG d   1       6.163  -4.402  -6.913  0.00  0.00     0.029 H 
ENDBRANCH   1   2
BRANCH   1   6
ATOM      6  C   LIG d   1       6.178  -1.501  -6.145  0.00  0.00     0.052 A 
ATOM      7  C   LIG d   1       7.047  -0.451  -5.850  0.00  0.00    -0.023 A 
ATOM      8  N   LIG d   1       6.873   0.334  -4.762  0.00  0.00    -0.356 N 
ATOM      9  O   LIG d   1       8.084  -0.206  -6.675  0.00  0.00    -0.861 OA
ATOM     10  C   LIG d   1       5.833   0.133  -3.875  0.00  0.00     0.052 A 
ATOM     11  C   LIG d   1       4.916  -0.907  -4.093  0.00  0.00     0.046 A 
ATOM     12  C   LIG d   1       5.685   0.953  -2.760  0.00  0.00    -0.037 A 
ATOM     13  C   LIG d   1       5.083  -1.769  -5.276  0.00  0.00     0.198 A 
ATOM     14  C   LIG d   1       3.865  -1.112  -3.197  0.00  0.00    -0.049 A 
ATOM     15  O   LIG d   1       4.310  -2.684  -5.503  0.00  0.00    -0.286 OA
ATOM     16  C   LIG d   1       3.737  -0.289  -2.100  0.00  0.00    -0.061 A 
ATOM     17  H   LIG d   1       3.158  -1.911  -3.362  0.00  0.00     0.062 H 
ATOM     18  C   LIG d   1       4.643   0.739  -1.884  0.00  0.00    -0.060 A 
ATOM     19  H   LIG d   1       2.925  -0.444  -1.403  0.00  0.00     0.062 H 
ATOM     20  H   LIG d   1       4.531   1.378  -1.020  0.00  0.00     0.062 H 
ATOM     21  H   LIG d   1       6.384   1.756  -2.583  0.00  0.00     0.064 H 
BRANCH   8  22
ATOM     22  C   LIG d   1       7.818   1.425  -4.515  0.00  0.00     0.011 C 
ATOM     23  H   LIG d   1       7.547   2.287  -5.125  0.00  0.00     0.045 H 
ATOM     24  H   LIG d   1       7.787   1.702  -3.461  0.00  0.00     0.045 H 
ATOM     25  H   LIG d   1       8.826   1.099  -4.776  0.00  0.00     0.045 H 
ENDBRANCH   8  22
ENDBRANCH   1   6
BRANCH   1  26
ATOM     26  N   LIG d   1       6.099  -1.852  -8.519  0.00  0.00    -0.251 NA
BRANCH  26  27
ATOM     27  C   LIG d   1       4.832  -1.423  -8.786  0.00  0.00     0.072 A 
ATOM     28  C   LIG d   1       4.550  -0.003  -8.978  0.00  0.00     0.007 A 
ATOM     29  C   LIG d   1       3.220   0.399  -9.258  0.00  0.00    -0.016 A 
ATOM     30  C   LIG d   1       5.561   0.962  -8.897  0.00  0.00    -0.052 A 
ATOM     31  C   LIG d   1       2.207  -0.572  -9.332  0.00  0.00    -0.054 A 
ATOM     32  C   LIG d   1       2.941   1.762  -9.450  0.00  0.00    -0.054 A 
ATOM     33  C   LIG d   1       2.492  -1.890  -9.144  0.00  0.00    -0.059 A 
ATOM     34  H   LIG d   1       1.191  -0.269  -9.541  0.00  0.00     0.062 H 
ATOM     35  C   LIG d   1       3.781  -2.329  -8.874  0.00  0.00    -0.036 A 
ATOM     36  H   LIG d   1       1.694  -2.614  -9.208  0.00  0.00     0.062 H 
ATOM     37  H   LIG d   1       3.969  -3.382  -8.732  0.00  0.00     0.064 H 
ATOM     38  C   LIG d   1       3.946   2.676  -9.352  0.00  0.00    -0.061 A 
ATOM     39  H   LIG d   1       1.933   2.086  -9.660  0.00  0.00     0.062 H 
ATOM     40  C   LIG d   1       5.254   2.277  -9.083  0.00  0.00    -0.061 A 
ATOM     41  H   LIG d   1       3.730   3.724  -9.496  0.00  0.00     0.062 H 
ATOM     42  H   LIG d   1       6.035   3.020  -9.020  0.00  0.00     0.062 H 
ATOM     43  H   LIG d   1       6.578   0.666  -8.688  0.00  0.00     0.062 H 
ENDBRANCH  26  27
ENDBRANCH   1  26
TORSDOF 5
ENDMDL
MODEL 5
REMARK VINA RESULT:      -7.0      1.566      2.004
REMARK  5 active torsions:
REMARK  status: ('A' for Active; 'I' for Inactive)
REMARK    1  A    between atoms: C_1  and  C_2 
REMARK    2  A    between atoms: C_2  and  C_3 
REMARK    3  A    between atoms: C_2  and  N_16 
REMARK    4  A    between atoms: N_12  and  C_15 
REMARK    5  A    between atoms: N_16  and  C_17 
ROOT
ATOM      1  C   LIG d   1       6.924  -1.500  -6.986  0.00  0.00     0.051 C 
ENDROOT
BRANCH   1   2
ATOM      2  C   LIG d   1       8.022  -2.265  -7.679  0.00  0.00    -0.022 C 
ATOM      3  H   LIG d   1       7.586  -3.075  -8.264  0.00  0.00     0.029 H 
ATOM      4  H   LIG d   1       8.570  -1.594  -8.341  0.00  0.00     0.029 H 
ATOM      5  H   LIG d   1       8.702  -2.678  -6.935  0.00  0.00     0.029 H 
ENDBRANCH   1   2
BRANCH   1   6
ATOM      6  C   LIG d   1       5.728  -1.102  -7.729  0.00  0.00     0.052 A 
ATOM      7  C   LIG d   1       5.478   0.245  -7.988  0.00  0.00    -0.023 A 
ATOM      8  N   LIG d   1       4.385   0.648  -8.677  0.00  0.00    -0.356 N 
ATOM      9  O   LIG d   1       6.352   1.170  -7.546  0.00  0.00    -0.861 OA
ATOM     10  C   LIG d   1       3.450  -0.250  -9.152  0.00  0.00     0.052 A 
ATOM     11  C   LIG d   1       3.620  -1.625  -8.930  0.00  0.00     0.046 A 
ATOM     12  C   LIG d   1       2.332   0.196  -9.851  0.00  0.00    -0.037 A 
ATOM     13  C   LIG d   1       4.807  -2.086  -8.187  0.00  0.00     0.198 A 
ATOM     14  C   LIG d   1       2.674  -2.534  -9.409  0.00  0.00    -0.049 A 
ATOM     15  O   LIG d   1       4.994  -3.272  -7.972  0.00  0.00    -0.286 OA
ATOM     16  C   LIG d   1       1.576  -2.071 -10.099  0.00  0.00    -0.061 A 
ATOM     17  H   LIG d   1       2.803  -3.593  -9.239  0.00  0.00     0.062 H 
ATOM     18  C   LIG d   1       1.407  -0.712 -10.319  0.00  0.00    -0.060 A 
ATOM     19  H   LIG d   1       0.841  -2.771 -10.472  0.00  0.00     0.062 H 
ATOM     20  H   LIG d   1       0.541  -0.361 -10.861  0.00  0.00     0.062 H 
ATOM     21  H   LIG d   1       2.191   1.251 -10.029  0.00  0.00     0.064 H 
BRANCH   8  22
ATOM     22  C   LIG d   1       4.187   2.079  -8.920  0.00  0.00     0.011 C 
ATOM     23  H   LIG d   1       3.489   2.479  -8.185  0.00  0.00     0.045 H 
ATOM     24  H   LIG d   1       5.142   2.597  -8.836  0.00  0.00     0.045 H 
ATOM     25  H   LIG d   1       3.781   2.224  -9.922  0.00  0.00     0.045 H 
ENDBRANCH   8  22
ENDBRANCH   1   6
BRANCH   1  26
ATOM     26  N   LIG d   1       7.039  -1.193  -5.719  0.00  0.00    -0.251 NA
BRANCH  26  27
ATOM     27  C   LIG d   1       6.105  -1.626  -4.824  0.00  0.00     0.072 A 
ATOM     28  C   LIG d   1       5.586  -0.730  -3.794  0.00  0.00     0.007 A 
ATOM     29  C   LIG d   1       4.613  -1.219  -2.888  0.00  0.00    -0.016 A 
ATOM     30  C   LIG d   1       6.024   0.596  -3.690  0.00  0.00    -0.052 A 
ATOM     31  C   LIG d   1       4.181  -2.552  -2.993  0.00  0.00    -0.054 A 
ATOM     32  C   LIG d   1       4.104  -0.361  -1.899  0.00  0.00    -0.054 A 
ATOM     33  C   LIG d   1       4.683  -3.371  -3.957  0.00  0.00    -0.059 A 
ATOM     34  H   LIG d   1       3.442  -2.929  -2.301  0.00  0.00     0.062 H 
ATOM     35  C   LIG d   1       5.632  -2.933  -4.870  0.00  0.00    -0.036 A 
ATOM     36  H   LIG d   1       4.331  -4.391  -4.015  0.00  0.00     0.062 H 
ATOM     37  H   LIG d   1       6.006  -3.612  -5.621  0.00  0.00     0.064 H 
ATOM     38  C   LIG d   1       4.561   0.919  -1.817  0.00  0.00    -0.061 A 
ATOM     39  H   LIG d   1       3.366  -0.719  -1.197  0.00  0.00     0.062 H 
ATOM     40  C   LIG d   1       5.513   1.399  -2.714  0.00  0.00    -0.061 A 
ATOM     41  H   LIG d   1       4.172   1.576  -1.053  0.00  0.00     0.062 H 
ATOM     42  H   LIG d   1       5.852   2.422  -2.634  0.00  0.00     0.062 H 
ATOM     43  H   LIG d   1       6.762   0.980  -4.378  0.00  0.00     0.062 H 
ENDBRANCH  26  27
ENDBRANCH   1  26
TORSDOF 5
ENDMDL
MODEL 6
REMARK VINA RESULT:      -7.0      0.631      2.043
REMARK  5 active torsions:
REMARK  status: ('A' for Active; 'I' for Inactive)
REMARK    1  A    between atoms: C_1  and  C_2 
REMARK    2  A    between atoms: C_2  and  C_3 
REMARK    3  A    between atoms: C_2  and  N_16 
REMARK    4  A    between atoms: N_12  and  C_15 
REMARK    5  A    between atoms: N_16  and  C_17 
ROOT
ATOM      1  C   LIG d   1       7.299  -1.815  -6.499  0.00  0.00     0.051 C 
ENDROOT
BRANCH   1   2
ATOM      2  C   LIG d   1       7.480  -3.156  -7.163  0.00  0.00    -0.022 C 
ATOM      3  H   LIG d   1       8.136  -3.049  -8.026  0.00  0.00     0.029 H 
ATOM      4  H   LIG d   1       7.925  -3.855  -6.454  0.00  0.00     0.029 H 
ATOM      5  H   LIG d   1       6.511  -3.535  -7.486  0.00  0.00     0.029 H 
ENDBRANCH   1   2
BRANCH   1   6
ATOM      6  C   LIG d   1       6.640  -0.726  -7.220  0.00  0.00     0.052 A 
ATOM      7  C   LIG d   1       7.393   0.311  -7.767  0.00  0.00    -0.023 A 
ATOM      8  N   LIG d   1       6.817   1.331  -8.445  0.00  0.00    -0.356 N 
ATOM      9  O   LIG d   1       8.733   0.294  -7.624  0.00  0.00    -0.861 OA
ATOM     10  C   LIG d   1       5.450   1.409  -8.622  0.00  0.00     0.052 A 
ATOM     11  C   LIG d   1       4.615   0.410  -8.097  0.00  0.00     0.046 A 
ATOM     12  C   LIG d   1       4.886   2.475  -9.317  0.00  0.00    -0.037 A 
ATOM     13  C   LIG d   1       5.224  -0.713  -7.362  0.00  0.00     0.198 A 
ATOM     14  C   LIG d   1       3.233   0.488  -8.275  0.00  0.00    -0.049 A 
ATOM     15  O   LIG d   1       4.536  -1.603  -6.889  0.00  0.00    -0.286 OA
ATOM     16  C   LIG d   1       2.695   1.551  -8.966  0.00  0.00    -0.061 A 
ATOM     17  H   LIG d   1       2.588  -0.279  -7.872  0.00  0.00     0.062 H 
ATOM     18  C   LIG d   1       3.520   2.539  -9.485  0.00  0.00    -0.060 A 
ATOM     19  H   LIG d   1       1.626   1.616  -9.107  0.00  0.00     0.062 H 
ATOM     20  H   LIG d   1       3.086   3.368 -10.026  0.00  0.00     0.062 H 
ATOM     21  H   LIG d   1       5.518   3.248  -9.726  0.00  0.00     0.064 H 
BRANCH   8  22
ATOM     22  C   LIG d   1       7.668   2.386  -9.001  0.00  0.00     0.011 C 
ATOM     23  H   LIG d   1       7.540   3.300  -8.422  0.00  0.00     0.045 H 
ATOM     24  H   LIG d   1       8.711   2.071  -8.958  0.00  0.00     0.045 H 
ATOM     25  H   LIG d   1       7.387   2.570 -10.038  0.00  0.00     0.045 H 
ENDBRANCH   8  22
ENDBRANCH   1   6
BRANCH   1  26
ATOM     26  N   LIG d   1       7.731  -1.625  -5.279  0.00  0.00    -0.251 NA
BRANCH  26  27
ATOM     27  C   LIG d   1       7.082  -0.752  -4.454  0.00  0.00     0.072 A 
ATOM     28  C   LIG d   1       5.890  -1.167  -3.720  0.00  0.00     0.007 A 
ATOM     29  C   LIG d   1       5.249  -0.230  -2.870  0.00  0.00    -0.016 A 
ATOM     30  C   LIG d   1       5.374  -2.464  -3.832  0.00  0.00    -0.052 A 
ATOM     31  C   LIG d   1       5.767   1.071  -2.764  0.00  0.00    -0.054 A 
ATOM     32  C   LIG d   1       4.106  -0.623  -2.154  0.00  0.00    -0.054 A 
ATOM     33  C   LIG d   1       6.876   1.437  -3.464  0.00  0.00    -0.059 A 
ATOM     34  H   LIG d   1       5.279   1.789  -2.121  0.00  0.00     0.062 H 
ATOM     35  C   LIG d   1       7.539   0.551  -4.302  0.00  0.00    -0.036 A 
ATOM     36  H   LIG d   1       7.252   2.445  -3.362  0.00  0.00     0.062 H 
ATOM     37  H   LIG d   1       8.416   0.878  -4.839  0.00  0.00     0.064 H 
ATOM     38  C   LIG d   1       3.624  -1.888  -2.297  0.00  0.00    -0.061 A 
ATOM     39  H   LIG d   1       3.603   0.079  -1.507  0.00  0.00     0.062 H 
ATOM     40  C   LIG d   1       4.259  -2.809  -3.128  0.00  0.00    -0.061 A 
ATOM     41  H   LIG d   1       2.742  -2.187  -1.750  0.00  0.00     0.062 H 
ATOM     42  H   LIG d   1       3.862  -3.809  -3.216  0.00  0.00     0.062 H 
ATOM     43  H   LIG d   1       5.856  -3.186  -4.473  0.00  0.00     0.062 H 
ENDBRANCH  26  27
ENDBRANCH   1  26
TORSDOF 5
ENDMDL
MODEL 7
REMARK VINA RESULT:      -6.8      1.817      2.220
REMARK  5 active torsions:
REMARK  status: ('A' for Active; 'I' for Inactive)
REMARK    1  A    between atoms: C_1  and  C_2 
REMARK    2  A    between atoms: C_2  and  C_3 
REMARK    3  A    between atoms: C_2  and  N_16 
REMARK    4  A    between atoms: N_12  and  C_15 
REMARK    5  A    between atoms: N_16  and  C_17 
ROOT
ATOM      1  C   LIG d   1       4.859  -3.179  -6.468  0.00  0.00     0.051 C 
ENDROOT
BRANCH   1   2
ATOM      2  C   LIG d   1       4.019  -4.418  -6.639  0.00  0.00    -0.022 C 
ATOM      3  H   LIG d   1       3.769  -4.545  -7.692  0.00  0.00     0.029 H 
ATOM      4  H   LIG d   1       4.579  -5.287  -6.291  0.00  0.00     0.029 H 
ATOM      5  H   LIG d   1       3.103  -4.319  -6.056  0.00  0.00     0.029 H 
ENDBRANCH   1   2
BRANCH   1   6
ATOM      6  C   LIG d   1       4.788  -2.104  -7.458  0.00  0.00     0.052 A 
ATOM      7  C   LIG d   1       5.575  -2.155  -8.608  0.00  0.00    -0.023 A 
ATOM      8  N   LIG d   1       5.530  -1.182  -9.547  0.00  0.00    -0.356 N 
ATOM      9  O   LIG d   1       6.399  -3.205  -8.792  0.00  0.00    -0.861 OA
ATOM     10  C   LIG d   1       4.711  -0.078  -9.415  0.00  0.00     0.052 A 
ATOM     11  C   LIG d   1       3.889   0.057  -8.285  0.00  0.00     0.046 A 
ATOM     12  C   LIG d   1       4.692   0.910 -10.395  0.00  0.00    -0.037 A 
ATOM     13  C   LIG d   1       3.919  -0.996  -7.253  0.00  0.00     0.198 A 
ATOM     14  C   LIG d   1       3.062   1.173  -8.150  0.00  0.00    -0.049 A 
ATOM     15  O   LIG d   1       3.221  -0.919  -6.255  0.00  0.00    -0.286 OA
ATOM     16  C   LIG d   1       3.058   2.139  -9.132  0.00  0.00    -0.061 A 
ATOM     17  H   LIG d   1       2.429   1.279  -7.282  0.00  0.00     0.062 H 
ATOM     18  C   LIG d   1       3.870   2.006 -10.249  0.00  0.00    -0.060 A 
ATOM     19  H   LIG d   1       2.419   3.005  -9.032  0.00  0.00     0.062 H 
ATOM     20  H   LIG d   1       3.858   2.771 -11.013  0.00  0.00     0.062 H 
ATOM     21  H   LIG d   1       5.319   0.817 -11.269  0.00  0.00     0.064 H 
BRANCH   8  22
ATOM     22  C   LIG d   1       6.379  -1.301 -10.734  0.00  0.00     0.011 C 
ATOM     23  H   LIG d   1       6.525  -2.355 -10.972  0.00  0.00     0.045 H 
ATOM     24  H   LIG d   1       5.899  -0.801 -11.576  0.00  0.00     0.045 H 
ATOM     25  H   LIG d   1       7.346  -0.836 -10.538  0.00  0.00     0.045 H 
ENDBRANCH   8  22
ENDBRANCH   1   6
BRANCH   1  26
ATOM     26  N   LIG d   1       5.652  -3.063  -5.433  0.00  0.00    -0.251 NA
BRANCH  26  27
ATOM     27  C   LIG d   1       5.263  -2.320  -4.356  0.00  0.00     0.072 A 
ATOM     28  C   LIG d   1       5.853  -1.009  -4.102  0.00  0.00     0.007 A 
ATOM     29  C   LIG d   1       5.417  -0.269  -2.975  0.00  0.00    -0.016 A 
ATOM     30  C   LIG d   1       6.829  -0.469  -4.949  0.00  0.00    -0.052 A 
ATOM     31  C   LIG d   1       4.441  -0.816  -2.126  0.00  0.00    -0.054 A 
ATOM     32  C   LIG d   1       5.975   0.997  -2.728  0.00  0.00    -0.054 A 
ATOM     33  C   LIG d   1       3.909  -2.044  -2.379  0.00  0.00    -0.059 A 
ATOM     34  H   LIG d   1       4.109  -0.257  -1.263  0.00  0.00     0.062 H 
ATOM     35  C   LIG d   1       4.302  -2.800  -3.474  0.00  0.00    -0.036 A 
ATOM     36  H   LIG d   1       3.160  -2.439  -1.709  0.00  0.00     0.062 H 
ATOM     37  H   LIG d   1       3.857  -3.769  -3.642  0.00  0.00     0.064 H 
ATOM     38  C   LIG d   1       6.931   1.487  -3.564  0.00  0.00    -0.061 A 
ATOM     39  H   LIG d   1       5.658   1.573  -1.871  0.00  0.00     0.062 H 
ATOM     40  C   LIG d   1       7.353   0.760  -4.675  0.00  0.00    -0.061 A 
ATOM     41  H   LIG d   1       7.363   2.458  -3.370  0.00  0.00     0.062 H 
ATOM     42  H   LIG d   1       8.107   1.174  -5.329  0.00  0.00     0.062 H 
ATOM     43  H   LIG d   1       7.166  -1.023  -5.812  0.00  0.00     0.062 H 
ENDBRANCH  26  27
ENDBRANCH   1  26
TORSDOF 5
ENDMDL
MODEL 8
REMARK VINA RESULT:      -6.8      1.244      2.266
REMARK  5 active torsions:
REMARK  status: ('A' for Active; 'I' for Inactive)
REMARK    1  A    between atoms: C_1  and  C_2 
REMARK    2  A    between atoms: C_2  and  C_3 
REMARK    3  A    between atoms: C_2  and  N_16 
REMARK    4  A    between atoms: N_12  and  C_15 
REMARK    5  A    between atoms: N_16  and  C_17 
ROOT
ATOM      1  C   LIG d   1       7.215  -1.718  -6.601  0.00  0.00     0.051 C 
ENDROOT
BRANCH   1   2
ATOM      2  C   LIG d   1       8.260  -2.586  -7.255  0.00  0.00    -0.022 C 
ATOM      3  H   LIG d   1       9.031  -2.837  -6.527  0.00  0.00     0.029 H 
ATOM      4  H   LIG d   1       7.794  -3.502  -7.621  0.00  0.00     0.029 H 
ATOM      5  H   LIG d   1       8.708  -2.048  -8.089  0.00  0.00     0.029 H 
ENDBRANCH   1   2
BRANCH   1   6
ATOM      6  C   LIG d   1       6.130  -1.152  -7.401  0.00  0.00     0.052 A 
ATOM      7  C   LIG d   1       5.120  -1.976  -7.899  0.00  0.00    -0.023 A 
ATOM      8  N   LIG d   1       4.098  -1.485  -8.637  0.00  0.00    -0.356 N 
ATOM      9  O   LIG d   1       5.160  -3.296  -7.631  0.00  0.00    -0.861 OA
ATOM     10  C   LIG d   1       4.003  -0.143  -8.951  0.00  0.00     0.052 A 
ATOM     11  C   LIG d   1       4.980   0.756  -8.496  0.00  0.00     0.046 A 
ATOM     12  C   LIG d   1       2.943   0.330  -9.718  0.00  0.00    -0.037 A 
ATOM     13  C   LIG d   1       6.098   0.242  -7.684  0.00  0.00     0.198 A 
ATOM     14  C   LIG d   1       4.885   2.112  -8.813  0.00  0.00    -0.049 A 
ATOM     15  O   LIG d   1       6.969   0.988  -7.269  0.00  0.00    -0.286 OA
ATOM     16  C   LIG d   1       3.828   2.560  -9.574  0.00  0.00    -0.061 A 
ATOM     17  H   LIG d   1       5.635   2.806  -8.464  0.00  0.00     0.062 H 
ATOM     18  C   LIG d   1       2.861   1.671 -10.023  0.00  0.00    -0.060 A 
ATOM     19  H   LIG d   1       3.750   3.609  -9.821  0.00  0.00     0.062 H 
ATOM     20  H   LIG d   1       2.036   2.035 -10.619  0.00  0.00     0.062 H 
ATOM     21  H   LIG d   1       2.185  -0.352 -10.072  0.00  0.00     0.064 H 
BRANCH   8  22
ATOM     22  C   LIG d   1       3.067  -2.405  -9.122  0.00  0.00     0.011 C 
ATOM     23  H   LIG d   1       3.439  -3.428  -9.070  0.00  0.00     0.045 H 
ATOM     24  H   LIG d   1       2.175  -2.310  -8.503  0.00  0.00     0.045 H 
ATOM     25  H   LIG d   1       2.820  -2.161 -10.156  0.00  0.00     0.045 H 
ENDBRANCH   8  22
ENDBRANCH   1   6
BRANCH   1  26
ATOM     26  N   LIG d   1       7.279  -1.472  -5.318  0.00  0.00    -0.251 NA
BRANCH  26  27
ATOM     27  C   LIG d   1       6.218  -1.769  -4.513  0.00  0.00     0.072 A 
ATOM     28  C   LIG d   1       5.646  -0.757  -3.629  0.00  0.00     0.007 A 
ATOM     29  C   LIG d   1       4.541  -1.107  -2.813  0.00  0.00    -0.016 A 
ATOM     30  C   LIG d   1       6.160   0.544  -3.576  0.00  0.00    -0.052 A 
ATOM     31  C   LIG d   1       4.032  -2.415  -2.864  0.00  0.00    -0.054 A 
ATOM     32  C   LIG d   1       3.980  -0.137  -1.965  0.00  0.00    -0.054 A 
ATOM     33  C   LIG d   1       4.586  -3.344  -3.692  0.00  0.00    -0.059 A 
ATOM     34  H   LIG d   1       3.193  -2.687  -2.241  0.00  0.00     0.062 H 
ATOM     35  C   LIG d   1       5.664  -3.044  -4.512  0.00  0.00    -0.036 A 
ATOM     36  H   LIG d   1       4.173  -4.342  -3.711  0.00  0.00     0.062 H 
ATOM     37  H   LIG d   1       6.075  -3.807  -5.156  0.00  0.00     0.064 H 
ATOM     38  C   LIG d   1       4.512   1.115  -1.929  0.00  0.00    -0.061 A 
ATOM     39  H   LIG d   1       3.142  -0.388  -1.333  0.00  0.00     0.062 H 
ATOM     40  C   LIG d   1       5.595   1.458  -2.737  0.00  0.00    -0.061 A 
ATOM     41  H   LIG d   1       4.084   1.858  -1.273  0.00  0.00     0.062 H 
ATOM     42  H   LIG d   1       5.992   2.461  -2.698  0.00  0.00     0.062 H 
ATOM     43  H   LIG d   1       6.998   0.822  -4.196  0.00  0.00     0.062 H 
ENDBRANCH  26  27
ENDBRANCH   1  26
TORSDOF 5
ENDMDL
MODEL 9
REMARK VINA RESULT:      -6.7      1.662      5.693
REMARK  5 active torsions:
REMARK  status: ('A' for Active; 'I' for Inactive)
REMARK    1  A    between atoms: C_1  and  C_2 
REMARK    2  A    between atoms: C_2  and  C_3 
REMARK    3  A    between atoms: C_2  and  N_16 
REMARK    4  A    between atoms: N_12  and  C_15 
REMARK    5  A    between atoms: N_16  and  C_17 
ROOT
ATOM      1  C   LIG d   1       6.501  -1.323  -7.755  0.00  0.00     0.051 C 
ENDROOT
BRANCH   1   2
ATOM      2  C   LIG d   1       7.035  -2.726  -7.897  0.00  0.00    -0.022 C 
ATOM      3  H   LIG d   1       6.220  -3.438  -7.774  0.00  0.00     0.029 H 
ATOM      4  H   LIG d   1       7.478  -2.848  -8.886  0.00  0.00     0.029 H 
ATOM      5  H   LIG d   1       7.792  -2.904  -7.135  0.00  0.00     0.029 H 
ENDBRANCH   1   2
BRANCH   1   6
ATOM      6  C   LIG d   1       6.223  -0.777  -6.428  0.00  0.00     0.052 A 
ATOM      7  C   LIG d   1       7.105   0.130  -5.842  0.00  0.00    -0.023 A 
ATOM      8  N   LIG d   1       6.875   0.659  -4.618  0.00  0.00    -0.356 N 
ATOM      9  O   LIG d   1       8.213   0.494  -6.516  0.00  0.00    -0.861 OA
ATOM     10  C   LIG d   1       5.761   0.323  -3.874  0.00  0.00     0.052 A 
ATOM     11  C   LIG d   1       4.824  -0.588  -4.385  0.00  0.00     0.046 A 
ATOM     12  C   LIG d   1       5.556   0.879  -2.615  0.00  0.00    -0.037 A 
ATOM     13  C   LIG d   1       5.052  -1.172  -5.720  0.00  0.00     0.198 A 
ATOM     14  C   LIG d   1       3.698  -0.930  -3.634  0.00  0.00    -0.049 A 
ATOM     15  O   LIG d   1       4.264  -1.968  -6.202  0.00  0.00    -0.286 OA
ATOM     16  C   LIG d   1       3.515  -0.368  -2.391  0.00  0.00    -0.061 A 
ATOM     17  H   LIG d   1       2.976  -1.631  -4.026  0.00  0.00     0.062 H 
ATOM     18  C   LIG d   1       4.440   0.533  -1.885  0.00  0.00    -0.060 A 
ATOM     19  H   LIG d   1       2.644  -0.629  -1.806  0.00  0.00     0.062 H 
ATOM     20  H   LIG d   1       4.285   0.968  -0.907  0.00  0.00     0.062 H 
ATOM     21  H   LIG d   1       6.270   1.582  -2.212  0.00  0.00     0.064 H 
BRANCH   8  22
ATOM     22  C   LIG d   1       7.840   1.612  -4.064  0.00  0.00     0.011 C 
ATOM     23  H   LIG d   1       8.823   1.429  -4.498  0.00  0.00     0.045 H 
ATOM     24  H   LIG d   1       7.522   2.628  -4.298  0.00  0.00     0.045 H 
ATOM     25  H   LIG d   1       7.893   1.488  -2.982  0.00  0.00     0.045 H 
ENDBRANCH   8  22
ENDBRANCH   1   6
BRANCH   1  26
ATOM     26  N   LIG d   1       6.288  -0.594  -8.821  0.00  0.00    -0.251 NA
BRANCH  26  27
ATOM     27  C   LIG d   1       5.110   0.081  -8.961  0.00  0.00     0.072 A 
ATOM     28  C   LIG d   1       3.890  -0.621  -9.347  0.00  0.00     0.007 A 
ATOM     29  C   LIG d   1       2.687   0.117  -9.476  0.00  0.00    -0.016 A 
ATOM     30  C   LIG d   1       3.883  -2.001  -9.584  0.00  0.00    -0.052 A 
ATOM     31  C   LIG d   1       2.699   1.502  -9.242  0.00  0.00    -0.054 A 
ATOM     32  C   LIG d   1       1.506  -0.553  -9.841  0.00  0.00    -0.054 A 
ATOM     33  C   LIG d   1       3.851   2.137  -8.889  0.00  0.00    -0.059 A 
ATOM     34  H   LIG d   1       1.785   2.069  -9.344  0.00  0.00     0.062 H 
ATOM     35  C   LIG d   1       5.049   1.453  -8.745  0.00  0.00    -0.036 A 
ATOM     36  H   LIG d   1       3.830   3.202  -8.715  0.00  0.00     0.062 H 
ATOM     37  H   LIG d   1       5.942   1.991  -8.462  0.00  0.00     0.064 H 
ATOM     38  C   LIG d   1       1.538  -1.893 -10.076  0.00  0.00    -0.061 A 
ATOM     39  H   LIG d   1       0.583  -0.005  -9.948  0.00  0.00     0.062 H 
ATOM     40  C   LIG d   1       2.721  -2.618  -9.942  0.00  0.00    -0.061 A 
ATOM     41  H   LIG d   1       0.631  -2.406 -10.361  0.00  0.00     0.062 H 
ATOM     42  H   LIG d   1       2.717  -3.682 -10.125  0.00  0.00     0.062 H 
ATOM     43  H   LIG d   1       4.793  -2.574  -9.485  0.00  0.00     0.062 H 
ENDBRANCH  26  27
ENDBRANCH   1  26
TORSDOF 5
ENDMDL
