MODEL 1
REMARK VINA RESULT:      -6.4      0.000      0.000
REMARK  3 active torsions:
REMARK  status: ('A' for Active; 'I' for Inactive)
REMARK    1  A    between atoms: C_1  and  C_2 
REMARK    2  A    between atoms: C_14  and  C_17 
REMARK    3  A    between atoms: C_15  and  O_16 
ROOT
ATOM      1  C   LIG d   1       4.392  -0.041  -2.104  0.00  0.00     0.032 C 
ATOM      2  H   LIG d   1       4.726  -0.379  -1.124  0.00  0.00     0.052 H 
ATOM      3  C   LIG d   1       3.221  -0.909  -2.568  0.00  0.00    -0.028 C 
ATOM      4  C   LIG d   1       3.701  -2.361  -2.661  0.00  0.00    -0.024 C 
ATOM      5  C   LIG d   1       4.879  -2.421  -3.602  0.00  0.00    -0.020 A 
ATOM      6  C   LIG d   1       5.117  -3.585  -4.301  0.00  0.00    -0.021 A 
ATOM      7  C   LIG d   1       6.188  -3.683  -5.179  0.00  0.00     0.125 A 
ATOM      8  C   LIG d   1       7.027  -2.603  -5.361  0.00  0.00    -0.008 A 
ATOM      9  C   LIG d   1       6.794  -1.420  -4.659  0.00  0.00     0.105 A 
ATOM     10  C   LIG d   1       5.714  -1.319  -3.763  0.00  0.00     0.062 A 
ATOM     11  N   LIG d   1       5.500  -0.148  -3.063  0.00  0.00    -0.343 N 
ATOM     12  C   LIG d   1       6.285   0.932  -3.222  0.00  0.00     0.023 A 
ATOM     13  C   LIG d   1       7.366   0.954  -4.075  0.00  0.00     0.117 A 
ATOM     14  C   LIG d   1       7.682  -0.256  -4.847  0.00  0.00     0.362 A 
ATOM     15  F   LIG d   1       6.409  -4.831  -5.854  0.00  0.00    -0.205 F 
ATOM     16  H   LIG d   1       2.405  -0.838  -1.849  0.00  0.00     0.029 H 
ATOM     17  H   LIG d   1       2.881  -0.572  -3.547  0.00  0.00     0.029 H 
ATOM     18  H   LIG d   1       4.004  -2.710  -1.674  0.00  0.00     0.031 H 
ATOM     19  H   LIG d   1       2.896  -2.989  -3.042  0.00  0.00     0.031 H 
ATOM     20  H   LIG d   1       4.462  -4.433  -4.164  0.00  0.00     0.065 H 
ATOM     21  H   LIG d   1       7.861  -2.673  -6.044  0.00  0.00     0.066 H 
ATOM     22  H   LIG d   1       6.058   1.823  -2.655  0.00  0.00     0.082 H 
ENDROOT
BRANCH   1  23
ATOM     23  C   LIG d   1       3.937   1.418  -2.012  0.00  0.00    -0.044 C 
ATOM     24  H   LIG d   1       4.579   1.954  -1.315  0.00  0.00     0.025 H 
ATOM     25  H   LIG d   1       4.002   1.881  -2.996  0.00  0.00     0.025 H 
ATOM     26  H   LIG d   1       2.907   1.455  -1.659  0.00  0.00     0.025 H 
ENDBRANCH   1  23
BRANCH  13  27
ATOM     27  C   LIG d   1       8.189   2.161  -4.209  0.00  0.00     0.082 C 
ATOM     28  O   LIG d   1       8.256   2.742  -5.284  0.00  0.00    -0.544 OA
ATOM     29  O   LIG d   1       8.811   2.588  -3.243  0.00  0.00    -0.544 OA
ENDBRANCH  13  27
BRANCH  14  30
ATOM     30  O   LIG d   1       8.631  -0.297  -5.609  0.00  0.00    -0.270 OA
ATOM     31  H   LIG d   1       9.437   0.102  -5.256  0.00  0.00     0.684 HD
ENDBRANCH  14  30
TORSDOF 3
ENDMDL
MODEL 2
REMARK VINA RESULT:      -6.0      3.944      5.301
REMARK  3 active torsions:
REMARK  status: ('A' for Active; 'I' for Inactive)
REMARK    1  A    between atoms: C_1  and  C_2 
REMARK    2  A    between atoms: C_14  and  C_17 
REMARK    3  A    between atoms: C_15  and  O_16 
ROOT
ATOM      1  C   LIG d   1       5.237  -3.071  -7.265  0.00  0.00     0.032 C 
ATOM      2  H   LIG d   1       4.519  -3.888  -7.339  0.00  0.00     0.052 H 
ATOM      3  C   LIG d   1       6.389  -3.490  -6.352  0.00  0.00    -0.028 C 
ATOM      4  C   LIG d   1       5.818  -3.799  -4.964  0.00  0.00    -0.024 C 
ATOM      5  C   LIG d   1       5.087  -2.581  -4.458  0.00  0.00    -0.020 A 
ATOM      6  C   LIG d   1       5.002  -2.368  -3.099  0.00  0.00    -0.021 A 
ATOM      7  C   LIG d   1       4.341  -1.258  -2.591  0.00  0.00     0.125 A 
ATOM      8  C   LIG d   1       3.762  -0.351  -3.453  0.00  0.00    -0.008 A 
ATOM      9  C   LIG d   1       3.844  -0.556  -4.831  0.00  0.00     0.105 A 
ATOM     10  C   LIG d   1       4.507  -1.683  -5.350  0.00  0.00     0.062 A 
ATOM     11  N   LIG d   1       4.571  -1.884  -6.715  0.00  0.00    -0.343 N 
ATOM     12  C   LIG d   1       4.033  -1.015  -7.590  0.00  0.00     0.023 A 
ATOM     13  C   LIG d   1       3.366   0.126  -7.200  0.00  0.00     0.117 A 
ATOM     14  C   LIG d   1       3.232   0.411  -5.764  0.00  0.00     0.362 A 
ATOM     15  F   LIG d   1       4.263  -1.067  -1.256  0.00  0.00    -0.205 F 
ATOM     16  H   LIG d   1       6.874  -4.378  -6.755  0.00  0.00     0.029 H 
ATOM     17  H   LIG d   1       7.111  -2.677  -6.277  0.00  0.00     0.029 H 
ATOM     18  H   LIG d   1       5.127  -4.639  -5.032  0.00  0.00     0.031 H 
ATOM     19  H   LIG d   1       6.632  -4.048  -4.281  0.00  0.00     0.031 H 
ATOM     20  H   LIG d   1       5.455  -3.075  -2.419  0.00  0.00     0.065 H 
ATOM     21  H   LIG d   1       3.247   0.516  -3.063  0.00  0.00     0.066 H 
ATOM     22  H   LIG d   1       4.127  -1.222  -8.645  0.00  0.00     0.082 H 
ENDROOT
BRANCH   1  23
ATOM     23  C   LIG d   1       5.784  -2.748  -8.658  0.00  0.00    -0.044 C 
ATOM     24  H   LIG d   1       6.756  -2.264  -8.563  0.00  0.00     0.025 H 
ATOM     25  H   LIG d   1       5.892  -3.670  -9.229  0.00  0.00     0.025 H 
ATOM     26  H   LIG d   1       5.094  -2.079  -9.173  0.00  0.00     0.025 H 
ENDBRANCH   1  23
BRANCH  13  27
ATOM     27  C   LIG d   1       2.798   1.038  -8.199  0.00  0.00     0.082 C 
ATOM     28  O   LIG d   1       2.900   2.248  -8.052  0.00  0.00    -0.544 OA
ATOM     29  O   LIG d   1       2.221   0.587  -9.180  0.00  0.00    -0.544 OA
ENDBRANCH  13  27
BRANCH  14  30
ATOM     30  O   LIG d   1       2.645   1.399  -5.363  0.00  0.00    -0.270 OA
ATOM     31  H   LIG d   1       3.227   2.135  -5.131  0.00  0.00     0.684 HD
ENDBRANCH  14  30
TORSDOF 3
ENDMDL
MODEL 3
REMARK VINA RESULT:      -5.8      3.502      5.700
REMARK  3 active torsions:
REMARK  status: ('A' for Active; 'I' for Inactive)
REMARK    1  A    between atoms: C_1  and  C_2 
REMARK    2  A    between atoms: C_14  and  C_17 
REMARK    3  A    between atoms: C_15  and  O_16 
ROOT
ATOM      1  C   LIG d   1       8.137  -0.690  -5.853  0.00  0.00     0.032 C 
ATOM      2  H   LIG d   1       9.055  -0.876  -5.296  0.00  0.00     0.052 H 
ATOM      3  C   LIG d   1       7.896   0.817  -5.944  0.00  0.00    -0.028 C 
ATOM      4  C   LIG d   1       7.756   1.372  -4.524  0.00  0.00    -0.024 C 
ATOM      5  C   LIG d   1       6.632   0.644  -3.828  0.00  0.00    -0.020 A 
ATOM      6  C   LIG d   1       5.930   1.292  -2.835  0.00  0.00    -0.021 A 
ATOM      7  C   LIG d   1       4.887   0.660  -2.171  0.00  0.00     0.125 A 
ATOM      8  C   LIG d   1       4.544  -0.632  -2.507  0.00  0.00    -0.008 A 
ATOM      9  C   LIG d   1       5.248  -1.297  -3.512  0.00  0.00     0.105 A 
ATOM     10  C   LIG d   1       6.309  -0.662  -4.183  0.00  0.00     0.062 A 
ATOM     11  N   LIG d   1       7.009  -1.334  -5.166  0.00  0.00    -0.343 N 
ATOM     12  C   LIG d   1       6.696  -2.588  -5.534  0.00  0.00     0.023 A 
ATOM     13  C   LIG d   1       5.673  -3.307  -4.955  0.00  0.00     0.117 A 
ATOM     14  C   LIG d   1       4.887  -2.679  -3.884  0.00  0.00     0.362 A 
ATOM     15  F   LIG d   1       4.211   1.309  -1.198  0.00  0.00    -0.205 F 
ATOM     16  H   LIG d   1       8.739   1.294  -6.443  0.00  0.00     0.029 H 
ATOM     17  H   LIG d   1       6.980   1.008  -6.504  0.00  0.00     0.029 H 
ATOM     18  H   LIG d   1       8.686   1.217  -3.977  0.00  0.00     0.031 H 
ATOM     19  H   LIG d   1       7.530   2.438  -4.568  0.00  0.00     0.031 H 
ATOM     20  H   LIG d   1       6.194   2.306  -2.569  0.00  0.00     0.065 H 
ATOM     21  H   LIG d   1       3.732  -1.129  -1.995  0.00  0.00     0.066 H 
ATOM     22  H   LIG d   1       7.273  -3.054  -6.319  0.00  0.00     0.082 H 
ENDROOT
BRANCH   1  23
ATOM     23  C   LIG d   1       8.271  -1.270  -7.264  0.00  0.00    -0.044 C 
ATOM     24  H   LIG d   1       8.208  -0.465  -7.994  0.00  0.00     0.025 H 
ATOM     25  H   LIG d   1       9.233  -1.772  -7.359  0.00  0.00     0.025 H 
ATOM     26  H   LIG d   1       7.468  -1.985  -7.440  0.00  0.00     0.025 H 
ENDBRANCH   1  23
BRANCH  13  27
ATOM     27  C   LIG d   1       5.376  -4.674  -5.396  0.00  0.00     0.082 C 
ATOM     28  O   LIG d   1       6.287  -5.426  -5.716  0.00  0.00    -0.544 OA
ATOM     29  O   LIG d   1       4.216  -5.063  -5.444  0.00  0.00    -0.544 OA
ENDBRANCH  13  27
BRANCH  14  30
ATOM     30  O   LIG d   1       3.978  -3.270  -3.330  0.00  0.00    -0.270 OA
ATOM     31  H   LIG d   1       3.167  -2.752  -3.242  0.00  0.00     0.684 HD
ENDBRANCH  14  30
TORSDOF 3
ENDMDL
MODEL 4
REMARK VINA RESULT:      -5.7      1.907      3.738
REMARK  3 active torsions:
REMARK  status: ('A' for Active; 'I' for Inactive)
REMARK    1  A    between atoms: C_1  and  C_2 
REMARK    2  A    between atoms: C_14  and  C_17 
REMARK    3  A    between atoms: C_15  and  O_16 
ROOT
ATOM      1  C   LIG d   1       8.378  -2.365  -5.657  0.00  0.00     0.032 C 
ATOM      2  H   LIG d   1       8.002  -2.369  -6.680  0.00  0.00     0.052 H 
ATOM      3  C   LIG d   1       8.064  -3.707  -4.995  0.00  0.00    -0.028 C 
ATOM      4  C   LIG d   1       6.544  -3.897  -4.984  0.00  0.00    -0.024 C 
ATOM      5  C   LIG d   1       5.916  -2.731  -4.261  0.00  0.00    -0.020 A 
ATOM      6  C   LIG d   1       4.715  -2.916  -3.611  0.00  0.00    -0.021 A 
ATOM      7  C   LIG d   1       4.103  -1.870  -2.932  0.00  0.00     0.125 A 
ATOM      8  C   LIG d   1       4.703  -0.628  -2.903  0.00  0.00    -0.008 A 
ATOM      9  C   LIG d   1       5.920  -0.431  -3.556  0.00  0.00     0.105 A 
ATOM     10  C   LIG d   1       6.539  -1.486  -4.250  0.00  0.00     0.062 A 
ATOM     11  N   LIG d   1       7.737  -1.277  -4.906  0.00  0.00    -0.343 N 
ATOM     12  C   LIG d   1       8.362  -0.086  -4.888  0.00  0.00     0.023 A 
ATOM     13  C   LIG d   1       7.856   1.017  -4.236  0.00  0.00     0.117 A 
ATOM     14  C   LIG d   1       6.573   0.892  -3.527  0.00  0.00     0.362 A 
ATOM     15  F   LIG d   1       2.924  -2.067  -2.304  0.00  0.00    -0.205 F 
ATOM     16  H   LIG d   1       8.530  -4.513  -5.561  0.00  0.00     0.029 H 
ATOM     17  H   LIG d   1       8.441  -3.708  -3.973  0.00  0.00     0.029 H 
ATOM     18  H   LIG d   1       6.173  -3.936  -6.007  0.00  0.00     0.031 H 
ATOM     19  H   LIG d   1       6.295  -4.824  -4.466  0.00  0.00     0.031 H 
ATOM     20  H   LIG d   1       4.241  -3.886  -3.630  0.00  0.00     0.065 H 
ATOM     21  H   LIG d   1       4.232   0.189  -2.375  0.00  0.00     0.066 H 
ATOM     22  H   LIG d   1       9.302   0.010  -5.409  0.00  0.00     0.082 H 
ENDROOT
BRANCH   1  23
ATOM     23  C   LIG d   1       9.893  -2.148  -5.673  0.00  0.00    -0.044 C 
ATOM     24  H   LIG d   1      10.397  -3.092  -5.473  0.00  0.00     0.025 H 
ATOM     25  H   LIG d   1      10.196  -1.773  -6.651  0.00  0.00     0.025 H 
ATOM     26  H   LIG d   1      10.164  -1.422  -4.906  0.00  0.00     0.025 H 
ENDBRANCH   1  23
BRANCH  13  27
ATOM     27  C   LIG d   1       8.580   2.292  -4.250  0.00  0.00     0.082 C 
ATOM     28  O   LIG d   1       8.970   2.787  -3.202  0.00  0.00    -0.544 OA
ATOM     29  O   LIG d   1       8.794   2.862  -5.313  0.00  0.00    -0.544 OA
ENDBRANCH  13  27
BRANCH  14  30
ATOM     30  O   LIG d   1       6.074   1.835  -2.942  0.00  0.00    -0.270 OA
ATOM     31  H   LIG d   1       6.276   1.864  -1.997  0.00  0.00     0.684 HD
ENDBRANCH  14  30
TORSDOF 3
ENDMDL
MODEL 5
REMARK VINA RESULT:      -5.6      4.258      5.426
REMARK  3 active torsions:
REMARK  status: ('A' for Active; 'I' for Inactive)
REMARK    1  A    between atoms: C_1  and  C_2 
REMARK    2  A    between atoms: C_14  and  C_17 
REMARK    3  A    between atoms: C_15  and  O_16 
ROOT
ATOM      1  C   LIG d   1       5.146  -3.276  -6.067  0.00  0.00     0.032 C 
ATOM      2  H   LIG d   1       6.197  -3.084  -6.285  0.00  0.00     0.052 H 
ATOM      3  C   LIG d   1       4.460  -3.825  -7.318  0.00  0.00    -0.028 C 
ATOM      4  C   LIG d   1       4.571  -2.778  -8.431  0.00  0.00    -0.024 C 
ATOM      5  C   LIG d   1       3.953  -1.489  -7.946  0.00  0.00    -0.020 A 
ATOM      6  C   LIG d   1       3.402  -0.625  -8.867  0.00  0.00    -0.021 A 
ATOM      7  C   LIG d   1       2.821   0.570  -8.464  0.00  0.00     0.125 A 
ATOM      8  C   LIG d   1       2.790   0.900  -7.125  0.00  0.00    -0.008 A 
ATOM      9  C   LIG d   1       3.344   0.031  -6.185  0.00  0.00     0.105 A 
ATOM     10  C   LIG d   1       3.939  -1.178  -6.589  0.00  0.00     0.062 A 
ATOM     11  N   LIG d   1       4.498  -2.025  -5.652  0.00  0.00    -0.343 N 
ATOM     12  C   LIG d   1       4.474  -1.748  -4.336  0.00  0.00     0.023 A 
ATOM     13  C   LIG d   1       3.913  -0.600  -3.821  0.00  0.00     0.117 A 
ATOM     14  C   LIG d   1       3.313   0.371  -4.749  0.00  0.00     0.362 A 
ATOM     15  F   LIG d   1       2.288   1.408  -9.379  0.00  0.00    -0.205 F 
ATOM     16  H   LIG d   1       4.951  -4.746  -7.631  0.00  0.00     0.029 H 
ATOM     17  H   LIG d   1       3.410  -4.022  -7.103  0.00  0.00     0.029 H 
ATOM     18  H   LIG d   1       5.620  -2.612  -8.673  0.00  0.00     0.031 H 
ATOM     19  H   LIG d   1       4.040  -3.128  -9.317  0.00  0.00     0.031 H 
ATOM     20  H   LIG d   1       3.422  -0.879  -9.916  0.00  0.00     0.065 H 
ATOM     21  H   LIG d   1       2.338   1.828  -6.805  0.00  0.00     0.066 H 
ATOM     22  H   LIG d   1       4.916  -2.457  -3.653  0.00  0.00     0.082 H 
ENDROOT
BRANCH   1  23
ATOM     23  C   LIG d   1       5.041  -4.303  -4.937  0.00  0.00    -0.044 C 
ATOM     24  H   LIG d   1       4.073  -4.800  -4.988  0.00  0.00     0.025 H 
ATOM     25  H   LIG d   1       5.835  -5.042  -5.042  0.00  0.00     0.025 H 
ATOM     26  H   LIG d   1       5.139  -3.797  -3.977  0.00  0.00     0.025 H 
ENDBRANCH   1  23
BRANCH  13  27
ATOM     27  C   LIG d   1       3.917  -0.348  -2.377  0.00  0.00     0.082 C 
ATOM     28  O   LIG d   1       4.293  -1.219  -1.604  0.00  0.00    -0.544 OA
ATOM     29  O   LIG d   1       3.543   0.734  -1.943  0.00  0.00    -0.544 OA
ENDBRANCH  13  27
BRANCH  14  30
ATOM     30  O   LIG d   1       2.811   1.406  -4.351  0.00  0.00    -0.270 OA
ATOM     31  H   LIG d   1       1.866   1.483  -4.537  0.00  0.00     0.684 HD
ENDBRANCH  14  30
TORSDOF 3
ENDMDL
MODEL 6
REMARK VINA RESULT:      -5.5      3.760      5.021
REMARK  3 active torsions:
REMARK  status: ('A' for Active; 'I' for Inactive)
REMARK    1  A    between atoms: C_1  and  C_2 
REMARK    2  A    between atoms: C_14  and  C_17 
REMARK    3  A    between atoms: C_15  and  O_16 
ROOT
ATOM      1  C   LIG d   1       7.466  -0.671  -6.741  0.00  0.00     0.032 C 
ATOM      2  H   LIG d   1       7.614  -1.631  -7.235  0.00  0.00     0.052 H 
ATOM      3  C   LIG d   1       8.276  -0.637  -5.445  0.00  0.00    -0.028 C 
ATOM      4  C   LIG d   1       7.780  -1.764  -4.534  0.00  0.00    -0.024 C 
ATOM      5  C   LIG d   1       6.300  -1.582  -4.300  0.00  0.00    -0.020 A 
ATOM      6  C   LIG d   1       5.746  -2.048  -3.128  0.00  0.00    -0.021 A 
ATOM      7  C   LIG d   1       4.390  -1.899  -2.872  0.00  0.00     0.125 A 
ATOM      8  C   LIG d   1       3.582  -1.274  -3.799  0.00  0.00    -0.008 A 
ATOM      9  C   LIG d   1       4.133  -0.797  -4.988  0.00  0.00     0.105 A 
ATOM     10  C   LIG d   1       5.506  -0.952  -5.255  0.00  0.00     0.062 A 
ATOM     11  N   LIG d   1       6.040  -0.489  -6.441  0.00  0.00    -0.343 N 
ATOM     12  C   LIG d   1       5.290   0.139  -7.364  0.00  0.00     0.023 A 
ATOM     13  C   LIG d   1       3.938   0.355  -7.211  0.00  0.00     0.117 A 
ATOM     14  C   LIG d   1       3.280  -0.123  -5.986  0.00  0.00     0.362 A 
ATOM     15  F   LIG d   1       3.862  -2.364  -1.719  0.00  0.00    -0.205 F 
ATOM     16  H   LIG d   1       9.333  -0.784  -5.668  0.00  0.00     0.029 H 
ATOM     17  H   LIG d   1       8.135   0.324  -4.949  0.00  0.00     0.029 H 
ATOM     18  H   LIG d   1       7.959  -2.727  -5.012  0.00  0.00     0.031 H 
ATOM     19  H   LIG d   1       8.308  -1.724  -3.581  0.00  0.00     0.031 H 
ATOM     20  H   LIG d   1       6.375  -2.537  -2.398  0.00  0.00     0.065 H 
ATOM     21  H   LIG d   1       2.526  -1.154  -3.604  0.00  0.00     0.066 H 
ATOM     22  H   LIG d   1       5.769   0.489  -8.266  0.00  0.00     0.082 H 
ENDROOT
BRANCH   1  23
ATOM     23  C   LIG d   1       7.940   0.454  -7.665  0.00  0.00    -0.044 C 
ATOM     24  H   LIG d   1       8.792   0.960  -7.215  0.00  0.00     0.025 H 
ATOM     25  H   LIG d   1       8.232   0.034  -8.628  0.00  0.00     0.025 H 
ATOM     26  H   LIG d   1       7.129   1.168  -7.812  0.00  0.00     0.025 H 
ENDBRANCH   1  23
BRANCH  13  27
ATOM     27  C   LIG d   1       3.168   1.046  -8.251  0.00  0.00     0.082 C 
ATOM     28  O   LIG d   1       2.372   0.422  -8.940  0.00  0.00    -0.544 OA
ATOM     29  O   LIG d   1       3.323   2.247  -8.431  0.00  0.00    -0.544 OA
ENDBRANCH  13  27
BRANCH  14  30
ATOM     30  O   LIG d   1       2.087   0.032  -5.802  0.00  0.00    -0.270 OA
ATOM     31  H   LIG d   1       1.539  -0.170  -6.572  0.00  0.00     0.684 HD
ENDBRANCH  14  30
TORSDOF 3
ENDMDL
MODEL 7
REMARK VINA RESULT:      -5.4      3.825      5.509
REMARK  3 active torsions:
REMARK  status: ('A' for Active; 'I' for Inactive)
REMARK    1  A    between atoms: C_1  and  C_2 
REMARK    2  A    between atoms: C_14  and  C_17 
REMARK    3  A    between atoms: C_15  and  O_16 
ROOT
ATOM      1  C   LIG d   1       6.815  -2.807  -5.366  0.00  0.00     0.032 C 
ATOM      2  H   LIG d   1       6.477  -3.770  -4.985  0.00  0.00     0.052 H 
ATOM      3  C   LIG d   1       7.649  -2.103  -4.295  0.00  0.00    -0.028 C 
ATOM      4  C   LIG d   1       6.768  -1.886  -3.060  0.00  0.00    -0.024 C 
ATOM      5  C   LIG d   1       5.552  -1.092  -3.467  0.00  0.00    -0.020 A 
ATOM      6  C   LIG d   1       4.937  -0.286  -2.533  0.00  0.00    -0.021 A 
ATOM      7  C   LIG d   1       3.817   0.464  -2.865  0.00  0.00     0.125 A 
ATOM      8  C   LIG d   1       3.309   0.407  -4.147  0.00  0.00    -0.008 A 
ATOM      9  C   LIG d   1       3.925  -0.404  -5.100  0.00  0.00     0.105 A 
ATOM     10  C   LIG d   1       5.057  -1.171  -4.765  0.00  0.00     0.062 A 
ATOM     11  N   LIG d   1       5.650  -1.982  -5.712  0.00  0.00    -0.343 N 
ATOM     12  C   LIG d   1       5.197  -2.054  -6.976  0.00  0.00     0.023 A 
ATOM     13  C   LIG d   1       4.102  -1.344  -7.422  0.00  0.00     0.117 A 
ATOM     14  C   LIG d   1       3.394  -0.470  -6.475  0.00  0.00     0.362 A 
ATOM     15  F   LIG d   1       3.224   1.246  -1.937  0.00  0.00    -0.205 F 
ATOM     16  H   LIG d   1       8.505  -2.722  -4.030  0.00  0.00     0.029 H 
ATOM     17  H   LIG d   1       7.993  -1.140  -4.673  0.00  0.00     0.029 H 
ATOM     18  H   LIG d   1       6.458  -2.851  -2.659  0.00  0.00     0.031 H 
ATOM     19  H   LIG d   1       7.328  -1.336  -2.303  0.00  0.00     0.031 H 
ATOM     20  H   LIG d   1       5.331  -0.237  -1.528  0.00  0.00     0.065 H 
ATOM     21  H   LIG d   1       2.439   0.990  -4.411  0.00  0.00     0.066 H 
ATOM     22  H   LIG d   1       5.712  -2.697  -7.673  0.00  0.00     0.082 H 
ENDROOT
BRANCH   1  23
ATOM     23  C   LIG d   1       7.673  -3.027  -6.614  0.00  0.00    -0.044 C 
ATOM     24  H   LIG d   1       7.207  -2.534  -7.466  0.00  0.00     0.025 H 
ATOM     25  H   LIG d   1       8.666  -2.608  -6.451  0.00  0.00     0.025 H 
ATOM     26  H   LIG d   1       7.757  -4.095  -6.813  0.00  0.00     0.025 H 
ENDBRANCH   1  23
BRANCH  13  27
ATOM     27  C   LIG d   1       3.650  -1.462  -8.812  0.00  0.00     0.082 C 
ATOM     28  O   LIG d   1       2.456  -1.554  -9.062  0.00  0.00    -0.544 OA
ATOM     29  O   LIG d   1       4.469  -1.469  -9.723  0.00  0.00    -0.544 OA
ENDBRANCH  13  27
BRANCH  14  30
ATOM     30  O   LIG d   1       2.416   0.173  -6.811  0.00  0.00    -0.270 OA
ATOM     31  H   LIG d   1       1.755   0.277  -6.114  0.00  0.00     0.684 HD
ENDBRANCH  14  30
TORSDOF 3
ENDMDL
MODEL 8
REMARK VINA RESULT:      -5.4      7.716      9.757
REMARK  3 active torsions:
REMARK  status: ('A' for Active; 'I' for Inactive)
REMARK    1  A    between atoms: C_1  and  C_2 
REMARK    2  A    between atoms: C_14  and  C_17 
REMARK    3  A    between atoms: C_15  and  O_16 
ROOT
ATOM      1  C   LIG d   1      10.077   9.899  -2.799  0.00  0.00     0.032 C 
ATOM      2  H   LIG d   1       9.037  10.201  -2.677  0.00  0.00     0.052 H 
ATOM      3  C   LIG d   1      10.484  10.062  -4.264  0.00  0.00    -0.028 C 
ATOM      4  C   LIG d   1       9.584   9.164  -5.119  0.00  0.00    -0.024 C 
ATOM      5  C   LIG d   1       9.718   7.742  -4.633  0.00  0.00    -0.020 A 
ATOM      6  C   LIG d   1       9.518   6.709  -5.523  0.00  0.00    -0.021 A 
ATOM      7  C   LIG d   1       9.634   5.386  -5.118  0.00  0.00     0.125 A 
ATOM      8  C   LIG d   1       9.955   5.096  -3.809  0.00  0.00    -0.008 A 
ATOM      9  C   LIG d   1      10.161   6.134  -2.900  0.00  0.00     0.105 A 
ATOM     10  C   LIG d   1      10.038   7.476  -3.304  0.00  0.00     0.062 A 
ATOM     11  N   LIG d   1      10.230   8.496  -2.393  0.00  0.00    -0.343 N 
ATOM     12  C   LIG d   1      10.560   8.256  -1.112  0.00  0.00     0.023 A 
ATOM     13  C   LIG d   1      10.715   6.985  -0.603  0.00  0.00     0.117 A 
ATOM     14  C   LIG d   1      10.509   5.836  -1.497  0.00  0.00     0.362 A 
ATOM     15  F   LIG d   1       9.431   4.386  -6.003  0.00  0.00    -0.205 F 
ATOM     16  H   LIG d   1      10.358  11.101  -4.566  0.00  0.00     0.029 H 
ATOM     17  H   LIG d   1      11.525   9.765  -4.391  0.00  0.00     0.029 H 
ATOM     18  H   LIG d   1       8.548   9.487  -5.024  0.00  0.00     0.031 H 
ATOM     19  H   LIG d   1       9.893   9.224  -6.163  0.00  0.00     0.031 H 
ATOM     20  H   LIG d   1       9.268   6.931  -6.550  0.00  0.00     0.065 H 
ATOM     21  H   LIG d   1      10.047   4.068  -3.488  0.00  0.00     0.066 H 
ATOM     22  H   LIG d   1      10.709   9.097  -0.452  0.00  0.00     0.082 H 
ENDROOT
BRANCH   1  23
ATOM     23  C   LIG d   1      10.969  10.783  -1.923  0.00  0.00    -0.044 C 
ATOM     24  H   LIG d   1      10.565  10.816  -0.912  0.00  0.00     0.025 H 
ATOM     25  H   LIG d   1      11.977  10.369  -1.899  0.00  0.00     0.025 H 
ATOM     26  H   LIG d   1      10.999  11.791  -2.336  0.00  0.00     0.025 H 
ENDBRANCH   1  23
BRANCH  13  27
ATOM     27  C   LIG d   1      11.074   6.781   0.804  0.00  0.00     0.082 C 
ATOM     28  O   LIG d   1      11.792   7.590   1.377  0.00  0.00    -0.544 OA
ATOM     29  O   LIG d   1      10.656   5.801   1.407  0.00  0.00    -0.544 OA
ENDBRANCH  13  27
BRANCH  14  30
ATOM     30  O   LIG d   1      10.624   4.691  -1.099  0.00  0.00    -0.270 OA
ATOM     31  H   LIG d   1      10.462   4.584  -0.152  0.00  0.00     0.684 HD
ENDBRANCH  14  30
TORSDOF 3
ENDMDL
MODEL 9
REMARK VINA RESULT:      -5.2      2.433      4.015
REMARK  3 active torsions:
REMARK  status: ('A' for Active; 'I' for Inactive)
REMARK    1  A    between atoms: C_1  and  C_2 
REMARK    2  A    between atoms: C_14  and  C_17 
REMARK    3  A    between atoms: C_15  and  O_16 
ROOT
ATOM      1  C   LIG d   1       8.086   0.307  -5.043  0.00  0.00     0.032 C 
ATOM      2  H   LIG d   1       7.796   0.768  -5.987  0.00  0.00     0.052 H 
ATOM      3  C   LIG d   1       9.156  -0.753  -5.304  0.00  0.00    -0.028 C 
ATOM      4  C   LIG d   1       8.567  -1.818  -6.235  0.00  0.00    -0.024 C 
ATOM      5  C   LIG d   1       7.326  -2.389  -5.594  0.00  0.00    -0.020 A 
ATOM      6  C   LIG d   1       6.958  -3.684  -5.887  0.00  0.00    -0.021 A 
ATOM      7  C   LIG d   1       5.825  -4.249  -5.317  0.00  0.00     0.125 A 
ATOM      8  C   LIG d   1       5.056  -3.509  -4.443  0.00  0.00    -0.008 A 
ATOM      9  C   LIG d   1       5.421  -2.198  -4.138  0.00  0.00     0.105 A 
ATOM     10  C   LIG d   1       6.565  -1.619  -4.718  0.00  0.00     0.062 A 
ATOM     11  N   LIG d   1       6.910  -0.315  -4.421  0.00  0.00    -0.343 N 
ATOM     12  C   LIG d   1       6.196   0.434  -3.562  0.00  0.00     0.023 A 
ATOM     13  C   LIG d   1       5.063  -0.027  -2.928  0.00  0.00     0.117 A 
ATOM     14  C   LIG d   1       4.609  -1.398  -3.200  0.00  0.00     0.362 A 
ATOM     15  F   LIG d   1       5.476  -5.518  -5.617  0.00  0.00    -0.205 F 
ATOM     16  H   LIG d   1      10.023  -0.292  -5.776  0.00  0.00     0.029 H 
ATOM     17  H   LIG d   1       9.453  -1.214  -4.361  0.00  0.00     0.029 H 
ATOM     18  H   LIG d   1       8.309  -1.364  -7.191  0.00  0.00     0.031 H 
ATOM     19  H   LIG d   1       9.297  -2.613  -6.390  0.00  0.00     0.031 H 
ATOM     20  H   LIG d   1       7.558  -4.267  -6.570  0.00  0.00     0.065 H 
ATOM     21  H   LIG d   1       4.174  -3.945  -3.995  0.00  0.00     0.066 H 
ATOM     22  H   LIG d   1       6.525   1.442  -3.361  0.00  0.00     0.082 H 
ENDROOT
BRANCH   1  23
ATOM     23  C   LIG d   1       8.650   1.379  -4.106  0.00  0.00    -0.044 C 
ATOM     24  H   LIG d   1       9.230   0.902  -3.317  0.00  0.00     0.025 H 
ATOM     25  H   LIG d   1       9.292   2.054  -4.672  0.00  0.00     0.025 H 
ATOM     26  H   LIG d   1       7.829   1.943  -3.665  0.00  0.00     0.025 H 
ENDBRANCH   1  23
BRANCH  13  27
ATOM     27  C   LIG d   1       4.322   0.835  -2.001  0.00  0.00     0.082 C 
ATOM     28  O   LIG d   1       4.901   1.367  -1.063  0.00  0.00    -0.544 OA
ATOM     29  O   LIG d   1       3.123   1.023  -2.165  0.00  0.00    -0.544 OA
ENDBRANCH  13  27
BRANCH  14  30
ATOM     30  O   LIG d   1       3.609  -1.854  -2.675  0.00  0.00    -0.270 OA
ATOM     31  H   LIG d   1       3.384  -2.748  -2.967  0.00  0.00     0.684 HD
ENDBRANCH  14  30
TORSDOF 3
ENDMDL
MODEL 10
REMARK VINA RESULT:      -5.2      7.839     10.820
REMARK  3 active torsions:
REMARK  status: ('A' for Active; 'I' for Inactive)
REMARK    1  A    between atoms: C_1  and  C_2 
REMARK    2  A    between atoms: C_14  and  C_17 
REMARK    3  A    between atoms: C_15  and  O_16 
ROOT
ATOM      1  C   LIG d   1      10.149   8.443  -5.065  0.00  0.00     0.032 C 
ATOM      2  H   LIG d   1      11.176   8.615  -5.387  0.00  0.00     0.052 H 
ATOM      3  C   LIG d   1       9.420   9.783  -4.960  0.00  0.00    -0.028 C 
ATOM      4  C   LIG d   1      10.145  10.649  -3.926  0.00  0.00    -0.024 C 
ATOM      5  C   LIG d   1      10.186   9.905  -2.614  0.00  0.00    -0.020 A 
ATOM      6  C   LIG d   1      10.228  10.624  -1.439  0.00  0.00    -0.021 A 
ATOM      7  C   LIG d   1      10.265   9.978  -0.210  0.00  0.00     0.125 A 
ATOM      8  C   LIG d   1      10.256   8.600  -0.158  0.00  0.00    -0.008 A 
ATOM      9  C   LIG d   1      10.213   7.863  -1.342  0.00  0.00     0.105 A 
ATOM     10  C   LIG d   1      10.182   8.513  -2.590  0.00  0.00     0.062 A 
ATOM     11  N   LIG d   1      10.153   7.775  -3.757  0.00  0.00    -0.343 N 
ATOM     12  C   LIG d   1      10.128   6.430  -3.750  0.00  0.00     0.023 A 
ATOM     13  C   LIG d   1      10.147   5.686  -2.591  0.00  0.00     0.117 A 
ATOM     14  C   LIG d   1      10.199   6.388  -1.300  0.00  0.00     0.362 A 
ATOM     15  F   LIG d   1      10.309  10.697   0.933  0.00  0.00    -0.205 F 
ATOM     16  H   LIG d   1       9.429  10.282  -5.928  0.00  0.00     0.029 H 
ATOM     17  H   LIG d   1       8.391   9.615  -4.641  0.00  0.00     0.029 H 
ATOM     18  H   LIG d   1      11.161  10.850  -4.264  0.00  0.00     0.031 H 
ATOM     19  H   LIG d   1       9.608  11.590  -3.796  0.00  0.00     0.031 H 
ATOM     20  H   LIG d   1      10.233  11.703  -1.473  0.00  0.00     0.065 H 
ATOM     21  H   LIG d   1      10.283   8.093   0.795  0.00  0.00     0.066 H 
ATOM     22  H   LIG d   1      10.093   5.911  -4.696  0.00  0.00     0.082 H 
ENDROOT
BRANCH   1  23
ATOM     23  C   LIG d   1       9.437   7.555  -6.088  0.00  0.00    -0.044 C 
ATOM     24  H   LIG d   1       8.881   6.777  -5.568  0.00  0.00     0.025 H 
ATOM     25  H   LIG d   1       8.749   8.161  -6.678  0.00  0.00     0.025 H 
ATOM     26  H   LIG d   1      10.175   7.097  -6.746  0.00  0.00     0.025 H 
ENDBRANCH   1  23
BRANCH  13  27
ATOM     27  C   LIG d   1      10.120   4.220  -2.643  0.00  0.00     0.082 C 
ATOM     28  O   LIG d   1       9.173   3.643  -3.160  0.00  0.00    -0.544 OA
ATOM     29  O   LIG d   1      11.045   3.574  -2.168  0.00  0.00    -0.544 OA
ENDBRANCH  13  27
BRANCH  14  30
ATOM     30  O   LIG d   1      10.227   5.781  -0.245  0.00  0.00    -0.270 OA
ATOM     31  H   LIG d   1      10.840   5.034  -0.237  0.00  0.00     0.684 HD
ENDBRANCH  14  30
TORSDOF 3
ENDMDL
