MODEL 1
REMARK VINA RESULT:      -3.8      0.000      0.000
REMARK  3 active torsions:
REMARK  status: ('A' for Active; 'I' for Inactive)
REMARK    1  A    between atoms: C_1  and  C_2 
REMARK    2  A    between atoms: C_3  and  O_8 
REMARK    3  A    between atoms: O_8  and  C_9 
ROOT
ATOM      1  C   LIG d   1       5.540   0.634  -2.696  0.00  0.00     0.100 A 
ATOM      2  C   LIG d   1       5.861  -0.688  -2.985  0.00  0.00     0.236 A 
ATOM      3  N   LIG d   1       6.915  -0.961  -3.739  0.00  0.00    -0.218 NA
ATOM      4  C   LIG d   1       7.660   0.022  -4.213  0.00  0.00     0.050 A 
ATOM      5  C   LIG d   1       7.341   1.336  -3.924  0.00  0.00     0.046 A 
ATOM      6  N   LIG d   1       6.285   1.612  -3.177  0.00  0.00    -0.253 NA
ATOM      7  H   LIG d   1       8.521  -0.201  -4.827  0.00  0.00     0.085 H 
ATOM      8  H   LIG d   1       7.951   2.137  -4.313  0.00  0.00     0.085 H 
ENDROOT
BRANCH   2   9
ATOM      9  O   LIG d   1       5.094  -1.696  -2.497  0.00  0.00    -0.478 OA
BRANCH   9  10
ATOM     10  C   LIG d   1       4.385  -2.492  -3.448  0.00  0.00     0.081 C 
ATOM     11  H   LIG d   1       3.880  -3.310  -2.932  0.00  0.00     0.066 H 
ATOM     12  H   LIG d   1       3.646  -1.874  -3.959  0.00  0.00     0.066 H 
ATOM     13  H   LIG d   1       5.086  -2.899  -4.176  0.00  0.00     0.066 H 
ENDBRANCH   9  10
ENDBRANCH   2   9
BRANCH   1  14
ATOM     14  C   LIG d   1       4.342   0.951  -1.840  0.00  0.00    -0.017 C 
ATOM     15  H   LIG d   1       3.444   0.546  -2.307  0.00  0.00     0.029 H 
ATOM     16  H   LIG d   1       4.242   2.032  -1.739  0.00  0.00     0.029 H 
ATOM     17  H   LIG d   1       4.471   0.505  -0.854  0.00  0.00     0.029 H 
ENDBRANCH   1  14
TORSDOF 3
ENDMDL
MODEL 2
REMARK VINA RESULT:      -3.7      2.540      2.943
REMARK  3 active torsions:
REMARK  status: ('A' for Active; 'I' for Inactive)
REMARK    1  A    between atoms: C_1  and  C_2 
REMARK    2  A    between atoms: C_3  and  O_8 
REMARK    3  A    between atoms: O_8  and  C_9 
ROOT
ATOM      1  C   LIG d   1       3.323   0.285  -3.982  0.00  0.00     0.100 A 
ATOM      2  C   LIG d   1       3.757  -0.857  -3.317  0.00  0.00     0.236 A 
ATOM      3  N   LIG d   1       4.380  -0.746  -2.153  0.00  0.00    -0.218 NA
ATOM      4  C   LIG d   1       4.588   0.449  -1.627  0.00  0.00     0.050 A 
ATOM      5  C   LIG d   1       4.155   1.583  -2.290  0.00  0.00     0.046 A 
ATOM      6  N   LIG d   1       3.538   1.475  -3.454  0.00  0.00    -0.253 NA
ATOM      7  H   LIG d   1       5.095   0.540  -0.678  0.00  0.00     0.085 H 
ATOM      8  H   LIG d   1       4.326   2.557  -1.857  0.00  0.00     0.085 H 
ENDROOT
BRANCH   2   9
ATOM      9  O   LIG d   1       3.543  -2.083  -3.859  0.00  0.00    -0.478 OA
BRANCH   9  10
ATOM     10  C   LIG d   1       4.696  -2.837  -4.234  0.00  0.00     0.081 C 
ATOM     11  H   LIG d   1       5.540  -2.162  -4.384  0.00  0.00     0.066 H 
ATOM     12  H   LIG d   1       4.937  -3.549  -3.444  0.00  0.00     0.066 H 
ATOM     13  H   LIG d   1       4.493  -3.376  -5.160  0.00  0.00     0.066 H 
ENDBRANCH   9  10
ENDBRANCH   2   9
BRANCH   1  14
ATOM     14  C   LIG d   1       2.614   0.164  -5.306  0.00  0.00    -0.017 C 
ATOM     15  H   LIG d   1       2.544  -0.887  -5.586  0.00  0.00     0.029 H 
ATOM     16  H   LIG d   1       3.173   0.706  -6.069  0.00  0.00     0.029 H 
ATOM     17  H   LIG d   1       1.612   0.585  -5.222  0.00  0.00     0.029 H 
ENDBRANCH   1  14
TORSDOF 3
ENDMDL
MODEL 3
REMARK VINA RESULT:      -3.6      2.830      3.724
REMARK  3 active torsions:
REMARK  status: ('A' for Active; 'I' for Inactive)
REMARK    1  A    between atoms: C_1  and  C_2 
REMARK    2  A    between atoms: C_3  and  O_8 
REMARK    3  A    between atoms: O_8  and  C_9 
ROOT
ATOM      1  C   LIG d   1       3.998  -1.621  -3.811  0.00  0.00     0.100 A 
ATOM      2  C   LIG d   1       3.550  -0.327  -4.052  0.00  0.00     0.236 A 
ATOM      3  N   LIG d   1       3.672   0.199  -5.263  0.00  0.00    -0.218 NA
ATOM      4  C   LIG d   1       4.218  -0.508  -6.237  0.00  0.00     0.050 A 
ATOM      5  C   LIG d   1       4.662  -1.795  -5.995  0.00  0.00     0.046 A 
ATOM      6  N   LIG d   1       4.547  -2.320  -4.786  0.00  0.00    -0.253 NA
ATOM      7  H   LIG d   1       4.317  -0.080  -7.224  0.00  0.00     0.085 H 
ATOM      8  H   LIG d   1       5.107  -2.370  -6.793  0.00  0.00     0.085 H 
ENDROOT
BRANCH   2   9
ATOM      9  O   LIG d   1       2.990   0.398  -3.051  0.00  0.00    -0.478 OA
BRANCH   9  10
ATOM     10  C   LIG d   1       3.766   1.469  -2.511  0.00  0.00     0.081 C 
ATOM     11  H   LIG d   1       4.781   1.121  -2.316  0.00  0.00     0.066 H 
ATOM     12  H   LIG d   1       3.796   2.291  -3.226  0.00  0.00     0.066 H 
ATOM     13  H   LIG d   1       3.314   1.812  -1.580  0.00  0.00     0.066 H 
ENDBRANCH   9  10
ENDBRANCH   2   9
BRANCH   1  14
ATOM     14  C   LIG d   1       3.862  -2.223  -2.436  0.00  0.00    -0.017 C 
ATOM     15  H   LIG d   1       3.405  -1.495  -1.765  0.00  0.00     0.029 H 
ATOM     16  H   LIG d   1       4.848  -2.496  -2.060  0.00  0.00     0.029 H 
ATOM     17  H   LIG d   1       3.234  -3.112  -2.489  0.00  0.00     0.029 H 
ENDBRANCH   1  14
TORSDOF 3
ENDMDL
MODEL 4
REMARK VINA RESULT:      -3.6      1.755      3.063
REMARK  3 active torsions:
REMARK  status: ('A' for Active; 'I' for Inactive)
REMARK    1  A    between atoms: C_1  and  C_2 
REMARK    2  A    between atoms: C_3  and  O_8 
REMARK    3  A    between atoms: O_8  and  C_9 
ROOT
ATOM      1  C   LIG d   1       4.440   0.146  -2.655  0.00  0.00     0.100 A 
ATOM      2  C   LIG d   1       5.783   0.247  -3.004  0.00  0.00     0.236 A 
ATOM      3  N   LIG d   1       6.462  -0.842  -3.335  0.00  0.00    -0.218 NA
ATOM      4  C   LIG d   1       5.862  -2.019  -3.335  0.00  0.00     0.050 A 
ATOM      5  C   LIG d   1       4.527  -2.117  -2.988  0.00  0.00     0.046 A 
ATOM      6  N   LIG d   1       3.848  -1.033  -2.651  0.00  0.00    -0.253 NA
ATOM      7  H   LIG d   1       6.415  -2.906  -3.606  0.00  0.00     0.085 H 
ATOM      8  H   LIG d   1       4.039  -3.081  -2.989  0.00  0.00     0.085 H 
ENDROOT
BRANCH   2   9
ATOM      9  O   LIG d   1       6.397   1.457  -3.003  0.00  0.00    -0.478 OA
BRANCH   9  10
ATOM     10  C   LIG d   1       7.558   1.597  -3.822  0.00  0.00     0.081 C 
ATOM     11  H   LIG d   1       7.859   0.617  -4.197  0.00  0.00     0.066 H 
ATOM     12  H   LIG d   1       7.333   2.253  -4.663  0.00  0.00     0.066 H 
ATOM     13  H   LIG d   1       8.370   2.025  -3.233  0.00  0.00     0.066 H 
ENDBRANCH   9  10
ENDBRANCH   2   9
BRANCH   1  14
ATOM     14  C   LIG d   1       3.664   1.381  -2.276  0.00  0.00    -0.017 C 
ATOM     15  H   LIG d   1       4.265   1.998  -1.609  0.00  0.00     0.029 H 
ATOM     16  H   LIG d   1       2.743   1.090  -1.770  0.00  0.00     0.029 H 
ATOM     17  H   LIG d   1       3.421   1.947  -3.175  0.00  0.00     0.029 H 
ENDBRANCH   1  14
TORSDOF 3
ENDMDL
MODEL 5
REMARK VINA RESULT:      -3.6      1.556      2.645
REMARK  3 active torsions:
REMARK  status: ('A' for Active; 'I' for Inactive)
REMARK    1  A    between atoms: C_1  and  C_2 
REMARK    2  A    between atoms: C_3  and  O_8 
REMARK    3  A    between atoms: O_8  and  C_9 
ROOT
ATOM      1  C   LIG d   1       6.324   0.652  -3.147  0.00  0.00     0.100 A 
ATOM      2  C   LIG d   1       6.201  -0.730  -3.236  0.00  0.00     0.236 A 
ATOM      3  N   LIG d   1       5.211  -1.347  -2.607  0.00  0.00    -0.218 NA
ATOM      4  C   LIG d   1       4.343  -0.647  -1.898  0.00  0.00     0.050 A 
ATOM      5  C   LIG d   1       4.467   0.727  -1.810  0.00  0.00     0.046 A 
ATOM      6  N   LIG d   1       5.457   1.345  -2.432  0.00  0.00    -0.253 NA
ATOM      7  H   LIG d   1       3.536  -1.149  -1.385  0.00  0.00     0.085 H 
ATOM      8  H   LIG d   1       3.756   1.296  -1.230  0.00  0.00     0.085 H 
ENDROOT
BRANCH   2   9
ATOM      9  O   LIG d   1       7.093  -1.447  -3.966  0.00  0.00    -0.478 OA
BRANCH   9  10
ATOM     10  C   LIG d   1       6.720  -2.778  -4.324  0.00  0.00     0.081 C 
ATOM     11  H   LIG d   1       6.753  -3.416  -3.440  0.00  0.00     0.066 H 
ATOM     12  H   LIG d   1       5.708  -2.775  -4.730  0.00  0.00     0.066 H 
ATOM     13  H   LIG d   1       7.412  -3.161  -5.074  0.00  0.00     0.066 H 
ENDBRANCH   9  10
ENDBRANCH   2   9
BRANCH   1  14
ATOM     14  C   LIG d   1       7.448   1.358  -3.860  0.00  0.00    -0.017 C 
ATOM     15  H   LIG d   1       7.078   1.779  -4.795  0.00  0.00     0.029 H 
ATOM     16  H   LIG d   1       8.247   0.647  -4.073  0.00  0.00     0.029 H 
ATOM     17  H   LIG d   1       7.833   2.158  -3.228  0.00  0.00     0.029 H 
ENDBRANCH   1  14
TORSDOF 3
ENDMDL
MODEL 6
REMARK VINA RESULT:      -3.5      1.901      2.629
REMARK  3 active torsions:
REMARK  status: ('A' for Active; 'I' for Inactive)
REMARK    1  A    between atoms: C_1  and  C_2 
REMARK    2  A    between atoms: C_3  and  O_8 
REMARK    3  A    between atoms: O_8  and  C_9 
ROOT
ATOM      1  C   LIG d   1       4.855  -1.262  -3.008  0.00  0.00     0.100 A 
ATOM      2  C   LIG d   1       4.511  -0.025  -3.542  0.00  0.00     0.236 A 
ATOM      3  N   LIG d   1       5.445   0.740  -4.088  0.00  0.00    -0.218 NA
ATOM      4  C   LIG d   1       6.699   0.325  -4.125  0.00  0.00     0.050 A 
ATOM      5  C   LIG d   1       7.039  -0.906  -3.594  0.00  0.00     0.046 A 
ATOM      6  N   LIG d   1       6.110  -1.669  -3.043  0.00  0.00    -0.253 NA
ATOM      7  H   LIG d   1       7.461   0.948  -4.571  0.00  0.00     0.085 H 
ATOM      8  H   LIG d   1       8.064  -1.242  -3.626  0.00  0.00     0.085 H 
ENDROOT
BRANCH   2   9
ATOM      9  O   LIG d   1       3.223   0.399  -3.502  0.00  0.00    -0.478 OA
BRANCH   9  10
ATOM     10  C   LIG d   1       2.541   0.523  -4.751  0.00  0.00     0.081 C 
ATOM     11  H   LIG d   1       3.072  -0.049  -5.513  0.00  0.00     0.066 H 
ATOM     12  H   LIG d   1       1.526   0.137  -4.650  0.00  0.00     0.066 H 
ATOM     13  H   LIG d   1       2.504   1.572  -5.043  0.00  0.00     0.066 H 
ENDBRANCH   9  10
ENDBRANCH   2   9
BRANCH   1  14
ATOM     14  C   LIG d   1       3.796  -2.136  -2.385  0.00  0.00    -0.017 C 
ATOM     15  H   LIG d   1       3.221  -2.627  -3.171  0.00  0.00     0.029 H 
ATOM     16  H   LIG d   1       3.131  -1.523  -1.777  0.00  0.00     0.029 H 
ATOM     17  H   LIG d   1       4.271  -2.890  -1.758  0.00  0.00     0.029 H 
ENDBRANCH   1  14
TORSDOF 3
ENDMDL
MODEL 7
REMARK VINA RESULT:      -3.5      1.871      3.668
REMARK  3 active torsions:
REMARK  status: ('A' for Active; 'I' for Inactive)
REMARK    1  A    between atoms: C_1  and  C_2 
REMARK    2  A    between atoms: C_3  and  O_8 
REMARK    3  A    between atoms: O_8  and  C_9 
ROOT
ATOM      1  C   LIG d   1       6.126  -0.857  -3.145  0.00  0.00     0.100 A 
ATOM      2  C   LIG d   1       6.426   0.475  -3.409  0.00  0.00     0.236 A 
ATOM      3  N   LIG d   1       5.667   1.435  -2.901  0.00  0.00    -0.218 NA
ATOM      4  C   LIG d   1       4.628   1.125  -2.145  0.00  0.00     0.050 A 
ATOM      5  C   LIG d   1       4.332  -0.200  -1.884  0.00  0.00     0.046 A 
ATOM      6  N   LIG d   1       5.084  -1.161  -2.394  0.00  0.00    -0.253 NA
ATOM      7  H   LIG d   1       4.010   1.907  -1.731  0.00  0.00     0.085 H 
ATOM      8  H   LIG d   1       3.483  -0.451  -1.266  0.00  0.00     0.085 H 
ENDROOT
BRANCH   2   9
ATOM      9  O   LIG d   1       7.493   0.791  -4.186  0.00  0.00    -0.478 OA
BRANCH   9  10
ATOM     10  C   LIG d   1       8.245   1.948  -3.817  0.00  0.00     0.081 C 
ATOM     11  H   LIG d   1       7.600   2.827  -3.853  0.00  0.00     0.066 H 
ATOM     12  H   LIG d   1       8.631   1.823  -2.805  0.00  0.00     0.066 H 
ATOM     13  H   LIG d   1       9.076   2.078  -4.510  0.00  0.00     0.066 H 
ENDBRANCH   9  10
ENDBRANCH   2   9
BRANCH   1  14
ATOM     14  C   LIG d   1       6.985  -1.953  -3.721  0.00  0.00    -0.017 C 
ATOM     15  H   LIG d   1       7.963  -1.548  -3.982  0.00  0.00     0.029 H 
ATOM     16  H   LIG d   1       6.509  -2.357  -4.615  0.00  0.00     0.029 H 
ATOM     17  H   LIG d   1       7.105  -2.746  -2.983  0.00  0.00     0.029 H 
ENDBRANCH   1  14
TORSDOF 3
ENDMDL
MODEL 8
REMARK VINA RESULT:      -3.4      2.359      2.777
REMARK  3 active torsions:
REMARK  status: ('A' for Active; 'I' for Inactive)
REMARK    1  A    between atoms: C_1  and  C_2 
REMARK    2  A    between atoms: C_3  and  O_8 
REMARK    3  A    between atoms: O_8  and  C_9 
ROOT
ATOM      1  C   LIG d   1       4.177   0.524  -3.336  0.00  0.00     0.100 A 
ATOM      2  C   LIG d   1       5.188  -0.245  -3.901  0.00  0.00     0.236 A 
ATOM      3  N   LIG d   1       5.054  -0.706  -5.137  0.00  0.00    -0.218 NA
ATOM      4  C   LIG d   1       3.962  -0.432  -5.828  0.00  0.00     0.050 A 
ATOM      5  C   LIG d   1       2.958   0.334  -5.264  0.00  0.00     0.046 A 
ATOM      6  N   LIG d   1       3.086   0.789  -4.029  0.00  0.00    -0.253 NA
ATOM      7  H   LIG d   1       3.853  -0.806  -6.835  0.00  0.00     0.085 H 
ATOM      8  H   LIG d   1       2.067   0.556  -5.832  0.00  0.00     0.085 H 
ENDROOT
BRANCH   2   9
ATOM      9  O   LIG d   1       6.309  -0.525  -3.189  0.00  0.00    -0.478 OA
BRANCH   9  10
ATOM     10  C   LIG d   1       6.877  -1.825  -3.355  0.00  0.00     0.081 C 
ATOM     11  H   LIG d   1       7.705  -1.952  -2.657  0.00  0.00     0.066 H 
ATOM     12  H   LIG d   1       6.117  -2.581  -3.158  0.00  0.00     0.066 H 
ATOM     13  H   LIG d   1       7.243  -1.934  -4.376  0.00  0.00     0.066 H 
ENDBRANCH   9  10
ENDBRANCH   2   9
BRANCH   1  14
ATOM     14  C   LIG d   1       4.323   1.050  -1.931  0.00  0.00    -0.017 C 
ATOM     15  H   LIG d   1       3.477   1.695  -1.694  0.00  0.00     0.029 H 
ATOM     16  H   LIG d   1       5.249   1.621  -1.851  0.00  0.00     0.029 H 
ATOM     17  H   LIG d   1       4.351   0.214  -1.231  0.00  0.00     0.029 H 
ENDBRANCH   1  14
TORSDOF 3
ENDMDL
MODEL 9
REMARK VINA RESULT:      -3.4      2.150      2.850
REMARK  3 active torsions:
REMARK  status: ('A' for Active; 'I' for Inactive)
REMARK    1  A    between atoms: C_1  and  C_2 
REMARK    2  A    between atoms: C_3  and  O_8 
REMARK    3  A    between atoms: O_8  and  C_9 
ROOT
ATOM      1  C   LIG d   1       4.793  -0.473  -2.756  0.00  0.00     0.100 A 
ATOM      2  C   LIG d   1       3.776  -1.059  -3.503  0.00  0.00     0.236 A 
ATOM      3  N   LIG d   1       4.021  -2.154  -4.207  0.00  0.00    -0.218 NA
ATOM      4  C   LIG d   1       5.231  -2.687  -4.197  0.00  0.00     0.050 A 
ATOM      5  C   LIG d   1       6.240  -2.104  -3.454  0.00  0.00     0.046 A 
ATOM      6  N   LIG d   1       5.999  -1.008  -2.755  0.00  0.00    -0.253 NA
ATOM      7  H   LIG d   1       5.431  -3.580  -4.771  0.00  0.00     0.085 H 
ATOM      8  H   LIG d   1       7.227  -2.542  -3.447  0.00  0.00     0.085 H 
ENDROOT
BRANCH   2   9
ATOM      9  O   LIG d   1       2.535  -0.509  -3.512  0.00  0.00    -0.478 OA
BRANCH   9  10
ATOM     10  C   LIG d   1       2.156   0.221  -4.679  0.00  0.00     0.081 C 
ATOM     11  H   LIG d   1       1.117  -0.001  -4.926  0.00  0.00     0.066 H 
ATOM     12  H   LIG d   1       2.264   1.289  -4.490  0.00  0.00     0.066 H 
ATOM     13  H   LIG d   1       2.797  -0.067  -5.513  0.00  0.00     0.066 H 
ENDBRANCH   9  10
ENDBRANCH   2   9
BRANCH   1  14
ATOM     14  C   LIG d   1       4.519   0.772  -1.954  0.00  0.00    -0.017 C 
ATOM     15  H   LIG d   1       3.956   0.511  -1.057  0.00  0.00     0.029 H 
ATOM     16  H   LIG d   1       3.938   1.472  -2.556  0.00  0.00     0.029 H 
ATOM     17  H   LIG d   1       5.463   1.236  -1.668  0.00  0.00     0.029 H 
ENDBRANCH   1  14
TORSDOF 3
ENDMDL
MODEL 10
REMARK VINA RESULT:      -3.2      1.610      2.869
REMARK  3 active torsions:
REMARK  status: ('A' for Active; 'I' for Inactive)
REMARK    1  A    between atoms: C_1  and  C_2 
REMARK    2  A    between atoms: C_3  and  O_8 
REMARK    3  A    between atoms: O_8  and  C_9 
ROOT
ATOM      1  C   LIG d   1       7.164   0.442  -3.762  0.00  0.00     0.100 A 
ATOM      2  C   LIG d   1       6.026   0.243  -2.989  0.00  0.00     0.236 A 
ATOM      3  N   LIG d   1       5.499  -0.969  -2.890  0.00  0.00    -0.218 NA
ATOM      4  C   LIG d   1       6.057  -1.984  -3.526  0.00  0.00     0.050 A 
ATOM      5  C   LIG d   1       7.189  -1.784  -4.293  0.00  0.00     0.046 A 
ATOM      6  N   LIG d   1       7.713  -0.575  -4.399  0.00  0.00    -0.253 NA
ATOM      7  H   LIG d   1       5.628  -2.972  -3.445  0.00  0.00     0.085 H 
ATOM      8  H   LIG d   1       7.643  -2.616  -4.811  0.00  0.00     0.085 H 
ENDROOT
BRANCH   2   9
ATOM      9  O   LIG d   1       5.454   1.288  -2.337  0.00  0.00    -0.478 OA
BRANCH   9  10
ATOM     10  C   LIG d   1       4.045   1.221  -2.113  0.00  0.00     0.081 C 
ATOM     11  H   LIG d   1       3.810   1.667  -1.146  0.00  0.00     0.066 H 
ATOM     12  H   LIG d   1       3.526   1.767  -2.900  0.00  0.00     0.066 H 
ATOM     13  H   LIG d   1       3.724   0.179  -2.119  0.00  0.00     0.066 H 
ENDBRANCH   9  10
ENDBRANCH   2   9
BRANCH   1  14
ATOM     14  C   LIG d   1       7.767   1.819  -3.878  0.00  0.00    -0.017 C 
ATOM     15  H   LIG d   1       8.401   1.864  -4.763  0.00  0.00     0.029 H 
ATOM     16  H   LIG d   1       8.365   2.029  -2.991  0.00  0.00     0.029 H 
ATOM     17  H   LIG d   1       6.971   2.558  -3.963  0.00  0.00     0.029 H 
ENDBRANCH   1  14
TORSDOF 3
ENDMDL
