MODEL 1
REMARK VINA RESULT:      -6.6      0.000      0.000
REMARK  10 active torsions:
REMARK  status: ('A' for Active; 'I' for Inactive)
REMARK    1  A    between atoms: C_1  and  O_2 
REMARK    2  A    between atoms: O_2  and  C_3 
REMARK    3  A    between atoms: C_6  and  C_9 
REMARK    4  A    between atoms: C_9  and  C_10 
REMARK    5  A    between atoms: C_10  and  N_11 
REMARK    6  A    between atoms: N_11  and  C_12 
REMARK    7  A    between atoms: C_24  and  O_29 
REMARK    8  A    between atoms: C_25  and  O_27 
REMARK    9  A    between atoms: O_27  and  C_28 
REMARK   10  A    between atoms: O_29  and  C_30 
ROOT
ATOM      1  C   LIG d   1       2.747   0.166  -7.284  0.00  0.00     0.126 A 
ATOM      2  C   LIG d   1       2.323  -0.599  -8.384  0.00  0.00     0.003 A 
ATOM      3  C   LIG d   1       2.737  -0.233  -9.632  0.00  0.00     0.057 A 
ATOM      4  N   LIG d   1       3.542   0.873  -9.780  0.00  0.00    -0.292 N 
ATOM      5  C   LIG d   1       3.930   1.569  -8.699  0.00  0.00     0.351 A 
ATOM      6  O   LIG d   1       4.657   2.539  -8.838  0.00  0.00    -0.244 OA
ATOM      7  N   LIG d   1       3.533   1.218  -7.477  0.00  0.00    -0.178 NA
ATOM      8  C   LIG d   1       3.961   1.282 -11.125  0.00  0.00     0.032 C 
ATOM      9  C   LIG d   1       4.341   0.029 -11.931  0.00  0.00    -0.009 C 
ATOM     10  C   LIG d   1       3.136  -0.880 -11.982  0.00  0.00    -0.033 A 
ATOM     11  C   LIG d   1       2.348  -1.002 -10.828  0.00  0.00     0.006 A 
ATOM     12  C   LIG d   1       1.231  -1.833 -10.834  0.00  0.00    -0.007 A 
ATOM     13  C   LIG d   1       0.906  -2.533 -11.984  0.00  0.00     0.162 A 
ATOM     14  C   LIG d   1       1.694  -2.405 -13.126  0.00  0.00     0.162 A 
ATOM     15  C   LIG d   1       2.809  -1.576 -13.119  0.00  0.00    -0.012 A 
ATOM     16  H   LIG d   1       1.683  -1.459  -8.245  0.00  0.00     0.067 H 
ATOM     17  H   LIG d   1       3.141   1.800 -11.622  0.00  0.00     0.050 H 
ATOM     18  H   LIG d   1       4.824   1.944 -11.053  0.00  0.00     0.050 H 
ATOM     19  H   LIG d   1       4.629   0.316 -12.942  0.00  0.00     0.033 H 
ATOM     20  H   LIG d   1       5.170  -0.484 -11.443  0.00  0.00     0.033 H 
ATOM     21  H   LIG d   1       0.622  -1.931  -9.948  0.00  0.00     0.066 H 
ATOM     22  H   LIG d   1       3.417  -1.478 -14.007  0.00  0.00     0.066 H 
ENDROOT
BRANCH   1  23
ATOM     23  N   LIG d   1       2.341  -0.171  -6.011  0.00  0.00    -0.329 NA
ATOM     24  H   LIG d   1       2.777  -1.055  -5.845  0.00  0.00     0.147 HD
BRANCH  23  25
ATOM     25  C   LIG d   1       2.623   0.731  -4.890  0.00  0.00     0.014 C 
ATOM     26  H   LIG d   1       3.554   1.266  -5.080  0.00  0.00     0.046 H 
ATOM     27  H   LIG d   1       1.808   1.446  -4.785  0.00  0.00     0.046 H 
BRANCH  25  28
ATOM     28  C   LIG d   1       2.757  -0.084  -3.603  0.00  0.00    -0.012 C 
ATOM     29  H   LIG d   1       2.658   0.577  -2.742  0.00  0.00     0.033 H 
ATOM     30  H   LIG d   1       1.976  -0.844  -3.569  0.00  0.00     0.033 H 
BRANCH  28  31
ATOM     31  C   LIG d   1       4.108  -0.752  -3.568  0.00  0.00    -0.046 A 
ATOM     32  C   LIG d   1       4.215  -2.107  -3.820  0.00  0.00    -0.055 A 
ATOM     33  C   LIG d   1       5.452  -2.721  -3.789  0.00  0.00    -0.020 A 
ATOM     34  H   LIG d   1       3.330  -2.686  -4.042  0.00  0.00     0.062 H 
ATOM     35  C   LIG d   1       6.587  -1.977  -3.503  0.00  0.00     0.120 A 
ATOM     36  H   LIG d   1       5.535  -3.781  -3.986  0.00  0.00     0.065 H 
ATOM     37  C   LIG d   1       6.477  -0.618  -3.250  0.00  0.00    -0.020 A 
ATOM     38  C   LIG d   1       5.239  -0.007  -3.289  0.00  0.00    -0.055 A 
ATOM     39  H   LIG d   1       7.359  -0.036  -3.028  0.00  0.00     0.065 H 
ATOM     40  H   LIG d   1       5.153   1.052  -3.097  0.00  0.00     0.062 H 
BRANCH  35  41
ATOM     41  O   LIG d   1       7.805  -2.579  -3.471  0.00  0.00    -0.495 OA
BRANCH  41  42
ATOM     42  C   LIG d   1       8.040  -3.623  -4.417  0.00  0.00     0.079 C 
ATOM     43  H   LIG d   1       8.612  -3.231  -5.257  0.00  0.00     0.066 H 
ATOM     44  H   LIG d   1       8.600  -4.427  -3.940  0.00  0.00     0.066 H 
ATOM     45  H   LIG d   1       7.086  -4.009  -4.777  0.00  0.00     0.066 H 
ENDBRANCH  41  42
ENDBRANCH  35  41
ENDBRANCH  28  31
ENDBRANCH  25  28
ENDBRANCH  23  25
ENDBRANCH   1  23
BRANCH  13  46
ATOM     46  O   LIG d   1      -0.182  -3.347 -11.998  0.00  0.00    -0.491 OA
BRANCH  46  47
ATOM     47  C   LIG d   1      -0.186  -4.440 -11.077  0.00  0.00     0.079 C 
ATOM     48  H   LIG d   1      -1.208  -4.635 -10.750  0.00  0.00     0.066 H 
ATOM     49  H   LIG d   1       0.215  -5.328 -11.564  0.00  0.00     0.066 H 
ATOM     50  H   LIG d   1       0.430  -4.191 -10.213  0.00  0.00     0.066 H 
ENDBRANCH  46  47
ENDBRANCH  13  46
BRANCH  14  51
ATOM     51  O   LIG d   1       1.369  -3.093 -14.252  0.00  0.00    -0.491 OA
BRANCH  51  52
ATOM     52  C   LIG d   1       1.352  -2.360 -15.479  0.00  0.00     0.079 C 
ATOM     53  H   LIG d   1       2.367  -2.281 -15.868  0.00  0.00     0.066 H 
ATOM     54  H   LIG d   1       0.725  -2.878 -16.203  0.00  0.00     0.066 H 
ATOM     55  H   LIG d   1       0.953  -1.362 -15.299  0.00  0.00     0.066 H 
ENDBRANCH  51  52
ENDBRANCH  14  51
TORSDOF 10
ENDMDL
MODEL 2
REMARK VINA RESULT:      -6.5      7.686     11.276
REMARK  10 active torsions:
REMARK  status: ('A' for Active; 'I' for Inactive)
REMARK    1  A    between atoms: C_1  and  O_2 
REMARK    2  A    between atoms: O_2  and  C_3 
REMARK    3  A    between atoms: C_6  and  C_9 
REMARK    4  A    between atoms: C_9  and  C_10 
REMARK    5  A    between atoms: C_10  and  N_11 
REMARK    6  A    between atoms: N_11  and  C_12 
REMARK    7  A    between atoms: C_24  and  O_29 
REMARK    8  A    between atoms: C_25  and  O_27 
REMARK    9  A    between atoms: O_27  and  C_28 
REMARK   10  A    between atoms: O_29  and  C_30 
ROOT
ATOM      1  C   LIG d   1       9.781   4.532  -3.197  0.00  0.00     0.126 A 
ATOM      2  C   LIG d   1       9.743   5.491  -4.224  0.00  0.00     0.003 A 
ATOM      3  C   LIG d   1       9.827   6.811  -3.887  0.00  0.00     0.057 A 
ATOM      4  N   LIG d   1       9.934   7.166  -2.563  0.00  0.00    -0.292 N 
ATOM      5  C   LIG d   1       9.975   6.214  -1.615  0.00  0.00     0.351 A 
ATOM      6  O   LIG d   1      10.086   6.537  -0.444  0.00  0.00    -0.244 OA
ATOM      7  N   LIG d   1       9.896   4.923  -1.934  0.00  0.00    -0.178 NA
ATOM      8  C   LIG d   1       9.994   8.586  -2.201  0.00  0.00     0.032 C 
ATOM      9  C   LIG d   1      10.913   9.314  -3.195  0.00  0.00    -0.009 C 
ATOM     10  C   LIG d   1      10.351   9.123  -4.583  0.00  0.00    -0.033 A 
ATOM     11  C   LIG d   1       9.815   7.869  -4.914  0.00  0.00     0.006 A 
ATOM     12  C   LIG d   1       9.291   7.651  -6.185  0.00  0.00    -0.007 A 
ATOM     13  C   LIG d   1       9.301   8.678  -7.113  0.00  0.00     0.162 A 
ATOM     14  C   LIG d   1       9.834   9.921  -6.776  0.00  0.00     0.162 A 
ATOM     15  C   LIG d   1      10.358  10.137  -5.507  0.00  0.00    -0.012 A 
ATOM     16  H   LIG d   1       9.650   5.190  -5.257  0.00  0.00     0.067 H 
ATOM     17  H   LIG d   1       8.994   9.018  -2.246  0.00  0.00     0.050 H 
ATOM     18  H   LIG d   1      10.393   8.690  -1.192  0.00  0.00     0.050 H 
ATOM     19  H   LIG d   1      10.947  10.377  -2.954  0.00  0.00     0.033 H 
ATOM     20  H   LIG d   1      11.918   8.893  -3.142  0.00  0.00     0.033 H 
ATOM     21  H   LIG d   1       8.878   6.688  -6.445  0.00  0.00     0.066 H 
ATOM     22  H   LIG d   1      10.770  11.102  -5.249  0.00  0.00     0.066 H 
ENDROOT
BRANCH   1  23
ATOM     23  N   LIG d   1       9.690   3.191  -3.501  0.00  0.00    -0.329 NA
ATOM     24  H   LIG d   1       9.699   2.741  -2.608  0.00  0.00     0.147 HD
BRANCH  23  25
ATOM     25  C   LIG d   1       8.559   2.693  -4.288  0.00  0.00     0.014 C 
ATOM     26  H   LIG d   1       7.625   2.993  -3.812  0.00  0.00     0.046 H 
ATOM     27  H   LIG d   1       8.605   3.110  -5.293  0.00  0.00     0.046 H 
BRANCH  25  28
ATOM     28  C   LIG d   1       8.625   1.167  -4.364  0.00  0.00    -0.012 C 
ATOM     29  H   LIG d   1       8.720   0.859  -5.406  0.00  0.00     0.033 H 
ATOM     30  H   LIG d   1       9.487   0.811  -3.801  0.00  0.00     0.033 H 
BRANCH  28  31
ATOM     31  C   LIG d   1       7.366   0.579  -3.781  0.00  0.00    -0.046 A 
ATOM     32  C   LIG d   1       6.385   1.412  -3.275  0.00  0.00    -0.055 A 
ATOM     33  C   LIG d   1       5.230   0.876  -2.740  0.00  0.00    -0.020 A 
ATOM     34  H   LIG d   1       6.522   2.484  -3.300  0.00  0.00     0.062 H 
ATOM     35  C   LIG d   1       5.055  -0.499  -2.708  0.00  0.00     0.120 A 
ATOM     36  H   LIG d   1       4.463   1.528  -2.346  0.00  0.00     0.065 H 
ATOM     37  C   LIG d   1       6.041  -1.333  -3.214  0.00  0.00    -0.020 A 
ATOM     38  C   LIG d   1       7.191  -0.792  -3.755  0.00  0.00    -0.055 A 
ATOM     39  H   LIG d   1       5.907  -2.404  -3.191  0.00  0.00     0.065 H 
ATOM     40  H   LIG d   1       7.957  -1.440  -4.155  0.00  0.00     0.062 H 
BRANCH  35  41
ATOM     41  O   LIG d   1       3.920  -1.029  -2.181  0.00  0.00    -0.495 OA
BRANCH  41  42
ATOM     42  C   LIG d   1       2.720  -0.883  -2.942  0.00  0.00     0.079 C 
ATOM     43  H   LIG d   1       2.636   0.145  -3.295  0.00  0.00     0.066 H 
ATOM     44  H   LIG d   1       2.747  -1.559  -3.796  0.00  0.00     0.066 H 
ATOM     45  H   LIG d   1       1.861  -1.123  -2.316  0.00  0.00     0.066 H 
ENDBRANCH  41  42
ENDBRANCH  35  41
ENDBRANCH  28  31
ENDBRANCH  25  28
ENDBRANCH  23  25
ENDBRANCH   1  23
BRANCH  13  46
ATOM     46  O   LIG d   1       8.791   8.474  -8.357  0.00  0.00    -0.491 OA
BRANCH  46  47
ATOM     47  C   LIG d   1       9.146   7.252  -9.011  0.00  0.00     0.079 C 
ATOM     48  H   LIG d   1      10.222   7.097  -8.928  0.00  0.00     0.066 H 
ATOM     49  H   LIG d   1       8.620   6.422  -8.540  0.00  0.00     0.066 H 
ATOM     50  H   LIG d   1       8.867   7.309 -10.063  0.00  0.00     0.066 H 
ENDBRANCH  46  47
ENDBRANCH  13  46
BRANCH  14  51
ATOM     51  O   LIG d   1       9.840  10.925  -7.691  0.00  0.00    -0.491 OA
BRANCH  51  52
ATOM     52  C   LIG d   1       9.861  12.262  -7.187  0.00  0.00     0.079 C 
ATOM     53  H   LIG d   1      10.603  12.339  -6.392  0.00  0.00     0.066 H 
ATOM     54  H   LIG d   1      10.118  12.950  -7.992  0.00  0.00     0.066 H 
ATOM     55  H   LIG d   1       8.877  12.516  -6.791  0.00  0.00     0.066 H 
ENDBRANCH  51  52
ENDBRANCH  14  51
TORSDOF 10
ENDMDL
MODEL 3
REMARK VINA RESULT:      -6.4      3.030      7.951
REMARK  10 active torsions:
REMARK  status: ('A' for Active; 'I' for Inactive)
REMARK    1  A    between atoms: C_1  and  O_2 
REMARK    2  A    between atoms: O_2  and  C_3 
REMARK    3  A    between atoms: C_6  and  C_9 
REMARK    4  A    between atoms: C_9  and  C_10 
REMARK    5  A    between atoms: C_10  and  N_11 
REMARK    6  A    between atoms: N_11  and  C_12 
REMARK    7  A    between atoms: C_24  and  O_29 
REMARK    8  A    between atoms: C_25  and  O_27 
REMARK    9  A    between atoms: O_27  and  C_28 
REMARK   10  A    between atoms: O_29  and  C_30 
ROOT
ATOM      1  C   LIG d   1       3.199  -4.096  -9.797  0.00  0.00     0.126 A 
ATOM      2  C   LIG d   1       3.554  -3.235  -8.744  0.00  0.00     0.003 A 
ATOM      3  C   LIG d   1       3.944  -3.783  -7.557  0.00  0.00     0.057 A 
ATOM      4  N   LIG d   1       3.967  -5.152  -7.418  0.00  0.00    -0.292 N 
ATOM      5  C   LIG d   1       3.628  -5.936  -8.455  0.00  0.00     0.351 A 
ATOM      6  O   LIG d   1       3.667  -7.149  -8.329  0.00  0.00    -0.244 OA
ATOM      7  N   LIG d   1       3.249  -5.411  -9.619  0.00  0.00    -0.178 NA
ATOM      8  C   LIG d   1       4.358  -5.738  -6.131  0.00  0.00     0.032 C 
ATOM      9  C   LIG d   1       5.560  -4.960  -5.574  0.00  0.00    -0.009 C 
ATOM     10  C   LIG d   1       5.154  -3.514  -5.420  0.00  0.00    -0.033 A 
ATOM     11  C   LIG d   1       4.350  -2.941  -6.417  0.00  0.00     0.006 A 
ATOM     12  C   LIG d   1       3.957  -1.609  -6.313  0.00  0.00    -0.007 A 
ATOM     13  C   LIG d   1       4.363  -0.860  -5.222  0.00  0.00     0.162 A 
ATOM     14  C   LIG d   1       5.160  -1.437  -4.236  0.00  0.00     0.162 A 
ATOM     15  C   LIG d   1       5.553  -2.766  -4.340  0.00  0.00    -0.012 A 
ATOM     16  H   LIG d   1       3.520  -2.163  -8.872  0.00  0.00     0.067 H 
ATOM     17  H   LIG d   1       3.524  -5.672  -5.431  0.00  0.00     0.050 H 
ATOM     18  H   LIG d   1       4.634  -6.783  -6.275  0.00  0.00     0.050 H 
ATOM     19  H   LIG d   1       5.845  -5.367  -4.604  0.00  0.00     0.033 H 
ATOM     20  H   LIG d   1       6.399  -5.035  -6.266  0.00  0.00     0.033 H 
ATOM     21  H   LIG d   1       3.340  -1.164  -7.078  0.00  0.00     0.066 H 
ATOM     22  H   LIG d   1       6.170  -3.211  -3.573  0.00  0.00     0.066 H 
ENDROOT
BRANCH   1  23
ATOM     23  N   LIG d   1       2.793  -3.577 -11.007  0.00  0.00    -0.329 NA
ATOM     24  H   LIG d   1       2.843  -4.356 -11.632  0.00  0.00     0.147 HD
BRANCH  23  25
ATOM     25  C   LIG d   1       1.480  -2.938 -11.126  0.00  0.00     0.014 C 
ATOM     26  H   LIG d   1       0.802  -3.599 -11.667  0.00  0.00     0.046 H 
ATOM     27  H   LIG d   1       1.080  -2.741 -10.132  0.00  0.00     0.046 H 
BRANCH  25  28
ATOM     28  C   LIG d   1       1.623  -1.620 -11.889  0.00  0.00    -0.012 C 
ATOM     29  H   LIG d   1       2.160  -1.796 -12.821  0.00  0.00     0.033 H 
ATOM     30  H   LIG d   1       0.634  -1.218 -12.110  0.00  0.00     0.033 H 
BRANCH  28  31
ATOM     31  C   LIG d   1       2.389  -0.633 -11.047  0.00  0.00    -0.046 A 
ATOM     32  C   LIG d   1       1.902  -0.255  -9.810  0.00  0.00    -0.055 A 
ATOM     33  C   LIG d   1       2.603   0.650  -9.037  0.00  0.00    -0.020 A 
ATOM     34  H   LIG d   1       0.972  -0.670  -9.447  0.00  0.00     0.062 H 
ATOM     35  C   LIG d   1       3.796   1.181  -9.503  0.00  0.00     0.120 A 
ATOM     36  H   LIG d   1       2.222   0.943  -8.069  0.00  0.00     0.065 H 
ATOM     37  C   LIG d   1       4.282   0.802 -10.746  0.00  0.00    -0.020 A 
ATOM     38  C   LIG d   1       3.581  -0.107 -11.513  0.00  0.00    -0.055 A 
ATOM     39  H   LIG d   1       5.211   1.214 -11.112  0.00  0.00     0.065 H 
ATOM     40  H   LIG d   1       3.962  -0.408 -12.478  0.00  0.00     0.062 H 
BRANCH  35  41
ATOM     41  O   LIG d   1       4.487   2.073  -8.745  0.00  0.00    -0.495 OA
BRANCH  41  42
ATOM     42  C   LIG d   1       5.892   2.174  -8.982  0.00  0.00     0.079 C 
ATOM     43  H   LIG d   1       6.143   3.200  -9.251  0.00  0.00     0.066 H 
ATOM     44  H   LIG d   1       6.434   1.893  -8.078  0.00  0.00     0.066 H 
ATOM     45  H   LIG d   1       6.174   1.506  -9.795  0.00  0.00     0.066 H 
ENDBRANCH  41  42
ENDBRANCH  35  41
ENDBRANCH  28  31
ENDBRANCH  25  28
ENDBRANCH  23  25
ENDBRANCH   1  23
BRANCH  13  46
ATOM     46  O   LIG d   1       3.985   0.441  -5.114  0.00  0.00    -0.491 OA
BRANCH  46  47
ATOM     47  C   LIG d   1       2.604   0.694  -4.841  0.00  0.00     0.079 C 
ATOM     48  H   LIG d   1       2.080   0.885  -5.777  0.00  0.00     0.066 H 
ATOM     49  H   LIG d   1       2.166  -0.173  -4.348  0.00  0.00     0.066 H 
ATOM     50  H   LIG d   1       2.516   1.565  -4.191  0.00  0.00     0.066 H 
ENDBRANCH  46  47
ENDBRANCH  13  46
BRANCH  14  51
ATOM     51  O   LIG d   1       5.555  -0.697  -3.167  0.00  0.00    -0.491 OA
BRANCH  51  52
ATOM     52  C   LIG d   1       4.718  -0.732  -2.008  0.00  0.00     0.079 C 
ATOM     53  H   LIG d   1       4.069   0.144  -2.004  0.00  0.00     0.066 H 
ATOM     54  H   LIG d   1       4.108  -1.635  -2.028  0.00  0.00     0.066 H 
ATOM     55  H   LIG d   1       5.337  -0.730  -1.112  0.00  0.00     0.066 H 
ENDBRANCH  51  52
ENDBRANCH  14  51
TORSDOF 10
ENDMDL
MODEL 4
REMARK VINA RESULT:      -6.4      6.002      8.504
REMARK  10 active torsions:
REMARK  status: ('A' for Active; 'I' for Inactive)
REMARK    1  A    between atoms: C_1  and  O_2 
REMARK    2  A    between atoms: O_2  and  C_3 
REMARK    3  A    between atoms: C_6  and  C_9 
REMARK    4  A    between atoms: C_9  and  C_10 
REMARK    5  A    between atoms: C_10  and  N_11 
REMARK    6  A    between atoms: N_11  and  C_12 
REMARK    7  A    between atoms: C_24  and  O_29 
REMARK    8  A    between atoms: C_25  and  O_27 
REMARK    9  A    between atoms: O_27  and  C_28 
REMARK   10  A    between atoms: O_29  and  C_30 
ROOT
ATOM      1  C   LIG d   1       7.067   1.409  -4.076  0.00  0.00     0.126 A 
ATOM      2  C   LIG d   1       7.020   0.104  -4.599  0.00  0.00     0.003 A 
ATOM      3  C   LIG d   1       6.188  -0.804  -4.012  0.00  0.00     0.057 A 
ATOM      4  N   LIG d   1       5.431  -0.426  -2.927  0.00  0.00    -0.292 N 
ATOM      5  C   LIG d   1       5.501   0.835  -2.467  0.00  0.00     0.351 A 
ATOM      6  O   LIG d   1       4.815   1.166  -1.515  0.00  0.00    -0.244 OA
ATOM      7  N   LIG d   1       6.308   1.729  -3.035  0.00  0.00    -0.178 NA
ATOM      8  C   LIG d   1       4.559  -1.412  -2.279  0.00  0.00     0.032 C 
ATOM      9  C   LIG d   1       3.857  -2.244  -3.364  0.00  0.00    -0.009 C 
ATOM     10  C   LIG d   1       4.918  -2.914  -4.204  0.00  0.00    -0.033 A 
ATOM     11  C   LIG d   1       6.073  -2.183  -4.520  0.00  0.00     0.006 A 
ATOM     12  C   LIG d   1       7.073  -2.764  -5.295  0.00  0.00    -0.007 A 
ATOM     13  C   LIG d   1       6.918  -4.064  -5.747  0.00  0.00     0.162 A 
ATOM     14  C   LIG d   1       5.769  -4.783  -5.428  0.00  0.00     0.162 A 
ATOM     15  C   LIG d   1       4.770  -4.202  -4.655  0.00  0.00    -0.012 A 
ATOM     16  H   LIG d   1       7.630  -0.173  -5.446  0.00  0.00     0.067 H 
ATOM     17  H   LIG d   1       5.156  -2.069  -1.646  0.00  0.00     0.050 H 
ATOM     18  H   LIG d   1       3.813  -0.898  -1.674  0.00  0.00     0.050 H 
ATOM     19  H   LIG d   1       3.225  -3.000  -2.897  0.00  0.00     0.033 H 
ATOM     20  H   LIG d   1       3.248  -1.592  -3.991  0.00  0.00     0.033 H 
ATOM     21  H   LIG d   1       7.963  -2.206  -5.542  0.00  0.00     0.066 H 
ATOM     22  H   LIG d   1       3.881  -4.763  -4.408  0.00  0.00     0.066 H 
ENDROOT
BRANCH   1  23
ATOM     23  N   LIG d   1       7.902   2.349  -4.639  0.00  0.00    -0.329 NA
ATOM     24  H   LIG d   1       7.357   3.187  -4.639  0.00  0.00     0.147 HD
BRANCH  23  25
ATOM     25  C   LIG d   1       9.211   2.617  -4.039  0.00  0.00     0.014 C 
ATOM     26  H   LIG d   1       9.126   2.589  -2.952  0.00  0.00     0.046 H 
ATOM     27  H   LIG d   1       9.924   1.862  -4.368  0.00  0.00     0.046 H 
BRANCH  25  28
ATOM     28  C   LIG d   1       9.697   4.001  -4.476  0.00  0.00    -0.012 C 
ATOM     29  H   LIG d   1      10.645   3.902  -5.006  0.00  0.00     0.033 H 
ATOM     30  H   LIG d   1       8.958   4.455  -5.135  0.00  0.00     0.033 H 
BRANCH  28  31
ATOM     31  C   LIG d   1       9.891   4.872  -3.261  0.00  0.00    -0.046 A 
ATOM     32  C   LIG d   1      10.646   4.416  -2.197  0.00  0.00    -0.055 A 
ATOM     33  C   LIG d   1      10.824   5.213  -1.083  0.00  0.00    -0.020 A 
ATOM     34  H   LIG d   1      11.098   3.435  -2.238  0.00  0.00     0.062 H 
ATOM     35  C   LIG d   1      10.244   6.471  -1.032  0.00  0.00     0.120 A 
ATOM     36  H   LIG d   1      11.416   4.855  -0.252  0.00  0.00     0.065 H 
ATOM     37  C   LIG d   1       9.486   6.927  -2.100  0.00  0.00    -0.020 A 
ATOM     38  C   LIG d   1       9.315   6.129  -3.214  0.00  0.00    -0.055 A 
ATOM     39  H   LIG d   1       9.033   7.906  -2.063  0.00  0.00     0.065 H 
ATOM     40  H   LIG d   1       8.730   6.484  -4.049  0.00  0.00     0.062 H 
BRANCH  35  41
ATOM     41  O   LIG d   1      10.417   7.257   0.064  0.00  0.00    -0.495 OA
BRANCH  41  42
ATOM     42  C   LIG d   1      11.090   6.674   1.181  0.00  0.00     0.079 C 
ATOM     43  H   LIG d   1      11.452   5.683   0.912  0.00  0.00     0.066 H 
ATOM     44  H   LIG d   1      11.933   7.304   1.466  0.00  0.00     0.066 H 
ATOM     45  H   LIG d   1      10.399   6.593   2.020  0.00  0.00     0.066 H 
ENDBRANCH  41  42
ENDBRANCH  35  41
ENDBRANCH  28  31
ENDBRANCH  25  28
ENDBRANCH  23  25
ENDBRANCH   1  23
BRANCH  13  46
ATOM     46  O   LIG d   1       7.889  -4.638  -6.505  0.00  0.00    -0.491 OA
BRANCH  46  47
ATOM     47  C   LIG d   1       9.243  -4.420  -6.099  0.00  0.00     0.079 C 
ATOM     48  H   LIG d   1       9.255  -3.938  -5.122  0.00  0.00     0.066 H 
ATOM     49  H   LIG d   1       9.763  -5.376  -6.040  0.00  0.00     0.066 H 
ATOM     50  H   LIG d   1       9.742  -3.780  -6.827  0.00  0.00     0.066 H 
ENDBRANCH  46  47
ENDBRANCH  13  46
BRANCH  14  51
ATOM     51  O   LIG d   1       5.623  -6.058  -5.873  0.00  0.00    -0.491 OA
BRANCH  51  52
ATOM     52  C   LIG d   1       4.608  -6.292  -6.852  0.00  0.00     0.079 C 
ATOM     53  H   LIG d   1       5.025  -6.870  -7.676  0.00  0.00     0.066 H 
ATOM     54  H   LIG d   1       3.787  -6.847  -6.398  0.00  0.00     0.066 H 
ATOM     55  H   LIG d   1       4.239  -5.338  -7.227  0.00  0.00     0.066 H 
ENDBRANCH  51  52
ENDBRANCH  14  51
TORSDOF 10
ENDMDL
MODEL 5
REMARK VINA RESULT:      -6.3      7.082     11.717
REMARK  10 active torsions:
REMARK  status: ('A' for Active; 'I' for Inactive)
REMARK    1  A    between atoms: C_1  and  O_2 
REMARK    2  A    between atoms: O_2  and  C_3 
REMARK    3  A    between atoms: C_6  and  C_9 
REMARK    4  A    between atoms: C_9  and  C_10 
REMARK    5  A    between atoms: C_10  and  N_11 
REMARK    6  A    between atoms: N_11  and  C_12 
REMARK    7  A    between atoms: C_24  and  O_29 
REMARK    8  A    between atoms: C_25  and  O_27 
REMARK    9  A    between atoms: O_27  and  C_28 
REMARK   10  A    between atoms: O_29  and  C_30 
ROOT
ATOM      1  C   LIG d   1       9.310   2.853  -4.106  0.00  0.00     0.126 A 
ATOM      2  C   LIG d   1       9.492   3.873  -3.155  0.00  0.00     0.003 A 
ATOM      3  C   LIG d   1       9.909   5.099  -3.584  0.00  0.00     0.057 A 
ATOM      4  N   LIG d   1      10.151   5.301  -4.923  0.00  0.00    -0.292 N 
ATOM      5  C   LIG d   1       9.954   4.300  -5.798  0.00  0.00     0.351 A 
ATOM      6  O   LIG d   1      10.156   4.493  -6.985  0.00  0.00    -0.244 OA
ATOM      7  N   LIG d   1       9.545   3.101  -5.389  0.00  0.00    -0.178 NA
ATOM      8  C   LIG d   1      10.628   6.612  -5.378  0.00  0.00     0.032 C 
ATOM      9  C   LIG d   1       9.851   7.709  -4.635  0.00  0.00    -0.009 C 
ATOM     10  C   LIG d   1      10.075   7.526  -3.154  0.00  0.00    -0.033 A 
ATOM     11  C   LIG d   1      10.100   6.218  -2.644  0.00  0.00     0.006 A 
ATOM     12  C   LIG d   1      10.301   6.007  -1.283  0.00  0.00    -0.007 A 
ATOM     13  C   LIG d   1      10.478   7.092  -0.442  0.00  0.00     0.162 A 
ATOM     14  C   LIG d   1      10.453   8.387  -0.956  0.00  0.00     0.162 A 
ATOM     15  C   LIG d   1      10.251   8.598  -2.315  0.00  0.00    -0.012 A 
ATOM     16  H   LIG d   1       9.305   3.689  -2.107  0.00  0.00     0.067 H 
ATOM     17  H   LIG d   1      11.692   6.708  -5.161  0.00  0.00     0.050 H 
ATOM     18  H   LIG d   1      10.461   6.708  -6.451  0.00  0.00     0.050 H 
ATOM     19  H   LIG d   1      10.213   8.690  -4.944  0.00  0.00     0.033 H 
ATOM     20  H   LIG d   1       8.787   7.623  -4.860  0.00  0.00     0.033 H 
ATOM     21  H   LIG d   1      10.320   5.003  -0.886  0.00  0.00     0.066 H 
ATOM     22  H   LIG d   1      10.234   9.603  -2.710  0.00  0.00     0.066 H 
ENDROOT
BRANCH   1  23
ATOM     23  N   LIG d   1       8.897   1.601  -3.707  0.00  0.00    -0.329 NA
ATOM     24  H   LIG d   1       8.752   1.698  -2.722  0.00  0.00     0.147 HD
BRANCH  23  25
ATOM     25  C   LIG d   1       7.712   0.992  -4.318  0.00  0.00     0.014 C 
ATOM     26  H   LIG d   1       7.256   1.700  -5.011  0.00  0.00     0.046 H 
ATOM     27  H   LIG d   1       8.004   0.092  -4.857  0.00  0.00     0.046 H 
BRANCH  25  28
ATOM     28  C   LIG d   1       6.706   0.629  -3.225  0.00  0.00    -0.012 C 
ATOM     29  H   LIG d   1       7.221   0.556  -2.266  0.00  0.00     0.033 H 
ATOM     30  H   LIG d   1       5.937   1.399  -3.166  0.00  0.00     0.033 H 
BRANCH  28  31
ATOM     31  C   LIG d   1       6.066  -0.696  -3.551  0.00  0.00    -0.046 A 
ATOM     32  C   LIG d   1       6.632  -1.520  -4.506  0.00  0.00    -0.055 A 
ATOM     33  C   LIG d   1       6.047  -2.735  -4.807  0.00  0.00    -0.020 A 
ATOM     34  H   LIG d   1       7.534  -1.214  -5.017  0.00  0.00     0.062 H 
ATOM     35  C   LIG d   1       4.890  -3.127  -4.151  0.00  0.00     0.120 A 
ATOM     36  H   LIG d   1       6.491  -3.379  -5.553  0.00  0.00     0.065 H 
ATOM     37  C   LIG d   1       4.323  -2.299  -3.194  0.00  0.00    -0.020 A 
ATOM     38  C   LIG d   1       4.915  -1.088  -2.892  0.00  0.00    -0.055 A 
ATOM     39  H   LIG d   1       3.422  -2.602  -2.681  0.00  0.00     0.065 H 
ATOM     40  H   LIG d   1       4.478  -0.445  -2.143  0.00  0.00     0.062 H 
BRANCH  35  41
ATOM     41  O   LIG d   1       4.312  -4.321  -4.446  0.00  0.00    -0.495 OA
BRANCH  41  42
ATOM     42  C   LIG d   1       4.869  -5.063  -5.532  0.00  0.00     0.079 C 
ATOM     43  H   LIG d   1       5.633  -5.743  -5.154  0.00  0.00     0.066 H 
ATOM     44  H   LIG d   1       4.083  -5.636  -6.022  0.00  0.00     0.066 H 
ATOM     45  H   LIG d   1       5.317  -4.376  -6.249  0.00  0.00     0.066 H 
ENDBRANCH  41  42
ENDBRANCH  35  41
ENDBRANCH  28  31
ENDBRANCH  25  28
ENDBRANCH  23  25
ENDBRANCH   1  23
BRANCH  13  46
ATOM     46  O   LIG d   1      10.674   6.895   0.889  0.00  0.00    -0.491 OA
BRANCH  46  47
ATOM     47  C   LIG d   1      11.078   5.585   1.297  0.00  0.00     0.079 C 
ATOM     48  H   LIG d   1      10.255   4.888   1.144  0.00  0.00     0.066 H 
ATOM     49  H   LIG d   1      11.938   5.270   0.708  0.00  0.00     0.066 H 
ATOM     50  H   LIG d   1      11.349   5.602   2.353  0.00  0.00     0.066 H 
ENDBRANCH  46  47
ENDBRANCH  13  46
BRANCH  14  51
ATOM     51  O   LIG d   1      10.628   9.448  -0.126  0.00  0.00    -0.491 OA
BRANCH  51  52
ATOM     52  C   LIG d   1       9.574  10.413  -0.075  0.00  0.00     0.079 C 
ATOM     53  H   LIG d   1       8.649   9.958  -0.427  0.00  0.00     0.066 H 
ATOM     54  H   LIG d   1       9.444  10.755   0.951  0.00  0.00     0.066 H 
ATOM     55  H   LIG d   1       9.828  11.261  -0.712  0.00  0.00     0.066 H 
ENDBRANCH  51  52
ENDBRANCH  14  51
TORSDOF 10
ENDMDL
MODEL 6
REMARK VINA RESULT:      -6.1     10.607     15.017
REMARK  10 active torsions:
REMARK  status: ('A' for Active; 'I' for Inactive)
REMARK    1  A    between atoms: C_1  and  O_2 
REMARK    2  A    between atoms: O_2  and  C_3 
REMARK    3  A    between atoms: C_6  and  C_9 
REMARK    4  A    between atoms: C_9  and  C_10 
REMARK    5  A    between atoms: C_10  and  N_11 
REMARK    6  A    between atoms: N_11  and  C_12 
REMARK    7  A    between atoms: C_24  and  O_29 
REMARK    8  A    between atoms: C_25  and  O_27 
REMARK    9  A    between atoms: O_27  and  C_28 
REMARK   10  A    between atoms: O_29  and  C_30 
ROOT
ATOM      1  C   LIG d   1      10.430   5.957  -1.079  0.00  0.00     0.126 A 
ATOM      2  C   LIG d   1      10.287   7.251  -1.609  0.00  0.00     0.003 A 
ATOM      3  C   LIG d   1      10.561   8.320  -0.806  0.00  0.00     0.057 A 
ATOM      4  N   LIG d   1      10.956   8.105   0.494  0.00  0.00    -0.292 N 
ATOM      5  C   LIG d   1      11.089   6.851   0.956  0.00  0.00     0.351 A 
ATOM      6  O   LIG d   1      11.455   6.669   2.105  0.00  0.00    -0.244 OA
ATOM      7  N   LIG d   1      10.826   5.801   0.179  0.00  0.00    -0.178 NA
ATOM      8  C   LIG d   1      11.221   9.256   1.364  0.00  0.00     0.032 C 
ATOM      9  C   LIG d   1      11.996  10.316   0.565  0.00  0.00    -0.009 C 
ATOM     10  C   LIG d   1      11.160  10.710  -0.629  0.00  0.00    -0.033 A 
ATOM     11  C   LIG d   1      10.452   9.703  -1.304  0.00  0.00     0.006 A 
ATOM     12  C   LIG d   1       9.672  10.025  -2.411  0.00  0.00    -0.007 A 
ATOM     13  C   LIG d   1       9.601  11.340  -2.837  0.00  0.00     0.162 A 
ATOM     14  C   LIG d   1      10.306  12.334  -2.161  0.00  0.00     0.162 A 
ATOM     15  C   LIG d   1      11.085  12.012  -1.056  0.00  0.00    -0.012 A 
ATOM     16  H   LIG d   1       9.967   7.396  -2.631  0.00  0.00     0.067 H 
ATOM     17  H   LIG d   1      10.277   9.678   1.710  0.00  0.00     0.050 H 
ATOM     18  H   LIG d   1      11.816   8.938   2.220  0.00  0.00     0.050 H 
ATOM     19  H   LIG d   1      12.177  11.189   1.192  0.00  0.00     0.033 H 
ATOM     20  H   LIG d   1      12.946   9.901   0.229  0.00  0.00     0.033 H 
ATOM     21  H   LIG d   1       9.127   9.254  -2.934  0.00  0.00     0.066 H 
ATOM     22  H   LIG d   1      11.629  12.785  -0.534  0.00  0.00     0.066 H 
ENDROOT
BRANCH   1  23
ATOM     23  N   LIG d   1      10.155   4.855  -1.859  0.00  0.00    -0.329 NA
ATOM     24  H   LIG d   1       9.156   4.822  -1.884  0.00  0.00     0.147 HD
BRANCH  23  25
ATOM     25  C   LIG d   1      10.681   4.775  -3.224  0.00  0.00     0.014 C 
ATOM     26  H   LIG d   1      11.192   5.706  -3.471  0.00  0.00     0.046 H 
ATOM     27  H   LIG d   1      11.383   3.945  -3.295  0.00  0.00     0.046 H 
BRANCH  25  28
ATOM     28  C   LIG d   1       9.527   4.552  -4.202  0.00  0.00    -0.012 C 
ATOM     29  H   LIG d   1       9.638   3.578  -4.679  0.00  0.00     0.033 H 
ATOM     30  H   LIG d   1       8.580   4.586  -3.663  0.00  0.00     0.033 H 
BRANCH  28  31
ATOM     31  C   LIG d   1       9.544   5.631  -5.255  0.00  0.00    -0.046 A 
ATOM     32  C   LIG d   1       9.871   5.316  -6.561  0.00  0.00    -0.055 A 
ATOM     33  C   LIG d   1       9.888   6.303  -7.527  0.00  0.00    -0.020 A 
ATOM     34  H   LIG d   1      10.114   4.297  -6.825  0.00  0.00     0.062 H 
ATOM     35  C   LIG d   1       9.577   7.611  -7.186  0.00  0.00     0.120 A 
ATOM     36  H   LIG d   1      10.144   6.056  -8.547  0.00  0.00     0.065 H 
ATOM     37  C   LIG d   1       9.249   7.925  -5.875  0.00  0.00    -0.020 A 
ATOM     38  C   LIG d   1       9.228   6.933  -4.914  0.00  0.00    -0.055 A 
ATOM     39  H   LIG d   1       9.006   8.942  -5.607  0.00  0.00     0.065 H 
ATOM     40  H   LIG d   1       8.967   7.175  -3.894  0.00  0.00     0.062 H 
BRANCH  35  41
ATOM     41  O   LIG d   1       9.593   8.584  -8.134  0.00  0.00    -0.495 OA
BRANCH  41  42
ATOM     42  C   LIG d   1       9.952   8.193  -9.460  0.00  0.00     0.079 C 
ATOM     43  H   LIG d   1       9.177   8.513 -10.157  0.00  0.00     0.066 H 
ATOM     44  H   LIG d   1      10.899   8.658  -9.733  0.00  0.00     0.066 H 
ATOM     45  H   LIG d   1      10.055   7.109  -9.505  0.00  0.00     0.066 H 
ENDBRANCH  41  42
ENDBRANCH  35  41
ENDBRANCH  28  31
ENDBRANCH  25  28
ENDBRANCH  23  25
ENDBRANCH   1  23
BRANCH  13  46
ATOM     46  O   LIG d   1       8.843  11.663  -3.919  0.00  0.00    -0.491 OA
BRANCH  46  47
ATOM     47  C   LIG d   1       9.461  11.549  -5.203  0.00  0.00     0.079 C 
ATOM     48  H   LIG d   1      10.347  12.183  -5.235  0.00  0.00     0.066 H 
ATOM     49  H   LIG d   1       9.749  10.512  -5.377  0.00  0.00     0.066 H 
ATOM     50  H   LIG d   1       8.759  11.865  -5.974  0.00  0.00     0.066 H 
ENDBRANCH  46  47
ENDBRANCH  13  46
BRANCH  14  51
ATOM     51  O   LIG d   1      10.231  13.623  -2.584  0.00  0.00    -0.491 OA
BRANCH  51  52
ATOM     52  C   LIG d   1       9.490  14.532  -1.766  0.00  0.00     0.079 C 
ATOM     53  H   LIG d   1       9.504  15.522  -2.221  0.00  0.00     0.066 H 
ATOM     54  H   LIG d   1       8.460  14.186  -1.681  0.00  0.00     0.066 H 
ATOM     55  H   LIG d   1       9.941  14.580  -0.775  0.00  0.00     0.066 H 
ENDBRANCH  51  52
ENDBRANCH  14  51
TORSDOF 10
ENDMDL
MODEL 7
REMARK VINA RESULT:      -6.0      6.497     11.195
REMARK  10 active torsions:
REMARK  status: ('A' for Active; 'I' for Inactive)
REMARK    1  A    between atoms: C_1  and  O_2 
REMARK    2  A    between atoms: O_2  and  C_3 
REMARK    3  A    between atoms: C_6  and  C_9 
REMARK    4  A    between atoms: C_9  and  C_10 
REMARK    5  A    between atoms: C_10  and  N_11 
REMARK    6  A    between atoms: N_11  and  C_12 
REMARK    7  A    between atoms: C_24  and  O_29 
REMARK    8  A    between atoms: C_25  and  O_27 
REMARK    9  A    between atoms: O_27  and  C_28 
REMARK   10  A    between atoms: O_29  and  C_30 
ROOT
ATOM      1  C   LIG d   1       8.869   2.034  -4.464  0.00  0.00     0.126 A 
ATOM      2  C   LIG d   1       9.083   3.139  -3.621  0.00  0.00     0.003 A 
ATOM      3  C   LIG d   1       9.543   4.300  -4.172  0.00  0.00     0.057 A 
ATOM      4  N   LIG d   1       9.793   4.356  -5.523  0.00  0.00    -0.292 N 
ATOM      5  C   LIG d   1       9.564   3.278  -6.292  0.00  0.00     0.351 A 
ATOM      6  O   LIG d   1       9.774   3.340  -7.492  0.00  0.00    -0.244 OA
ATOM      7  N   LIG d   1       9.114   2.141  -5.765  0.00  0.00    -0.178 NA
ATOM      8  C   LIG d   1      10.315   5.596  -6.108  0.00  0.00     0.032 C 
ATOM      9  C   LIG d   1       9.574   6.790  -5.485  0.00  0.00    -0.009 C 
ATOM     10  C   LIG d   1       9.790   6.751  -3.992  0.00  0.00    -0.033 A 
ATOM     11  C   LIG d   1       9.770   5.503  -3.350  0.00  0.00     0.006 A 
ATOM     12  C   LIG d   1       9.962   5.426  -1.974  0.00  0.00    -0.007 A 
ATOM     13  C   LIG d   1      10.173   6.585  -1.248  0.00  0.00     0.162 A 
ATOM     14  C   LIG d   1      10.194   7.820  -1.892  0.00  0.00     0.162 A 
ATOM     15  C   LIG d   1      10.001   7.897  -3.266  0.00  0.00    -0.012 A 
ATOM     16  H   LIG d   1       8.889   3.070  -2.561  0.00  0.00     0.067 H 
ATOM     17  H   LIG d   1      11.382   5.679  -5.897  0.00  0.00     0.050 H 
ATOM     18  H   LIG d   1      10.154   5.588  -7.186  0.00  0.00     0.050 H 
ATOM     19  H   LIG d   1       9.970   7.721  -5.891  0.00  0.00     0.033 H 
ATOM     20  H   LIG d   1       8.509   6.716  -5.706  0.00  0.00     0.033 H 
ATOM     21  H   LIG d   1       9.946   4.468  -1.476  0.00  0.00     0.066 H 
ATOM     22  H   LIG d   1      10.018   8.856  -3.763  0.00  0.00     0.066 H 
ENDROOT
BRANCH   1  23
ATOM     23  N   LIG d   1       8.413   0.844  -3.941  0.00  0.00    -0.329 NA
ATOM     24  H   LIG d   1       9.057   0.643  -3.203  0.00  0.00     0.147 HD
BRANCH  23  25
ATOM     25  C   LIG d   1       7.042   0.745  -3.434  0.00  0.00     0.014 C 
ATOM     26  H   LIG d   1       7.046   0.862  -2.350  0.00  0.00     0.046 H 
ATOM     27  H   LIG d   1       6.431   1.528  -3.882  0.00  0.00     0.046 H 
BRANCH  25  28
ATOM     28  C   LIG d   1       6.463  -0.624  -3.797  0.00  0.00    -0.012 C 
ATOM     29  H   LIG d   1       7.251  -1.255  -4.207  0.00  0.00     0.033 H 
ATOM     30  H   LIG d   1       6.049  -1.093  -2.904  0.00  0.00     0.033 H 
BRANCH  28  31
ATOM     31  C   LIG d   1       5.373  -0.452  -4.824  0.00  0.00    -0.046 A 
ATOM     32  C   LIG d   1       5.653  -0.637  -6.166  0.00  0.00    -0.055 A 
ATOM     33  C   LIG d   1       4.657  -0.480  -7.109  0.00  0.00    -0.020 A 
ATOM     34  H   LIG d   1       6.653  -0.906  -6.476  0.00  0.00     0.062 H 
ATOM     35  C   LIG d   1       3.374  -0.135  -6.710  0.00  0.00     0.120 A 
ATOM     36  H   LIG d   1       4.876  -0.626  -8.157  0.00  0.00     0.065 H 
ATOM     37  C   LIG d   1       3.095   0.052  -5.364  0.00  0.00    -0.020 A 
ATOM     38  C   LIG d   1       4.094  -0.112  -4.424  0.00  0.00    -0.055 A 
ATOM     39  H   LIG d   1       2.098   0.320  -5.050  0.00  0.00     0.065 H 
ATOM     40  H   LIG d   1       3.877   0.027  -3.375  0.00  0.00     0.062 H 
BRANCH  35  41
ATOM     41  O   LIG d   1       2.392   0.021  -7.636  0.00  0.00    -0.495 OA
BRANCH  41  42
ATOM     42  C   LIG d   1       2.473  -0.786  -8.811  0.00  0.00     0.079 C 
ATOM     43  H   LIG d   1       1.508  -0.791  -9.317  0.00  0.00     0.066 H 
ATOM     44  H   LIG d   1       3.231  -0.379  -9.480  0.00  0.00     0.066 H 
ATOM     45  H   LIG d   1       2.744  -1.805  -8.535  0.00  0.00     0.066 H 
ENDBRANCH  41  42
ENDBRANCH  35  41
ENDBRANCH  28  31
ENDBRANCH  25  28
ENDBRANCH  23  25
ENDBRANCH   1  23
BRANCH  13  46
ATOM     46  O   LIG d   1      10.361   6.518   0.097  0.00  0.00    -0.491 OA
BRANCH  46  47
ATOM     47  C   LIG d   1      11.439   5.702   0.562  0.00  0.00     0.079 C 
ATOM     48  H   LIG d   1      11.053   4.726   0.858  0.00  0.00     0.066 H 
ATOM     49  H   LIG d   1      12.171   5.577  -0.235  0.00  0.00     0.066 H 
ATOM     50  H   LIG d   1      11.914   6.180   1.419  0.00  0.00     0.066 H 
ENDBRANCH  46  47
ENDBRANCH  13  46
BRANCH  14  51
ATOM     51  O   LIG d   1      10.403   8.954  -1.174  0.00  0.00    -0.491 OA
BRANCH  51  52
ATOM     52  C   LIG d   1       9.652  10.111  -1.553  0.00  0.00     0.079 C 
ATOM     53  H   LIG d   1       8.881   9.824  -2.267  0.00  0.00     0.066 H 
ATOM     54  H   LIG d   1       9.186  10.547  -0.670  0.00  0.00     0.066 H 
ATOM     55  H   LIG d   1      10.319  10.841  -2.011  0.00  0.00     0.066 H 
ENDBRANCH  51  52
ENDBRANCH  14  51
TORSDOF 10
ENDMDL
MODEL 8
REMARK VINA RESULT:      -6.0      2.322      3.355
REMARK  10 active torsions:
REMARK  status: ('A' for Active; 'I' for Inactive)
REMARK    1  A    between atoms: C_1  and  O_2 
REMARK    2  A    between atoms: O_2  and  C_3 
REMARK    3  A    between atoms: C_6  and  C_9 
REMARK    4  A    between atoms: C_9  and  C_10 
REMARK    5  A    between atoms: C_10  and  N_11 
REMARK    6  A    between atoms: N_11  and  C_12 
REMARK    7  A    between atoms: C_24  and  O_29 
REMARK    8  A    between atoms: C_25  and  O_27 
REMARK    9  A    between atoms: O_27  and  C_28 
REMARK   10  A    between atoms: O_29  and  C_30 
ROOT
ATOM      1  C   LIG d   1       6.339  -1.998  -7.247  0.00  0.00     0.126 A 
ATOM      2  C   LIG d   1       5.242  -2.247  -8.089  0.00  0.00     0.003 A 
ATOM      3  C   LIG d   1       4.642  -1.190  -8.709  0.00  0.00     0.057 A 
ATOM      4  N   LIG d   1       5.115   0.083  -8.486  0.00  0.00    -0.292 N 
ATOM      5  C   LIG d   1       6.173   0.273  -7.680  0.00  0.00     0.351 A 
ATOM      6  O   LIG d   1       6.596   1.403  -7.501  0.00  0.00    -0.244 OA
ATOM      7  N   LIG d   1       6.767  -0.753  -7.073  0.00  0.00    -0.178 NA
ATOM      8  C   LIG d   1       4.450   1.221  -9.130  0.00  0.00     0.032 C 
ATOM      9  C   LIG d   1       4.116   0.845 -10.582  0.00  0.00    -0.009 C 
ATOM     10  C   LIG d   1       3.224  -0.373 -10.560  0.00  0.00    -0.033 A 
ATOM     11  C   LIG d   1       3.500  -1.380  -9.622  0.00  0.00     0.006 A 
ATOM     12  C   LIG d   1       2.703  -2.520  -9.571  0.00  0.00    -0.007 A 
ATOM     13  C   LIG d   1       1.641  -2.651 -10.449  0.00  0.00     0.162 A 
ATOM     14  C   LIG d   1       1.373  -1.646 -11.377  0.00  0.00     0.162 A 
ATOM     15  C   LIG d   1       2.169  -0.508 -11.427  0.00  0.00    -0.012 A 
ATOM     16  H   LIG d   1       4.881  -3.253  -8.243  0.00  0.00     0.067 H 
ATOM     17  H   LIG d   1       3.531   1.458  -8.594  0.00  0.00     0.050 H 
ATOM     18  H   LIG d   1       5.114   2.085  -9.121  0.00  0.00     0.050 H 
ATOM     19  H   LIG d   1       3.596   1.672 -11.066  0.00  0.00     0.033 H 
ATOM     20  H   LIG d   1       5.034   0.619 -11.125  0.00  0.00     0.033 H 
ATOM     21  H   LIG d   1       2.912  -3.298  -8.852  0.00  0.00     0.066 H 
ATOM     22  H   LIG d   1       1.958   0.269 -12.147  0.00  0.00     0.066 H 
ENDROOT
BRANCH   1  23
ATOM     23  N   LIG d   1       6.964  -3.041  -6.599  0.00  0.00    -0.329 NA
ATOM     24  H   LIG d   1       7.866  -2.676  -6.367  0.00  0.00     0.147 HD
BRANCH  23  25
ATOM     25  C   LIG d   1       6.354  -3.631  -5.404  0.00  0.00     0.014 C 
ATOM     26  H   LIG d   1       5.290  -3.396  -5.386  0.00  0.00     0.046 H 
ATOM     27  H   LIG d   1       6.489  -4.712  -5.423  0.00  0.00     0.046 H 
BRANCH  25  28
ATOM     28  C   LIG d   1       7.024  -3.055  -4.155  0.00  0.00    -0.012 C 
ATOM     29  H   LIG d   1       7.183  -3.852  -3.428  0.00  0.00     0.033 H 
ATOM     30  H   LIG d   1       7.983  -2.614  -4.426  0.00  0.00     0.033 H 
BRANCH  28  31
ATOM     31  C   LIG d   1       6.137  -1.997  -3.551  0.00  0.00    -0.046 A 
ATOM     32  C   LIG d   1       6.597  -0.699  -3.424  0.00  0.00    -0.055 A 
ATOM     33  C   LIG d   1       5.786   0.272  -2.871  0.00  0.00    -0.020 A 
ATOM     34  H   LIG d   1       7.593  -0.446  -3.759  0.00  0.00     0.062 H 
ATOM     35  C   LIG d   1       4.509  -0.055  -2.441  0.00  0.00     0.120 A 
ATOM     36  H   LIG d   1       6.147   1.286  -2.773  0.00  0.00     0.065 H 
ATOM     37  C   LIG d   1       4.049  -1.357  -2.568  0.00  0.00    -0.020 A 
ATOM     38  C   LIG d   1       4.861  -2.324  -3.128  0.00  0.00    -0.055 A 
ATOM     39  H   LIG d   1       3.055  -1.615  -2.235  0.00  0.00     0.065 H 
ATOM     40  H   LIG d   1       4.502  -3.337  -3.233  0.00  0.00     0.062 H 
BRANCH  35  41
ATOM     41  O   LIG d   1       3.709   0.899  -1.896  0.00  0.00    -0.495 OA
BRANCH  41  42
ATOM     42  C   LIG d   1       3.288   1.961  -2.753  0.00  0.00     0.079 C 
ATOM     43  H   LIG d   1       2.298   2.303  -2.450  0.00  0.00     0.066 H 
ATOM     44  H   LIG d   1       3.995   2.788  -2.681  0.00  0.00     0.066 H 
ATOM     45  H   LIG d   1       3.250   1.605  -3.782  0.00  0.00     0.066 H 
ENDBRANCH  41  42
ENDBRANCH  35  41
ENDBRANCH  28  31
ENDBRANCH  25  28
ENDBRANCH  23  25
ENDBRANCH   1  23
BRANCH  13  46
ATOM     46  O   LIG d   1       0.859  -3.762 -10.407  0.00  0.00    -0.491 OA
BRANCH  46  47
ATOM     47  C   LIG d   1       1.527  -5.026 -10.398  0.00  0.00     0.079 C 
ATOM     48  H   LIG d   1       1.476  -5.470 -11.392  0.00  0.00     0.066 H 
ATOM     49  H   LIG d   1       2.569  -4.884 -10.115  0.00  0.00     0.066 H 
ATOM     50  H   LIG d   1       1.042  -5.687  -9.679  0.00  0.00     0.066 H 
ENDBRANCH  46  47
ENDBRANCH  13  46
BRANCH  14  51
ATOM     51  O   LIG d   1       0.328  -1.779 -12.235  0.00  0.00    -0.491 OA
BRANCH  51  52
ATOM     52  C   LIG d   1       0.603  -2.376 -13.505  0.00  0.00     0.079 C 
ATOM     53  H   LIG d   1       1.524  -1.957 -13.910  0.00  0.00     0.066 H 
ATOM     54  H   LIG d   1       0.716  -3.453 -13.384  0.00  0.00     0.066 H 
ATOM     55  H   LIG d   1      -0.221  -2.171 -14.189  0.00  0.00     0.066 H 
ENDBRANCH  51  52
ENDBRANCH  14  51
TORSDOF 10
ENDMDL
MODEL 9
REMARK VINA RESULT:      -6.0      4.635      6.922
REMARK  10 active torsions:
REMARK  status: ('A' for Active; 'I' for Inactive)
REMARK    1  A    between atoms: C_1  and  O_2 
REMARK    2  A    between atoms: O_2  and  C_3 
REMARK    3  A    between atoms: C_6  and  C_9 
REMARK    4  A    between atoms: C_9  and  C_10 
REMARK    5  A    between atoms: C_10  and  N_11 
REMARK    6  A    between atoms: N_11  and  C_12 
REMARK    7  A    between atoms: C_24  and  O_29 
REMARK    8  A    between atoms: C_25  and  O_27 
REMARK    9  A    between atoms: O_27  and  C_28 
REMARK   10  A    between atoms: O_29  and  C_30 
ROOT
ATOM      1  C   LIG d   1       7.119   0.321  -3.915  0.00  0.00     0.126 A 
ATOM      2  C   LIG d   1       6.530   0.086  -5.171  0.00  0.00     0.003 A 
ATOM      3  C   LIG d   1       5.177  -0.076  -5.237  0.00  0.00     0.057 A 
ATOM      4  N   LIG d   1       4.431  -0.017  -4.083  0.00  0.00    -0.292 N 
ATOM      5  C   LIG d   1       5.035   0.220  -2.906  0.00  0.00     0.351 A 
ATOM      6  O   LIG d   1       4.364   0.287  -1.889  0.00  0.00    -0.244 OA
ATOM      7  N   LIG d   1       6.354   0.381  -2.831  0.00  0.00    -0.178 NA
ATOM      8  C   LIG d   1       2.980  -0.220  -4.153  0.00  0.00     0.032 C 
ATOM      9  C   LIG d   1       2.431   0.528  -5.378  0.00  0.00    -0.009 C 
ATOM     10  C   LIG d   1       3.123  -0.010  -6.607  0.00  0.00    -0.033 A 
ATOM     11  C   LIG d   1       4.492  -0.305  -6.522  0.00  0.00     0.006 A 
ATOM     12  C   LIG d   1       5.167  -0.800  -7.634  0.00  0.00    -0.007 A 
ATOM     13  C   LIG d   1       4.478  -0.999  -8.818  0.00  0.00     0.162 A 
ATOM     14  C   LIG d   1       3.118  -0.706  -8.894  0.00  0.00     0.162 A 
ATOM     15  C   LIG d   1       2.445  -0.211  -7.784  0.00  0.00    -0.012 A 
ATOM     16  H   LIG d   1       7.137   0.034  -6.063  0.00  0.00     0.067 H 
ATOM     17  H   LIG d   1       2.764  -1.285  -4.249  0.00  0.00     0.050 H 
ATOM     18  H   LIG d   1       2.512   0.169  -3.248  0.00  0.00     0.050 H 
ATOM     19  H   LIG d   1       1.357   0.364  -5.458  0.00  0.00     0.033 H 
ATOM     20  H   LIG d   1       2.634   1.595  -5.278  0.00  0.00     0.033 H 
ATOM     21  H   LIG d   1       6.220  -1.027  -7.574  0.00  0.00     0.066 H 
ATOM     22  H   LIG d   1       1.390   0.015  -7.845  0.00  0.00     0.066 H 
ENDROOT
BRANCH   1  23
ATOM     23  N   LIG d   1       8.483   0.481  -3.810  0.00  0.00    -0.329 NA
ATOM     24  H   LIG d   1       8.855  -0.357  -4.210  0.00  0.00     0.147 HD
BRANCH  23  25
ATOM     25  C   LIG d   1       9.133   1.643  -4.421  0.00  0.00     0.014 C 
ATOM     26  H   LIG d   1       9.854   1.307  -5.166  0.00  0.00     0.046 H 
ATOM     27  H   LIG d   1       8.381   2.270  -4.900  0.00  0.00     0.046 H 
BRANCH  25  28
ATOM     28  C   LIG d   1       9.854   2.449  -3.339  0.00  0.00    -0.012 C 
ATOM     29  H   LIG d   1       9.368   2.283  -2.377  0.00  0.00     0.033 H 
ATOM     30  H   LIG d   1      10.895   2.130  -3.280  0.00  0.00     0.033 H 
BRANCH  28  31
ATOM     31  C   LIG d   1       9.797   3.916  -3.683  0.00  0.00    -0.046 A 
ATOM     32  C   LIG d   1       9.909   4.864  -2.683  0.00  0.00    -0.055 A 
ATOM     33  C   LIG d   1       9.856   6.208  -2.995  0.00  0.00    -0.020 A 
ATOM     34  H   LIG d   1      10.037   4.553  -1.656  0.00  0.00     0.062 H 
ATOM     35  C   LIG d   1       9.691   6.607  -4.313  0.00  0.00     0.120 A 
ATOM     36  H   LIG d   1       9.944   6.949  -2.213  0.00  0.00     0.065 H 
ATOM     37  C   LIG d   1       9.578   5.654  -5.315  0.00  0.00    -0.020 A 
ATOM     38  C   LIG d   1       9.637   4.311  -4.998  0.00  0.00    -0.055 A 
ATOM     39  H   LIG d   1       9.449   5.961  -6.342  0.00  0.00     0.065 H 
ATOM     40  H   LIG d   1       9.555   3.568  -5.778  0.00  0.00     0.062 H 
BRANCH  35  41
ATOM     41  O   LIG d   1       9.638   7.929  -4.623  0.00  0.00    -0.495 OA
BRANCH  41  42
ATOM     42  C   LIG d   1       9.249   8.269  -5.955  0.00  0.00     0.079 C 
ATOM     43  H   LIG d   1       8.498   9.057  -5.926  0.00  0.00     0.066 H 
ATOM     44  H   LIG d   1      10.121   8.617  -6.510  0.00  0.00     0.066 H 
ATOM     45  H   LIG d   1       8.834   7.390  -6.449  0.00  0.00     0.066 H 
ENDBRANCH  41  42
ENDBRANCH  35  41
ENDBRANCH  28  31
ENDBRANCH  25  28
ENDBRANCH  23  25
ENDBRANCH   1  23
BRANCH  13  46
ATOM     46  O   LIG d   1       5.129  -1.482  -9.910  0.00  0.00    -0.491 OA
BRANCH  46  47
ATOM     47  C   LIG d   1       5.423  -2.881  -9.924  0.00  0.00     0.079 C 
ATOM     48  H   LIG d   1       5.810  -3.180  -8.950  0.00  0.00     0.066 H 
ATOM     49  H   LIG d   1       4.515  -3.441 -10.143  0.00  0.00     0.066 H 
ATOM     50  H   LIG d   1       6.170  -3.087 -10.690  0.00  0.00     0.066 H 
ENDBRANCH  46  47
ENDBRANCH  13  46
BRANCH  14  51
ATOM     51  O   LIG d   1       2.447  -0.905 -10.059  0.00  0.00    -0.491 OA
BRANCH  51  52
ATOM     52  C   LIG d   1       1.585  -2.043 -10.125  0.00  0.00     0.079 C 
ATOM     53  H   LIG d   1       1.846  -2.646 -10.994  0.00  0.00     0.066 H 
ATOM     54  H   LIG d   1       1.702  -2.640  -9.220  0.00  0.00     0.066 H 
ATOM     55  H   LIG d   1       0.550  -1.711 -10.210  0.00  0.00     0.066 H 
ENDBRANCH  51  52
ENDBRANCH  14  51
TORSDOF 10
ENDMDL
