MODEL 1
REMARK VINA RESULT:      -6.5      0.000      0.000
REMARK  9 active torsions:
REMARK  status: ('A' for Active; 'I' for Inactive)
REMARK    1  A    between atoms: C_1  and  C_2 
REMARK    2  A    between atoms: C_2  and  O_3 
REMARK    3  A    between atoms: O_3  and  C_4 
REMARK    4  A    between atoms: C_4  and  C_6 
REMARK    5  A    between atoms: C_9  and  O_21 
REMARK    6  A    between atoms: C_14  and  C_15 
REMARK    7  A    between atoms: O_21  and  C_22 
REMARK    8  A    between atoms: C_22  and  C_23 
REMARK    9  A    between atoms: C_28  and  C_29 
ROOT
ATOM      1  C   LIG d   1       4.451  -1.284  -8.457  0.00  0.00     0.112 A 
ATOM      2  C   LIG d   1       5.022  -1.927  -7.257  0.00  0.00     0.038 A 
ATOM      3  C   LIG d   1       5.874  -1.496  -6.245  0.00  0.00    -0.008 A 
ATOM      4  C   LIG d   1       6.230  -2.371  -5.233  0.00  0.00     0.122 A 
ATOM      5  C   LIG d   1       5.737  -3.671  -5.232  0.00  0.00    -0.016 A 
ATOM      6  C   LIG d   1       4.893  -4.104  -6.231  0.00  0.00    -0.015 A 
ATOM      7  C   LIG d   1       4.525  -3.239  -7.255  0.00  0.00     0.137 A 
ATOM      8  O   LIG d   1       3.732  -3.387  -8.339  0.00  0.00    -0.454 OA
ATOM      9  C   LIG d   1       3.671  -2.257  -9.061  0.00  0.00     0.150 A 
ATOM     10  H   LIG d   1       6.256  -0.486  -6.248  0.00  0.00     0.066 H 
ATOM     11  H   LIG d   1       6.018  -4.350  -4.439  0.00  0.00     0.066 H 
ATOM     12  H   LIG d   1       4.516  -5.116  -6.219  0.00  0.00     0.066 H 
ENDROOT
BRANCH   4  13
ATOM     13  O   LIG d   1       7.058  -1.957  -4.237  0.00  0.00    -0.487 OA
BRANCH  13  14
ATOM     14  C   LIG d   1       6.514  -1.917  -2.917  0.00  0.00     0.115 C 
ATOM     15  H   LIG d   1       5.992  -2.852  -2.711  0.00  0.00     0.075 H 
ATOM     16  H   LIG d   1       7.321  -1.785  -2.195  0.00  0.00     0.075 H 
BRANCH  14  17
ATOM     17  C   LIG d   1       5.547  -0.767  -2.806  0.00  0.00    -0.007 A 
ATOM     18  C   LIG d   1       4.211  -1.008  -2.547  0.00  0.00    -0.044 A 
ATOM     19  C   LIG d   1       3.324   0.048  -2.446  0.00  0.00    -0.059 A 
ATOM     20  C   LIG d   1       3.774   1.345  -2.603  0.00  0.00    -0.061 A 
ATOM     21  H   LIG d   1       2.280  -0.142  -2.243  0.00  0.00     0.062 H 
ATOM     22  C   LIG d   1       5.110   1.587  -2.861  0.00  0.00    -0.061 A 
ATOM     23  H   LIG d   1       3.081   2.170  -2.523  0.00  0.00     0.062 H 
ATOM     24  C   LIG d   1       5.998   0.532  -2.958  0.00  0.00    -0.055 A 
ATOM     25  H   LIG d   1       5.461   2.601  -2.983  0.00  0.00     0.062 H 
ATOM     26  H   LIG d   1       7.043   0.721  -3.155  0.00  0.00     0.062 H 
BRANCH  18  27
ATOM     27  C   LIG d   1       3.721  -2.424  -2.376  0.00  0.00    -0.039 C 
ATOM     28  H   LIG d   1       3.827  -2.961  -3.317  0.00  0.00     0.028 H 
ATOM     29  H   LIG d   1       4.311  -2.921  -1.606  0.00  0.00     0.028 H 
ATOM     30  H   LIG d   1       2.672  -2.412  -2.079  0.00  0.00     0.028 H 
ENDBRANCH  18  27
ENDBRANCH  14  17
ENDBRANCH  13  14
ENDBRANCH   4  13
BRANCH   1  31
ATOM     31  C   LIG d   1       4.664   0.092  -8.913  0.00  0.00     0.344 C 
ATOM     32  O   LIG d   1       5.226   0.300  -9.972  0.00  0.00    -0.245 OA
BRANCH  31  33
ATOM     33  O   LIG d   1       4.238   1.127  -8.160  0.00  0.00    -0.461 OA
BRANCH  33  34
ATOM     34  C   LIG d   1       2.854   1.099  -7.723  0.00  0.00     0.090 C 
ATOM     35  H   LIG d   1       2.414   2.088  -7.849  0.00  0.00     0.070 H 
ATOM     36  H   LIG d   1       2.300   0.375  -8.319  0.00  0.00     0.070 H 
BRANCH  34  37
ATOM     37  C   LIG d   1       2.794   0.698  -6.248  0.00  0.00    -0.031 C 
ATOM     38  H   LIG d   1       3.609   1.179  -5.706  0.00  0.00     0.026 H 
ATOM     39  H   LIG d   1       1.840   1.013  -5.825  0.00  0.00     0.026 H 
ATOM     40  H   LIG d   1       2.890  -0.384  -6.161  0.00  0.00     0.026 H 
ENDBRANCH  34  37
ENDBRANCH  33  34
ENDBRANCH  31  33
ENDBRANCH   1  31
BRANCH   9  41
ATOM     41  C   LIG d   1       2.894  -2.080 -10.303  0.00  0.00     0.018 A 
ATOM     42  C   LIG d   1       1.692  -1.370 -10.284  0.00  0.00    -0.051 A 
ATOM     43  C   LIG d   1       0.971  -1.210 -11.448  0.00  0.00    -0.061 A 
ATOM     44  H   LIG d   1       1.327  -0.948  -9.359  0.00  0.00     0.062 H 
ATOM     45  C   LIG d   1       1.436  -1.749 -12.634  0.00  0.00    -0.062 A 
ATOM     46  H   LIG d   1       0.041  -0.660 -11.435  0.00  0.00     0.062 H 
ATOM     47  C   LIG d   1       2.627  -2.455 -12.661  0.00  0.00    -0.061 A 
ATOM     48  H   LIG d   1       0.868  -1.620 -13.544  0.00  0.00     0.062 H 
ATOM     49  C   LIG d   1       3.361  -2.619 -11.504  0.00  0.00    -0.051 A 
ATOM     50  H   LIG d   1       2.984  -2.874 -13.590  0.00  0.00     0.062 H 
ATOM     51  H   LIG d   1       4.292  -3.166 -11.528  0.00  0.00     0.062 H 
ENDBRANCH   9  41
TORSDOF 9
ENDMDL
MODEL 2
REMARK VINA RESULT:      -6.4      6.686     10.226
REMARK  9 active torsions:
REMARK  status: ('A' for Active; 'I' for Inactive)
REMARK    1  A    between atoms: C_1  and  C_2 
REMARK    2  A    between atoms: C_2  and  O_3 
REMARK    3  A    between atoms: O_3  and  C_4 
REMARK    4  A    between atoms: C_4  and  C_6 
REMARK    5  A    between atoms: C_9  and  O_21 
REMARK    6  A    between atoms: C_14  and  C_15 
REMARK    7  A    between atoms: O_21  and  C_22 
REMARK    8  A    between atoms: C_22  and  C_23 
REMARK    9  A    between atoms: C_28  and  C_29 
ROOT
ATOM      1  C   LIG d   1       9.907   5.818  -3.334  0.00  0.00     0.112 A 
ATOM      2  C   LIG d   1       9.557   4.522  -3.946  0.00  0.00     0.038 A 
ATOM      3  C   LIG d   1       9.156   3.291  -3.437  0.00  0.00    -0.008 A 
ATOM      4  C   LIG d   1       8.897   2.245  -4.304  0.00  0.00     0.122 A 
ATOM      5  C   LIG d   1       9.037   2.426  -5.676  0.00  0.00    -0.016 A 
ATOM      6  C   LIG d   1       9.434   3.643  -6.187  0.00  0.00    -0.015 A 
ATOM      7  C   LIG d   1       9.698   4.706  -5.330  0.00  0.00     0.137 A 
ATOM      8  O   LIG d   1      10.094   5.979  -5.545  0.00  0.00    -0.454 OA
ATOM      9  C   LIG d   1      10.225   6.655  -4.393  0.00  0.00     0.150 A 
ATOM     10  H   LIG d   1       9.048   3.153  -2.371  0.00  0.00     0.066 H 
ATOM     11  H   LIG d   1       8.834   1.606  -6.348  0.00  0.00     0.066 H 
ATOM     12  H   LIG d   1       9.539   3.772  -7.254  0.00  0.00     0.066 H 
ENDROOT
BRANCH   4  13
ATOM     13  O   LIG d   1       8.500   1.040  -3.816  0.00  0.00    -0.487 OA
BRANCH  13  14
ATOM     14  C   LIG d   1       7.411   0.398  -4.481  0.00  0.00     0.115 C 
ATOM     15  H   LIG d   1       7.032   1.048  -5.270  0.00  0.00     0.075 H 
ATOM     16  H   LIG d   1       7.754  -0.541  -4.917  0.00  0.00     0.075 H 
BRANCH  14  17
ATOM     17  C   LIG d   1       6.311   0.118  -3.489  0.00  0.00    -0.007 A 
ATOM     18  C   LIG d   1       5.936  -1.186  -3.222  0.00  0.00    -0.044 A 
ATOM     19  C   LIG d   1       4.927  -1.442  -2.312  0.00  0.00    -0.059 A 
ATOM     20  C   LIG d   1       4.293  -0.395  -1.670  0.00  0.00    -0.061 A 
ATOM     21  H   LIG d   1       4.635  -2.460  -2.103  0.00  0.00     0.062 H 
ATOM     22  C   LIG d   1       4.667   0.909  -1.937  0.00  0.00    -0.061 A 
ATOM     23  H   LIG d   1       3.505  -0.596  -0.959  0.00  0.00     0.062 H 
ATOM     24  C   LIG d   1       5.680   1.165  -2.843  0.00  0.00    -0.055 A 
ATOM     25  H   LIG d   1       4.172   1.726  -1.435  0.00  0.00     0.062 H 
ATOM     26  H   LIG d   1       5.975   2.183  -3.049  0.00  0.00     0.062 H 
BRANCH  18  27
ATOM     27  C   LIG d   1       6.628  -2.327  -3.922  0.00  0.00    -0.039 C 
ATOM     28  H   LIG d   1       7.270  -2.851  -3.215  0.00  0.00     0.028 H 
ATOM     29  H   LIG d   1       5.882  -3.018  -4.316  0.00  0.00     0.028 H 
ATOM     30  H   LIG d   1       7.231  -1.938  -4.743  0.00  0.00     0.028 H 
ENDBRANCH  18  27
ENDBRANCH  14  17
ENDBRANCH  13  14
ENDBRANCH   4  13
BRANCH   1  31
ATOM     31  C   LIG d   1       9.918   6.152  -1.907  0.00  0.00     0.344 C 
ATOM     32  O   LIG d   1      10.670   5.564  -1.151  0.00  0.00    -0.245 OA
BRANCH  31  33
ATOM     33  O   LIG d   1       9.097   7.109  -1.430  0.00  0.00    -0.461 OA
BRANCH  33  34
ATOM     34  C   LIG d   1       9.717   8.230  -0.746  0.00  0.00     0.090 C 
ATOM     35  H   LIG d   1       9.856   7.980   0.306  0.00  0.00     0.070 H 
ATOM     36  H   LIG d   1      10.683   8.443  -1.200  0.00  0.00     0.070 H 
BRANCH  34  37
ATOM     37  C   LIG d   1       8.815   9.460  -0.863  0.00  0.00    -0.031 C 
ATOM     38  H   LIG d   1       8.861   9.850  -1.880  0.00  0.00     0.026 H 
ATOM     39  H   LIG d   1       7.788   9.181  -0.627  0.00  0.00     0.026 H 
ATOM     40  H   LIG d   1       9.152  10.226  -0.165  0.00  0.00     0.026 H 
ENDBRANCH  34  37
ENDBRANCH  33  34
ENDBRANCH  31  33
ENDBRANCH   1  31
BRANCH   9  41
ATOM     41  C   LIG d   1      10.640   8.065  -4.273  0.00  0.00     0.018 A 
ATOM     42  C   LIG d   1      11.917   8.383  -3.807  0.00  0.00    -0.051 A 
ATOM     43  C   LIG d   1      12.298   9.704  -3.697  0.00  0.00    -0.061 A 
ATOM     44  H   LIG d   1      12.605   7.597  -3.532  0.00  0.00     0.062 H 
ATOM     45  C   LIG d   1      11.419  10.713  -4.048  0.00  0.00    -0.062 A 
ATOM     46  H   LIG d   1      13.286   9.952  -3.337  0.00  0.00     0.062 H 
ATOM     47  C   LIG d   1      10.152  10.405  -4.511  0.00  0.00    -0.061 A 
ATOM     48  H   LIG d   1      11.723  11.746  -3.960  0.00  0.00     0.062 H 
ATOM     49  C   LIG d   1       9.758   9.088  -4.631  0.00  0.00    -0.051 A 
ATOM     50  H   LIG d   1       9.470  11.197  -4.782  0.00  0.00     0.062 H 
ATOM     51  H   LIG d   1       8.771   8.849  -4.996  0.00  0.00     0.062 H 
ENDBRANCH   9  41
TORSDOF 9
ENDMDL
MODEL 3
REMARK VINA RESULT:      -6.4      3.491      6.151
REMARK  9 active torsions:
REMARK  status: ('A' for Active; 'I' for Inactive)
REMARK    1  A    between atoms: C_1  and  C_2 
REMARK    2  A    between atoms: C_2  and  O_3 
REMARK    3  A    between atoms: O_3  and  C_4 
REMARK    4  A    between atoms: C_4  and  C_6 
REMARK    5  A    between atoms: C_9  and  O_21 
REMARK    6  A    between atoms: C_14  and  C_15 
REMARK    7  A    between atoms: O_21  and  C_22 
REMARK    8  A    between atoms: C_22  and  C_23 
REMARK    9  A    between atoms: C_28  and  C_29 
ROOT
ATOM      1  C   LIG d   1       4.391  -1.874  -6.638  0.00  0.00     0.112 A 
ATOM      2  C   LIG d   1       4.327  -3.347  -6.706  0.00  0.00     0.038 A 
ATOM      3  C   LIG d   1       4.508  -4.365  -5.776  0.00  0.00    -0.008 A 
ATOM      4  C   LIG d   1       4.374  -5.684  -6.172  0.00  0.00     0.122 A 
ATOM      5  C   LIG d   1       4.059  -5.986  -7.492  0.00  0.00    -0.016 A 
ATOM      6  C   LIG d   1       3.878  -4.982  -8.419  0.00  0.00    -0.015 A 
ATOM      7  C   LIG d   1       4.009  -3.652  -8.038  0.00  0.00     0.137 A 
ATOM      8  O   LIG d   1       3.891  -2.489  -8.717  0.00  0.00    -0.454 OA
ATOM      9  C   LIG d   1       4.110  -1.431  -7.921  0.00  0.00     0.150 A 
ATOM     10  H   LIG d   1       4.753  -4.128  -4.751  0.00  0.00     0.066 H 
ATOM     11  H   LIG d   1       3.955  -7.018  -7.795  0.00  0.00     0.066 H 
ATOM     12  H   LIG d   1       3.633  -5.229  -9.441  0.00  0.00     0.066 H 
ENDROOT
BRANCH   4  13
ATOM     13  O   LIG d   1       4.544  -6.686  -5.268  0.00  0.00    -0.487 OA
BRANCH  13  14
ATOM     14  C   LIG d   1       4.981  -7.948  -5.773  0.00  0.00     0.115 C 
ATOM     15  H   LIG d   1       4.211  -8.366  -6.422  0.00  0.00     0.075 H 
ATOM     16  H   LIG d   1       5.901  -7.813  -6.342  0.00  0.00     0.075 H 
BRANCH  14  17
ATOM     17  C   LIG d   1       5.234  -8.889  -4.624  0.00  0.00    -0.007 A 
ATOM     18  C   LIG d   1       6.508  -9.016  -4.101  0.00  0.00    -0.044 A 
ATOM     19  C   LIG d   1       6.740  -9.879  -3.046  0.00  0.00    -0.059 A 
ATOM     20  C   LIG d   1       5.699 -10.615  -2.515  0.00  0.00    -0.061 A 
ATOM     21  H   LIG d   1       7.735  -9.977  -2.638  0.00  0.00     0.062 H 
ATOM     22  C   LIG d   1       4.425 -10.490  -3.037  0.00  0.00    -0.061 A 
ATOM     23  H   LIG d   1       5.881 -11.290  -1.690  0.00  0.00     0.062 H 
ATOM     24  C   LIG d   1       4.192  -9.623  -4.088  0.00  0.00    -0.055 A 
ATOM     25  H   LIG d   1       3.612 -11.065  -2.620  0.00  0.00     0.062 H 
ATOM     26  H   LIG d   1       3.196  -9.521  -4.493  0.00  0.00     0.062 H 
BRANCH  18  27
ATOM     27  C   LIG d   1       7.643  -8.211  -4.681  0.00  0.00    -0.039 C 
ATOM     28  H   LIG d   1       8.559  -8.430  -4.135  0.00  0.00     0.028 H 
ATOM     29  H   LIG d   1       7.774  -8.474  -5.731  0.00  0.00     0.028 H 
ATOM     30  H   LIG d   1       7.414  -7.148  -4.599  0.00  0.00     0.028 H 
ENDBRANCH  18  27
ENDBRANCH  14  17
ENDBRANCH  13  14
ENDBRANCH   4  13
BRANCH   1  31
ATOM     31  C   LIG d   1       4.691  -1.053  -5.462  0.00  0.00     0.344 C 
ATOM     32  O   LIG d   1       5.806  -0.589  -5.312  0.00  0.00    -0.245 OA
BRANCH  31  33
ATOM     33  O   LIG d   1       3.731  -0.810  -4.545  0.00  0.00    -0.461 OA
BRANCH  33  34
ATOM     34  C   LIG d   1       4.143  -0.773  -3.154  0.00  0.00     0.090 C 
ATOM     35  H   LIG d   1       5.204  -0.528  -3.095  0.00  0.00     0.070 H 
ATOM     36  H   LIG d   1       3.565  -0.017  -2.624  0.00  0.00     0.070 H 
BRANCH  34  37
ATOM     37  C   LIG d   1       3.900  -2.141  -2.514  0.00  0.00    -0.031 C 
ATOM     38  H   LIG d   1       3.460  -2.008  -1.524  0.00  0.00     0.026 H 
ATOM     39  H   LIG d   1       3.218  -2.719  -3.139  0.00  0.00     0.026 H 
ATOM     40  H   LIG d   1       4.846  -2.673  -2.421  0.00  0.00     0.026 H 
ENDBRANCH  34  37
ENDBRANCH  33  34
ENDBRANCH  31  33
ENDBRANCH   1  31
BRANCH   9  41
ATOM     41  C   LIG d   1       4.059  -0.020  -8.345  0.00  0.00     0.018 A 
ATOM     42  C   LIG d   1       5.214   0.618  -8.803  0.00  0.00    -0.051 A 
ATOM     43  C   LIG d   1       5.158   1.938  -9.197  0.00  0.00    -0.061 A 
ATOM     44  H   LIG d   1       6.148   0.079  -8.848  0.00  0.00     0.062 H 
ATOM     45  C   LIG d   1       3.962   2.632  -9.141  0.00  0.00    -0.062 A 
ATOM     46  H   LIG d   1       6.051   2.433  -9.553  0.00  0.00     0.062 H 
ATOM     47  C   LIG d   1       2.813   2.006  -8.688  0.00  0.00    -0.061 A 
ATOM     48  H   LIG d   1       3.924   3.665  -9.451  0.00  0.00     0.062 H 
ATOM     49  C   LIG d   1       2.853   0.684  -8.295  0.00  0.00    -0.051 A 
ATOM     50  H   LIG d   1       1.883   2.553  -8.646  0.00  0.00     0.062 H 
ATOM     51  H   LIG d   1       1.955   0.197  -7.946  0.00  0.00     0.062 H 
ENDBRANCH   9  41
TORSDOF 9
ENDMDL
MODEL 4
REMARK VINA RESULT:      -6.3      2.080      4.360
REMARK  9 active torsions:
REMARK  status: ('A' for Active; 'I' for Inactive)
REMARK    1  A    between atoms: C_1  and  C_2 
REMARK    2  A    between atoms: C_2  and  O_3 
REMARK    3  A    between atoms: O_3  and  C_4 
REMARK    4  A    between atoms: C_4  and  C_6 
REMARK    5  A    between atoms: C_9  and  O_21 
REMARK    6  A    between atoms: C_14  and  C_15 
REMARK    7  A    between atoms: O_21  and  C_22 
REMARK    8  A    between atoms: C_22  and  C_23 
REMARK    9  A    between atoms: C_28  and  C_29 
ROOT
ATOM      1  C   LIG d   1       2.463  -1.725 -10.429  0.00  0.00     0.112 A 
ATOM      2  C   LIG d   1       2.744  -0.576  -9.547  0.00  0.00     0.038 A 
ATOM      3  C   LIG d   1       2.712  -0.387  -8.168  0.00  0.00    -0.008 A 
ATOM      4  C   LIG d   1       3.040   0.849  -7.640  0.00  0.00     0.122 A 
ATOM      5  C   LIG d   1       3.399   1.894  -8.485  0.00  0.00    -0.016 A 
ATOM      6  C   LIG d   1       3.433   1.713  -9.851  0.00  0.00    -0.015 A 
ATOM      7  C   LIG d   1       3.106   0.478 -10.399  0.00  0.00     0.137 A 
ATOM      8  O   LIG d   1       3.054   0.025 -11.670  0.00  0.00    -0.454 OA
ATOM      9  C   LIG d   1       2.680  -1.263 -11.718  0.00  0.00     0.150 A 
ATOM     10  H   LIG d   1       2.433  -1.201  -7.514  0.00  0.00     0.066 H 
ATOM     11  H   LIG d   1       3.654   2.857  -8.067  0.00  0.00     0.066 H 
ATOM     12  H   LIG d   1       3.713   2.532 -10.497  0.00  0.00     0.066 H 
ENDROOT
BRANCH   4  13
ATOM     13  O   LIG d   1       3.017   1.040  -6.294  0.00  0.00    -0.487 OA
BRANCH  13  14
ATOM     14  C   LIG d   1       2.748  -0.103  -5.481  0.00  0.00     0.115 C 
ATOM     15  H   LIG d   1       1.671  -0.217  -5.360  0.00  0.00     0.075 H 
ATOM     16  H   LIG d   1       3.157  -0.993  -5.959  0.00  0.00     0.075 H 
BRANCH  14  17
ATOM     17  C   LIG d   1       3.389   0.081  -4.129  0.00  0.00    -0.007 A 
ATOM     18  C   LIG d   1       4.135  -0.942  -3.573  0.00  0.00    -0.044 A 
ATOM     19  C   LIG d   1       4.723  -0.773  -2.333  0.00  0.00    -0.059 A 
ATOM     20  C   LIG d   1       4.565   0.417  -1.650  0.00  0.00    -0.061 A 
ATOM     21  H   LIG d   1       5.306  -1.572  -1.899  0.00  0.00     0.062 H 
ATOM     22  C   LIG d   1       3.819   1.440  -2.205  0.00  0.00    -0.061 A 
ATOM     23  H   LIG d   1       5.024   0.549  -0.681  0.00  0.00     0.062 H 
ATOM     24  C   LIG d   1       3.235   1.274  -3.448  0.00  0.00    -0.055 A 
ATOM     25  H   LIG d   1       3.696   2.370  -1.671  0.00  0.00     0.062 H 
ATOM     26  H   LIG d   1       2.656   2.074  -3.884  0.00  0.00     0.062 H 
BRANCH  18  27
ATOM     27  C   LIG d   1       4.308  -2.240  -4.320  0.00  0.00    -0.039 C 
ATOM     28  H   LIG d   1       3.430  -2.422  -4.939  0.00  0.00     0.028 H 
ATOM     29  H   LIG d   1       5.193  -2.180  -4.953  0.00  0.00     0.028 H 
ATOM     30  H   LIG d   1       4.426  -3.056  -3.606  0.00  0.00     0.028 H 
ENDBRANCH  18  27
ENDBRANCH  14  17
ENDBRANCH  13  14
ENDBRANCH   4  13
BRANCH   1  31
ATOM     31  C   LIG d   1       2.044  -3.071 -10.028  0.00  0.00     0.344 C 
ATOM     32  O   LIG d   1       2.797  -3.775  -9.382  0.00  0.00    -0.245 OA
BRANCH  31  33
ATOM     33  O   LIG d   1       0.823  -3.529 -10.375  0.00  0.00    -0.461 OA
BRANCH  33  34
ATOM     34  C   LIG d   1       0.679  -4.965 -10.532  0.00  0.00     0.090 C 
ATOM     35  H   LIG d   1       1.367  -5.475  -9.858  0.00  0.00     0.070 H 
ATOM     36  H   LIG d   1      -0.344  -5.255 -10.295  0.00  0.00     0.070 H 
BRANCH  34  37
ATOM     37  C   LIG d   1       0.998  -5.353 -11.977  0.00  0.00    -0.031 C 
ATOM     38  H   LIG d   1       1.067  -4.453 -12.589  0.00  0.00     0.026 H 
ATOM     39  H   LIG d   1       1.948  -5.887 -12.008  0.00  0.00     0.026 H 
ATOM     40  H   LIG d   1       0.207  -5.995 -12.365  0.00  0.00     0.026 H 
ENDBRANCH  34  37
ENDBRANCH  33  34
ENDBRANCH  31  33
ENDBRANCH   1  31
BRANCH   9  41
ATOM     41  C   LIG d   1       2.524  -2.060 -12.949  0.00  0.00     0.018 A 
ATOM     42  C   LIG d   1       1.302  -2.075 -13.626  0.00  0.00    -0.051 A 
ATOM     43  C   LIG d   1       1.164  -2.824 -14.776  0.00  0.00    -0.061 A 
ATOM     44  H   LIG d   1       0.468  -1.501 -13.250  0.00  0.00     0.062 H 
ATOM     45  C   LIG d   1       2.232  -3.559 -15.260  0.00  0.00    -0.062 A 
ATOM     46  H   LIG d   1       0.220  -2.835 -15.301  0.00  0.00     0.062 H 
ATOM     47  C   LIG d   1       3.445  -3.550 -14.594  0.00  0.00    -0.061 A 
ATOM     48  H   LIG d   1       2.118  -4.143 -16.161  0.00  0.00     0.062 H 
ATOM     49  C   LIG d   1       3.600  -2.801 -13.445  0.00  0.00    -0.051 A 
ATOM     50  H   LIG d   1       4.273  -4.126 -14.977  0.00  0.00     0.062 H 
ATOM     51  H   LIG d   1       4.548  -2.791 -12.930  0.00  0.00     0.062 H 
ENDBRANCH   9  41
TORSDOF 9
ENDMDL
MODEL 5
REMARK VINA RESULT:      -6.3      5.311      8.188
REMARK  9 active torsions:
REMARK  status: ('A' for Active; 'I' for Inactive)
REMARK    1  A    between atoms: C_1  and  C_2 
REMARK    2  A    between atoms: C_2  and  O_3 
REMARK    3  A    between atoms: O_3  and  C_4 
REMARK    4  A    between atoms: C_4  and  C_6 
REMARK    5  A    between atoms: C_9  and  O_21 
REMARK    6  A    between atoms: C_14  and  C_15 
REMARK    7  A    between atoms: O_21  and  C_22 
REMARK    8  A    between atoms: C_22  and  C_23 
REMARK    9  A    between atoms: C_28  and  C_29 
ROOT
ATOM      1  C   LIG d   1       7.346   0.909  -5.181  0.00  0.00     0.112 A 
ATOM      2  C   LIG d   1       8.401   1.941  -5.187  0.00  0.00     0.038 A 
ATOM      3  C   LIG d   1       9.182   2.518  -6.185  0.00  0.00    -0.008 A 
ATOM      4  C   LIG d   1      10.110   3.488  -5.851  0.00  0.00     0.122 A 
ATOM      5  C   LIG d   1      10.258   3.882  -4.525  0.00  0.00    -0.016 A 
ATOM      6  C   LIG d   1       9.489   3.315  -3.533  0.00  0.00    -0.015 A 
ATOM      7  C   LIG d   1       8.552   2.339  -3.850  0.00  0.00     0.137 A 
ATOM      8  O   LIG d   1       7.681   1.627  -3.102  0.00  0.00    -0.454 OA
ATOM      9  C   LIG d   1       6.962   0.781  -3.856  0.00  0.00     0.150 A 
ATOM     10  H   LIG d   1       9.064   2.210  -7.213  0.00  0.00     0.066 H 
ATOM     11  H   LIG d   1      10.984   4.641  -4.271  0.00  0.00     0.066 H 
ATOM     12  H   LIG d   1       9.613   3.629  -2.507  0.00  0.00     0.066 H 
ENDROOT
BRANCH   4  13
ATOM     13  O   LIG d   1      10.872   4.061  -6.820  0.00  0.00    -0.487 OA
BRANCH  13  14
ATOM     14  C   LIG d   1      11.400   5.360  -6.546  0.00  0.00     0.115 C 
ATOM     15  H   LIG d   1      11.479   5.501  -5.468  0.00  0.00     0.075 H 
ATOM     16  H   LIG d   1      12.387   5.454  -6.998  0.00  0.00     0.075 H 
BRANCH  14  17
ATOM     17  C   LIG d   1      10.482   6.407  -7.123  0.00  0.00    -0.007 A 
ATOM     18  C   LIG d   1      10.047   7.456  -6.335  0.00  0.00    -0.044 A 
ATOM     19  C   LIG d   1       9.205   8.416  -6.865  0.00  0.00    -0.059 A 
ATOM     20  C   LIG d   1       8.798   8.327  -8.182  0.00  0.00    -0.061 A 
ATOM     21  H   LIG d   1       8.866   9.236  -6.249  0.00  0.00     0.062 H 
ATOM     22  C   LIG d   1       9.233   7.278  -8.972  0.00  0.00    -0.061 A 
ATOM     23  H   LIG d   1       8.140   9.077  -8.596  0.00  0.00     0.062 H 
ATOM     24  C   LIG d   1      10.079   6.321  -8.443  0.00  0.00    -0.055 A 
ATOM     25  H   LIG d   1       8.915   7.209 -10.001  0.00  0.00     0.062 H 
ATOM     26  H   LIG d   1      10.422   5.504  -9.060  0.00  0.00     0.062 H 
BRANCH  18  27
ATOM     27  C   LIG d   1      10.492   7.553  -4.898  0.00  0.00    -0.039 C 
ATOM     28  H   LIG d   1       9.866   8.272  -4.372  0.00  0.00     0.028 H 
ATOM     29  H   LIG d   1      10.400   6.576  -4.423  0.00  0.00     0.028 H 
ATOM     30  H   LIG d   1      11.532   7.878  -4.861  0.00  0.00     0.028 H 
ENDBRANCH  18  27
ENDBRANCH  14  17
ENDBRANCH  13  14
ENDBRANCH   4  13
BRANCH   1  31
ATOM     31  C   LIG d   1       6.817   0.174  -6.333  0.00  0.00     0.344 C 
ATOM     32  O   LIG d   1       7.447  -0.754  -6.804  0.00  0.00    -0.245 OA
BRANCH  31  33
ATOM     33  O   LIG d   1       5.631   0.526  -6.872  0.00  0.00    -0.461 OA
BRANCH  33  34
ATOM     34  C   LIG d   1       4.610  -0.503  -6.948  0.00  0.00     0.090 C 
ATOM     35  H   LIG d   1       4.283  -0.614  -7.982  0.00  0.00     0.070 H 
ATOM     36  H   LIG d   1       5.019  -1.448  -6.593  0.00  0.00     0.070 H 
BRANCH  34  37
ATOM     37  C   LIG d   1       3.418  -0.103  -6.077  0.00  0.00    -0.031 C 
ATOM     38  H   LIG d   1       3.542   0.927  -5.741  0.00  0.00     0.026 H 
ATOM     39  H   LIG d   1       2.499  -0.188  -6.657  0.00  0.00     0.026 H 
ATOM     40  H   LIG d   1       3.364  -0.762  -5.210  0.00  0.00     0.026 H 
ENDBRANCH  34  37
ENDBRANCH  33  34
ENDBRANCH  31  33
ENDBRANCH   1  31
BRANCH   9  41
ATOM     41  C   LIG d   1       5.926  -0.140  -3.352  0.00  0.00     0.018 A 
ATOM     42  C   LIG d   1       6.006  -1.506  -3.629  0.00  0.00    -0.051 A 
ATOM     43  C   LIG d   1       5.032  -2.361  -3.155  0.00  0.00    -0.061 A 
ATOM     44  H   LIG d   1       6.827  -1.893  -4.213  0.00  0.00     0.062 H 
ATOM     45  C   LIG d   1       3.978  -1.868  -2.406  0.00  0.00    -0.062 A 
ATOM     46  H   LIG d   1       5.093  -3.418  -3.368  0.00  0.00     0.062 H 
ATOM     47  C   LIG d   1       3.892  -0.515  -2.128  0.00  0.00    -0.061 A 
ATOM     48  H   LIG d   1       3.219  -2.541  -2.038  0.00  0.00     0.062 H 
ATOM     49  C   LIG d   1       4.861   0.352  -2.591  0.00  0.00    -0.051 A 
ATOM     50  H   LIG d   1       3.067  -0.136  -1.544  0.00  0.00     0.062 H 
ATOM     51  H   LIG d   1       4.795   1.406  -2.370  0.00  0.00     0.062 H 
ENDBRANCH   9  41
TORSDOF 9
ENDMDL
MODEL 6
REMARK VINA RESULT:      -6.3      1.542      8.165
REMARK  9 active torsions:
REMARK  status: ('A' for Active; 'I' for Inactive)
REMARK    1  A    between atoms: C_1  and  C_2 
REMARK    2  A    between atoms: C_2  and  O_3 
REMARK    3  A    between atoms: O_3  and  C_4 
REMARK    4  A    between atoms: C_4  and  C_6 
REMARK    5  A    between atoms: C_9  and  O_21 
REMARK    6  A    between atoms: C_14  and  C_15 
REMARK    7  A    between atoms: O_21  and  C_22 
REMARK    8  A    between atoms: C_22  and  C_23 
REMARK    9  A    between atoms: C_28  and  C_29 
ROOT
ATOM      1  C   LIG d   1       4.506  -0.766  -6.759  0.00  0.00     0.112 A 
ATOM      2  C   LIG d   1       4.076  -0.017  -7.956  0.00  0.00     0.038 A 
ATOM      3  C   LIG d   1       4.305  -0.165  -9.321  0.00  0.00    -0.008 A 
ATOM      4  C   LIG d   1       3.741   0.734 -10.209  0.00  0.00     0.122 A 
ATOM      5  C   LIG d   1       2.950   1.776  -9.737  0.00  0.00    -0.016 A 
ATOM      6  C   LIG d   1       2.719   1.927  -8.386  0.00  0.00    -0.015 A 
ATOM      7  C   LIG d   1       3.278   1.034  -7.480  0.00  0.00     0.137 A 
ATOM      8  O   LIG d   1       3.224   0.941  -6.133  0.00  0.00    -0.454 OA
ATOM      9  C   LIG d   1       3.934  -0.105  -5.684  0.00  0.00     0.150 A 
ATOM     10  H   LIG d   1       4.920  -0.975  -9.685  0.00  0.00     0.066 H 
ATOM     11  H   LIG d   1       2.512   2.474 -10.435  0.00  0.00     0.066 H 
ATOM     12  H   LIG d   1       2.103   2.740  -8.032  0.00  0.00     0.066 H 
ENDROOT
BRANCH   4  13
ATOM     13  O   LIG d   1       3.955   0.594 -11.544  0.00  0.00    -0.487 OA
BRANCH  13  14
ATOM     14  C   LIG d   1       4.233  -0.723 -12.022  0.00  0.00     0.115 C 
ATOM     15  H   LIG d   1       5.035  -0.680 -12.759  0.00  0.00     0.075 H 
ATOM     16  H   LIG d   1       4.538  -1.355 -11.188  0.00  0.00     0.075 H 
BRANCH  14  17
ATOM     17  C   LIG d   1       2.994  -1.298 -12.660  0.00  0.00    -0.007 A 
ATOM     18  C   LIG d   1       3.027  -1.722 -13.976  0.00  0.00    -0.044 A 
ATOM     19  C   LIG d   1       1.891  -2.249 -14.561  0.00  0.00    -0.059 A 
ATOM     20  C   LIG d   1       0.722  -2.351 -13.831  0.00  0.00    -0.061 A 
ATOM     21  H   LIG d   1       1.917  -2.581 -15.588  0.00  0.00     0.062 H 
ATOM     22  C   LIG d   1       0.688  -1.927 -12.515  0.00  0.00    -0.061 A 
ATOM     23  H   LIG d   1      -0.166  -2.763 -14.288  0.00  0.00     0.062 H 
ATOM     24  C   LIG d   1       1.826  -1.404 -11.929  0.00  0.00    -0.055 A 
ATOM     25  H   LIG d   1      -0.225  -2.007 -11.945  0.00  0.00     0.062 H 
ATOM     26  H   LIG d   1       1.801  -1.077 -10.900  0.00  0.00     0.062 H 
BRANCH  18  27
ATOM     27  C   LIG d   1       4.303  -1.611 -14.771  0.00  0.00    -0.039 C 
ATOM     28  H   LIG d   1       4.209  -2.187 -15.691  0.00  0.00     0.028 H 
ATOM     29  H   LIG d   1       4.488  -0.565 -15.015  0.00  0.00     0.028 H 
ATOM     30  H   LIG d   1       5.133  -1.999 -14.181  0.00  0.00     0.028 H 
ENDBRANCH  18  27
ENDBRANCH  14  17
ENDBRANCH  13  14
ENDBRANCH   4  13
BRANCH   1  31
ATOM     31  C   LIG d   1       5.358  -1.958  -6.716  0.00  0.00     0.344 C 
ATOM     32  O   LIG d   1       4.938  -3.021  -7.133  0.00  0.00    -0.245 OA
BRANCH  31  33
ATOM     33  O   LIG d   1       6.608  -1.877  -6.216  0.00  0.00    -0.461 OA
BRANCH  33  34
ATOM     34  C   LIG d   1       6.993  -2.877  -5.237  0.00  0.00     0.090 C 
ATOM     35  H   LIG d   1       6.151  -3.542  -5.048  0.00  0.00     0.070 H 
ATOM     36  H   LIG d   1       7.834  -3.454  -5.618  0.00  0.00     0.070 H 
BRANCH  34  37
ATOM     37  C   LIG d   1       7.398  -2.185  -3.934  0.00  0.00    -0.031 C 
ATOM     38  H   LIG d   1       6.540  -1.651  -3.524  0.00  0.00     0.026 H 
ATOM     39  H   LIG d   1       7.738  -2.932  -3.217  0.00  0.00     0.026 H 
ATOM     40  H   LIG d   1       8.204  -1.479  -4.133  0.00  0.00     0.026 H 
ENDBRANCH  34  37
ENDBRANCH  33  34
ENDBRANCH  31  33
ENDBRANCH   1  31
BRANCH   9  41
ATOM     41  C   LIG d   1       4.083  -0.489  -4.268  0.00  0.00     0.018 A 
ATOM     42  C   LIG d   1       3.697  -1.762  -3.841  0.00  0.00    -0.051 A 
ATOM     43  C   LIG d   1       3.838  -2.113  -2.515  0.00  0.00    -0.061 A 
ATOM     44  H   LIG d   1       3.288  -2.469  -4.548  0.00  0.00     0.062 H 
ATOM     45  C   LIG d   1       4.361  -1.209  -1.607  0.00  0.00    -0.062 A 
ATOM     46  H   LIG d   1       3.540  -3.098  -2.184  0.00  0.00     0.062 H 
ATOM     47  C   LIG d   1       4.745   0.054  -2.022  0.00  0.00    -0.061 A 
ATOM     48  H   LIG d   1       4.469  -1.490  -0.570  0.00  0.00     0.062 H 
ATOM     49  C   LIG d   1       4.615   0.418  -3.347  0.00  0.00    -0.051 A 
ATOM     50  H   LIG d   1       5.152   0.755  -1.309  0.00  0.00     0.062 H 
ATOM     51  H   LIG d   1       4.919   1.402  -3.670  0.00  0.00     0.062 H 
ENDBRANCH   9  41
TORSDOF 9
ENDMDL
MODEL 7
REMARK VINA RESULT:      -6.2      3.805      7.692
REMARK  9 active torsions:
REMARK  status: ('A' for Active; 'I' for Inactive)
REMARK    1  A    between atoms: C_1  and  C_2 
REMARK    2  A    between atoms: C_2  and  O_3 
REMARK    3  A    between atoms: O_3  and  C_4 
REMARK    4  A    between atoms: C_4  and  C_6 
REMARK    5  A    between atoms: C_9  and  O_21 
REMARK    6  A    between atoms: C_14  and  C_15 
REMARK    7  A    between atoms: O_21  and  C_22 
REMARK    8  A    between atoms: C_22  and  C_23 
REMARK    9  A    between atoms: C_28  and  C_29 
ROOT
ATOM      1  C   LIG d   1       6.234  -2.980  -4.512  0.00  0.00     0.112 A 
ATOM      2  C   LIG d   1       7.442  -3.826  -4.566  0.00  0.00     0.038 A 
ATOM      3  C   LIG d   1       7.819  -4.923  -5.336  0.00  0.00    -0.008 A 
ATOM      4  C   LIG d   1       9.057  -5.506  -5.135  0.00  0.00     0.122 A 
ATOM      5  C   LIG d   1       9.918  -4.996  -4.169  0.00  0.00    -0.016 A 
ATOM      6  C   LIG d   1       9.551  -3.910  -3.403  0.00  0.00    -0.015 A 
ATOM      7  C   LIG d   1       8.311  -3.312  -3.592  0.00  0.00     0.137 A 
ATOM      8  O   LIG d   1       7.701  -2.262  -3.000  0.00  0.00    -0.454 OA
ATOM      9  C   LIG d   1       6.483  -2.045  -3.519  0.00  0.00     0.150 A 
ATOM     10  H   LIG d   1       7.148  -5.317  -6.086  0.00  0.00     0.066 H 
ATOM     11  H   LIG d   1      10.884  -5.455  -4.016  0.00  0.00     0.066 H 
ATOM     12  H   LIG d   1      10.228  -3.524  -2.656  0.00  0.00     0.066 H 
ENDROOT
BRANCH   4  13
ATOM     13  O   LIG d   1       9.435  -6.574  -5.886  0.00  0.00    -0.487 OA
BRANCH  13  14
ATOM     14  C   LIG d   1       9.814  -7.759  -5.184  0.00  0.00     0.115 C 
ATOM     15  H   LIG d   1      10.382  -8.409  -5.849  0.00  0.00     0.075 H 
ATOM     16  H   LIG d   1      10.428  -7.492  -4.324  0.00  0.00     0.075 H 
BRANCH  14  17
ATOM     17  C   LIG d   1       8.577  -8.480  -4.713  0.00  0.00    -0.007 A 
ATOM     18  C   LIG d   1       8.358  -8.665  -3.360  0.00  0.00    -0.044 A 
ATOM     19  C   LIG d   1       7.224  -9.327  -2.928  0.00  0.00    -0.059 A 
ATOM     20  C   LIG d   1       6.309  -9.803  -3.848  0.00  0.00    -0.061 A 
ATOM     21  H   LIG d   1       7.053  -9.471  -1.872  0.00  0.00     0.062 H 
ATOM     22  C   LIG d   1       6.528  -9.618  -5.201  0.00  0.00    -0.061 A 
ATOM     23  H   LIG d   1       5.423 -10.320  -3.510  0.00  0.00     0.062 H 
ATOM     24  C   LIG d   1       7.660  -8.952  -5.633  0.00  0.00    -0.055 A 
ATOM     25  H   LIG d   1       5.812  -9.990  -5.918  0.00  0.00     0.062 H 
ATOM     26  H   LIG d   1       7.828  -8.804  -6.689  0.00  0.00     0.062 H 
BRANCH  18  27
ATOM     27  C   LIG d   1       9.356  -8.145  -2.358  0.00  0.00    -0.039 C 
ATOM     28  H   LIG d   1       9.014  -8.378  -1.350  0.00  0.00     0.028 H 
ATOM     29  H   LIG d   1      10.324  -8.616  -2.531  0.00  0.00     0.028 H 
ATOM     30  H   LIG d   1       9.453  -7.065  -2.469  0.00  0.00     0.028 H 
ENDBRANCH  18  27
ENDBRANCH  14  17
ENDBRANCH  13  14
ENDBRANCH   4  13
BRANCH   1  31
ATOM     31  C   LIG d   1       5.026  -3.104  -5.332  0.00  0.00     0.344 C 
ATOM     32  O   LIG d   1       4.744  -2.232  -6.132  0.00  0.00    -0.245 OA
BRANCH  31  33
ATOM     33  O   LIG d   1       4.228  -4.183  -5.201  0.00  0.00    -0.461 OA
BRANCH  33  34
ATOM     34  C   LIG d   1       4.187  -5.112  -6.315  0.00  0.00     0.090 C 
ATOM     35  H   LIG d   1       3.170  -5.172  -6.702  0.00  0.00     0.070 H 
ATOM     36  H   LIG d   1       4.856  -4.766  -7.102  0.00  0.00     0.070 H 
BRANCH  34  37
ATOM     37  C   LIG d   1       4.633  -6.497  -5.840  0.00  0.00    -0.031 C 
ATOM     38  H   LIG d   1       5.488  -6.827  -6.432  0.00  0.00     0.026 H 
ATOM     39  H   LIG d   1       4.917  -6.446  -4.789  0.00  0.00     0.026 H 
ATOM     40  H   LIG d   1       3.814  -7.205  -5.962  0.00  0.00     0.026 H 
ENDBRANCH  34  37
ENDBRANCH  33  34
ENDBRANCH  31  33
ENDBRANCH   1  31
BRANCH   9  41
ATOM     41  C   LIG d   1       5.555  -0.978  -3.100  0.00  0.00     0.018 A 
ATOM     42  C   LIG d   1       4.264  -1.297  -2.673  0.00  0.00    -0.051 A 
ATOM     43  C   LIG d   1       3.402  -0.294  -2.283  0.00  0.00    -0.061 A 
ATOM     44  H   LIG d   1       3.942  -2.328  -2.648  0.00  0.00     0.062 H 
ATOM     45  C   LIG d   1       3.813   1.027  -2.313  0.00  0.00    -0.062 A 
ATOM     46  H   LIG d   1       2.404  -0.540  -1.951  0.00  0.00     0.062 H 
ATOM     47  C   LIG d   1       5.090   1.351  -2.736  0.00  0.00    -0.061 A 
ATOM     48  H   LIG d   1       3.134   1.808  -2.006  0.00  0.00     0.062 H 
ATOM     49  C   LIG d   1       5.965   0.358  -3.124  0.00  0.00    -0.051 A 
ATOM     50  H   LIG d   1       5.404   2.384  -2.758  0.00  0.00     0.062 H 
ATOM     51  H   LIG d   1       6.963   0.612  -3.449  0.00  0.00     0.062 H 
ENDBRANCH   9  41
TORSDOF 9
ENDMDL
MODEL 8
REMARK VINA RESULT:      -6.2      2.140      3.791
REMARK  9 active torsions:
REMARK  status: ('A' for Active; 'I' for Inactive)
REMARK    1  A    between atoms: C_1  and  C_2 
REMARK    2  A    between atoms: C_2  and  O_3 
REMARK    3  A    between atoms: O_3  and  C_4 
REMARK    4  A    between atoms: C_4  and  C_6 
REMARK    5  A    between atoms: C_9  and  O_21 
REMARK    6  A    between atoms: C_14  and  C_15 
REMARK    7  A    between atoms: O_21  and  C_22 
REMARK    8  A    between atoms: C_22  and  C_23 
REMARK    9  A    between atoms: C_28  and  C_29 
ROOT
ATOM      1  C   LIG d   1       2.982  -3.242  -9.210  0.00  0.00     0.112 A 
ATOM      2  C   LIG d   1       3.332  -1.950  -8.590  0.00  0.00     0.038 A 
ATOM      3  C   LIG d   1       4.294  -1.552  -7.666  0.00  0.00    -0.008 A 
ATOM      4  C   LIG d   1       4.361  -0.225  -7.279  0.00  0.00     0.122 A 
ATOM      5  C   LIG d   1       3.472   0.702  -7.812  0.00  0.00    -0.016 A 
ATOM      6  C   LIG d   1       2.518   0.314  -8.727  0.00  0.00    -0.015 A 
ATOM      7  C   LIG d   1       2.435  -1.014  -9.128  0.00  0.00     0.137 A 
ATOM      8  O   LIG d   1       1.620  -1.663  -9.988  0.00  0.00    -0.454 OA
ATOM      9  C   LIG d   1       1.917  -2.970 -10.056  0.00  0.00     0.150 A 
ATOM     10  H   LIG d   1       4.983  -2.274  -7.254  0.00  0.00     0.066 H 
ATOM     11  H   LIG d   1       3.530   1.737  -7.506  0.00  0.00     0.066 H 
ATOM     12  H   LIG d   1       1.833   1.043  -9.134  0.00  0.00     0.066 H 
ENDROOT
BRANCH   4  13
ATOM     13  O   LIG d   1       5.301   0.174  -6.381  0.00  0.00    -0.487 OA
BRANCH  13  14
ATOM     14  C   LIG d   1       5.801  -0.817  -5.482  0.00  0.00     0.115 C 
ATOM     15  H   LIG d   1       5.445  -1.800  -5.790  0.00  0.00     0.075 H 
ATOM     16  H   LIG d   1       6.891  -0.805  -5.496  0.00  0.00     0.075 H 
BRANCH  14  17
ATOM     17  C   LIG d   1       5.314  -0.521  -4.087  0.00  0.00    -0.007 A 
ATOM     18  C   LIG d   1       4.765  -1.529  -3.317  0.00  0.00    -0.044 A 
ATOM     19  C   LIG d   1       4.318  -1.257  -2.037  0.00  0.00    -0.059 A 
ATOM     20  C   LIG d   1       4.421   0.023  -1.527  0.00  0.00    -0.061 A 
ATOM     21  H   LIG d   1       3.890  -2.045  -1.436  0.00  0.00     0.062 H 
ATOM     22  C   LIG d   1       4.970   1.032  -2.297  0.00  0.00    -0.061 A 
ATOM     23  H   LIG d   1       4.072   0.236  -0.527  0.00  0.00     0.062 H 
ATOM     24  C   LIG d   1       5.421   0.759  -3.575  0.00  0.00    -0.055 A 
ATOM     25  H   LIG d   1       5.050   2.032  -1.898  0.00  0.00     0.062 H 
ATOM     26  H   LIG d   1       5.854   1.546  -4.174  0.00  0.00     0.062 H 
BRANCH  18  27
ATOM     27  C   LIG d   1       4.654  -2.926  -3.873  0.00  0.00    -0.039 C 
ATOM     28  H   LIG d   1       3.693  -3.042  -4.373  0.00  0.00     0.028 H 
ATOM     29  H   LIG d   1       5.458  -3.097  -4.589  0.00  0.00     0.028 H 
ATOM     30  H   LIG d   1       4.732  -3.648  -3.060  0.00  0.00     0.028 H 
ENDBRANCH  18  27
ENDBRANCH  14  17
ENDBRANCH  13  14
ENDBRANCH   4  13
BRANCH   1  31
ATOM     31  C   LIG d   1       3.623  -4.539  -8.981  0.00  0.00     0.344 C 
ATOM     32  O   LIG d   1       4.527  -4.907  -9.708  0.00  0.00    -0.245 OA
BRANCH  31  33
ATOM     33  O   LIG d   1       3.212  -5.326  -7.965  0.00  0.00    -0.461 OA
BRANCH  33  34
ATOM     34  C   LIG d   1       3.904  -5.180  -6.697  0.00  0.00     0.090 C 
ATOM     35  H   LIG d   1       4.637  -4.376  -6.774  0.00  0.00     0.070 H 
ATOM     36  H   LIG d   1       3.184  -4.942  -5.915  0.00  0.00     0.070 H 
BRANCH  34  37
ATOM     37  C   LIG d   1       4.618  -6.488  -6.353  0.00  0.00    -0.031 C 
ATOM     38  H   LIG d   1       5.557  -6.268  -5.845  0.00  0.00     0.026 H 
ATOM     39  H   LIG d   1       3.983  -7.087  -5.699  0.00  0.00     0.026 H 
ATOM     40  H   LIG d   1       4.822  -7.043  -7.268  0.00  0.00     0.026 H 
ENDBRANCH  34  37
ENDBRANCH  33  34
ENDBRANCH  31  33
ENDBRANCH   1  31
BRANCH   9  41
ATOM     41  C   LIG d   1       1.221  -3.960 -10.898  0.00  0.00     0.018 A 
ATOM     42  C   LIG d   1       0.005  -4.505 -10.481  0.00  0.00    -0.051 A 
ATOM     43  C   LIG d   1      -0.640  -5.431 -11.274  0.00  0.00    -0.061 A 
ATOM     44  H   LIG d   1      -0.429  -4.203  -9.539  0.00  0.00     0.062 H 
ATOM     45  C   LIG d   1      -0.086  -5.820 -12.481  0.00  0.00    -0.062 A 
ATOM     46  H   LIG d   1      -1.581  -5.854 -10.953  0.00  0.00     0.062 H 
ATOM     47  C   LIG d   1       1.119  -5.284 -12.901  0.00  0.00    -0.061 A 
ATOM     48  H   LIG d   1      -0.595  -6.545 -13.098  0.00  0.00     0.062 H 
ATOM     49  C   LIG d   1       1.773  -4.353 -12.120  0.00  0.00    -0.051 A 
ATOM     50  H   LIG d   1       1.546  -5.592 -13.843  0.00  0.00     0.062 H 
ATOM     51  H   LIG d   1       2.710  -3.932 -12.451  0.00  0.00     0.062 H 
ENDBRANCH   9  41
TORSDOF 9
ENDMDL
MODEL 9
REMARK VINA RESULT:      -6.1      1.577      7.690
REMARK  9 active torsions:
REMARK  status: ('A' for Active; 'I' for Inactive)
REMARK    1  A    between atoms: C_1  and  C_2 
REMARK    2  A    between atoms: C_2  and  O_3 
REMARK    3  A    between atoms: O_3  and  C_4 
REMARK    4  A    between atoms: C_4  and  C_6 
REMARK    5  A    between atoms: C_9  and  O_21 
REMARK    6  A    between atoms: C_14  and  C_15 
REMARK    7  A    between atoms: O_21  and  C_22 
REMARK    8  A    between atoms: C_22  and  C_23 
REMARK    9  A    between atoms: C_28  and  C_29 
ROOT
ATOM      1  C   LIG d   1       4.990  -0.771  -6.711  0.00  0.00     0.112 A 
ATOM      2  C   LIG d   1       4.539  -0.168  -7.980  0.00  0.00     0.038 A 
ATOM      3  C   LIG d   1       4.953  -0.282  -9.304  0.00  0.00    -0.008 A 
ATOM      4  C   LIG d   1       4.301   0.439 -10.288  0.00  0.00     0.122 A 
ATOM      5  C   LIG d   1       3.238   1.272  -9.953  0.00  0.00    -0.016 A 
ATOM      6  C   LIG d   1       2.823   1.389  -8.644  0.00  0.00    -0.015 A 
ATOM      7  C   LIG d   1       3.467   0.671  -7.642  0.00  0.00     0.137 A 
ATOM      8  O   LIG d   1       3.279   0.594  -6.307  0.00  0.00    -0.454 OA
ATOM      9  C   LIG d   1       4.158  -0.244  -5.735  0.00  0.00     0.150 A 
ATOM     10  H   LIG d   1       5.779  -0.929  -9.561  0.00  0.00     0.066 H 
ATOM     11  H   LIG d   1       2.733   1.832 -10.726  0.00  0.00     0.066 H 
ATOM     12  H   LIG d   1       1.997   2.038  -8.396  0.00  0.00     0.066 H 
ENDROOT
BRANCH   4  13
ATOM     13  O   LIG d   1       4.696   0.330 -11.585  0.00  0.00    -0.487 OA
BRANCH  13  14
ATOM     14  C   LIG d   1       3.754  -0.225 -12.504  0.00  0.00     0.115 C 
ATOM     15  H   LIG d   1       2.799   0.289 -12.401  0.00  0.00     0.075 H 
ATOM     16  H   LIG d   1       4.124  -0.102 -13.522  0.00  0.00     0.075 H 
BRANCH  14  17
ATOM     17  C   LIG d   1       3.570  -1.692 -12.211  0.00  0.00    -0.007 A 
ATOM     18  C   LIG d   1       2.335  -2.167 -11.811  0.00  0.00    -0.044 A 
ATOM     19  C   LIG d   1       2.166  -3.513 -11.542  0.00  0.00    -0.059 A 
ATOM     20  C   LIG d   1       3.232  -4.382 -11.673  0.00  0.00    -0.061 A 
ATOM     21  H   LIG d   1       1.201  -3.884 -11.231  0.00  0.00     0.062 H 
ATOM     22  C   LIG d   1       4.468  -3.907 -12.073  0.00  0.00    -0.061 A 
ATOM     23  H   LIG d   1       3.100  -5.434 -11.463  0.00  0.00     0.062 H 
ATOM     24  C   LIG d   1       4.635  -2.563 -12.347  0.00  0.00    -0.055 A 
ATOM     25  H   LIG d   1       5.300  -4.587 -12.176  0.00  0.00     0.062 H 
ATOM     26  H   LIG d   1       5.599  -2.192 -12.663  0.00  0.00     0.062 H 
BRANCH  18  27
ATOM     27  C   LIG d   1       1.172  -1.218 -11.670  0.00  0.00    -0.039 C 
ATOM     28  H   LIG d   1       0.327  -1.591 -12.246  0.00  0.00     0.028 H 
ATOM     29  H   LIG d   1       0.891  -1.143 -10.619  0.00  0.00     0.028 H 
ATOM     30  H   LIG d   1       1.460  -0.234 -12.040  0.00  0.00     0.028 H 
ENDBRANCH  18  27
ENDBRANCH  14  17
ENDBRANCH  13  14
ENDBRANCH   4  13
BRANCH   1  31
ATOM     31  C   LIG d   1       6.087  -1.724  -6.521  0.00  0.00     0.344 C 
ATOM     32  O   LIG d   1       5.962  -2.876  -6.892  0.00  0.00    -0.245 OA
BRANCH  31  33
ATOM     33  O   LIG d   1       7.235  -1.324  -5.936  0.00  0.00    -0.461 OA
BRANCH  33  34
ATOM     34  C   LIG d   1       7.968  -2.320  -5.175  0.00  0.00     0.090 C 
ATOM     35  H   LIG d   1       7.805  -3.305  -5.614  0.00  0.00     0.070 H 
ATOM     36  H   LIG d   1       9.031  -2.084  -5.196  0.00  0.00     0.070 H 
BRANCH  34  37
ATOM     37  C   LIG d   1       7.473  -2.319  -3.727  0.00  0.00    -0.031 C 
ATOM     38  H   LIG d   1       8.325  -2.222  -3.052  0.00  0.00     0.026 H 
ATOM     39  H   LIG d   1       6.793  -1.481  -3.576  0.00  0.00     0.026 H 
ATOM     40  H   LIG d   1       6.951  -3.253  -3.520  0.00  0.00     0.026 H 
ENDBRANCH  34  37
ENDBRANCH  33  34
ENDBRANCH  31  33
ENDBRANCH   1  31
BRANCH   9  41
ATOM     41  C   LIG d   1       4.227  -0.556  -4.295  0.00  0.00     0.018 A 
ATOM     42  C   LIG d   1       3.836  -1.813  -3.829  0.00  0.00    -0.051 A 
ATOM     43  C   LIG d   1       3.902  -2.096  -2.481  0.00  0.00    -0.061 A 
ATOM     44  H   LIG d   1       3.482  -2.561  -4.523  0.00  0.00     0.062 H 
ATOM     45  C   LIG d   1       4.355  -1.139  -1.590  0.00  0.00    -0.062 A 
ATOM     46  H   LIG d   1       3.601  -3.069  -2.119  0.00  0.00     0.062 H 
ATOM     47  C   LIG d   1       4.744   0.109  -2.045  0.00  0.00    -0.061 A 
ATOM     48  H   LIG d   1       4.405  -1.366  -0.536  0.00  0.00     0.062 H 
ATOM     49  C   LIG d   1       4.688   0.405  -3.391  0.00  0.00    -0.051 A 
ATOM     50  H   LIG d   1       5.095   0.852  -1.344  0.00  0.00     0.062 H 
ATOM     51  H   LIG d   1       4.995   1.377  -3.745  0.00  0.00     0.062 H 
ENDBRANCH   9  41
TORSDOF 9
ENDMDL
MODEL 10
REMARK VINA RESULT:      -6.1      2.133      8.257
REMARK  9 active torsions:
REMARK  status: ('A' for Active; 'I' for Inactive)
REMARK    1  A    between atoms: C_1  and  C_2 
REMARK    2  A    between atoms: C_2  and  O_3 
REMARK    3  A    between atoms: O_3  and  C_4 
REMARK    4  A    between atoms: C_4  and  C_6 
REMARK    5  A    between atoms: C_9  and  O_21 
REMARK    6  A    between atoms: C_14  and  C_15 
REMARK    7  A    between atoms: O_21  and  C_22 
REMARK    8  A    between atoms: C_22  and  C_23 
REMARK    9  A    between atoms: C_28  and  C_29 
ROOT
ATOM      1  C   LIG d   1       4.910  -0.185  -6.870  0.00  0.00     0.112 A 
ATOM      2  C   LIG d   1       4.289  -0.068  -8.203  0.00  0.00     0.038 A 
ATOM      3  C   LIG d   1       4.790   0.088  -9.492  0.00  0.00    -0.008 A 
ATOM      4  C   LIG d   1       3.915   0.168 -10.560  0.00  0.00     0.122 A 
ATOM      5  C   LIG d   1       2.543   0.092 -10.344  0.00  0.00    -0.016 A 
ATOM      6  C   LIG d   1       2.040  -0.063  -9.071  0.00  0.00    -0.015 A 
ATOM      7  C   LIG d   1       2.905  -0.145  -7.985  0.00  0.00     0.137 A 
ATOM      8  O   LIG d   1       2.698  -0.294  -6.659  0.00  0.00    -0.454 OA
ATOM      9  C   LIG d   1       3.856  -0.321  -5.980  0.00  0.00     0.150 A 
ATOM     10  H   LIG d   1       5.856   0.147  -9.657  0.00  0.00     0.066 H 
ATOM     11  H   LIG d   1       1.865   0.154 -11.183  0.00  0.00     0.066 H 
ATOM     12  H   LIG d   1       0.973  -0.122  -8.915  0.00  0.00     0.066 H 
ENDROOT
BRANCH   4  13
ATOM     13  O   LIG d   1       4.397   0.315 -11.823  0.00  0.00    -0.487 OA
BRANCH  13  14
ATOM     14  C   LIG d   1       4.867  -0.863 -12.479  0.00  0.00     0.115 C 
ATOM     15  H   LIG d   1       5.931  -0.760 -12.694  0.00  0.00     0.075 H 
ATOM     16  H   LIG d   1       4.709  -1.727 -11.833  0.00  0.00     0.075 H 
BRANCH  14  17
ATOM     17  C   LIG d   1       4.111  -1.056 -13.769  0.00  0.00    -0.007 A 
ATOM     18  C   LIG d   1       3.075  -1.969 -13.832  0.00  0.00    -0.044 A 
ATOM     19  C   LIG d   1       2.381  -2.146 -15.015  0.00  0.00    -0.059 A 
ATOM     20  C   LIG d   1       2.724  -1.411 -16.134  0.00  0.00    -0.061 A 
ATOM     21  H   LIG d   1       1.571  -2.859 -15.065  0.00  0.00     0.062 H 
ATOM     22  C   LIG d   1       3.760  -0.497 -16.071  0.00  0.00    -0.061 A 
ATOM     23  H   LIG d   1       2.182  -1.549 -17.058  0.00  0.00     0.062 H 
ATOM     24  C   LIG d   1       4.451  -0.317 -14.886  0.00  0.00    -0.055 A 
ATOM     25  H   LIG d   1       4.027   0.077 -16.945  0.00  0.00     0.062 H 
ATOM     26  H   LIG d   1       5.257   0.399 -14.836  0.00  0.00     0.062 H 
BRANCH  18  27
ATOM     27  C   LIG d   1       2.701  -2.771 -12.612  0.00  0.00    -0.039 C 
ATOM     28  H   LIG d   1       1.644  -3.030 -12.657  0.00  0.00     0.028 H 
ATOM     29  H   LIG d   1       3.298  -3.683 -12.580  0.00  0.00     0.028 H 
ATOM     30  H   LIG d   1       2.893  -2.179 -11.716  0.00  0.00     0.028 H 
ENDBRANCH  18  27
ENDBRANCH  14  17
ENDBRANCH  13  14
ENDBRANCH   4  13
BRANCH   1  31
ATOM     31  C   LIG d   1       6.341  -0.163  -6.552  0.00  0.00     0.344 C 
ATOM     32  O   LIG d   1       6.993  -1.188  -6.614  0.00  0.00    -0.245 OA
BRANCH  31  33
ATOM     33  O   LIG d   1       6.934   0.994  -6.192  0.00  0.00    -0.461 OA
BRANCH  33  34
ATOM     34  C   LIG d   1       7.977   0.913  -5.185  0.00  0.00     0.090 C 
ATOM     35  H   LIG d   1       8.454  -0.066  -5.234  0.00  0.00     0.070 H 
ATOM     36  H   LIG d   1       8.720   1.689  -5.368  0.00  0.00     0.070 H 
BRANCH  34  37
ATOM     37  C   LIG d   1       7.363   1.112  -3.798  0.00  0.00    -0.031 C 
ATOM     38  H   LIG d   1       8.146   1.380  -3.088  0.00  0.00     0.026 H 
ATOM     39  H   LIG d   1       6.622   1.912  -3.840  0.00  0.00     0.026 H 
ATOM     40  H   LIG d   1       6.882   0.189  -3.477  0.00  0.00     0.026 H 
ENDBRANCH  34  37
ENDBRANCH  33  34
ENDBRANCH  31  33
ENDBRANCH   1  31
BRANCH   9  41
ATOM     41  C   LIG d   1       3.984  -0.470  -4.519  0.00  0.00     0.018 A 
ATOM     42  C   LIG d   1       4.350  -1.701  -3.969  0.00  0.00    -0.051 A 
ATOM     43  C   LIG d   1       4.468  -1.833  -2.601  0.00  0.00    -0.061 A 
ATOM     44  H   LIG d   1       4.540  -2.547  -4.613  0.00  0.00     0.062 H 
ATOM     45  C   LIG d   1       4.225  -0.751  -1.774  0.00  0.00    -0.062 A 
ATOM     46  H   LIG d   1       4.751  -2.784  -2.174  0.00  0.00     0.062 H 
ATOM     47  C   LIG d   1       3.862   0.471  -2.312  0.00  0.00    -0.061 A 
ATOM     48  H   LIG d   1       4.319  -0.860  -0.703  0.00  0.00     0.062 H 
ATOM     49  C   LIG d   1       3.745   0.620  -3.679  0.00  0.00    -0.051 A 
ATOM     50  H   LIG d   1       3.673   1.312  -1.661  0.00  0.00     0.062 H 
ATOM     51  H   LIG d   1       3.466   1.575  -4.097  0.00  0.00     0.062 H 
ENDBRANCH   9  41
TORSDOF 9
ENDMDL
