MODEL 1
REMARK VINA RESULT:      -5.1      0.000      0.000
REMARK  8 active torsions:
REMARK  status: ('A' for Active; 'I' for Inactive)
REMARK    1  A    between atoms: C_1  and  C_2 
REMARK    2  A    between atoms: C_2  and  C_3 
REMARK    3  A    between atoms: C_2  and  C_12 
REMARK    4  A    between atoms: C_2  and  N_29 
REMARK    5  A    between atoms: C_3  and  C_4 
REMARK    6  A    between atoms: C_7  and  O_11 
REMARK    7  A    between atoms: C_8  and  O_10 
REMARK    8  A    between atoms: C_14  and  N_29 
ROOT
ATOM      1  C   LIG d   1       4.829  -1.334  -2.379  0.00  0.00     0.024 C 
ATOM      2  H   LIG d   1       5.599  -1.267  -1.610  0.00  0.00     0.037 H 
ATOM      3  H   LIG d   1       3.916  -1.740  -1.945  0.00  0.00     0.037 H 
ENDROOT
BRANCH   1   4
ATOM      4  C   LIG d   1       4.550   0.058  -2.947  0.00  0.00     0.029 C 
BRANCH   4   5
ATOM      5  C   LIG d   1       4.631   1.093  -1.822  0.00  0.00    -0.013 C 
ATOM      6  H   LIG d   1       3.763   1.750  -1.870  0.00  0.00     0.029 H 
ATOM      7  H   LIG d   1       4.649   0.582  -0.859  0.00  0.00     0.029 H 
ATOM      8  H   LIG d   1       5.541   1.684  -1.938  0.00  0.00     0.029 H 
ENDBRANCH   4   5
BRANCH   4   9
ATOM      9  C   LIG d   1       3.172   0.086  -3.556  0.00  0.00     0.093 C 
ATOM     10  O   LIG d   1       2.277  -0.552  -3.053  0.00  0.00    -0.544 OA
ATOM     11  O   LIG d   1       2.940   0.813  -4.660  0.00  0.00    -0.544 OA
ENDBRANCH   4   9
BRANCH   4  12
ATOM     12  N   LIG d   1       5.554   0.384  -3.977  0.00  0.00     0.233 N 
ATOM     13  H   LIG d   1       5.094   0.866  -4.759  0.00  0.00     0.202 HD
ATOM     14  H   LIG d   1       5.986  -0.484  -4.316  0.00  0.00     0.202 HD
BRANCH  12  15
ATOM     15  C   LIG d   1       6.600   1.260  -3.415  0.00  0.00    -0.044 C 
ATOM     16  H   LIG d   1       6.957   1.945  -4.183  0.00  0.00     0.078 H 
ATOM     17  H   LIG d   1       6.190   1.830  -2.581  0.00  0.00     0.078 H 
ATOM     18  H   LIG d   1       7.429   0.646  -3.062  0.00  0.00     0.078 H 
ENDBRANCH  12  15
ENDBRANCH   4  12
ENDBRANCH   1   4
BRANCH   1  19
ATOM     19  C   LIG d   1       5.305  -2.241  -3.485  0.00  0.00    -0.038 A 
ATOM     20  C   LIG d   1       4.385  -2.908  -4.273  0.00  0.00    -0.013 A 
ATOM     21  C   LIG d   1       4.820  -3.738  -5.294  0.00  0.00     0.159 A 
ATOM     22  H   LIG d   1       3.327  -2.778  -4.097  0.00  0.00     0.066 H 
ATOM     23  C   LIG d   1       6.183  -3.907  -5.517  0.00  0.00     0.158 A 
ATOM     24  C   LIG d   1       7.100  -3.241  -4.719  0.00  0.00    -0.016 A 
ATOM     25  C   LIG d   1       6.659  -2.410  -3.706  0.00  0.00    -0.055 A 
ATOM     26  H   LIG d   1       8.158  -3.370  -4.889  0.00  0.00     0.066 H 
ATOM     27  H   LIG d   1       7.374  -1.891  -3.085  0.00  0.00     0.062 H 
BRANCH  21  28
ATOM     28  O   LIG d   1       3.916  -4.390  -6.074  0.00  0.00    -0.503 OA
ATOM     29  H   LIG d   1       3.063  -4.543  -5.644  0.00  0.00     0.292 HD
ENDBRANCH  21  28
BRANCH  23  30
ATOM     30  O   LIG d   1       6.614  -4.725  -6.514  0.00  0.00    -0.503 OA
ATOM     31  H   LIG d   1       6.012  -4.774  -7.270  0.00  0.00     0.292 HD
ENDBRANCH  23  30
ENDBRANCH   1  19
TORSDOF 8
ENDMDL
MODEL 2
REMARK VINA RESULT:      -5.0      1.148      1.958
REMARK  8 active torsions:
REMARK  status: ('A' for Active; 'I' for Inactive)
REMARK    1  A    between atoms: C_1  and  C_2 
REMARK    2  A    between atoms: C_2  and  C_3 
REMARK    3  A    between atoms: C_2  and  C_12 
REMARK    4  A    between atoms: C_2  and  N_29 
REMARK    5  A    between atoms: C_3  and  C_4 
REMARK    6  A    between atoms: C_7  and  O_11 
REMARK    7  A    between atoms: C_8  and  O_10 
REMARK    8  A    between atoms: C_14  and  N_29 
ROOT
ATOM      1  C   LIG d   1       4.624  -1.339  -2.363  0.00  0.00     0.024 C 
ATOM      2  H   LIG d   1       5.108  -1.263  -1.390  0.00  0.00     0.037 H 
ATOM      3  H   LIG d   1       3.654  -1.822  -2.250  0.00  0.00     0.037 H 
ENDROOT
BRANCH   1   4
ATOM      4  C   LIG d   1       4.433   0.061  -2.950  0.00  0.00     0.029 C 
BRANCH   4   5
ATOM      5  C   LIG d   1       4.474   1.095  -1.823  0.00  0.00    -0.013 C 
ATOM      6  H   LIG d   1       5.437   1.042  -1.316  0.00  0.00     0.029 H 
ATOM      7  H   LIG d   1       4.337   2.093  -2.241  0.00  0.00     0.029 H 
ATOM      8  H   LIG d   1       3.675   0.887  -1.110  0.00  0.00     0.029 H 
ENDBRANCH   4   5
BRANCH   4   9
ATOM      9  C   LIG d   1       3.101   0.133  -3.651  0.00  0.00     0.093 C 
ATOM     10  O   LIG d   1       2.247  -0.688  -3.412  0.00  0.00    -0.544 OA
ATOM     11  O   LIG d   1       2.864   1.107  -4.544  0.00  0.00    -0.544 OA
ENDBRANCH   4   9
BRANCH   4  12
ATOM     12  N   LIG d   1       5.514   0.348  -3.910  0.00  0.00     0.233 N 
ATOM     13  H   LIG d   1       5.106   0.681  -4.792  0.00  0.00     0.202 HD
ATOM     14  H   LIG d   1       6.051  -0.511  -4.084  0.00  0.00     0.202 HD
BRANCH  12  15
ATOM     15  C   LIG d   1       6.416   1.384  -3.371  0.00  0.00    -0.044 C 
ATOM     16  H   LIG d   1       6.250   1.494  -2.300  0.00  0.00     0.078 H 
ATOM     17  H   LIG d   1       7.452   1.098  -3.551  0.00  0.00     0.078 H 
ATOM     18  H   LIG d   1       6.210   2.332  -3.870  0.00  0.00     0.078 H 
ENDBRANCH  12  15
ENDBRANCH   4  12
ENDBRANCH   1   4
BRANCH   1  19
ATOM     19  C   LIG d   1       5.487  -2.158  -3.289  0.00  0.00    -0.038 A 
ATOM     20  C   LIG d   1       6.864  -2.091  -3.187  0.00  0.00    -0.013 A 
ATOM     21  C   LIG d   1       7.660  -2.847  -4.034  0.00  0.00     0.159 A 
ATOM     22  H   LIG d   1       7.321  -1.454  -2.443  0.00  0.00     0.066 H 
ATOM     23  C   LIG d   1       7.069  -3.664  -4.993  0.00  0.00     0.158 A 
ATOM     24  C   LIG d   1       5.688  -3.721  -5.094  0.00  0.00    -0.016 A 
ATOM     25  C   LIG d   1       4.901  -2.969  -4.243  0.00  0.00    -0.055 A 
ATOM     26  H   LIG d   1       5.227  -4.354  -5.837  0.00  0.00     0.066 H 
ATOM     27  H   LIG d   1       3.824  -3.014  -4.322  0.00  0.00     0.062 H 
BRANCH  21  28
ATOM     28  O   LIG d   1       9.014  -2.788  -3.930  0.00  0.00    -0.503 OA
ATOM     29  H   LIG d   1       9.433  -2.207  -4.581  0.00  0.00     0.292 HD
ENDBRANCH  21  28
BRANCH  23  30
ATOM     30  O   LIG d   1       7.845  -4.404  -5.830  0.00  0.00    -0.503 OA
ATOM     31  H   LIG d   1       8.614  -3.928  -6.174  0.00  0.00     0.292 HD
ENDBRANCH  23  30
ENDBRANCH   1  19
TORSDOF 8
ENDMDL
MODEL 3
REMARK VINA RESULT:      -4.8      1.908      2.802
REMARK  8 active torsions:
REMARK  status: ('A' for Active; 'I' for Inactive)
REMARK    1  A    between atoms: C_1  and  C_2 
REMARK    2  A    between atoms: C_2  and  C_3 
REMARK    3  A    between atoms: C_2  and  C_12 
REMARK    4  A    between atoms: C_2  and  N_29 
REMARK    5  A    between atoms: C_3  and  C_4 
REMARK    6  A    between atoms: C_7  and  O_11 
REMARK    7  A    between atoms: C_8  and  O_10 
REMARK    8  A    between atoms: C_14  and  N_29 
ROOT
ATOM      1  C   LIG d   1       4.411  -1.558  -2.676  0.00  0.00     0.024 C 
ATOM      2  H   LIG d   1       4.848  -1.292  -1.714  0.00  0.00     0.037 H 
ATOM      3  H   LIG d   1       3.524  -2.170  -2.516  0.00  0.00     0.037 H 
ENDROOT
BRANCH   1   4
ATOM      4  C   LIG d   1       4.025  -0.286  -3.432  0.00  0.00     0.029 C 
BRANCH   4   5
ATOM      5  C   LIG d   1       4.875  -0.166  -4.698  0.00  0.00    -0.013 C 
ATOM      6  H   LIG d   1       4.828  -1.101  -5.256  0.00  0.00     0.029 H 
ATOM      7  H   LIG d   1       4.493   0.646  -5.317  0.00  0.00     0.029 H 
ATOM      8  H   LIG d   1       5.909   0.042  -4.422  0.00  0.00     0.029 H 
ENDBRANCH   4   5
BRANCH   4   9
ATOM      9  C   LIG d   1       4.264   0.914  -2.551  0.00  0.00     0.093 C 
ATOM     10  O   LIG d   1       3.338   1.433  -1.972  0.00  0.00    -0.544 OA
ATOM     11  O   LIG d   1       5.504   1.409  -2.412  0.00  0.00    -0.544 OA
ENDBRANCH   4   9
BRANCH   4  12
ATOM     12  N   LIG d   1       2.600  -0.346  -3.809  0.00  0.00     0.233 N 
ATOM     13  H   LIG d   1       2.035   0.089  -3.071  0.00  0.00     0.202 HD
ATOM     14  H   LIG d   1       2.321  -1.329  -3.920  0.00  0.00     0.202 HD
BRANCH  12  15
ATOM     15  C   LIG d   1       2.376   0.369  -5.079  0.00  0.00    -0.044 C 
ATOM     16  H   LIG d   1       3.320   0.474  -5.613  0.00  0.00     0.078 H 
ATOM     17  H   LIG d   1       1.670  -0.189  -5.694  0.00  0.00     0.078 H 
ATOM     18  H   LIG d   1       1.968   1.357  -4.865  0.00  0.00     0.078 H 
ENDBRANCH  12  15
ENDBRANCH   4  12
ENDBRANCH   1   4
BRANCH   1  19
ATOM     19  C   LIG d   1       5.418  -2.336  -3.485  0.00  0.00    -0.038 A 
ATOM     20  C   LIG d   1       6.769  -2.098  -3.317  0.00  0.00    -0.013 A 
ATOM     21  C   LIG d   1       7.697  -2.816  -4.055  0.00  0.00     0.159 A 
ATOM     22  H   LIG d   1       7.103  -1.355  -2.606  0.00  0.00     0.066 H 
ATOM     23  C   LIG d   1       7.264  -3.768  -4.973  0.00  0.00     0.158 A 
ATOM     24  C   LIG d   1       5.908  -3.998  -5.140  0.00  0.00    -0.016 A 
ATOM     25  C   LIG d   1       4.988  -3.283  -4.396  0.00  0.00    -0.055 A 
ATOM     26  H   LIG d   1       5.569  -4.737  -5.851  0.00  0.00     0.066 H 
ATOM     27  H   LIG d   1       3.931  -3.463  -4.527  0.00  0.00     0.062 H 
BRANCH  21  28
ATOM     28  O   LIG d   1       9.027  -2.586  -3.887  0.00  0.00    -0.503 OA
ATOM     29  H   LIG d   1       9.589  -3.049  -4.523  0.00  0.00     0.292 HD
ENDBRANCH  21  28
BRANCH  23  30
ATOM     30  O   LIG d   1       8.171  -4.471  -5.703  0.00  0.00    -0.503 OA
ATOM     31  H   LIG d   1       7.784  -4.959  -6.444  0.00  0.00     0.292 HD
ENDBRANCH  23  30
ENDBRANCH   1  19
TORSDOF 8
ENDMDL
MODEL 4
REMARK VINA RESULT:      -4.7      2.201      5.203
REMARK  8 active torsions:
REMARK  status: ('A' for Active; 'I' for Inactive)
REMARK    1  A    between atoms: C_1  and  C_2 
REMARK    2  A    between atoms: C_2  and  C_3 
REMARK    3  A    between atoms: C_2  and  C_12 
REMARK    4  A    between atoms: C_2  and  N_29 
REMARK    5  A    between atoms: C_3  and  C_4 
REMARK    6  A    between atoms: C_7  and  O_11 
REMARK    7  A    between atoms: C_8  and  O_10 
REMARK    8  A    between atoms: C_14  and  N_29 
ROOT
ATOM      1  C   LIG d   1       6.213  -3.105  -4.340  0.00  0.00     0.024 C 
ATOM      2  H   LIG d   1       6.117  -3.996  -3.722  0.00  0.00     0.037 H 
ATOM      3  H   LIG d   1       7.268  -2.850  -4.448  0.00  0.00     0.037 H 
ENDROOT
BRANCH   1   4
ATOM      4  C   LIG d   1       5.610  -3.373  -5.720  0.00  0.00     0.029 C 
BRANCH   4   5
ATOM      5  C   LIG d   1       6.421  -4.460  -6.429  0.00  0.00    -0.013 C 
ATOM      6  H   LIG d   1       6.353  -4.318  -7.508  0.00  0.00     0.029 H 
ATOM      7  H   LIG d   1       7.463  -4.396  -6.118  0.00  0.00     0.029 H 
ATOM      8  H   LIG d   1       6.022  -5.440  -6.166  0.00  0.00     0.029 H 
ENDBRANCH   4   5
BRANCH   4   9
ATOM      9  C   LIG d   1       5.644  -2.107  -6.538  0.00  0.00     0.093 C 
ATOM     10  O   LIG d   1       6.699  -1.676  -6.941  0.00  0.00    -0.544 OA
ATOM     11  O   LIG d   1       4.503  -1.455  -6.814  0.00  0.00    -0.544 OA
ENDBRANCH   4   9
BRANCH   4  12
ATOM     12  N   LIG d   1       4.215  -3.829  -5.571  0.00  0.00     0.233 N 
ATOM     13  H   LIG d   1       3.579  -3.055  -5.796  0.00  0.00     0.202 HD
ATOM     14  H   LIG d   1       4.059  -4.131  -4.602  0.00  0.00     0.202 HD
BRANCH  12  15
ATOM     15  C   LIG d   1       3.946  -4.958  -6.482  0.00  0.00    -0.044 C 
ATOM     16  H   LIG d   1       2.870  -5.078  -6.609  0.00  0.00     0.078 H 
ATOM     17  H   LIG d   1       4.407  -4.766  -7.450  0.00  0.00     0.078 H 
ATOM     18  H   LIG d   1       4.366  -5.869  -6.055  0.00  0.00     0.078 H 
ENDBRANCH  12  15
ENDBRANCH   4  12
ENDBRANCH   1   4
BRANCH   1  19
ATOM     19  C   LIG d   1       5.484  -1.960  -3.687  0.00  0.00    -0.038 A 
ATOM     20  C   LIG d   1       6.062  -0.704  -3.652  0.00  0.00    -0.013 A 
ATOM     21  C   LIG d   1       5.390   0.352  -3.055  0.00  0.00     0.159 A 
ATOM     22  H   LIG d   1       7.036  -0.545  -4.092  0.00  0.00     0.066 H 
ATOM     23  C   LIG d   1       4.139   0.143  -2.485  0.00  0.00     0.158 A 
ATOM     24  C   LIG d   1       3.567  -1.120  -2.519  0.00  0.00    -0.016 A 
ATOM     25  C   LIG d   1       4.240  -2.167  -3.119  0.00  0.00    -0.055 A 
ATOM     26  H   LIG d   1       2.597  -1.284  -2.077  0.00  0.00     0.066 H 
ATOM     27  H   LIG d   1       3.794  -3.150  -3.145  0.00  0.00     0.062 H 
BRANCH  21  28
ATOM     28  O   LIG d   1       5.955   1.588  -3.025  0.00  0.00    -0.503 OA
ATOM     29  H   LIG d   1       6.252   1.906  -3.890  0.00  0.00     0.292 HD
ENDBRANCH  21  28
BRANCH  23  30
ATOM     30  O   LIG d   1       3.478   1.175  -1.894  0.00  0.00    -0.503 OA
ATOM     31  H   LIG d   1       3.449   1.980  -2.430  0.00  0.00     0.292 HD
ENDBRANCH  23  30
ENDBRANCH   1  19
TORSDOF 8
ENDMDL
MODEL 5
REMARK VINA RESULT:      -4.7      2.038      5.102
REMARK  8 active torsions:
REMARK  status: ('A' for Active; 'I' for Inactive)
REMARK    1  A    between atoms: C_1  and  C_2 
REMARK    2  A    between atoms: C_2  and  C_3 
REMARK    3  A    between atoms: C_2  and  C_12 
REMARK    4  A    between atoms: C_2  and  N_29 
REMARK    5  A    between atoms: C_3  and  C_4 
REMARK    6  A    between atoms: C_7  and  O_11 
REMARK    7  A    between atoms: C_8  and  O_10 
REMARK    8  A    between atoms: C_14  and  N_29 
ROOT
ATOM      1  C   LIG d   1       5.483  -3.293  -4.285  0.00  0.00     0.024 C 
ATOM      2  H   LIG d   1       4.977  -4.153  -3.850  0.00  0.00     0.037 H 
ATOM      3  H   LIG d   1       6.555  -3.370  -4.103  0.00  0.00     0.037 H 
ENDROOT
BRANCH   1   4
ATOM      4  C   LIG d   1       5.224  -3.256  -5.793  0.00  0.00     0.029 C 
BRANCH   4   5
ATOM      5  C   LIG d   1       4.595  -1.913  -6.170  0.00  0.00    -0.013 C 
ATOM      6  H   LIG d   1       5.382  -1.196  -6.400  0.00  0.00     0.029 H 
ATOM      7  H   LIG d   1       3.955  -2.044  -7.042  0.00  0.00     0.029 H 
ATOM      8  H   LIG d   1       3.999  -1.545  -5.334  0.00  0.00     0.029 H 
ENDBRANCH   4   5
BRANCH   4   9
ATOM      9  C   LIG d   1       4.285  -4.374  -6.168  0.00  0.00     0.093 C 
ATOM     10  O   LIG d   1       3.822  -4.425  -7.283  0.00  0.00    -0.544 OA
ATOM     11  O   LIG d   1       3.959  -5.310  -5.262  0.00  0.00    -0.544 OA
ENDBRANCH   4   9
BRANCH   4  12
ATOM     12  N   LIG d   1       6.498  -3.415  -6.519  0.00  0.00     0.233 N 
ATOM     13  H   LIG d   1       6.391  -4.141  -7.237  0.00  0.00     0.202 HD
ATOM     14  H   LIG d   1       7.233  -3.693  -5.857  0.00  0.00     0.202 HD
BRANCH  12  15
ATOM     15  C   LIG d   1       6.880  -2.145  -7.165  0.00  0.00    -0.044 C 
ATOM     16  H   LIG d   1       6.782  -2.239  -8.246  0.00  0.00     0.078 H 
ATOM     17  H   LIG d   1       6.233  -1.344  -6.809  0.00  0.00     0.078 H 
ATOM     18  H   LIG d   1       7.916  -1.914  -6.913  0.00  0.00     0.078 H 
ENDBRANCH  12  15
ENDBRANCH   4  12
ENDBRANCH   1   4
BRANCH   1  19
ATOM     19  C   LIG d   1       4.957  -2.029  -3.654  0.00  0.00    -0.038 A 
ATOM     20  C   LIG d   1       5.780  -0.925  -3.533  0.00  0.00    -0.013 A 
ATOM     21  C   LIG d   1       5.295   0.240  -2.958  0.00  0.00     0.159 A 
ATOM     22  H   LIG d   1       6.798  -0.968  -3.890  0.00  0.00     0.066 H 
ATOM     23  C   LIG d   1       3.984   0.291  -2.494  0.00  0.00     0.158 A 
ATOM     24  C   LIG d   1       3.167  -0.822  -2.614  0.00  0.00    -0.016 A 
ATOM     25  C   LIG d   1       3.654  -1.978  -3.194  0.00  0.00    -0.055 A 
ATOM     26  H   LIG d   1       2.149  -0.785  -2.256  0.00  0.00     0.066 H 
ATOM     27  H   LIG d   1       3.016  -2.845  -3.287  0.00  0.00     0.062 H 
BRANCH  21  28
ATOM     28  O   LIG d   1       6.102   1.329  -2.843  0.00  0.00    -0.503 OA
ATOM     29  H   LIG d   1       6.469   1.637  -3.684  0.00  0.00     0.292 HD
ENDBRANCH  21  28
BRANCH  23  30
ATOM     30  O   LIG d   1       3.507   1.430  -1.925  0.00  0.00    -0.503 OA
ATOM     31  H   LIG d   1       4.190   2.085  -1.725  0.00  0.00     0.292 HD
ENDBRANCH  23  30
ENDBRANCH   1  19
TORSDOF 8
ENDMDL
MODEL 6
REMARK VINA RESULT:      -4.5      2.975      3.858
REMARK  8 active torsions:
REMARK  status: ('A' for Active; 'I' for Inactive)
REMARK    1  A    between atoms: C_1  and  C_2 
REMARK    2  A    between atoms: C_2  and  C_3 
REMARK    3  A    between atoms: C_2  and  C_12 
REMARK    4  A    between atoms: C_2  and  N_29 
REMARK    5  A    between atoms: C_3  and  C_4 
REMARK    6  A    between atoms: C_7  and  O_11 
REMARK    7  A    between atoms: C_8  and  O_10 
REMARK    8  A    between atoms: C_14  and  N_29 
ROOT
ATOM      1  C   LIG d   1       3.393  -0.467  -4.281  0.00  0.00     0.024 C 
ATOM      2  H   LIG d   1       3.171  -1.485  -3.964  0.00  0.00     0.037 H 
ATOM      3  H   LIG d   1       2.561   0.186  -4.017  0.00  0.00     0.037 H 
ENDROOT
BRANCH   1   4
ATOM      4  C   LIG d   1       4.664   0.020  -3.582  0.00  0.00     0.029 C 
BRANCH   4   5
ATOM      5  C   LIG d   1       5.227  -1.103  -2.709  0.00  0.00    -0.013 C 
ATOM      6  H   LIG d   1       5.471  -1.962  -3.334  0.00  0.00     0.029 H 
ATOM      7  H   LIG d   1       6.128  -0.753  -2.204  0.00  0.00     0.029 H 
ATOM      8  H   LIG d   1       4.483  -1.392  -1.966  0.00  0.00     0.029 H 
ENDBRANCH   4   5
BRANCH   4   9
ATOM      9  C   LIG d   1       4.338   1.212  -2.720  0.00  0.00     0.093 C 
ATOM     10  O   LIG d   1       3.744   2.154  -3.191  0.00  0.00    -0.544 OA
ATOM     11  O   LIG d   1       4.712   1.231  -1.431  0.00  0.00    -0.544 OA
ENDBRANCH   4   9
BRANCH   4  12
ATOM     12  N   LIG d   1       5.670   0.399  -4.592  0.00  0.00     0.233 N 
ATOM     13  H   LIG d   1       5.504   1.367  -4.890  0.00  0.00     0.202 HD
ATOM     14  H   LIG d   1       5.590  -0.228  -5.402  0.00  0.00     0.202 HD
BRANCH  12  15
ATOM     15  C   LIG d   1       7.028   0.291  -4.026  0.00  0.00    -0.044 C 
ATOM     16  H   LIG d   1       7.400   1.283  -3.773  0.00  0.00     0.078 H 
ATOM     17  H   LIG d   1       7.004  -0.328  -3.129  0.00  0.00     0.078 H 
ATOM     18  H   LIG d   1       7.687  -0.167  -4.765  0.00  0.00     0.078 H 
ENDBRANCH  12  15
ENDBRANCH   4  12
ENDBRANCH   1   4
BRANCH   1  19
ATOM     19  C   LIG d   1       3.598  -0.440  -5.774  0.00  0.00    -0.038 A 
ATOM     20  C   LIG d   1       3.003   0.550  -6.534  0.00  0.00    -0.013 A 
ATOM     21  C   LIG d   1       3.195   0.579  -7.906  0.00  0.00     0.159 A 
ATOM     22  H   LIG d   1       2.391   1.303  -6.058  0.00  0.00     0.066 H 
ATOM     23  C   LIG d   1       3.979  -0.394  -8.517  0.00  0.00     0.158 A 
ATOM     24  C   LIG d   1       4.569  -1.386  -7.750  0.00  0.00    -0.016 A 
ATOM     25  C   LIG d   1       4.378  -1.407  -6.381  0.00  0.00    -0.055 A 
ATOM     26  H   LIG d   1       5.178  -2.142  -8.221  0.00  0.00     0.066 H 
ATOM     27  H   LIG d   1       4.838  -2.181  -5.784  0.00  0.00     0.062 H 
BRANCH  21  28
ATOM     28  O   LIG d   1       2.614   1.556  -8.654  0.00  0.00    -0.503 OA
ATOM     29  H   LIG d   1       1.773   1.296  -9.055  0.00  0.00     0.292 HD
ENDBRANCH  21  28
BRANCH  23  30
ATOM     30  O   LIG d   1       4.166  -0.372  -9.864  0.00  0.00    -0.503 OA
ATOM     31  H   LIG d   1       4.482   0.478 -10.202  0.00  0.00     0.292 HD
ENDBRANCH  23  30
ENDBRANCH   1  19
TORSDOF 8
ENDMDL
MODEL 7
REMARK VINA RESULT:      -4.5      2.912      4.487
REMARK  8 active torsions:
REMARK  status: ('A' for Active; 'I' for Inactive)
REMARK    1  A    between atoms: C_1  and  C_2 
REMARK    2  A    between atoms: C_2  and  C_3 
REMARK    3  A    between atoms: C_2  and  C_12 
REMARK    4  A    between atoms: C_2  and  N_29 
REMARK    5  A    between atoms: C_3  and  C_4 
REMARK    6  A    between atoms: C_7  and  O_11 
REMARK    7  A    between atoms: C_8  and  O_10 
REMARK    8  A    between atoms: C_14  and  N_29 
ROOT
ATOM      1  C   LIG d   1       6.394  -0.969  -3.198  0.00  0.00     0.024 C 
ATOM      2  H   LIG d   1       6.821  -0.749  -2.220  0.00  0.00     0.037 H 
ATOM      3  H   LIG d   1       6.599  -2.008  -3.458  0.00  0.00     0.037 H 
ENDROOT
BRANCH   1   4
ATOM      4  C   LIG d   1       4.882  -0.741  -3.158  0.00  0.00     0.029 C 
BRANCH   4   5
ATOM      5  C   LIG d   1       4.503  -0.060  -1.842  0.00  0.00    -0.013 C 
ATOM      6  H   LIG d   1       4.852   0.973  -1.854  0.00  0.00     0.029 H 
ATOM      7  H   LIG d   1       3.420  -0.076  -1.723  0.00  0.00     0.029 H 
ATOM      8  H   LIG d   1       4.969  -0.591  -1.011  0.00  0.00     0.029 H 
ENDBRANCH   4   5
BRANCH   4   9
ATOM      9  C   LIG d   1       4.171  -2.066  -3.261  0.00  0.00     0.093 C 
ATOM     10  O   LIG d   1       3.537  -2.485  -2.322  0.00  0.00    -0.544 OA
ATOM     11  O   LIG d   1       4.247  -2.783  -4.394  0.00  0.00    -0.544 OA
ENDBRANCH   4   9
BRANCH   4  12
ATOM     12  N   LIG d   1       4.482   0.125  -4.284  0.00  0.00     0.233 N 
ATOM     13  H   LIG d   1       4.616  -0.383  -5.166  0.00  0.00     0.202 HD
ATOM     14  H   LIG d   1       5.064   0.971  -4.284  0.00  0.00     0.202 HD
BRANCH  12  15
ATOM     15  C   LIG d   1       3.064   0.509  -4.155  0.00  0.00    -0.044 C 
ATOM     16  H   LIG d   1       2.679   0.820  -5.126  0.00  0.00     0.078 H 
ATOM     17  H   LIG d   1       2.486  -0.340  -3.789  0.00  0.00     0.078 H 
ATOM     18  H   LIG d   1       2.980   1.336  -3.449  0.00  0.00     0.078 H 
ENDBRANCH  12  15
ENDBRANCH   4  12
ENDBRANCH   1   4
BRANCH   1  19
ATOM     19  C   LIG d   1       7.013  -0.062  -4.230  0.00  0.00    -0.038 A 
ATOM     20  C   LIG d   1       7.528   1.164  -3.851  0.00  0.00    -0.013 A 
ATOM     21  C   LIG d   1       8.101   1.998  -4.798  0.00  0.00     0.159 A 
ATOM     22  H   LIG d   1       7.487   1.470  -2.815  0.00  0.00     0.066 H 
ATOM     23  C   LIG d   1       8.148   1.603  -6.131  0.00  0.00     0.158 A 
ATOM     24  C   LIG d   1       7.625   0.375  -6.506  0.00  0.00    -0.016 A 
ATOM     25  C   LIG d   1       7.059  -0.454  -5.555  0.00  0.00    -0.055 A 
ATOM     26  H   LIG d   1       7.660   0.066  -7.539  0.00  0.00     0.066 H 
ATOM     27  H   LIG d   1       6.652  -1.411  -5.848  0.00  0.00     0.062 H 
BRANCH  21  28
ATOM     28  O   LIG d   1       8.614   3.201  -4.425  0.00  0.00    -0.503 OA
ATOM     29  H   LIG d   1       9.568   3.190  -4.267  0.00  0.00     0.292 HD
ENDBRANCH  21  28
BRANCH  23  30
ATOM     30  O   LIG d   1       8.706   2.420  -7.065  0.00  0.00    -0.503 OA
ATOM     31  H   LIG d   1       8.125   2.613  -7.814  0.00  0.00     0.292 HD
ENDBRANCH  23  30
ENDBRANCH   1  19
TORSDOF 8
ENDMDL
MODEL 8
REMARK VINA RESULT:      -4.4      3.555      4.604
REMARK  8 active torsions:
REMARK  status: ('A' for Active; 'I' for Inactive)
REMARK    1  A    between atoms: C_1  and  C_2 
REMARK    2  A    between atoms: C_2  and  C_3 
REMARK    3  A    between atoms: C_2  and  C_12 
REMARK    4  A    between atoms: C_2  and  N_29 
REMARK    5  A    between atoms: C_3  and  C_4 
REMARK    6  A    between atoms: C_7  and  O_11 
REMARK    7  A    between atoms: C_8  and  O_10 
REMARK    8  A    between atoms: C_14  and  N_29 
ROOT
ATOM      1  C   LIG d   1       4.380  -1.293  -5.683  0.00  0.00     0.024 C 
ATOM      2  H   LIG d   1       5.193  -1.987  -5.897  0.00  0.00     0.037 H 
ATOM      3  H   LIG d   1       3.448  -1.848  -5.574  0.00  0.00     0.037 H 
ENDROOT
BRANCH   1   4
ATOM      4  C   LIG d   1       4.680  -0.541  -4.385  0.00  0.00     0.029 C 
BRANCH   4   5
ATOM      5  C   LIG d   1       5.196  -1.525  -3.332  0.00  0.00    -0.013 C 
ATOM      6  H   LIG d   1       4.684  -1.347  -2.387  0.00  0.00     0.029 H 
ATOM      7  H   LIG d   1       5.003  -2.546  -3.664  0.00  0.00     0.029 H 
ATOM      8  H   LIG d   1       6.269  -1.383  -3.198  0.00  0.00     0.029 H 
ENDBRANCH   4   5
BRANCH   4   9
ATOM      9  C   LIG d   1       3.421   0.117  -3.883  0.00  0.00     0.093 C 
ATOM     10  O   LIG d   1       2.465  -0.559  -3.582  0.00  0.00    -0.544 OA
ATOM     11  O   LIG d   1       3.358   1.453  -3.775  0.00  0.00    -0.544 OA
ENDBRANCH   4   9
BRANCH   4  12
ATOM     12  N   LIG d   1       5.710   0.485  -4.633  0.00  0.00     0.233 N 
ATOM     13  H   LIG d   1       5.277   1.415  -4.602  0.00  0.00     0.202 HD
ATOM     14  H   LIG d   1       6.125   0.331  -5.560  0.00  0.00     0.202 HD
BRANCH  12  15
ATOM     15  C   LIG d   1       6.768   0.408  -3.608  0.00  0.00    -0.044 C 
ATOM     16  H   LIG d   1       7.422  -0.438  -3.818  0.00  0.00     0.078 H 
ATOM     17  H   LIG d   1       7.351   1.329  -3.614  0.00  0.00     0.078 H 
ATOM     18  H   LIG d   1       6.307   0.276  -2.628  0.00  0.00     0.078 H 
ENDBRANCH  12  15
ENDBRANCH   4  12
ENDBRANCH   1   4
BRANCH   1  19
ATOM     19  C   LIG d   1       4.250  -0.308  -6.815  0.00  0.00    -0.038 A 
ATOM     20  C   LIG d   1       5.352   0.000  -7.592  0.00  0.00    -0.013 A 
ATOM     21  C   LIG d   1       5.232   0.902  -8.637  0.00  0.00     0.159 A 
ATOM     22  H   LIG d   1       6.305  -0.465  -7.386  0.00  0.00     0.066 H 
ATOM     23  C   LIG d   1       4.004   1.503  -8.897  0.00  0.00     0.158 A 
ATOM     24  C   LIG d   1       2.905   1.194  -8.111  0.00  0.00    -0.016 A 
ATOM     25  C   LIG d   1       3.030   0.290  -7.074  0.00  0.00    -0.055 A 
ATOM     26  H   LIG d   1       1.952   1.659  -8.310  0.00  0.00     0.066 H 
ATOM     27  H   LIG d   1       2.173   0.049  -6.462  0.00  0.00     0.062 H 
BRANCH  21  28
ATOM     28  O   LIG d   1       6.314   1.202  -9.405  0.00  0.00    -0.503 OA
ATOM     29  H   LIG d   1       6.117   1.275 -10.350  0.00  0.00     0.292 HD
ENDBRANCH  21  28
BRANCH  23  30
ATOM     30  O   LIG d   1       3.884   2.393  -9.919  0.00  0.00    -0.503 OA
ATOM     31  H   LIG d   1       4.144   3.295  -9.686  0.00  0.00     0.292 HD
ENDBRANCH  23  30
ENDBRANCH   1  19
TORSDOF 8
ENDMDL
MODEL 9
REMARK VINA RESULT:      -4.4      9.973     12.204
REMARK  8 active torsions:
REMARK  status: ('A' for Active; 'I' for Inactive)
REMARK    1  A    between atoms: C_1  and  C_2 
REMARK    2  A    between atoms: C_2  and  C_3 
REMARK    3  A    between atoms: C_2  and  C_12 
REMARK    4  A    between atoms: C_2  and  N_29 
REMARK    5  A    between atoms: C_3  and  C_4 
REMARK    6  A    between atoms: C_7  and  O_11 
REMARK    7  A    between atoms: C_8  and  O_10 
REMARK    8  A    between atoms: C_14  and  N_29 
ROOT
ATOM      1  C   LIG d   1       8.738   9.300  -0.875  0.00  0.00     0.024 C 
ATOM      2  H   LIG d   1       8.698   9.677   0.147  0.00  0.00     0.037 H 
ATOM      3  H   LIG d   1       7.725   9.133  -1.241  0.00  0.00     0.037 H 
ENDROOT
BRANCH   1   4
ATOM      4  C   LIG d   1       9.441  10.323  -1.769  0.00  0.00     0.029 C 
BRANCH   4   5
ATOM      5  C   LIG d   1      10.243   9.592  -2.848  0.00  0.00    -0.013 C 
ATOM      6  H   LIG d   1      10.397  10.256  -3.698  0.00  0.00     0.029 H 
ATOM      7  H   LIG d   1      11.209   9.291  -2.442  0.00  0.00     0.029 H 
ATOM      8  H   LIG d   1       9.693   8.708  -3.171  0.00  0.00     0.029 H 
ENDBRANCH   4   5
BRANCH   4   9
ATOM      9  C   LIG d   1      10.373  11.164  -0.934  0.00  0.00     0.093 C 
ATOM     10  O   LIG d   1      11.393  11.597  -1.417  0.00  0.00    -0.544 OA
ATOM     11  O   LIG d   1      10.073  11.427   0.348  0.00  0.00    -0.544 OA
ENDBRANCH   4   9
BRANCH   4  12
ATOM     12  N   LIG d   1       8.438  11.189  -2.415  0.00  0.00     0.233 N 
ATOM     13  H   LIG d   1       8.385  12.082  -1.911  0.00  0.00     0.202 HD
ATOM     14  H   LIG d   1       7.522  10.726  -2.388  0.00  0.00     0.202 HD
BRANCH  12  15
ATOM     15  C   LIG d   1       8.811  11.447  -3.819  0.00  0.00    -0.044 C 
ATOM     16  H   LIG d   1       9.411  10.619  -4.197  0.00  0.00     0.078 H 
ATOM     17  H   LIG d   1       7.911  11.549  -4.424  0.00  0.00     0.078 H 
ATOM     18  H   LIG d   1       9.391  12.369  -3.872  0.00  0.00     0.078 H 
ENDBRANCH  12  15
ENDBRANCH   4  12
ENDBRANCH   1   4
BRANCH   1  19
ATOM     19  C   LIG d   1       9.502   8.001  -0.901  0.00  0.00    -0.038 A 
ATOM     20  C   LIG d   1      10.488   7.763   0.038  0.00  0.00    -0.013 A 
ATOM     21  C   LIG d   1      11.188   6.566   0.019  0.00  0.00     0.159 A 
ATOM     22  H   LIG d   1      10.710   8.506   0.790  0.00  0.00     0.066 H 
ATOM     23  C   LIG d   1      10.903   5.612  -0.952  0.00  0.00     0.158 A 
ATOM     24  C   LIG d   1       9.917   5.860  -1.895  0.00  0.00    -0.016 A 
ATOM     25  C   LIG d   1       9.219   7.053  -1.867  0.00  0.00    -0.055 A 
ATOM     26  H   LIG d   1       9.694   5.122  -2.649  0.00  0.00     0.066 H 
ATOM     27  H   LIG d   1       8.451   7.246  -2.601  0.00  0.00     0.062 H 
BRANCH  21  28
ATOM     28  O   LIG d   1      12.154   6.328   0.946  0.00  0.00    -0.503 OA
ATOM     29  H   LIG d   1      12.536   5.440   0.897  0.00  0.00     0.292 HD
ENDBRANCH  21  28
BRANCH  23  30
ATOM     30  O   LIG d   1      11.591   4.439  -0.978  0.00  0.00    -0.503 OA
ATOM     31  H   LIG d   1      11.592   4.003  -1.841  0.00  0.00     0.292 HD
ENDBRANCH  23  30
ENDBRANCH   1  19
TORSDOF 8
ENDMDL
