MODEL 1
REMARK VINA RESULT:      -5.8      0.000      0.000
REMARK  15 active torsions:
REMARK  status: ('A' for Active; 'I' for Inactive)
REMARK    1  A    between atoms: C_4  and  C_7 
REMARK    2  A    between atoms: C_7  and  O_8 
REMARK    3  A    between atoms: O_8  and  C_9 
REMARK    4  A    between atoms: C_9  and  C_11 
REMARK    5  A    between atoms: C_11  and  C_12 
REMARK    6  A    between atoms: C_12  and  C_13 
REMARK    7  A    between atoms: C_13  and  C_14 
REMARK    8  A    between atoms: C_14  and  C_15 
REMARK    9  A    between atoms: C_15  and  C_16 
REMARK   10  A    between atoms: C_16  and  C_17 
REMARK   11  A    between atoms: C_17  and  C_18 
REMARK   12  A    between atoms: C_18  and  C_19 
REMARK   13  A    between atoms: C_19  and  O_21 
REMARK   14  A    between atoms: O_21  and  C_22 
REMARK   15  A    between atoms: C_22  and  C_23 
ROOT
ATOM      1  C   LIG d   1       5.534  -1.929  -9.702  0.00  0.00    -0.053 C 
ATOM      2  H   LIG d   1       5.956  -1.981  -8.699  0.00  0.00     0.026 H 
ATOM      3  H   LIG d   1       6.341  -1.857 -10.431  0.00  0.00     0.026 H 
ENDROOT
BRANCH   1   4
ATOM      4  C   LIG d   1       4.712  -3.190  -9.976  0.00  0.00    -0.053 C 
ATOM      5  H   LIG d   1       5.038  -3.640 -10.913  0.00  0.00     0.026 H 
ATOM      6  H   LIG d   1       3.657  -2.927 -10.048  0.00  0.00     0.026 H 
BRANCH   4   7
ATOM      7  C   LIG d   1       4.912  -4.187  -8.834  0.00  0.00    -0.043 C 
ATOM      8  H   LIG d   1       5.673  -3.809  -8.150  0.00  0.00     0.027 H 
ATOM      9  H   LIG d   1       5.234  -5.146  -9.240  0.00  0.00     0.027 H 
BRANCH   7  10
ATOM     10  C   LIG d   1       3.594  -4.369  -8.077  0.00  0.00     0.045 C 
ATOM     11  H   LIG d   1       2.936  -5.024  -8.649  0.00  0.00     0.038 H 
ATOM     12  H   LIG d   1       3.114  -3.400  -7.944  0.00  0.00     0.038 H 
BRANCH  10  13
ATOM     13  C   LIG d   1       3.868  -4.985  -6.730  0.00  0.00     0.307 C 
ATOM     14  O   LIG d   1       3.880  -6.187  -6.606  0.00  0.00    -0.251 OA
BRANCH  13  15
ATOM     15  O   LIG d   1       4.099  -4.198  -5.667  0.00  0.00    -0.460 OA
BRANCH  15  16
ATOM     16  C   LIG d   1       5.449  -4.190  -5.133  0.00  0.00     0.117 C 
ATOM     17  H   LIG d   1       6.104  -4.757  -5.794  0.00  0.00     0.075 H 
ATOM     18  H   LIG d   1       5.450  -4.643  -4.142  0.00  0.00     0.075 H 
BRANCH  16  19
ATOM     19  C   LIG d   1       5.941  -2.769  -5.035  0.00  0.00    -0.010 A 
ATOM     20  C   LIG d   1       6.813  -2.407  -4.025  0.00  0.00    -0.055 A 
ATOM     21  C   LIG d   1       7.265  -1.104  -3.935  0.00  0.00    -0.061 A 
ATOM     22  H   LIG d   1       7.141  -3.143  -3.306  0.00  0.00     0.062 H 
ATOM     23  C   LIG d   1       6.844  -0.162  -4.856  0.00  0.00    -0.062 A 
ATOM     24  H   LIG d   1       7.946  -0.822  -3.147  0.00  0.00     0.062 H 
ATOM     25  C   LIG d   1       5.973  -0.523  -5.866  0.00  0.00    -0.061 A 
ATOM     26  H   LIG d   1       7.198   0.856  -4.785  0.00  0.00     0.062 H 
ATOM     27  C   LIG d   1       5.525  -1.827  -5.958  0.00  0.00    -0.055 A 
ATOM     28  H   LIG d   1       5.644   0.213  -6.585  0.00  0.00     0.062 H 
ATOM     29  H   LIG d   1       4.847  -2.111  -6.750  0.00  0.00     0.062 H 
ENDBRANCH  16  19
ENDBRANCH  15  16
ENDBRANCH  13  15
ENDBRANCH  10  13
ENDBRANCH   7  10
ENDBRANCH   4   7
ENDBRANCH   1   4
BRANCH   1  30
ATOM     30  C   LIG d   1       4.633  -0.698  -9.814  0.00  0.00    -0.053 C 
ATOM     31  H   LIG d   1       4.725  -0.098  -8.907  0.00  0.00     0.026 H 
ATOM     32  H   LIG d   1       4.936  -0.102 -10.675  0.00  0.00     0.026 H 
BRANCH  30  33
ATOM     33  C   LIG d   1       3.180  -1.142  -9.987  0.00  0.00    -0.053 C 
ATOM     34  H   LIG d   1       2.903  -1.076 -11.039  0.00  0.00     0.026 H 
ATOM     35  H   LIG d   1       3.072  -2.172  -9.646  0.00  0.00     0.026 H 
BRANCH  33  36
ATOM     36  C   LIG d   1       2.267  -0.234  -9.160  0.00  0.00    -0.043 C 
ATOM     37  H   LIG d   1       2.348   0.791  -9.523  0.00  0.00     0.027 H 
ATOM     38  H   LIG d   1       1.235  -0.572  -9.256  0.00  0.00     0.027 H 
BRANCH  36  39
ATOM     39  C   LIG d   1       2.688  -0.289  -7.691  0.00  0.00     0.045 C 
ATOM     40  H   LIG d   1       1.932  -0.825  -7.115  0.00  0.00     0.038 H 
ATOM     41  H   LIG d   1       3.643  -0.807  -7.606  0.00  0.00     0.038 H 
BRANCH  39  42
ATOM     42  C   LIG d   1       2.827   1.112  -7.154  0.00  0.00     0.307 C 
ATOM     43  O   LIG d   1       2.940   2.042  -7.917  0.00  0.00    -0.251 OA
BRANCH  42  44
ATOM     44  O   LIG d   1       2.824   1.328  -5.829  0.00  0.00    -0.460 OA
BRANCH  44  45
ATOM     45  C   LIG d   1       2.128   0.357  -5.004  0.00  0.00     0.117 C 
ATOM     46  H   LIG d   1       1.176   0.775  -4.677  0.00  0.00     0.075 H 
ATOM     47  H   LIG d   1       1.948  -0.549  -5.584  0.00  0.00     0.075 H 
BRANCH  45  48
ATOM     48  C   LIG d   1       2.971   0.023  -3.800  0.00  0.00    -0.010 A 
ATOM     49  C   LIG d   1       3.028  -1.279  -3.337  0.00  0.00    -0.055 A 
ATOM     50  C   LIG d   1       3.802  -1.586  -2.233  0.00  0.00    -0.061 A 
ATOM     51  H   LIG d   1       2.471  -2.056  -3.838  0.00  0.00     0.062 H 
ATOM     52  C   LIG d   1       4.517  -0.590  -1.592  0.00  0.00    -0.062 A 
ATOM     53  H   LIG d   1       3.848  -2.602  -1.871  0.00  0.00     0.062 H 
ATOM     54  C   LIG d   1       4.458   0.710  -2.055  0.00  0.00    -0.061 A 
ATOM     55  H   LIG d   1       5.121  -0.830  -0.729  0.00  0.00     0.062 H 
ATOM     56  C   LIG d   1       3.690   1.016  -3.163  0.00  0.00    -0.055 A 
ATOM     57  H   LIG d   1       5.018   1.487  -1.555  0.00  0.00     0.062 H 
ATOM     58  H   LIG d   1       3.647   2.031  -3.527  0.00  0.00     0.062 H 
ENDBRANCH  45  48
ENDBRANCH  44  45
ENDBRANCH  42  44
ENDBRANCH  39  42
ENDBRANCH  36  39
ENDBRANCH  33  36
ENDBRANCH  30  33
ENDBRANCH   1  30
TORSDOF 15
ENDMDL
MODEL 2
REMARK VINA RESULT:      -5.6      1.142      4.667
REMARK  15 active torsions:
REMARK  status: ('A' for Active; 'I' for Inactive)
REMARK    1  A    between atoms: C_4  and  C_7 
REMARK    2  A    between atoms: C_7  and  O_8 
REMARK    3  A    between atoms: O_8  and  C_9 
REMARK    4  A    between atoms: C_9  and  C_11 
REMARK    5  A    between atoms: C_11  and  C_12 
REMARK    6  A    between atoms: C_12  and  C_13 
REMARK    7  A    between atoms: C_13  and  C_14 
REMARK    8  A    between atoms: C_14  and  C_15 
REMARK    9  A    between atoms: C_15  and  C_16 
REMARK   10  A    between atoms: C_16  and  C_17 
REMARK   11  A    between atoms: C_17  and  C_18 
REMARK   12  A    between atoms: C_18  and  C_19 
REMARK   13  A    between atoms: C_19  and  O_21 
REMARK   14  A    between atoms: O_21  and  C_22 
REMARK   15  A    between atoms: C_22  and  C_23 
ROOT
ATOM      1  C   LIG d   1       3.765  -0.175 -11.723  0.00  0.00    -0.053 C 
ATOM      2  H   LIG d   1       3.539   0.114 -12.749  0.00  0.00     0.026 H 
ATOM      3  H   LIG d   1       4.700  -0.736 -11.703  0.00  0.00     0.026 H 
ENDROOT
BRANCH   1   4
ATOM      4  C   LIG d   1       3.905   1.079 -10.859  0.00  0.00    -0.053 C 
ATOM      5  H   LIG d   1       3.710   1.963 -11.467  0.00  0.00     0.026 H 
ATOM      6  H   LIG d   1       4.916   1.132 -10.456  0.00  0.00     0.026 H 
BRANCH   4   7
ATOM      7  C   LIG d   1       2.900   1.020  -9.707  0.00  0.00    -0.043 C 
ATOM      8  H   LIG d   1       2.490   0.013  -9.635  0.00  0.00     0.027 H 
ATOM      9  H   LIG d   1       2.093   1.729  -9.892  0.00  0.00     0.027 H 
BRANCH   7  10
ATOM     10  C   LIG d   1       3.605   1.379  -8.396  0.00  0.00     0.045 C 
ATOM     11  H   LIG d   1       3.500   2.448  -8.209  0.00  0.00     0.038 H 
ATOM     12  H   LIG d   1       4.662   1.125  -8.470  0.00  0.00     0.038 H 
BRANCH  10  13
ATOM     13  C   LIG d   1       2.980   0.606  -7.264  0.00  0.00     0.307 C 
ATOM     14  O   LIG d   1       2.385  -0.421  -7.489  0.00  0.00    -0.251 OA
BRANCH  13  15
ATOM     15  O   LIG d   1       3.085   1.059  -6.004  0.00  0.00    -0.460 OA
BRANCH  15  16
ATOM     16  C   LIG d   1       2.204   0.466  -5.014  0.00  0.00     0.117 C 
ATOM     17  H   LIG d   1       1.725  -0.417  -5.438  0.00  0.00     0.075 H 
ATOM     18  H   LIG d   1       1.442   1.190  -4.726  0.00  0.00     0.075 H 
BRANCH  16  19
ATOM     19  C   LIG d   1       3.005   0.071  -3.801  0.00  0.00    -0.010 A 
ATOM     20  C   LIG d   1       3.093  -1.258  -3.432  0.00  0.00    -0.055 A 
ATOM     21  C   LIG d   1       3.827  -1.620  -2.319  0.00  0.00    -0.061 A 
ATOM     22  H   LIG d   1       2.587  -2.014  -4.015  0.00  0.00     0.062 H 
ATOM     23  C   LIG d   1       4.475  -0.651  -1.574  0.00  0.00    -0.062 A 
ATOM     24  H   LIG d   1       3.897  -2.658  -2.031  0.00  0.00     0.062 H 
ATOM     25  C   LIG d   1       4.387   0.678  -1.942  0.00  0.00    -0.061 A 
ATOM     26  H   LIG d   1       5.049  -0.935  -0.703  0.00  0.00     0.062 H 
ATOM     27  C   LIG d   1       3.656   1.039  -3.058  0.00  0.00    -0.055 A 
ATOM     28  H   LIG d   1       4.892   1.434  -1.359  0.00  0.00     0.062 H 
ATOM     29  H   LIG d   1       3.591   2.077  -3.348  0.00  0.00     0.062 H 
ENDBRANCH  16  19
ENDBRANCH  15  16
ENDBRANCH  13  15
ENDBRANCH  10  13
ENDBRANCH   7  10
ENDBRANCH   4   7
ENDBRANCH   1   4
BRANCH   1  30
ATOM     30  C   LIG d   1       2.634  -1.048 -11.177  0.00  0.00    -0.053 C 
ATOM     31  H   LIG d   1       2.307  -0.657 -10.213  0.00  0.00     0.026 H 
ATOM     32  H   LIG d   1       1.797  -1.036 -11.875  0.00  0.00     0.026 H 
BRANCH  30  33
ATOM     33  C   LIG d   1       3.133  -2.483 -11.004  0.00  0.00    -0.053 C 
ATOM     34  H   LIG d   1       2.618  -3.135 -11.709  0.00  0.00     0.026 H 
ATOM     35  H   LIG d   1       4.207  -2.520 -11.194  0.00  0.00     0.026 H 
BRANCH  33  36
ATOM     36  C   LIG d   1       2.853  -2.952  -9.576  0.00  0.00    -0.043 C 
ATOM     37  H   LIG d   1       3.081  -2.148  -8.877  0.00  0.00     0.027 H 
ATOM     38  H   LIG d   1       1.801  -3.225  -9.483  0.00  0.00     0.027 H 
BRANCH  36  39
ATOM     39  C   LIG d   1       3.725  -4.168  -9.257  0.00  0.00     0.045 C 
ATOM     40  H   LIG d   1       3.282  -5.060  -9.703  0.00  0.00     0.038 H 
ATOM     41  H   LIG d   1       4.724  -4.015  -9.666  0.00  0.00     0.038 H 
BRANCH  39  42
ATOM     42  C   LIG d   1       3.815  -4.345  -7.763  0.00  0.00     0.307 C 
ATOM     43  O   LIG d   1       3.394  -5.354  -7.249  0.00  0.00    -0.251 OA
BRANCH  42  44
ATOM     44  O   LIG d   1       4.362  -3.383  -7.004  0.00  0.00    -0.460 OA
BRANCH  44  45
ATOM     45  C   LIG d   1       5.282  -3.807  -5.964  0.00  0.00     0.117 C 
ATOM     46  H   LIG d   1       4.735  -4.353  -5.196  0.00  0.00     0.075 H 
ATOM     47  H   LIG d   1       6.045  -4.454  -6.397  0.00  0.00     0.075 H 
BRANCH  45  48
ATOM     48  C   LIG d   1       5.939  -2.597  -5.349  0.00  0.00    -0.010 A 
ATOM     49  C   LIG d   1       5.787  -1.356  -5.939  0.00  0.00    -0.055 A 
ATOM     50  C   LIG d   1       6.389  -0.245  -5.375  0.00  0.00    -0.061 A 
ATOM     51  H   LIG d   1       5.198  -1.252  -6.838  0.00  0.00     0.062 H 
ATOM     52  C   LIG d   1       7.142  -0.378  -4.224  0.00  0.00    -0.062 A 
ATOM     53  H   LIG d   1       6.271   0.724  -5.835  0.00  0.00     0.062 H 
ATOM     54  C   LIG d   1       7.294  -1.620  -3.636  0.00  0.00    -0.061 A 
ATOM     55  H   LIG d   1       7.612   0.489  -3.784  0.00  0.00     0.062 H 
ATOM     56  C   LIG d   1       6.687  -2.728  -4.196  0.00  0.00    -0.055 A 
ATOM     57  H   LIG d   1       7.882  -1.723  -2.735  0.00  0.00     0.062 H 
ATOM     58  H   LIG d   1       6.802  -3.698  -3.734  0.00  0.00     0.062 H 
ENDBRANCH  45  48
ENDBRANCH  44  45
ENDBRANCH  42  44
ENDBRANCH  39  42
ENDBRANCH  36  39
ENDBRANCH  33  36
ENDBRANCH  30  33
ENDBRANCH   1  30
TORSDOF 15
ENDMDL
MODEL 3
REMARK VINA RESULT:      -5.5      1.481      5.605
REMARK  15 active torsions:
REMARK  status: ('A' for Active; 'I' for Inactive)
REMARK    1  A    between atoms: C_4  and  C_7 
REMARK    2  A    between atoms: C_7  and  O_8 
REMARK    3  A    between atoms: O_8  and  C_9 
REMARK    4  A    between atoms: C_9  and  C_11 
REMARK    5  A    between atoms: C_11  and  C_12 
REMARK    6  A    between atoms: C_12  and  C_13 
REMARK    7  A    between atoms: C_13  and  C_14 
REMARK    8  A    between atoms: C_14  and  C_15 
REMARK    9  A    between atoms: C_15  and  C_16 
REMARK   10  A    between atoms: C_16  and  C_17 
REMARK   11  A    between atoms: C_17  and  C_18 
REMARK   12  A    between atoms: C_18  and  C_19 
REMARK   13  A    between atoms: C_19  and  O_21 
REMARK   14  A    between atoms: O_21  and  C_22 
REMARK   15  A    between atoms: C_22  and  C_23 
ROOT
ATOM      1  C   LIG d   1       6.227  -1.779  -3.288  0.00  0.00    -0.053 C 
ATOM      2  H   LIG d   1       6.975  -2.257  -2.656  0.00  0.00     0.026 H 
ATOM      3  H   LIG d   1       6.421  -0.708  -3.333  0.00  0.00     0.026 H 
ENDROOT
BRANCH   1   4
ATOM      4  C   LIG d   1       6.298  -2.369  -4.697  0.00  0.00    -0.053 C 
ATOM      5  H   LIG d   1       7.236  -2.912  -4.817  0.00  0.00     0.026 H 
ATOM      6  H   LIG d   1       6.249  -1.565  -5.431  0.00  0.00     0.026 H 
BRANCH   4   7
ATOM      7  C   LIG d   1       5.124  -3.326  -4.910  0.00  0.00    -0.043 C 
ATOM      8  H   LIG d   1       4.204  -2.752  -5.024  0.00  0.00     0.027 H 
ATOM      9  H   LIG d   1       5.034  -3.989  -4.049  0.00  0.00     0.027 H 
BRANCH   7  10
ATOM     10  C   LIG d   1       5.365  -4.158  -6.172  0.00  0.00     0.045 C 
ATOM     11  H   LIG d   1       5.876  -5.083  -5.904  0.00  0.00     0.038 H 
ATOM     12  H   LIG d   1       5.983  -3.591  -6.869  0.00  0.00     0.038 H 
BRANCH  10  13
ATOM     13  C   LIG d   1       4.044  -4.482  -6.820  0.00  0.00     0.307 C 
ATOM     14  O   LIG d   1       3.450  -5.487  -6.509  0.00  0.00    -0.251 OA
BRANCH  13  15
ATOM     15  O   LIG d   1       3.528  -3.655  -7.743  0.00  0.00    -0.460 OA
BRANCH  15  16
ATOM     16  C   LIG d   1       4.100  -3.715  -9.076  0.00  0.00     0.117 C 
ATOM     17  H   LIG d   1       3.851  -4.671  -9.536  0.00  0.00     0.075 H 
ATOM     18  H   LIG d   1       5.183  -3.614  -9.010  0.00  0.00     0.075 H 
BRANCH  16  19
ATOM     19  C   LIG d   1       3.541  -2.593  -9.913  0.00  0.00    -0.010 A 
ATOM     20  C   LIG d   1       4.342  -1.963 -10.846  0.00  0.00    -0.055 A 
ATOM     21  C   LIG d   1       3.830  -0.934 -11.615  0.00  0.00    -0.061 A 
ATOM     22  H   LIG d   1       5.368  -2.274 -10.977  0.00  0.00     0.062 H 
ATOM     23  C   LIG d   1       2.516  -0.536 -11.449  0.00  0.00    -0.062 A 
ATOM     24  H   LIG d   1       4.454  -0.441 -12.344  0.00  0.00     0.062 H 
ATOM     25  C   LIG d   1       1.715  -1.167 -10.515  0.00  0.00    -0.061 A 
ATOM     26  H   LIG d   1       2.116   0.268 -12.049  0.00  0.00     0.062 H 
ATOM     27  C   LIG d   1       2.226  -2.198  -9.751  0.00  0.00    -0.055 A 
ATOM     28  H   LIG d   1       0.689  -0.856 -10.385  0.00  0.00     0.062 H 
ATOM     29  H   LIG d   1       1.599  -2.695  -9.024  0.00  0.00     0.062 H 
ENDBRANCH  16  19
ENDBRANCH  15  16
ENDBRANCH  13  15
ENDBRANCH  10  13
ENDBRANCH   7  10
ENDBRANCH   4   7
ENDBRANCH   1   4
BRANCH   1  30
ATOM     30  C   LIG d   1       4.834  -2.022  -2.702  0.00  0.00    -0.053 C 
ATOM     31  H   LIG d   1       4.093  -1.981  -3.501  0.00  0.00     0.026 H 
ATOM     32  H   LIG d   1       4.805  -3.003  -2.229  0.00  0.00     0.026 H 
BRANCH  30  33
ATOM     33  C   LIG d   1       4.523  -0.945  -1.662  0.00  0.00    -0.053 C 
ATOM     34  H   LIG d   1       3.913  -1.373  -0.867  0.00  0.00     0.026 H 
ATOM     35  H   LIG d   1       5.456  -0.567  -1.240  0.00  0.00     0.026 H 
BRANCH  33  36
ATOM     36  C   LIG d   1       3.762   0.203  -2.327  0.00  0.00    -0.043 C 
ATOM     37  H   LIG d   1       3.212   0.762  -1.571  0.00  0.00     0.027 H 
ATOM     38  H   LIG d   1       4.470   0.867  -2.827  0.00  0.00     0.027 H 
BRANCH  36  39
ATOM     39  C   LIG d   1       2.782  -0.363  -3.356  0.00  0.00     0.045 C 
ATOM     40  H   LIG d   1       3.121  -1.349  -3.677  0.00  0.00     0.038 H 
ATOM     41  H   LIG d   1       1.793  -0.449  -2.906  0.00  0.00     0.038 H 
BRANCH  39  42
ATOM     42  C   LIG d   1       2.715   0.557  -4.547  0.00  0.00     0.307 C 
ATOM     43  O   LIG d   1       2.962   1.732  -4.416  0.00  0.00    -0.251 OA
BRANCH  42  44
ATOM     44  O   LIG d   1       2.380   0.072  -5.753  0.00  0.00    -0.460 OA
BRANCH  44  45
ATOM     45  C   LIG d   1       3.452  -0.477  -6.564  0.00  0.00     0.117 C 
ATOM     46  H   LIG d   1       4.326  -0.656  -5.937  0.00  0.00     0.075 H 
ATOM     47  H   LIG d   1       3.125  -1.417  -7.008  0.00  0.00     0.075 H 
BRANCH  45  48
ATOM     48  C   LIG d   1       3.807   0.499  -7.656  0.00  0.00    -0.010 A 
ATOM     49  C   LIG d   1       2.848   1.367  -8.144  0.00  0.00    -0.055 A 
ATOM     50  C   LIG d   1       3.173   2.263  -9.147  0.00  0.00    -0.061 A 
ATOM     51  H   LIG d   1       1.846   1.348  -7.742  0.00  0.00     0.062 H 
ATOM     52  C   LIG d   1       4.457   2.289  -9.660  0.00  0.00    -0.062 A 
ATOM     53  H   LIG d   1       2.425   2.941  -9.528  0.00  0.00     0.062 H 
ATOM     54  C   LIG d   1       5.414   1.419  -9.172  0.00  0.00    -0.061 A 
ATOM     55  H   LIG d   1       4.710   2.988 -10.443  0.00  0.00     0.062 H 
ATOM     56  C   LIG d   1       5.091   0.528  -8.166  0.00  0.00    -0.055 A 
ATOM     57  H   LIG d   1       6.417   1.440  -9.573  0.00  0.00     0.062 H 
ATOM     58  H   LIG d   1       5.840  -0.148  -7.782  0.00  0.00     0.062 H 
ENDBRANCH  45  48
ENDBRANCH  44  45
ENDBRANCH  42  44
ENDBRANCH  39  42
ENDBRANCH  36  39
ENDBRANCH  33  36
ENDBRANCH  30  33
ENDBRANCH   1  30
TORSDOF 15
ENDMDL
MODEL 4
REMARK VINA RESULT:      -5.5      4.976      7.110
REMARK  15 active torsions:
REMARK  status: ('A' for Active; 'I' for Inactive)
REMARK    1  A    between atoms: C_4  and  C_7 
REMARK    2  A    between atoms: C_7  and  O_8 
REMARK    3  A    between atoms: O_8  and  C_9 
REMARK    4  A    between atoms: C_9  and  C_11 
REMARK    5  A    between atoms: C_11  and  C_12 
REMARK    6  A    between atoms: C_12  and  C_13 
REMARK    7  A    between atoms: C_13  and  C_14 
REMARK    8  A    between atoms: C_14  and  C_15 
REMARK    9  A    between atoms: C_15  and  C_16 
REMARK   10  A    between atoms: C_16  and  C_17 
REMARK   11  A    between atoms: C_17  and  C_18 
REMARK   12  A    between atoms: C_18  and  C_19 
REMARK   13  A    between atoms: C_19  and  O_21 
REMARK   14  A    between atoms: O_21  and  C_22 
REMARK   15  A    between atoms: C_22  and  C_23 
ROOT
ATOM      1  C   LIG d   1       7.160  -0.804  -4.158  0.00  0.00    -0.053 C 
ATOM      2  H   LIG d   1       8.172  -1.199  -4.066  0.00  0.00     0.026 H 
ATOM      3  H   LIG d   1       6.715  -0.712  -3.167  0.00  0.00     0.026 H 
ENDROOT
BRANCH   1   4
ATOM      4  C   LIG d   1       7.209   0.572  -4.825  0.00  0.00    -0.053 C 
ATOM      5  H   LIG d   1       6.234   0.803  -5.252  0.00  0.00     0.026 H 
ATOM      6  H   LIG d   1       7.960   0.566  -5.615  0.00  0.00     0.026 H 
BRANCH   4   7
ATOM      7  C   LIG d   1       7.574   1.630  -3.783  0.00  0.00    -0.043 C 
ATOM      8  H   LIG d   1       8.049   1.150  -2.927  0.00  0.00     0.027 H 
ATOM      9  H   LIG d   1       6.670   2.144  -3.455  0.00  0.00     0.027 H 
BRANCH   7  10
ATOM     10  C   LIG d   1       8.542   2.643  -4.400  0.00  0.00     0.045 C 
ATOM     11  H   LIG d   1       8.005   3.564  -4.629  0.00  0.00     0.038 H 
ATOM     12  H   LIG d   1       8.962   2.231  -5.318  0.00  0.00     0.038 H 
BRANCH  10  13
ATOM     13  C   LIG d   1       9.652   2.936  -3.425  0.00  0.00     0.307 C 
ATOM     14  O   LIG d   1      10.571   2.161  -3.305  0.00  0.00    -0.251 OA
BRANCH  13  15
ATOM     15  O   LIG d   1       9.619   4.058  -2.688  0.00  0.00    -0.460 OA
BRANCH  15  16
ATOM     16  C   LIG d   1      10.822   4.395  -1.947  0.00  0.00     0.117 C 
ATOM     17  H   LIG d   1      11.668   4.445  -2.632  0.00  0.00     0.075 H 
ATOM     18  H   LIG d   1      11.009   3.632  -1.192  0.00  0.00     0.075 H 
BRANCH  16  19
ATOM     19  C   LIG d   1      10.639   5.732  -1.275  0.00  0.00    -0.010 A 
ATOM     20  C   LIG d   1      11.355   6.034  -0.133  0.00  0.00    -0.055 A 
ATOM     21  C   LIG d   1      11.189   7.260   0.484  0.00  0.00    -0.061 A 
ATOM     22  H   LIG d   1      12.047   5.313   0.278  0.00  0.00     0.062 H 
ATOM     23  C   LIG d   1      10.303   8.183  -0.042  0.00  0.00    -0.062 A 
ATOM     24  H   LIG d   1      11.748   7.497   1.376  0.00  0.00     0.062 H 
ATOM     25  C   LIG d   1       9.586   7.881  -1.185  0.00  0.00    -0.061 A 
ATOM     26  H   LIG d   1      10.173   9.140   0.440  0.00  0.00     0.062 H 
ATOM     27  C   LIG d   1       9.758   6.657  -1.804  0.00  0.00    -0.055 A 
ATOM     28  H   LIG d   1       8.895   8.601  -1.595  0.00  0.00     0.062 H 
ATOM     29  H   LIG d   1       9.201   6.421  -2.699  0.00  0.00     0.062 H 
ENDBRANCH  16  19
ENDBRANCH  15  16
ENDBRANCH  13  15
ENDBRANCH  10  13
ENDBRANCH   7  10
ENDBRANCH   4   7
ENDBRANCH   1   4
BRANCH   1  30
ATOM     30  C   LIG d   1       6.318  -1.755  -5.010  0.00  0.00    -0.053 C 
ATOM     31  H   LIG d   1       6.956  -2.542  -5.415  0.00  0.00     0.026 H 
ATOM     32  H   LIG d   1       5.538  -2.202  -4.393  0.00  0.00     0.026 H 
BRANCH  30  33
ATOM     33  C   LIG d   1       5.674  -0.977  -6.160  0.00  0.00    -0.053 C 
ATOM     34  H   LIG d   1       5.353   0.000  -5.801  0.00  0.00     0.026 H 
ATOM     35  H   LIG d   1       6.402  -0.848  -6.963  0.00  0.00     0.026 H 
BRANCH  33  36
ATOM     36  C   LIG d   1       4.465  -1.752  -6.686  0.00  0.00    -0.043 C 
ATOM     37  H   LIG d   1       4.801  -2.680  -7.150  0.00  0.00     0.027 H 
ATOM     38  H   LIG d   1       3.793  -1.982  -5.859  0.00  0.00     0.027 H 
BRANCH  36  39
ATOM     39  C   LIG d   1       3.727  -0.903  -7.722  0.00  0.00     0.045 C 
ATOM     40  H   LIG d   1       4.439  -0.526  -8.458  0.00  0.00     0.038 H 
ATOM     41  H   LIG d   1       2.976  -1.513  -8.224  0.00  0.00     0.038 H 
BRANCH  39  42
ATOM     42  C   LIG d   1       3.055   0.258  -7.035  0.00  0.00     0.307 C 
ATOM     43  O   LIG d   1       3.190   1.377  -7.470  0.00  0.00    -0.251 OA
BRANCH  42  44
ATOM     44  O   LIG d   1       2.305   0.048  -5.942  0.00  0.00    -0.460 OA
BRANCH  44  45
ATOM     45  C   LIG d   1       2.432   1.009  -4.861  0.00  0.00     0.117 C 
ATOM     46  H   LIG d   1       2.994   1.876  -5.209  0.00  0.00     0.075 H 
ATOM     47  H   LIG d   1       1.440   1.324  -4.538  0.00  0.00     0.075 H 
BRANCH  45  48
ATOM     48  C   LIG d   1       3.159   0.371  -3.704  0.00  0.00    -0.010 A 
ATOM     49  C   LIG d   1       3.946   1.146  -2.873  0.00  0.00    -0.055 A 
ATOM     50  C   LIG d   1       4.613   0.561  -1.811  0.00  0.00    -0.061 A 
ATOM     51  H   LIG d   1       4.040   2.207  -3.050  0.00  0.00     0.062 H 
ATOM     52  C   LIG d   1       4.491  -0.797  -1.582  0.00  0.00    -0.062 A 
ATOM     53  H   LIG d   1       5.227   1.166  -1.161  0.00  0.00     0.062 H 
ATOM     54  C   LIG d   1       3.704  -1.570  -2.415  0.00  0.00    -0.061 A 
ATOM     55  H   LIG d   1       5.012  -1.253  -0.753  0.00  0.00     0.062 H 
ATOM     56  C   LIG d   1       3.033  -0.985  -3.472  0.00  0.00    -0.055 A 
ATOM     57  H   LIG d   1       3.609  -2.631  -2.235  0.00  0.00     0.062 H 
ATOM     58  H   LIG d   1       2.415  -1.588  -4.120  0.00  0.00     0.062 H 
ENDBRANCH  45  48
ENDBRANCH  44  45
ENDBRANCH  42  44
ENDBRANCH  39  42
ENDBRANCH  36  39
ENDBRANCH  33  36
ENDBRANCH  30  33
ENDBRANCH   1  30
TORSDOF 15
ENDMDL
MODEL 5
REMARK VINA RESULT:      -5.5      1.474      6.764
REMARK  15 active torsions:
REMARK  status: ('A' for Active; 'I' for Inactive)
REMARK    1  A    between atoms: C_4  and  C_7 
REMARK    2  A    between atoms: C_7  and  O_8 
REMARK    3  A    between atoms: O_8  and  C_9 
REMARK    4  A    between atoms: C_9  and  C_11 
REMARK    5  A    between atoms: C_11  and  C_12 
REMARK    6  A    between atoms: C_12  and  C_13 
REMARK    7  A    between atoms: C_13  and  C_14 
REMARK    8  A    between atoms: C_14  and  C_15 
REMARK    9  A    between atoms: C_15  and  C_16 
REMARK   10  A    between atoms: C_16  and  C_17 
REMARK   11  A    between atoms: C_17  and  C_18 
REMARK   12  A    between atoms: C_18  and  C_19 
REMARK   13  A    between atoms: C_19  and  O_21 
REMARK   14  A    between atoms: O_21  and  C_22 
REMARK   15  A    between atoms: C_22  and  C_23 
ROOT
ATOM      1  C   LIG d   1       5.015  -1.415  -2.532  0.00  0.00    -0.053 C 
ATOM      2  H   LIG d   1       4.936  -0.337  -2.664  0.00  0.00     0.026 H 
ATOM      3  H   LIG d   1       5.417  -1.631  -1.542  0.00  0.00     0.026 H 
ENDROOT
BRANCH   1   4
ATOM      4  C   LIG d   1       3.629  -2.049  -2.669  0.00  0.00    -0.053 C 
ATOM      5  H   LIG d   1       3.369  -2.557  -1.741  0.00  0.00     0.026 H 
ATOM      6  H   LIG d   1       3.638  -2.769  -3.487  0.00  0.00     0.026 H 
BRANCH   4   7
ATOM      7  C   LIG d   1       2.597  -0.959  -2.961  0.00  0.00    -0.043 C 
ATOM      8  H   LIG d   1       1.972  -0.805  -2.081  0.00  0.00     0.027 H 
ATOM      9  H   LIG d   1       1.973  -1.264  -3.801  0.00  0.00     0.027 H 
BRANCH   7  10
ATOM     10  C   LIG d   1       3.317   0.347  -3.308  0.00  0.00     0.045 C 
ATOM     11  H   LIG d   1       4.388   0.158  -3.394  0.00  0.00     0.038 H 
ATOM     12  H   LIG d   1       3.140   1.080  -2.521  0.00  0.00     0.038 H 
BRANCH  10  13
ATOM     13  C   LIG d   1       2.793   0.877  -4.617  0.00  0.00     0.307 C 
ATOM     14  O   LIG d   1       2.473   2.038  -4.714  0.00  0.00    -0.251 OA
BRANCH  13  15
ATOM     15  O   LIG d   1       2.681   0.060  -5.676  0.00  0.00    -0.460 OA
BRANCH  15  16
ATOM     16  C   LIG d   1       3.905  -0.280  -6.380  0.00  0.00     0.117 C 
ATOM     17  H   LIG d   1       3.923  -1.351  -6.579  0.00  0.00     0.075 H 
ATOM     18  H   LIG d   1       4.763  -0.009  -5.766  0.00  0.00     0.075 H 
BRANCH  16  19
ATOM     19  C   LIG d   1       3.961   0.476  -7.683  0.00  0.00    -0.010 A 
ATOM     20  C   LIG d   1       2.917   1.303  -8.048  0.00  0.00    -0.055 A 
ATOM     21  C   LIG d   1       2.968   1.996  -9.242  0.00  0.00    -0.061 A 
ATOM     22  H   LIG d   1       2.059   1.410  -7.399  0.00  0.00     0.062 H 
ATOM     23  C   LIG d   1       4.066   1.861 -10.073  0.00  0.00    -0.062 A 
ATOM     24  H   LIG d   1       2.153   2.643  -9.528  0.00  0.00     0.062 H 
ATOM     25  C   LIG d   1       5.111   1.033  -9.708  0.00  0.00    -0.061 A 
ATOM     26  H   LIG d   1       4.106   2.402 -11.006  0.00  0.00     0.062 H 
ATOM     27  C   LIG d   1       5.061   0.344  -8.511  0.00  0.00    -0.055 A 
ATOM     28  H   LIG d   1       5.968   0.927 -10.356  0.00  0.00     0.062 H 
ATOM     29  H   LIG d   1       5.879  -0.300  -8.223  0.00  0.00     0.062 H 
ENDBRANCH  16  19
ENDBRANCH  15  16
ENDBRANCH  13  15
ENDBRANCH  10  13
ENDBRANCH   7  10
ENDBRANCH   4   7
ENDBRANCH   1   4
BRANCH   1  30
ATOM     30  C   LIG d   1       5.949  -1.993  -3.598  0.00  0.00    -0.053 C 
ATOM     31  H   LIG d   1       6.253  -1.199  -4.282  0.00  0.00     0.026 H 
ATOM     32  H   LIG d   1       6.832  -2.415  -3.118  0.00  0.00     0.026 H 
BRANCH  30  33
ATOM     33  C   LIG d   1       5.219  -3.088  -4.378  0.00  0.00    -0.053 C 
ATOM     34  H   LIG d   1       5.133  -3.979  -3.757  0.00  0.00     0.026 H 
ATOM     35  H   LIG d   1       4.222  -2.737  -4.650  0.00  0.00     0.026 H 
BRANCH  33  36
ATOM     36  C   LIG d   1       6.006  -3.422  -5.645  0.00  0.00    -0.043 C 
ATOM     37  H   LIG d   1       5.860  -2.634  -6.384  0.00  0.00     0.027 H 
ATOM     38  H   LIG d   1       7.067  -3.501  -5.404  0.00  0.00     0.027 H 
BRANCH  36  39
ATOM     39  C   LIG d   1       5.513  -4.753  -6.216  0.00  0.00     0.045 C 
ATOM     40  H   LIG d   1       6.205  -5.098  -6.986  0.00  0.00     0.038 H 
ATOM     41  H   LIG d   1       5.460  -5.493  -5.418  0.00  0.00     0.038 H 
BRANCH  39  42
ATOM     42  C   LIG d   1       4.145  -4.565  -6.820  0.00  0.00     0.307 C 
ATOM     43  O   LIG d   1       3.260  -5.348  -6.566  0.00  0.00    -0.251 OA
BRANCH  42  44
ATOM     44  O   LIG d   1       3.908  -3.529  -7.639  0.00  0.00    -0.460 OA
BRANCH  44  45
ATOM     45  C   LIG d   1       4.263  -3.697  -9.036  0.00  0.00     0.117 C 
ATOM     46  H   LIG d   1       5.331  -3.519  -9.163  0.00  0.00     0.075 H 
ATOM     47  H   LIG d   1       4.024  -4.713  -9.352  0.00  0.00     0.075 H 
BRANCH  45  48
ATOM     48  C   LIG d   1       3.486  -2.714  -9.875  0.00  0.00    -0.010 A 
ATOM     49  C   LIG d   1       2.266  -2.240  -9.429  0.00  0.00    -0.055 A 
ATOM     50  C   LIG d   1       1.553  -1.338 -10.198  0.00  0.00    -0.061 A 
ATOM     51  H   LIG d   1       1.871  -2.571  -8.481  0.00  0.00     0.062 H 
ATOM     52  C   LIG d   1       2.060  -0.913 -11.412  0.00  0.00    -0.062 A 
ATOM     53  H   LIG d   1       0.601  -0.967  -9.851  0.00  0.00     0.062 H 
ATOM     54  C   LIG d   1       3.279  -1.388 -11.856  0.00  0.00    -0.061 A 
ATOM     55  H   LIG d   1       1.503  -0.209 -12.012  0.00  0.00     0.062 H 
ATOM     56  C   LIG d   1       3.995  -2.285 -11.085  0.00  0.00    -0.055 A 
ATOM     57  H   LIG d   1       3.675  -1.055 -12.804  0.00  0.00     0.062 H 
ATOM     58  H   LIG d   1       4.949  -2.653 -11.431  0.00  0.00     0.062 H 
ENDBRANCH  45  48
ENDBRANCH  44  45
ENDBRANCH  42  44
ENDBRANCH  39  42
ENDBRANCH  36  39
ENDBRANCH  33  36
ENDBRANCH  30  33
ENDBRANCH   1  30
TORSDOF 15
ENDMDL
MODEL 6
REMARK VINA RESULT:      -5.4      2.184      6.242
REMARK  15 active torsions:
REMARK  status: ('A' for Active; 'I' for Inactive)
REMARK    1  A    between atoms: C_4  and  C_7 
REMARK    2  A    between atoms: C_7  and  O_8 
REMARK    3  A    between atoms: O_8  and  C_9 
REMARK    4  A    between atoms: C_9  and  C_11 
REMARK    5  A    between atoms: C_11  and  C_12 
REMARK    6  A    between atoms: C_12  and  C_13 
REMARK    7  A    between atoms: C_13  and  C_14 
REMARK    8  A    between atoms: C_14  and  C_15 
REMARK    9  A    between atoms: C_15  and  C_16 
REMARK   10  A    between atoms: C_16  and  C_17 
REMARK   11  A    between atoms: C_17  and  C_18 
REMARK   12  A    between atoms: C_18  and  C_19 
REMARK   13  A    between atoms: C_19  and  O_21 
REMARK   14  A    between atoms: O_21  and  C_22 
REMARK   15  A    between atoms: C_22  and  C_23 
ROOT
ATOM      1  C   LIG d   1       4.760  -2.595  -3.823  0.00  0.00    -0.053 C 
ATOM      2  H   LIG d   1       4.271  -2.176  -4.702  0.00  0.00     0.026 H 
ATOM      3  H   LIG d   1       4.803  -3.681  -3.915  0.00  0.00     0.026 H 
ENDROOT
BRANCH   1   4
ATOM      4  C   LIG d   1       6.179  -2.036  -3.714  0.00  0.00    -0.053 C 
ATOM      5  H   LIG d   1       6.866  -2.838  -3.445  0.00  0.00     0.026 H 
ATOM      6  H   LIG d   1       6.207  -1.262  -2.947  0.00  0.00     0.026 H 
BRANCH   4   7
ATOM      7  C   LIG d   1       6.596  -1.437  -5.058  0.00  0.00    -0.043 C 
ATOM      8  H   LIG d   1       5.762  -1.499  -5.758  0.00  0.00     0.027 H 
ATOM      9  H   LIG d   1       7.446  -1.991  -5.456  0.00  0.00     0.027 H 
BRANCH   7  10
ATOM     10  C   LIG d   1       6.988   0.030  -4.864  0.00  0.00     0.045 C 
ATOM     11  H   LIG d   1       7.684   0.111  -4.028  0.00  0.00     0.038 H 
ATOM     12  H   LIG d   1       6.096   0.620  -4.652  0.00  0.00     0.038 H 
BRANCH  10  13
ATOM     13  C   LIG d   1       7.646   0.545  -6.118  0.00  0.00     0.307 C 
ATOM     14  O   LIG d   1       8.708   1.116  -6.052  0.00  0.00    -0.251 OA
BRANCH  13  15
ATOM     15  O   LIG d   1       7.050   0.369  -7.309  0.00  0.00    -0.460 OA
BRANCH  15  16
ATOM     16  C   LIG d   1       7.135   1.466  -8.256  0.00  0.00     0.117 C 
ATOM     17  H   LIG d   1       8.085   1.415  -8.787  0.00  0.00     0.075 H 
ATOM     18  H   LIG d   1       7.068   2.414  -7.721  0.00  0.00     0.075 H 
BRANCH  16  19
ATOM     19  C   LIG d   1       6.000   1.366  -9.242  0.00  0.00    -0.010 A 
ATOM     20  C   LIG d   1       6.002   0.370 -10.199  0.00  0.00    -0.055 A 
ATOM     21  C   LIG d   1       4.961   0.278 -11.104  0.00  0.00    -0.061 A 
ATOM     22  H   LIG d   1       6.816  -0.339 -10.240  0.00  0.00     0.062 H 
ATOM     23  C   LIG d   1       3.918   1.185 -11.052  0.00  0.00    -0.062 A 
ATOM     24  H   LIG d   1       4.962  -0.501 -11.852  0.00  0.00     0.062 H 
ATOM     25  C   LIG d   1       3.916   2.182 -10.095  0.00  0.00    -0.061 A 
ATOM     26  H   LIG d   1       3.105   1.113 -11.760  0.00  0.00     0.062 H 
ATOM     27  C   LIG d   1       4.954   2.270  -9.187  0.00  0.00    -0.055 A 
ATOM     28  H   LIG d   1       3.102   2.890 -10.054  0.00  0.00     0.062 H 
ATOM     29  H   LIG d   1       4.951   3.047  -8.436  0.00  0.00     0.062 H 
ENDBRANCH  16  19
ENDBRANCH  15  16
ENDBRANCH  13  15
ENDBRANCH  10  13
ENDBRANCH   7  10
ENDBRANCH   4   7
ENDBRANCH   1   4
BRANCH   1  30
ATOM     30  C   LIG d   1       3.966  -2.221  -2.570  0.00  0.00    -0.053 C 
ATOM     31  H   LIG d   1       2.905  -2.162  -2.817  0.00  0.00     0.026 H 
ATOM     32  H   LIG d   1       4.118  -2.980  -1.802  0.00  0.00     0.026 H 
BRANCH  30  33
ATOM     33  C   LIG d   1       4.444  -0.865  -2.048  0.00  0.00    -0.053 C 
ATOM     34  H   LIG d   1       4.646  -0.938  -0.980  0.00  0.00     0.026 H 
ATOM     35  H   LIG d   1       5.356  -0.575  -2.572  0.00  0.00     0.026 H 
BRANCH  33  36
ATOM     36  C   LIG d   1       3.360   0.187  -2.293  0.00  0.00    -0.043 C 
ATOM     37  H   LIG d   1       2.381  -0.293  -2.295  0.00  0.00     0.027 H 
ATOM     38  H   LIG d   1       3.396   0.936  -1.501  0.00  0.00     0.027 H 
BRANCH  36  39
ATOM     39  C   LIG d   1       3.600   0.862  -3.644  0.00  0.00     0.045 C 
ATOM     40  H   LIG d   1       3.506   1.943  -3.533  0.00  0.00     0.038 H 
ATOM     41  H   LIG d   1       4.602   0.619  -3.999  0.00  0.00     0.038 H 
BRANCH  39  42
ATOM     42  C   LIG d   1       2.581   0.370  -4.640  0.00  0.00     0.307 C 
ATOM     43  O   LIG d   1       1.638  -0.285  -4.265  0.00  0.00    -0.251 OA
BRANCH  42  44
ATOM     44  O   LIG d   1       2.722   0.659  -5.943  0.00  0.00    -0.460 OA
BRANCH  44  45
ATOM     45  C   LIG d   1       3.792  -0.013  -6.658  0.00  0.00     0.117 C 
ATOM     46  H   LIG d   1       4.503   0.726  -7.026  0.00  0.00     0.075 H 
ATOM     47  H   LIG d   1       4.300  -0.703  -5.983  0.00  0.00     0.075 H 
BRANCH  45  48
ATOM     48  C   LIG d   1       3.216  -0.781  -7.820  0.00  0.00    -0.010 A 
ATOM     49  C   LIG d   1       2.106  -0.295  -8.486  0.00  0.00    -0.055 A 
ATOM     50  C   LIG d   1       1.577  -0.998  -9.553  0.00  0.00    -0.061 A 
ATOM     51  H   LIG d   1       1.652   0.634  -8.175  0.00  0.00     0.062 H 
ATOM     52  C   LIG d   1       2.159  -2.187  -9.952  0.00  0.00    -0.062 A 
ATOM     53  H   LIG d   1       0.711  -0.620 -10.073  0.00  0.00     0.062 H 
ATOM     54  C   LIG d   1       3.268  -2.672  -9.285  0.00  0.00    -0.061 A 
ATOM     55  H   LIG d   1       1.746  -2.737 -10.785  0.00  0.00     0.062 H 
ATOM     56  C   LIG d   1       3.800  -1.966  -8.223  0.00  0.00    -0.055 A 
ATOM     57  H   LIG d   1       3.723  -3.601  -9.598  0.00  0.00     0.062 H 
ATOM     58  H   LIG d   1       4.669  -2.343  -7.704  0.00  0.00     0.062 H 
ENDBRANCH  45  48
ENDBRANCH  44  45
ENDBRANCH  42  44
ENDBRANCH  39  42
ENDBRANCH  36  39
ENDBRANCH  33  36
ENDBRANCH  30  33
ENDBRANCH   1  30
TORSDOF 15
ENDMDL
MODEL 7
REMARK VINA RESULT:      -5.4      2.635      5.695
REMARK  15 active torsions:
REMARK  status: ('A' for Active; 'I' for Inactive)
REMARK    1  A    between atoms: C_4  and  C_7 
REMARK    2  A    between atoms: C_7  and  O_8 
REMARK    3  A    between atoms: O_8  and  C_9 
REMARK    4  A    between atoms: C_9  and  C_11 
REMARK    5  A    between atoms: C_11  and  C_12 
REMARK    6  A    between atoms: C_12  and  C_13 
REMARK    7  A    between atoms: C_13  and  C_14 
REMARK    8  A    between atoms: C_14  and  C_15 
REMARK    9  A    between atoms: C_15  and  C_16 
REMARK   10  A    between atoms: C_16  and  C_17 
REMARK   11  A    between atoms: C_17  and  C_18 
REMARK   12  A    between atoms: C_18  and  C_19 
REMARK   13  A    between atoms: C_19  and  O_21 
REMARK   14  A    between atoms: O_21  and  C_22 
REMARK   15  A    between atoms: C_22  and  C_23 
ROOT
ATOM      1  C   LIG d   1       4.700  -1.955  -6.851  0.00  0.00    -0.053 C 
ATOM      2  H   LIG d   1       4.850  -2.120  -7.918  0.00  0.00     0.026 H 
ATOM      3  H   LIG d   1       3.978  -2.678  -6.471  0.00  0.00     0.026 H 
ENDROOT
BRANCH   1   4
ATOM      4  C   LIG d   1       6.030  -2.130  -6.116  0.00  0.00    -0.053 C 
ATOM      5  H   LIG d   1       6.365  -3.163  -6.212  0.00  0.00     0.026 H 
ATOM      6  H   LIG d   1       5.898  -1.887  -5.063  0.00  0.00     0.026 H 
BRANCH   4   7
ATOM      7  C   LIG d   1       7.077  -1.197  -6.727  0.00  0.00    -0.043 C 
ATOM      8  H   LIG d   1       6.577  -0.410  -7.293  0.00  0.00     0.027 H 
ATOM      9  H   LIG d   1       7.727  -1.765  -7.392  0.00  0.00     0.027 H 
BRANCH   7  10
ATOM     10  C   LIG d   1       7.913  -0.567  -5.610  0.00  0.00     0.045 C 
ATOM     11  H   LIG d   1       8.968  -0.595  -5.888  0.00  0.00     0.038 H 
ATOM     12  H   LIG d   1       7.766  -1.126  -4.686  0.00  0.00     0.038 H 
BRANCH  10  13
ATOM     13  C   LIG d   1       7.484   0.863  -5.407  0.00  0.00     0.307 C 
ATOM     14  O   LIG d   1       7.656   1.675  -6.284  0.00  0.00    -0.251 OA
BRANCH  13  15
ATOM     15  O   LIG d   1       6.912   1.234  -4.250  0.00  0.00    -0.460 OA
BRANCH  15  16
ATOM     16  C   LIG d   1       6.855   0.239  -3.194  0.00  0.00     0.117 C 
ATOM     17  H   LIG d   1       7.212   0.679  -2.262  0.00  0.00     0.075 H 
ATOM     18  H   LIG d   1       7.485  -0.610  -3.460  0.00  0.00     0.075 H 
BRANCH  16  19
ATOM     19  C   LIG d   1       5.433  -0.226  -3.018  0.00  0.00    -0.010 A 
ATOM     20  C   LIG d   1       4.390   0.669  -3.159  0.00  0.00    -0.055 A 
ATOM     21  C   LIG d   1       3.085   0.242  -2.998  0.00  0.00    -0.061 A 
ATOM     22  H   LIG d   1       4.594   1.703  -3.396  0.00  0.00     0.062 H 
ATOM     23  C   LIG d   1       2.824  -1.082  -2.695  0.00  0.00    -0.062 A 
ATOM     24  H   LIG d   1       2.270   0.941  -3.109  0.00  0.00     0.062 H 
ATOM     25  C   LIG d   1       3.867  -1.978  -2.554  0.00  0.00    -0.061 A 
ATOM     26  H   LIG d   1       1.804  -1.415  -2.569  0.00  0.00     0.062 H 
ATOM     27  C   LIG d   1       5.171  -1.551  -2.720  0.00  0.00    -0.055 A 
ATOM     28  H   LIG d   1       3.663  -3.011  -2.317  0.00  0.00     0.062 H 
ATOM     29  H   LIG d   1       5.987  -2.252  -2.614  0.00  0.00     0.062 H 
ENDBRANCH  16  19
ENDBRANCH  15  16
ENDBRANCH  13  15
ENDBRANCH  10  13
ENDBRANCH   7  10
ENDBRANCH   4   7
ENDBRANCH   1   4
BRANCH   1  30
ATOM     30  C   LIG d   1       4.173  -0.537  -6.623  0.00  0.00    -0.053 C 
ATOM     31  H   LIG d   1       3.873  -0.425  -5.580  0.00  0.00     0.026 H 
ATOM     32  H   LIG d   1       4.957   0.184  -6.855  0.00  0.00     0.026 H 
BRANCH  30  33
ATOM     33  C   LIG d   1       2.967  -0.288  -7.531  0.00  0.00    -0.053 C 
ATOM     34  H   LIG d   1       2.058  -0.267  -6.929  0.00  0.00     0.026 H 
ATOM     35  H   LIG d   1       3.088   0.668  -8.041  0.00  0.00     0.026 H 
BRANCH  33  36
ATOM     36  C   LIG d   1       2.868  -1.410  -8.566  0.00  0.00    -0.043 C 
ATOM     37  H   LIG d   1       3.806  -1.482  -9.116  0.00  0.00     0.027 H 
ATOM     38  H   LIG d   1       2.670  -2.356  -8.060  0.00  0.00     0.027 H 
BRANCH  36  39
ATOM     39  C   LIG d   1       1.728  -1.106  -9.540  0.00  0.00     0.045 C 
ATOM     40  H   LIG d   1       0.849  -1.691  -9.266  0.00  0.00     0.038 H 
ATOM     41  H   LIG d   1       1.484  -0.044  -9.494  0.00  0.00     0.038 H 
BRANCH  39  42
ATOM     42  C   LIG d   1       2.153  -1.464 -10.940  0.00  0.00     0.307 C 
ATOM     43  O   LIG d   1       2.262  -2.624 -11.260  0.00  0.00    -0.251 OA
BRANCH  42  44
ATOM     44  O   LIG d   1       2.411  -0.495 -11.833  0.00  0.00    -0.460 OA
BRANCH  44  45
ATOM     45  C   LIG d   1       3.806  -0.226 -12.131  0.00  0.00     0.117 C 
ATOM     46  H   LIG d   1       4.347  -1.168 -12.219  0.00  0.00     0.075 H 
ATOM     47  H   LIG d   1       3.877   0.323 -13.070  0.00  0.00     0.075 H 
BRANCH  45  48
ATOM     48  C   LIG d   1       4.408   0.597 -11.021  0.00  0.00    -0.010 A 
ATOM     49  C   LIG d   1       3.749   1.723 -10.561  0.00  0.00    -0.055 A 
ATOM     50  C   LIG d   1       4.301   2.478  -9.543  0.00  0.00    -0.061 A 
ATOM     51  H   LIG d   1       2.803   2.011 -10.995  0.00  0.00     0.062 H 
ATOM     52  C   LIG d   1       5.511   2.109  -8.986  0.00  0.00    -0.062 A 
ATOM     53  H   LIG d   1       3.787   3.357  -9.183  0.00  0.00     0.062 H 
ATOM     54  C   LIG d   1       6.169   0.984  -9.447  0.00  0.00    -0.061 A 
ATOM     55  H   LIG d   1       5.942   2.699  -8.191  0.00  0.00     0.062 H 
ATOM     56  C   LIG d   1       5.615   0.226 -10.461  0.00  0.00    -0.055 A 
ATOM     57  H   LIG d   1       7.115   0.695  -9.011  0.00  0.00     0.062 H 
ATOM     58  H   LIG d   1       6.128  -0.655 -10.818  0.00  0.00     0.062 H 
ENDBRANCH  45  48
ENDBRANCH  44  45
ENDBRANCH  42  44
ENDBRANCH  39  42
ENDBRANCH  36  39
ENDBRANCH  33  36
ENDBRANCH  30  33
ENDBRANCH   1  30
TORSDOF 15
ENDMDL
MODEL 8
REMARK VINA RESULT:      -5.3      4.806      7.038
REMARK  15 active torsions:
REMARK  status: ('A' for Active; 'I' for Inactive)
REMARK    1  A    between atoms: C_4  and  C_7 
REMARK    2  A    between atoms: C_7  and  O_8 
REMARK    3  A    between atoms: O_8  and  C_9 
REMARK    4  A    between atoms: C_9  and  C_11 
REMARK    5  A    between atoms: C_11  and  C_12 
REMARK    6  A    between atoms: C_12  and  C_13 
REMARK    7  A    between atoms: C_13  and  C_14 
REMARK    8  A    between atoms: C_14  and  C_15 
REMARK    9  A    between atoms: C_15  and  C_16 
REMARK   10  A    between atoms: C_16  and  C_17 
REMARK   11  A    between atoms: C_17  and  C_18 
REMARK   12  A    between atoms: C_18  and  C_19 
REMARK   13  A    between atoms: C_19  and  O_21 
REMARK   14  A    between atoms: O_21  and  C_22 
REMARK   15  A    between atoms: C_22  and  C_23 
ROOT
ATOM      1  C   LIG d   1       6.590  -1.815  -4.606  0.00  0.00    -0.053 C 
ATOM      2  H   LIG d   1       5.592  -1.976  -4.200  0.00  0.00     0.026 H 
ATOM      3  H   LIG d   1       7.155  -2.746  -4.560  0.00  0.00     0.026 H 
ENDROOT
BRANCH   1   4
ATOM      4  C   LIG d   1       6.479  -1.358  -6.062  0.00  0.00    -0.053 C 
ATOM      5  H   LIG d   1       7.105  -1.991  -6.690  0.00  0.00     0.026 H 
ATOM      6  H   LIG d   1       6.811  -0.323  -6.144  0.00  0.00     0.026 H 
BRANCH   4   7
ATOM      7  C   LIG d   1       5.024  -1.464  -6.520  0.00  0.00    -0.043 C 
ATOM      8  H   LIG d   1       4.372  -1.528  -5.649  0.00  0.00     0.027 H 
ATOM      9  H   LIG d   1       4.900  -2.357  -7.133  0.00  0.00     0.027 H 
BRANCH   7  10
ATOM     10  C   LIG d   1       4.656  -0.226  -7.342  0.00  0.00     0.045 C 
ATOM     11  H   LIG d   1       4.756  -0.452  -8.404  0.00  0.00     0.038 H 
ATOM     12  H   LIG d   1       5.323   0.596  -7.081  0.00  0.00     0.038 H 
BRANCH  10  13
ATOM     13  C   LIG d   1       3.233   0.169  -7.045  0.00  0.00     0.307 C 
ATOM     14  O   LIG d   1       2.335  -0.236  -7.744  0.00  0.00    -0.251 OA
BRANCH  13  15
ATOM     15  O   LIG d   1       2.962   0.972  -6.003  0.00  0.00    -0.460 OA
BRANCH  15  16
ATOM     16  C   LIG d   1       2.130   0.423  -4.946  0.00  0.00     0.117 C 
ATOM     17  H   LIG d   1       1.645  -0.486  -5.301  0.00  0.00     0.075 H 
ATOM     18  H   LIG d   1       1.373   1.154  -4.664  0.00  0.00     0.075 H 
BRANCH  16  19
ATOM     19  C   LIG d   1       2.987   0.101  -3.749  0.00  0.00    -0.010 A 
ATOM     20  C   LIG d   1       3.099  -1.204  -3.310  0.00  0.00    -0.055 A 
ATOM     21  C   LIG d   1       3.884  -1.499  -2.212  0.00  0.00    -0.061 A 
ATOM     22  H   LIG d   1       2.573  -1.994  -3.825  0.00  0.00     0.062 H 
ATOM     23  C   LIG d   1       4.558  -0.488  -1.552  0.00  0.00    -0.062 A 
ATOM     24  H   LIG d   1       3.973  -2.519  -1.868  0.00  0.00     0.062 H 
ATOM     25  C   LIG d   1       4.446   0.819  -1.991  0.00  0.00    -0.061 A 
ATOM     26  H   LIG d   1       5.171  -0.718  -0.693  0.00  0.00     0.062 H 
ATOM     27  C   LIG d   1       3.664   1.113  -3.092  0.00  0.00    -0.055 A 
ATOM     28  H   LIG d   1       4.972   1.608  -1.476  0.00  0.00     0.062 H 
ATOM     29  H   LIG d   1       3.580   2.132  -3.438  0.00  0.00     0.062 H 
ENDBRANCH  16  19
ENDBRANCH  15  16
ENDBRANCH  13  15
ENDBRANCH  10  13
ENDBRANCH   7  10
ENDBRANCH   4   7
ENDBRANCH   1   4
BRANCH   1  30
ATOM     30  C   LIG d   1       7.307  -0.741  -3.786  0.00  0.00    -0.053 C 
ATOM     31  H   LIG d   1       6.663  -0.419  -2.967  0.00  0.00     0.026 H 
ATOM     32  H   LIG d   1       8.232  -1.150  -3.380  0.00  0.00     0.026 H 
BRANCH  30  33
ATOM     33  C   LIG d   1       7.630   0.456  -4.683  0.00  0.00    -0.053 C 
ATOM     34  H   LIG d   1       8.599   0.303  -5.157  0.00  0.00     0.026 H 
ATOM     35  H   LIG d   1       6.861   0.553  -5.450  0.00  0.00     0.026 H 
BRANCH  33  36
ATOM     36  C   LIG d   1       7.670   1.730  -3.838  0.00  0.00    -0.043 C 
ATOM     37  H   LIG d   1       7.099   2.515  -4.335  0.00  0.00     0.027 H 
ATOM     38  H   LIG d   1       7.234   1.530  -2.858  0.00  0.00     0.027 H 
BRANCH  36  39
ATOM     39  C   LIG d   1       9.120   2.184  -3.668  0.00  0.00     0.045 C 
ATOM     40  H   LIG d   1       9.340   2.311  -2.607  0.00  0.00     0.038 H 
ATOM     41  H   LIG d   1       9.788   1.433  -4.089  0.00  0.00     0.038 H 
BRANCH  39  42
ATOM     42  C   LIG d   1       9.324   3.496  -4.382  0.00  0.00     0.307 C 
ATOM     43  O   LIG d   1       9.194   3.556  -5.582  0.00  0.00    -0.251 OA
BRANCH  42  44
ATOM     44  O   LIG d   1       9.649   4.596  -3.687  0.00  0.00    -0.460 OA
BRANCH  44  45
ATOM     45  C   LIG d   1      10.275   4.398  -2.392  0.00  0.00     0.117 C 
ATOM     46  H   LIG d   1       9.718   3.648  -1.830  0.00  0.00     0.075 H 
ATOM     47  H   LIG d   1      11.301   4.058  -2.533  0.00  0.00     0.075 H 
BRANCH  45  48
ATOM     48  C   LIG d   1      10.277   5.698  -1.629  0.00  0.00    -0.010 A 
ATOM     49  C   LIG d   1      10.995   5.807  -0.453  0.00  0.00    -0.055 A 
ATOM     50  C   LIG d   1      10.998   7.001   0.247  0.00  0.00    -0.061 A 
ATOM     51  H   LIG d   1      11.556   4.963  -0.081  0.00  0.00     0.062 H 
ATOM     52  C   LIG d   1      10.281   8.082  -0.230  0.00  0.00    -0.062 A 
ATOM     53  H   LIG d   1      11.559   7.087   1.165  0.00  0.00     0.062 H 
ATOM     54  C   LIG d   1       9.563   7.972  -1.406  0.00  0.00    -0.061 A 
ATOM     55  H   LIG d   1      10.283   9.014   0.316  0.00  0.00     0.062 H 
ATOM     56  C   LIG d   1       9.565   6.781  -2.108  0.00  0.00    -0.055 A 
ATOM     57  H   LIG d   1       9.004   8.818  -1.779  0.00  0.00     0.062 H 
ATOM     58  H   LIG d   1       9.007   6.696  -3.029  0.00  0.00     0.062 H 
ENDBRANCH  45  48
ENDBRANCH  44  45
ENDBRANCH  42  44
ENDBRANCH  39  42
ENDBRANCH  36  39
ENDBRANCH  33  36
ENDBRANCH  30  33
ENDBRANCH   1  30
TORSDOF 15
ENDMDL
MODEL 9
REMARK VINA RESULT:      -5.3      2.967      4.977
REMARK  15 active torsions:
REMARK  status: ('A' for Active; 'I' for Inactive)
REMARK    1  A    between atoms: C_4  and  C_7 
REMARK    2  A    between atoms: C_7  and  O_8 
REMARK    3  A    between atoms: O_8  and  C_9 
REMARK    4  A    between atoms: C_9  and  C_11 
REMARK    5  A    between atoms: C_11  and  C_12 
REMARK    6  A    between atoms: C_12  and  C_13 
REMARK    7  A    between atoms: C_13  and  C_14 
REMARK    8  A    between atoms: C_14  and  C_15 
REMARK    9  A    between atoms: C_15  and  C_16 
REMARK   10  A    between atoms: C_16  and  C_17 
REMARK   11  A    between atoms: C_17  and  C_18 
REMARK   12  A    between atoms: C_18  and  C_19 
REMARK   13  A    between atoms: C_19  and  O_21 
REMARK   14  A    between atoms: O_21  and  C_22 
REMARK   15  A    between atoms: C_22  and  C_23 
ROOT
ATOM      1  C   LIG d   1       7.100  -2.179  -3.958  0.00  0.00    -0.053 C 
ATOM      2  H   LIG d   1       7.040  -2.139  -2.871  0.00  0.00     0.026 H 
ATOM      3  H   LIG d   1       8.095  -2.511  -4.254  0.00  0.00     0.026 H 
ENDROOT
BRANCH   1   4
ATOM      4  C   LIG d   1       6.056  -3.161  -4.491  0.00  0.00    -0.053 C 
ATOM      5  H   LIG d   1       5.418  -2.655  -5.215  0.00  0.00     0.026 H 
ATOM      6  H   LIG d   1       5.447  -3.527  -3.665  0.00  0.00     0.026 H 
BRANCH   4   7
ATOM      7  C   LIG d   1       6.760  -4.339  -5.166  0.00  0.00    -0.043 C 
ATOM      8  H   LIG d   1       6.872  -5.154  -4.450  0.00  0.00     0.027 H 
ATOM      9  H   LIG d   1       7.744  -4.024  -5.514  0.00  0.00     0.027 H 
BRANCH   7  10
ATOM     10  C   LIG d   1       5.926  -4.818  -6.356  0.00  0.00     0.045 C 
ATOM     11  H   LIG d   1       6.590  -5.075  -7.183  0.00  0.00     0.038 H 
ATOM     12  H   LIG d   1       5.248  -4.025  -6.668  0.00  0.00     0.038 H 
BRANCH  10  13
ATOM     13  C   LIG d   1       5.130  -6.033  -5.956  0.00  0.00     0.307 C 
ATOM     14  O   LIG d   1       4.044  -5.901  -5.443  0.00  0.00    -0.251 OA
BRANCH  13  15
ATOM     15  O   LIG d   1       5.627  -7.262  -6.168  0.00  0.00    -0.460 OA
BRANCH  15  16
ATOM     16  C   LIG d   1       4.739  -8.384  -5.922  0.00  0.00     0.117 C 
ATOM     17  H   LIG d   1       4.789  -9.077  -6.762  0.00  0.00     0.075 H 
ATOM     18  H   LIG d   1       3.718  -8.021  -5.810  0.00  0.00     0.075 H 
BRANCH  16  19
ATOM     19  C   LIG d   1       5.162  -9.092  -4.661  0.00  0.00    -0.010 A 
ATOM     20  C   LIG d   1       6.472  -9.015  -4.230  0.00  0.00    -0.055 A 
ATOM     21  C   LIG d   1       6.860  -9.665  -3.073  0.00  0.00    -0.061 A 
ATOM     22  H   LIG d   1       7.195  -8.447  -4.797  0.00  0.00     0.062 H 
ATOM     23  C   LIG d   1       5.935 -10.392  -2.347  0.00  0.00    -0.062 A 
ATOM     24  H   LIG d   1       7.883  -9.604  -2.736  0.00  0.00     0.062 H 
ATOM     25  C   LIG d   1       4.623 -10.469  -2.777  0.00  0.00    -0.061 A 
ATOM     26  H   LIG d   1       6.237 -10.900  -1.443  0.00  0.00     0.062 H 
ATOM     27  C   LIG d   1       4.235  -9.816  -3.931  0.00  0.00    -0.055 A 
ATOM     28  H   LIG d   1       3.901 -11.037  -2.210  0.00  0.00     0.062 H 
ATOM     29  H   LIG d   1       3.210  -9.872  -4.266  0.00  0.00     0.062 H 
ENDBRANCH  16  19
ENDBRANCH  15  16
ENDBRANCH  13  15
ENDBRANCH  10  13
ENDBRANCH   7  10
ENDBRANCH   4   7
ENDBRANCH   1   4
BRANCH   1  30
ATOM     30  C   LIG d   1       6.834  -0.787  -4.536  0.00  0.00    -0.053 C 
ATOM     31  H   LIG d   1       5.861  -0.432  -4.193  0.00  0.00     0.026 H 
ATOM     32  H   LIG d   1       7.610  -0.100  -4.199  0.00  0.00     0.026 H 
BRANCH  30  33
ATOM     33  C   LIG d   1       6.843  -0.858  -6.064  0.00  0.00    -0.053 C 
ATOM     34  H   LIG d   1       7.797  -0.486  -6.438  0.00  0.00     0.026 H 
ATOM     35  H   LIG d   1       6.707  -1.893  -6.380  0.00  0.00     0.026 H 
BRANCH  33  36
ATOM     36  C   LIG d   1       5.706  -0.000  -6.620  0.00  0.00    -0.043 C 
ATOM     37  H   LIG d   1       5.402   0.732  -5.873  0.00  0.00     0.027 H 
ATOM     38  H   LIG d   1       6.047   0.517  -7.518  0.00  0.00     0.027 H 
BRANCH  36  39
ATOM     39  C   LIG d   1       4.516  -0.895  -6.970  0.00  0.00     0.045 C 
ATOM     40  H   LIG d   1       4.663  -1.326  -7.961  0.00  0.00     0.038 H 
ATOM     41  H   LIG d   1       4.436  -1.696  -6.235  0.00  0.00     0.038 H 
BRANCH  39  42
ATOM     42  C   LIG d   1       3.251  -0.077  -6.961  0.00  0.00     0.307 C 
ATOM     43  O   LIG d   1       2.402  -0.269  -7.799  0.00  0.00    -0.251 OA
BRANCH  42  44
ATOM     44  O   LIG d   1       3.066   0.865  -6.023  0.00  0.00    -0.460 OA
BRANCH  44  45
ATOM     45  C   LIG d   1       2.193   0.529  -4.913  0.00  0.00     0.117 C 
ATOM     46  H   LIG d   1       1.590   1.398  -4.650  0.00  0.00     0.075 H 
ATOM     47  H   LIG d   1       1.540  -0.294  -5.202  0.00  0.00     0.075 H 
BRANCH  45  48
ATOM     48  C   LIG d   1       3.025   0.117  -3.725  0.00  0.00    -0.010 A 
ATOM     49  C   LIG d   1       3.718   1.072  -3.004  0.00  0.00    -0.055 A 
ATOM     50  C   LIG d   1       4.481   0.695  -1.914  0.00  0.00    -0.061 A 
ATOM     51  H   LIG d   1       3.662   2.112  -3.289  0.00  0.00     0.062 H 
ATOM     52  C   LIG d   1       4.552  -0.637  -1.548  0.00  0.00    -0.062 A 
ATOM     53  H   LIG d   1       5.022   1.439  -1.349  0.00  0.00     0.062 H 
ATOM     54  C   LIG d   1       3.860  -1.590  -2.270  0.00  0.00    -0.061 A 
ATOM     55  H   LIG d   1       5.148  -0.931  -0.697  0.00  0.00     0.062 H 
ATOM     56  C   LIG d   1       3.092  -1.212  -3.356  0.00  0.00    -0.055 A 
ATOM     57  H   LIG d   1       3.914  -2.630  -1.983  0.00  0.00     0.062 H 
ATOM     58  H   LIG d   1       2.548  -1.956  -3.918  0.00  0.00     0.062 H 
ENDBRANCH  45  48
ENDBRANCH  44  45
ENDBRANCH  42  44
ENDBRANCH  39  42
ENDBRANCH  36  39
ENDBRANCH  33  36
ENDBRANCH  30  33
ENDBRANCH   1  30
TORSDOF 15
ENDMDL
