MODEL 1
REMARK VINA RESULT:      -6.8      0.000      0.000
REMARK  7 active torsions:
REMARK  status: ('A' for Active; 'I' for Inactive)
REMARK    1  A    between atoms: C_1  and  C_2 
REMARK    2  A    between atoms: C_17  and  C_35 
REMARK    3  A    between atoms: C_22  and  C_23 
REMARK    4  A    between atoms: C_22  and  O_34 
REMARK    5  A    between atoms: C_23  and  N_24 
REMARK    6  A    between atoms: C_25  and  C_26 
REMARK    7  A    between atoms: C_31  and  O_32 
ROOT
ATOM      1  C   LIG d   1       4.295  -0.813  -8.983  0.00  0.00    -0.026 C 
ATOM      2  C   LIG d   1       3.241  -0.363 -10.007  0.00  0.00    -0.047 C 
ATOM      3  C   LIG d   1       3.805   0.712 -10.932  0.00  0.00    -0.052 C 
ATOM      4  C   LIG d   1       4.290   1.917 -10.129  0.00  0.00    -0.053 C 
ATOM      5  C   LIG d   1       5.336   1.477  -9.104  0.00  0.00    -0.050 C 
ATOM      6  C   LIG d   1       4.731   0.422  -8.185  0.00  0.00    -0.035 C 
ATOM      7  H   LIG d   1       3.842   0.848  -7.701  0.00  0.00     0.031 H 
ATOM      8  C   LIG d   1       5.724   0.016  -7.100  0.00  0.00    -0.049 C 
ATOM      9  C   LIG d   1       5.021  -0.913  -6.109  0.00  0.00    -0.049 C 
ATOM     10  C   LIG d   1       4.495  -2.159  -6.816  0.00  0.00    -0.034 C 
ATOM     11  H   LIG d   1       3.820  -2.669  -6.093  0.00  0.00     0.031 H 
ATOM     12  C   LIG d   1       3.654  -1.809  -8.026  0.00  0.00    -0.032 C 
ATOM     13  H   LIG d   1       2.747  -1.286  -7.621  0.00  0.00     0.031 H 
ATOM     14  C   LIG d   1       3.130  -3.051  -8.723  0.00  0.00    -0.049 C 
ATOM     15  C   LIG d   1       4.175  -4.118  -8.969  0.00  0.00    -0.044 C 
ATOM     16  C   LIG d   1       5.125  -4.385  -7.831  0.00  0.00     0.002 C 
ATOM     17  C   LIG d   1       5.631  -3.128  -7.112  0.00  0.00    -0.030 C 
ATOM     18  H   LIG d   1       6.458  -2.653  -7.650  0.00  0.00     0.031 H 
ATOM     19  C   LIG d   1       6.116  -3.690  -5.744  0.00  0.00    -0.047 C 
ATOM     20  C   LIG d   1       5.110  -4.809  -5.406  0.00  0.00    -0.021 C 
ATOM     21  C   LIG d   1       4.519  -5.286  -6.747  0.00  0.00     0.091 C 
ATOM     22  H   LIG d   1       2.933  -1.224 -10.602  0.00  0.00     0.027 H 
ATOM     23  H   LIG d   1       2.375   0.033  -9.472  0.00  0.00     0.027 H 
ATOM     24  H   LIG d   1       3.009   1.043 -11.612  0.00  0.00     0.026 H 
ATOM     25  H   LIG d   1       4.618   0.316 -11.537  0.00  0.00     0.026 H 
ATOM     26  H   LIG d   1       3.445   2.373  -9.610  0.00  0.00     0.026 H 
ATOM     27  H   LIG d   1       4.733   2.650 -10.805  0.00  0.00     0.026 H 
ATOM     28  H   LIG d   1       6.221   1.101  -9.609  0.00  0.00     0.027 H 
ATOM     29  H   LIG d   1       5.627   2.348  -8.504  0.00  0.00     0.027 H 
ATOM     30  H   LIG d   1       6.591  -0.478  -7.525  0.00  0.00     0.027 H 
ATOM     31  H   LIG d   1       6.058   0.913  -6.568  0.00  0.00     0.027 H 
ATOM     32  H   LIG d   1       4.184  -0.376  -5.652  0.00  0.00     0.027 H 
ATOM     33  H   LIG d   1       5.722  -1.195  -5.322  0.00  0.00     0.027 H 
ATOM     34  H   LIG d   1       2.312  -3.477  -8.119  0.00  0.00     0.027 H 
ATOM     35  H   LIG d   1       2.674  -2.767  -9.683  0.00  0.00     0.027 H 
ATOM     36  H   LIG d   1       4.748  -3.891  -9.872  0.00  0.00     0.027 H 
ATOM     37  H   LIG d   1       3.648  -5.065  -9.191  0.00  0.00     0.027 H 
ATOM     38  H   LIG d   1       7.127  -4.090  -5.827  0.00  0.00     0.027 H 
ATOM     39  H   LIG d   1       6.090  -2.914  -4.976  0.00  0.00     0.027 H 
ATOM     40  H   LIG d   1       5.622  -5.634  -4.908  0.00  0.00     0.029 H 
ATOM     41  H   LIG d   1       4.319  -4.422  -4.762  0.00  0.00     0.029 H 
ENDROOT
BRANCH  21  42
ATOM     42  C   LIG d   1       4.918  -6.744  -6.999  0.00  0.00     0.069 C 
ATOM     43  H   LIG d   1       4.177  -7.218  -7.643  0.00  0.00     0.054 H 
ATOM     44  H   LIG d   1       5.894  -6.775  -7.483  0.00  0.00     0.054 H 
BRANCH  42  45
ATOM     45  N   LIG d   1       4.984  -7.460  -5.723  0.00  0.00    -0.288 NA
ATOM     46  C   LIG d   1       5.798  -8.455  -5.579  0.00  0.00     0.033 C 
ATOM     47  H   LIG d   1       6.430  -8.758  -6.401  0.00  0.00     0.083 H 
BRANCH  46  48
ATOM     48  C   LIG d   1       5.864  -9.175  -4.295  0.00  0.00     0.035 A 
ATOM     49  C   LIG d   1       4.743  -9.869  -3.818  0.00  0.00     0.126 A 
ATOM     50  C   LIG d   1       4.816 -10.547  -2.611  0.00  0.00    -0.018 A 
ATOM     51  C   LIG d   1       5.985 -10.529  -1.876  0.00  0.00    -0.044 A 
ATOM     52  H   LIG d   1       3.956 -11.086  -2.242  0.00  0.00     0.065 H 
ATOM     53  C   LIG d   1       7.094  -9.840  -2.341  0.00  0.00     0.019 A 
ATOM     54  H   LIG d   1       6.036 -11.055  -0.935  0.00  0.00     0.063 H 
ATOM     55  C   LIG d   1       7.041  -9.165  -3.543  0.00  0.00    -0.036 A 
ATOM     56 BR   LIG d   1       8.688  -9.825  -1.323  0.00  0.00    -0.050 Br
ATOM     57  H   LIG d   1       7.906  -8.628  -3.900  0.00  0.00     0.064 H 
BRANCH  49  58
ATOM     58  O   LIG d   1       3.592  -9.882  -4.539  0.00  0.00    -0.506 OA
ATOM     59  H   LIG d   1       3.560  -9.219  -5.241  0.00  0.00     0.292 HD
ENDBRANCH  49  58
ENDBRANCH  46  48
ENDBRANCH  42  45
ENDBRANCH  21  42
BRANCH  21  60
ATOM     60  O   LIG d   1       3.097  -5.171  -6.726  0.00  0.00    -0.386 OA
ATOM     61  H   LIG d   1       2.755  -4.420  -7.230  0.00  0.00     0.210 HD
ENDBRANCH  21  60
BRANCH  16  62
ATOM     62  C   LIG d   1       6.348  -5.119  -8.413  0.00  0.00    -0.057 C 
ATOM     63  H   LIG d   1       7.230  -4.486  -8.319  0.00  0.00     0.024 H 
ATOM     64  H   LIG d   1       6.509  -6.048  -7.865  0.00  0.00     0.024 H 
ATOM     65  H   LIG d   1       6.171  -5.343  -9.464  0.00  0.00     0.024 H 
ENDBRANCH  16  62
BRANCH   1  66
ATOM     66  C   LIG d   1       5.480  -1.411  -9.728  0.00  0.00    -0.059 C 
ATOM     67  H   LIG d   1       6.345  -0.755  -9.624  0.00  0.00     0.024 H 
ATOM     68  H   LIG d   1       5.715  -2.390  -9.311  0.00  0.00     0.024 H 
ATOM     69  H   LIG d   1       5.231  -1.517 -10.785  0.00  0.00     0.024 H 
ENDBRANCH   1  66
TORSDOF 7
ENDMDL
MODEL 2
REMARK VINA RESULT:      -6.8      9.930     12.637
REMARK  7 active torsions:
REMARK  status: ('A' for Active; 'I' for Inactive)
REMARK    1  A    between atoms: C_1  and  C_2 
REMARK    2  A    between atoms: C_17  and  C_35 
REMARK    3  A    between atoms: C_22  and  C_23 
REMARK    4  A    between atoms: C_22  and  O_34 
REMARK    5  A    between atoms: C_23  and  N_24 
REMARK    6  A    between atoms: C_25  and  C_26 
REMARK    7  A    between atoms: C_31  and  O_32 
ROOT
ATOM      1  C   LIG d   1      12.188   7.608  -0.185  0.00  0.00    -0.026 C 
ATOM      2  C   LIG d   1      11.319   8.054   1.002  0.00  0.00    -0.047 C 
ATOM      3  C   LIG d   1      11.451   9.556   1.238  0.00  0.00    -0.052 C 
ATOM      4  C   LIG d   1      12.907   9.938   1.492  0.00  0.00    -0.053 C 
ATOM      5  C   LIG d   1      13.779   9.494   0.318  0.00  0.00    -0.050 C 
ATOM      6  C   LIG d   1      13.639   7.988   0.126  0.00  0.00    -0.035 C 
ATOM      7  H   LIG d   1      13.931   7.489   1.060  0.00  0.00     0.031 H 
ATOM      8  C   LIG d   1      14.557   7.497  -0.990  0.00  0.00    -0.049 C 
ATOM      9  C   LIG d   1      14.510   5.970  -1.032  0.00  0.00    -0.049 C 
ATOM     10  C   LIG d   1      13.087   5.480  -1.285  0.00  0.00    -0.034 C 
ATOM     11  H   LIG d   1      13.092   4.384  -1.088  0.00  0.00     0.031 H 
ATOM     12  C   LIG d   1      12.098   6.093  -0.317  0.00  0.00    -0.032 C 
ATOM     13  H   LIG d   1      12.380   5.694   0.695  0.00  0.00     0.031 H 
ATOM     14  C   LIG d   1      10.685   5.600  -0.569  0.00  0.00    -0.049 C 
ATOM     15  C   LIG d   1      10.257   5.646  -2.020  0.00  0.00    -0.044 C 
ATOM     16  C   LIG d   1      11.278   5.180  -3.023  0.00  0.00     0.002 C 
ATOM     17  C   LIG d   1      12.710   5.658  -2.749  0.00  0.00    -0.030 C 
ATOM     18  H   LIG d   1      12.875   6.681  -3.103  0.00  0.00     0.031 H 
ATOM     19  C   LIG d   1      13.569   4.649  -3.566  0.00  0.00    -0.047 C 
ATOM     20  C   LIG d   1      12.823   3.307  -3.429  0.00  0.00    -0.021 C 
ATOM     21  C   LIG d   1      11.350   3.651  -3.136  0.00  0.00     0.091 C 
ATOM     22  H   LIG d   1      10.276   7.813   0.790  0.00  0.00     0.027 H 
ATOM     23  H   LIG d   1      11.638   7.514   1.895  0.00  0.00     0.027 H 
ATOM     24  H   LIG d   1      10.858   9.825   2.123  0.00  0.00     0.026 H 
ATOM     25  H   LIG d   1      11.060  10.117   0.392  0.00  0.00     0.026 H 
ATOM     26  H   LIG d   1      13.256   9.454   2.406  0.00  0.00     0.026 H 
ATOM     27  H   LIG d   1      12.983  11.021   1.610  0.00  0.00     0.026 H 
ATOM     28  H   LIG d   1      13.499  10.034  -0.581  0.00  0.00     0.027 H 
ATOM     29  H   LIG d   1      14.825   9.729   0.548  0.00  0.00     0.027 H 
ATOM     30  H   LIG d   1      14.263   7.908  -1.950  0.00  0.00     0.027 H 
ATOM     31  H   LIG d   1      15.583   7.814  -0.773  0.00  0.00     0.027 H 
ATOM     32  H   LIG d   1      14.864   5.576  -0.075  0.00  0.00     0.027 H 
ATOM     33  H   LIG d   1      15.176   5.612  -1.820  0.00  0.00     0.027 H 
ATOM     34  H   LIG d   1      10.600   4.565  -0.198  0.00  0.00     0.027 H 
ATOM     35  H   LIG d   1       9.979   6.191   0.034  0.00  0.00     0.027 H 
ATOM     36  H   LIG d   1       9.920   6.651  -2.287  0.00  0.00     0.027 H 
ATOM     37  H   LIG d   1       9.364   5.003  -2.131  0.00  0.00     0.027 H 
ATOM     38  H   LIG d   1      13.631   4.953  -4.611  0.00  0.00     0.027 H 
ATOM     39  H   LIG d   1      14.573   4.568  -3.145  0.00  0.00     0.027 H 
ATOM     40  H   LIG d   1      12.896   2.741  -4.360  0.00  0.00     0.029 H 
ATOM     41  H   LIG d   1      13.244   2.724  -2.609  0.00  0.00     0.029 H 
ENDROOT
BRANCH  21  42
ATOM     42  C   LIG d   1      10.465   3.172  -4.292  0.00  0.00     0.069 C 
ATOM     43  H   LIG d   1       9.898   4.014  -4.689  0.00  0.00     0.054 H 
ATOM     44  H   LIG d   1      11.092   2.752  -5.079  0.00  0.00     0.054 H 
BRANCH  42  45
ATOM     45  N   LIG d   1       9.539   2.147  -3.805  0.00  0.00    -0.288 NA
ATOM     46  C   LIG d   1       8.416   1.947  -4.415  0.00  0.00     0.033 C 
ATOM     47  H   LIG d   1       8.160   2.537  -5.283  0.00  0.00     0.083 H 
BRANCH  46  48
ATOM     48  C   LIG d   1       7.484   0.915  -3.925  0.00  0.00     0.035 A 
ATOM     49  C   LIG d   1       7.813  -0.442  -4.037  0.00  0.00     0.126 A 
ATOM     50  C   LIG d   1       6.931  -1.404  -3.569  0.00  0.00    -0.018 A 
ATOM     51  C   LIG d   1       5.729  -1.027  -3.006  0.00  0.00    -0.044 A 
ATOM     52  H   LIG d   1       7.183  -2.451  -3.651  0.00  0.00     0.065 H 
ATOM     53  C   LIG d   1       5.396   0.314  -2.897  0.00  0.00     0.019 A 
ATOM     54  H   LIG d   1       5.043  -1.780  -2.647  0.00  0.00     0.063 H 
ATOM     55  C   LIG d   1       6.264   1.285  -3.353  0.00  0.00    -0.036 A 
ATOM     56 BR   LIG d   1       3.746   0.816  -2.123  0.00  0.00    -0.050 Br
ATOM     57  H   LIG d   1       6.001   2.329  -3.268  0.00  0.00     0.064 H 
BRANCH  49  58
ATOM     58  O   LIG d   1       8.993  -0.813  -4.596  0.00  0.00    -0.506 OA
ATOM     59  H   LIG d   1       9.559  -1.336  -4.012  0.00  0.00     0.292 HD
ENDBRANCH  49  58
ENDBRANCH  46  48
ENDBRANCH  42  45
ENDBRANCH  21  42
BRANCH  21  60
ATOM     60  O   LIG d   1      10.933   3.031  -1.919  0.00  0.00    -0.386 OA
ATOM     61  H   LIG d   1      10.009   3.198  -1.690  0.00  0.00     0.210 HD
ENDBRANCH  21  60
BRANCH  16  62
ATOM     62  C   LIG d   1      10.855   5.725  -4.400  0.00  0.00    -0.057 C 
ATOM     63  H   LIG d   1       9.818   5.450  -4.597  0.00  0.00     0.024 H 
ATOM     64  H   LIG d   1      10.950   6.811  -4.406  0.00  0.00     0.024 H 
ATOM     65  H   LIG d   1      11.496   5.300  -5.172  0.00  0.00     0.024 H 
ENDBRANCH  16  62
BRANCH   1  66
ATOM     66  C   LIG d   1      11.708   8.323  -1.442  0.00  0.00    -0.059 C 
ATOM     67  H   LIG d   1      12.095   7.810  -2.322  0.00  0.00     0.024 H 
ATOM     68  H   LIG d   1      10.619   8.320  -1.468  0.00  0.00     0.024 H 
ATOM     69  H   LIG d   1      12.068   9.353  -1.434  0.00  0.00     0.024 H 
ENDBRANCH   1  66
TORSDOF 7
ENDMDL
MODEL 3
REMARK VINA RESULT:      -6.5      5.781      8.434
REMARK  7 active torsions:
REMARK  status: ('A' for Active; 'I' for Inactive)
REMARK    1  A    between atoms: C_1  and  C_2 
REMARK    2  A    between atoms: C_17  and  C_35 
REMARK    3  A    between atoms: C_22  and  C_23 
REMARK    4  A    between atoms: C_22  and  O_34 
REMARK    5  A    between atoms: C_23  and  N_24 
REMARK    6  A    between atoms: C_25  and  C_26 
REMARK    7  A    between atoms: C_31  and  O_32 
ROOT
ATOM      1  C   LIG d   1       4.719  -1.034  -4.741  0.00  0.00    -0.026 C 
ATOM      2  C   LIG d   1       4.028  -2.208  -4.029  0.00  0.00    -0.047 C 
ATOM      3  C   LIG d   1       3.572  -1.803  -2.630  0.00  0.00    -0.052 C 
ATOM      4  C   LIG d   1       4.754  -1.316  -1.795  0.00  0.00    -0.053 C 
ATOM      5  C   LIG d   1       5.451  -0.151  -2.499  0.00  0.00    -0.050 C 
ATOM      6  C   LIG d   1       5.911  -0.599  -3.881  0.00  0.00    -0.035 C 
ATOM      7  H   LIG d   1       6.581  -1.462  -3.764  0.00  0.00     0.031 H 
ATOM      8  C   LIG d   1       6.680   0.517  -4.584  0.00  0.00    -0.049 C 
ATOM      9  C   LIG d   1       7.263  -0.030  -5.887  0.00  0.00    -0.049 C 
ATOM     10  C   LIG d   1       6.155  -0.544  -6.801  0.00  0.00    -0.034 C 
ATOM     11  H   LIG d   1       6.658  -1.113  -7.615  0.00  0.00     0.031 H 
ATOM     12  C   LIG d   1       5.241  -1.517  -6.088  0.00  0.00    -0.032 C 
ATOM     13  H   LIG d   1       5.878  -2.412  -5.853  0.00  0.00     0.031 H 
ATOM     14  C   LIG d   1       4.143  -2.029  -7.003  0.00  0.00    -0.049 C 
ATOM     15  C   LIG d   1       3.426  -0.949  -7.784  0.00  0.00    -0.044 C 
ATOM     16  C   LIG d   1       4.301   0.120  -8.384  0.00  0.00     0.002 C 
ATOM     17  C   LIG d   1       5.426   0.616  -7.466  0.00  0.00    -0.030 C 
ATOM     18  H   LIG d   1       5.069   1.357  -6.743  0.00  0.00     0.031 H 
ATOM     19  C   LIG d   1       6.424   1.264  -8.469  0.00  0.00    -0.047 C 
ATOM     20  C   LIG d   1       6.353   0.366  -9.721  0.00  0.00    -0.021 C 
ATOM     21  C   LIG d   1       4.975  -0.321  -9.690  0.00  0.00     0.091 C 
ATOM     22  H   LIG d   1       3.161  -2.518  -4.614  0.00  0.00     0.027 H 
ATOM     23  H   LIG d   1       4.730  -3.040  -3.957  0.00  0.00     0.027 H 
ATOM     24  H   LIG d   1       3.132  -2.679  -2.136  0.00  0.00     0.026 H 
ATOM     25  H   LIG d   1       2.808  -1.029  -2.680  0.00  0.00     0.026 H 
ATOM     26  H   LIG d   1       5.465  -2.134  -1.659  0.00  0.00     0.026 H 
ATOM     27  H   LIG d   1       4.398  -0.987  -0.817  0.00  0.00     0.026 H 
ATOM     28  H   LIG d   1       4.781   0.701  -2.562  0.00  0.00     0.027 H 
ATOM     29  H   LIG d   1       6.327   0.142  -1.909  0.00  0.00     0.027 H 
ATOM     30  H   LIG d   1       6.038   1.368  -4.788  0.00  0.00     0.027 H 
ATOM     31  H   LIG d   1       7.502   0.845  -3.938  0.00  0.00     0.027 H 
ATOM     32  H   LIG d   1       7.949  -0.849  -5.653  0.00  0.00     0.027 H 
ATOM     33  H   LIG d   1       7.827   0.761  -6.386  0.00  0.00     0.027 H 
ATOM     34  H   LIG d   1       4.579  -2.758  -7.706  0.00  0.00     0.027 H 
ATOM     35  H   LIG d   1       3.406  -2.592  -6.410  0.00  0.00     0.027 H 
ATOM     36  H   LIG d   1       2.652  -0.481  -7.170  0.00  0.00     0.027 H 
ATOM     37  H   LIG d   1       2.881  -1.436  -8.615  0.00  0.00     0.027 H 
ATOM     38  H   LIG d   1       6.124   2.285  -8.708  0.00  0.00     0.027 H 
ATOM     39  H   LIG d   1       7.436   1.265  -8.061  0.00  0.00     0.027 H 
ATOM     40  H   LIG d   1       6.449   0.973 -10.623  0.00  0.00     0.029 H 
ATOM     41  H   LIG d   1       7.147  -0.381  -9.693  0.00  0.00     0.029 H 
ENDROOT
BRANCH  21  42
ATOM     42  C   LIG d   1       4.139   0.140 -10.889  0.00  0.00     0.069 C 
ATOM     43  H   LIG d   1       3.535   1.001 -10.601  0.00  0.00     0.054 H 
ATOM     44  H   LIG d   1       4.801   0.417 -11.708  0.00  0.00     0.054 H 
BRANCH  42  45
ATOM     45  N   LIG d   1       3.260  -0.950 -11.319  0.00  0.00    -0.288 NA
ATOM     46  C   LIG d   1       1.979  -0.851 -11.159  0.00  0.00     0.033 C 
ATOM     47  H   LIG d   1       1.559   0.036 -10.708  0.00  0.00     0.083 H 
BRANCH  46  48
ATOM     48  C   LIG d   1       1.095  -1.948 -11.591  0.00  0.00     0.035 A 
ATOM     49  C   LIG d   1       1.064  -3.152 -10.874  0.00  0.00     0.126 A 
ATOM     50  C   LIG d   1       0.225  -4.176 -11.287  0.00  0.00    -0.018 A 
ATOM     51  C   LIG d   1      -0.567  -4.015 -12.405  0.00  0.00    -0.044 A 
ATOM     52  H   LIG d   1       0.196  -5.104 -10.735  0.00  0.00     0.065 H 
ATOM     53  C   LIG d   1      -0.536  -2.828 -13.121  0.00  0.00     0.019 A 
ATOM     54  H   LIG d   1      -1.215  -4.817 -12.725  0.00  0.00     0.063 H 
ATOM     55  C   LIG d   1       0.288  -1.796 -12.721  0.00  0.00    -0.036 A 
ATOM     56 BR   LIG d   1      -1.628  -2.621 -14.651  0.00  0.00    -0.050 Br
ATOM     57  H   LIG d   1       0.311  -0.874 -13.282  0.00  0.00     0.064 H 
BRANCH  49  58
ATOM     58  O   LIG d   1       1.848  -3.312  -9.777  0.00  0.00    -0.506 OA
ATOM     59  H   LIG d   1       1.646  -4.105  -9.261  0.00  0.00     0.292 HD
ENDBRANCH  49  58
ENDBRANCH  46  48
ENDBRANCH  42  45
ENDBRANCH  21  42
BRANCH  21  60
ATOM     60  O   LIG d   1       5.132  -1.740  -9.727  0.00  0.00    -0.386 OA
ATOM     61  H   LIG d   1       4.333  -2.230  -9.488  0.00  0.00     0.210 HD
ENDBRANCH  21  60
BRANCH  16  62
ATOM     62  C   LIG d   1       3.398   1.324  -8.714  0.00  0.00    -0.057 C 
ATOM     63  H   LIG d   1       3.348   1.455  -9.795  0.00  0.00     0.024 H 
ATOM     64  H   LIG d   1       2.396   1.146  -8.323  0.00  0.00     0.024 H 
ATOM     65  H   LIG d   1       3.812   2.224  -8.258  0.00  0.00     0.024 H 
ENDBRANCH  16  62
BRANCH   1  66
ATOM     66  C   LIG d   1       3.722   0.108  -4.886  0.00  0.00    -0.059 C 
ATOM     67  H   LIG d   1       3.397   0.177  -5.924  0.00  0.00     0.024 H 
ATOM     68  H   LIG d   1       2.860  -0.078  -4.247  0.00  0.00     0.024 H 
ATOM     69  H   LIG d   1       4.197   1.045  -4.593  0.00  0.00     0.024 H 
ENDBRANCH   1  66
TORSDOF 7
ENDMDL
MODEL 4
REMARK VINA RESULT:      -6.2      7.253     10.689
REMARK  7 active torsions:
REMARK  status: ('A' for Active; 'I' for Inactive)
REMARK    1  A    between atoms: C_1  and  C_2 
REMARK    2  A    between atoms: C_17  and  C_35 
REMARK    3  A    between atoms: C_22  and  C_23 
REMARK    4  A    between atoms: C_22  and  O_34 
REMARK    5  A    between atoms: C_23  and  N_24 
REMARK    6  A    between atoms: C_25  and  C_26 
REMARK    7  A    between atoms: C_31  and  O_32 
ROOT
ATOM      1  C   LIG d   1       6.025  -0.621  -3.880  0.00  0.00    -0.026 C 
ATOM      2  C   LIG d   1       5.237  -0.209  -2.627  0.00  0.00    -0.047 C 
ATOM      3  C   LIG d   1       4.713  -1.435  -1.886  0.00  0.00    -0.052 C 
ATOM      4  C   LIG d   1       3.827  -2.282  -2.796  0.00  0.00    -0.053 C 
ATOM      5  C   LIG d   1       4.602  -2.693  -4.049  0.00  0.00    -0.050 C 
ATOM      6  C   LIG d   1       5.090  -1.443  -4.774  0.00  0.00    -0.035 C 
ATOM      7  H   LIG d   1       4.219  -0.822  -5.021  0.00  0.00     0.031 H 
ATOM      8  C   LIG d   1       5.802  -1.814  -6.072  0.00  0.00    -0.049 C 
ATOM      9  C   LIG d   1       6.122  -0.534  -6.843  0.00  0.00    -0.049 C 
ATOM     10  C   LIG d   1       7.012   0.389  -6.014  0.00  0.00    -0.034 C 
ATOM     11  H   LIG d   1       7.021   1.371  -6.539  0.00  0.00     0.031 H 
ATOM     12  C   LIG d   1       6.440   0.635  -4.635  0.00  0.00    -0.032 C 
ATOM     13  H   LIG d   1       5.486   1.205  -4.802  0.00  0.00     0.031 H 
ATOM     14  C   LIG d   1       7.326   1.556  -3.816  0.00  0.00    -0.049 C 
ATOM     15  C   LIG d   1       8.794   1.188  -3.832  0.00  0.00    -0.044 C 
ATOM     16  C   LIG d   1       9.359   0.793  -5.171  0.00  0.00     0.002 C 
ATOM     17  C   LIG d   1       8.448  -0.116  -6.007  0.00  0.00    -0.030 C 
ATOM     18  H   LIG d   1       8.522  -1.165  -5.700  0.00  0.00     0.031 H 
ATOM     19  C   LIG d   1       9.005   0.076  -7.448  0.00  0.00    -0.047 C 
ATOM     20  C   LIG d   1       9.416   1.561  -7.509  0.00  0.00    -0.021 C 
ATOM     21  C   LIG d   1       9.693   1.999  -6.058  0.00  0.00     0.091 C 
ATOM     22  H   LIG d   1       5.893   0.359  -1.965  0.00  0.00     0.027 H 
ATOM     23  H   LIG d   1       4.399   0.421  -2.929  0.00  0.00     0.027 H 
ATOM     24  H   LIG d   1       4.115  -1.099  -1.029  0.00  0.00     0.026 H 
ATOM     25  H   LIG d   1       5.535  -2.037  -1.502  0.00  0.00     0.026 H 
ATOM     26  H   LIG d   1       2.948  -1.703  -3.089  0.00  0.00     0.026 H 
ATOM     27  H   LIG d   1       3.504  -3.176  -2.261  0.00  0.00     0.026 H 
ATOM     28  H   LIG d   1       5.430  -3.342  -3.780  0.00  0.00     0.027 H 
ATOM     29  H   LIG d   1       3.929  -3.250  -4.711  0.00  0.00     0.027 H 
ATOM     30  H   LIG d   1       6.712  -2.371  -5.875  0.00  0.00     0.027 H 
ATOM     31  H   LIG d   1       5.136  -2.437  -6.679  0.00  0.00     0.027 H 
ATOM     32  H   LIG d   1       5.186  -0.018  -7.079  0.00  0.00     0.027 H 
ATOM     33  H   LIG d   1       6.619  -0.794  -7.780  0.00  0.00     0.027 H 
ATOM     34  H   LIG d   1       7.205   2.587  -4.189  0.00  0.00     0.027 H 
ATOM     35  H   LIG d   1       6.971   1.573  -2.774  0.00  0.00     0.027 H 
ATOM     36  H   LIG d   1       8.998   0.397  -3.106  0.00  0.00     0.027 H 
ATOM     37  H   LIG d   1       9.367   2.064  -3.475  0.00  0.00     0.027 H 
ATOM     38  H   LIG d   1       9.865  -0.572  -7.619  0.00  0.00     0.027 H 
ATOM     39  H   LIG d   1       8.233  -0.133  -8.191  0.00  0.00     0.027 H 
ATOM     40  H   LIG d   1      10.318   1.675  -8.113  0.00  0.00     0.029 H 
ATOM     41  H   LIG d   1       8.609   2.158  -7.935  0.00  0.00     0.029 H 
ENDROOT
BRANCH  21  42
ATOM     42  C   LIG d   1      11.173   2.367  -5.901  0.00  0.00     0.069 C 
ATOM     43  H   LIG d   1      11.739   1.481  -5.612  0.00  0.00     0.054 H 
ATOM     44  H   LIG d   1      11.554   2.749  -6.847  0.00  0.00     0.054 H 
BRANCH  42  45
ATOM     45  N   LIG d   1      11.313   3.394  -4.867  0.00  0.00    -0.288 NA
ATOM     46  C   LIG d   1      11.968   3.136  -3.781  0.00  0.00     0.033 C 
ATOM     47  H   LIG d   1      12.411   2.161  -3.638  0.00  0.00     0.083 H 
BRANCH  46  48
ATOM     48  C   LIG d   1      12.109   4.170  -2.740  0.00  0.00     0.035 A 
ATOM     49  C   LIG d   1      10.977   4.653  -2.070  0.00  0.00     0.126 A 
ATOM     50  C   LIG d   1      11.120   5.623  -1.090  0.00  0.00    -0.018 A 
ATOM     51  C   LIG d   1      12.372   6.118  -0.783  0.00  0.00    -0.044 A 
ATOM     52  H   LIG d   1      10.251   5.996  -0.569  0.00  0.00     0.065 H 
ATOM     53  C   LIG d   1      13.494   5.647  -1.446  0.00  0.00     0.019 A 
ATOM     54  H   LIG d   1      12.478   6.876  -0.022  0.00  0.00     0.063 H 
ATOM     55  C   LIG d   1      13.370   4.678  -2.421  0.00  0.00    -0.036 A 
ATOM     56 BR   LIG d   1      15.202   6.334  -1.015  0.00  0.00    -0.050 Br
ATOM     57  H   LIG d   1      14.246   4.315  -2.937  0.00  0.00     0.064 H 
BRANCH  49  58
ATOM     58  O   LIG d   1       9.745   4.170  -2.376  0.00  0.00    -0.506 OA
ATOM     59  H   LIG d   1       9.727   3.610  -3.164  0.00  0.00     0.292 HD
ENDBRANCH  49  58
ENDBRANCH  46  48
ENDBRANCH  42  45
ENDBRANCH  21  42
BRANCH  21  60
ATOM     60  O   LIG d   1       8.878   3.121  -5.720  0.00  0.00    -0.386 OA
ATOM     61  H   LIG d   1       7.939   2.998  -5.914  0.00  0.00     0.210 HD
ENDBRANCH  21  60
BRANCH  16  62
ATOM     62  C   LIG d   1      10.673   0.032  -4.911  0.00  0.00    -0.057 C 
ATOM     63  H   LIG d   1      11.116  -0.263  -5.862  0.00  0.00     0.024 H 
ATOM     64  H   LIG d   1      11.367   0.677  -4.372  0.00  0.00     0.024 H 
ATOM     65  H   LIG d   1      10.466  -0.857  -4.316  0.00  0.00     0.024 H 
ENDBRANCH  16  62
BRANCH   1  66
ATOM     66  C   LIG d   1       7.225  -1.458  -3.454  0.00  0.00    -0.059 C 
ATOM     67  H   LIG d   1       7.012  -1.939  -2.499  0.00  0.00     0.024 H 
ATOM     68  H   LIG d   1       7.424  -2.219  -4.208  0.00  0.00     0.024 H 
ATOM     69  H   LIG d   1       8.099  -0.814  -3.348  0.00  0.00     0.024 H 
ENDBRANCH   1  66
TORSDOF 7
ENDMDL
MODEL 5
REMARK VINA RESULT:      -6.2      5.190      7.260
REMARK  7 active torsions:
REMARK  status: ('A' for Active; 'I' for Inactive)
REMARK    1  A    between atoms: C_1  and  C_2 
REMARK    2  A    between atoms: C_17  and  C_35 
REMARK    3  A    between atoms: C_22  and  C_23 
REMARK    4  A    between atoms: C_22  and  O_34 
REMARK    5  A    between atoms: C_23  and  N_24 
REMARK    6  A    between atoms: C_25  and  C_26 
REMARK    7  A    between atoms: C_31  and  O_32 
ROOT
ATOM      1  C   LIG d   1       3.781  -2.583 -14.216  0.00  0.00    -0.026 C 
ATOM      2  C   LIG d   1       4.961  -3.374 -14.805  0.00  0.00    -0.047 C 
ATOM      3  C   LIG d   1       5.057  -3.164 -16.313  0.00  0.00    -0.052 C 
ATOM      4  C   LIG d   1       3.760  -3.583 -17.002  0.00  0.00    -0.053 C 
ATOM      5  C   LIG d   1       2.581  -2.804 -16.419  0.00  0.00    -0.050 C 
ATOM      6  C   LIG d   1       2.503  -3.055 -14.917  0.00  0.00    -0.035 C 
ATOM      7  H   LIG d   1       2.399  -4.135 -14.749  0.00  0.00     0.031 H 
ATOM      8  C   LIG d   1       1.289  -2.353 -14.314  0.00  0.00    -0.049 C 
ATOM      9  C   LIG d   1       1.157  -2.768 -12.848  0.00  0.00    -0.049 C 
ATOM     10  C   LIG d   1       2.411  -2.390 -12.065  0.00  0.00    -0.034 C 
ATOM     11  H   LIG d   1       2.334  -2.907 -11.081  0.00  0.00     0.031 H 
ATOM     12  C   LIG d   1       3.669  -2.902 -12.731  0.00  0.00    -0.032 C 
ATOM     13  H   LIG d   1       3.605  -4.023 -12.676  0.00  0.00     0.031 H 
ATOM     14  C   LIG d   1       4.912  -2.528 -11.946  0.00  0.00    -0.049 C 
ATOM     15  C   LIG d   1       4.971  -1.076 -11.522  0.00  0.00    -0.044 C 
ATOM     16  C   LIG d   1       3.688  -0.493 -10.990  0.00  0.00     0.002 C 
ATOM     17  C   LIG d   1       2.430  -0.896 -11.771  0.00  0.00    -0.030 C 
ATOM     18  H   LIG d   1       2.295  -0.290 -12.673  0.00  0.00     0.031 H 
ATOM     19  C   LIG d   1       1.290  -0.619 -10.748  0.00  0.00    -0.047 C 
ATOM     20  C   LIG d   1       1.895  -1.001  -9.382  0.00  0.00    -0.021 C 
ATOM     21  C   LIG d   1       3.423  -0.868  -9.526  0.00  0.00     0.091 C 
ATOM     22  H   LIG d   1       5.885  -3.036 -14.335  0.00  0.00     0.027 H 
ATOM     23  H   LIG d   1       4.816  -4.434 -14.592  0.00  0.00     0.027 H 
ATOM     24  H   LIG d   1       5.876  -3.784 -16.702  0.00  0.00     0.026 H 
ATOM     25  H   LIG d   1       5.285  -2.126 -16.547  0.00  0.00     0.026 H 
ATOM     26  H   LIG d   1       3.597  -4.652 -16.852  0.00  0.00     0.026 H 
ATOM     27  H   LIG d   1       3.834  -3.379 -18.072  0.00  0.00     0.026 H 
ATOM     28  H   LIG d   1       2.687  -1.746 -16.638  0.00  0.00     0.027 H 
ATOM     29  H   LIG d   1       1.657  -3.161 -16.889  0.00  0.00     0.027 H 
ATOM     30  H   LIG d   1       1.379  -1.275 -14.392  0.00  0.00     0.027 H 
ATOM     31  H   LIG d   1       0.389  -2.669 -14.854  0.00  0.00     0.027 H 
ATOM     32  H   LIG d   1       1.011  -3.851 -12.797  0.00  0.00     0.027 H 
ATOM     33  H   LIG d   1       0.281  -2.281 -12.415  0.00  0.00     0.027 H 
ATOM     34  H   LIG d   1       4.973  -3.170 -11.051  0.00  0.00     0.027 H 
ATOM     35  H   LIG d   1       5.807  -2.764 -12.543  0.00  0.00     0.027 H 
ATOM     36  H   LIG d   1       5.339  -0.452 -12.342  0.00  0.00     0.027 H 
ATOM     37  H   LIG d   1       5.732  -0.985 -10.725  0.00  0.00     0.027 H 
ATOM     38  H   LIG d   1       1.004   0.433 -10.764  0.00  0.00     0.027 H 
ATOM     39  H   LIG d   1       0.419  -1.241 -10.963  0.00  0.00     0.027 H 
ATOM     40  H   LIG d   1       1.532  -0.322  -8.609  0.00  0.00     0.029 H 
ATOM     41  H   LIG d   1       1.629  -2.028  -9.126  0.00  0.00     0.029 H 
ENDROOT
BRANCH  21  42
ATOM     42  C   LIG d   1       3.936   0.244  -8.604  0.00  0.00     0.069 C 
ATOM     43  H   LIG d   1       4.789   0.738  -9.070  0.00  0.00     0.054 H 
ATOM     44  H   LIG d   1       3.142   0.971  -8.435  0.00  0.00     0.054 H 
BRANCH  42  45
ATOM     45  N   LIG d   1       4.348  -0.336  -7.324  0.00  0.00    -0.288 NA
ATOM     46  C   LIG d   1       3.615  -0.167  -6.270  0.00  0.00     0.033 C 
ATOM     47  H   LIG d   1       2.699   0.403  -6.336  0.00  0.00     0.083 H 
BRANCH  46  48
ATOM     48  C   LIG d   1       4.030  -0.750  -4.982  0.00  0.00     0.035 A 
ATOM     49  C   LIG d   1       3.110  -0.861  -3.930  0.00  0.00     0.126 A 
ATOM     50  C   LIG d   1       3.509  -1.415  -2.723  0.00  0.00    -0.018 A 
ATOM     51  C   LIG d   1       4.810  -1.845  -2.555  0.00  0.00    -0.044 A 
ATOM     52  H   LIG d   1       2.802  -1.505  -1.912  0.00  0.00     0.065 H 
ATOM     53  C   LIG d   1       5.724  -1.732  -3.590  0.00  0.00     0.019 A 
ATOM     54  H   LIG d   1       5.117  -2.272  -1.612  0.00  0.00     0.063 H 
ATOM     55  C   LIG d   1       5.343  -1.189  -4.799  0.00  0.00    -0.036 A 
ATOM     56 BR   LIG d   1       7.503  -2.326  -3.345  0.00  0.00    -0.050 Br
ATOM     57  H   LIG d   1       6.059  -1.102  -5.603  0.00  0.00     0.064 H 
BRANCH  49  58
ATOM     58  O   LIG d   1       1.832  -0.433  -4.095  0.00  0.00    -0.506 OA
ATOM     59  H   LIG d   1       1.287  -1.019  -4.637  0.00  0.00     0.292 HD
ENDBRANCH  49  58
ENDBRANCH  46  48
ENDBRANCH  42  45
ENDBRANCH  21  42
BRANCH  21  60
ATOM     60  O   LIG d   1       4.058  -2.102  -9.194  0.00  0.00    -0.386 OA
ATOM     61  H   LIG d   1       4.241  -2.668  -9.957  0.00  0.00     0.210 HD
ENDBRANCH  21  60
BRANCH  16  62
ATOM     62  C   LIG d   1       3.814   1.040 -11.060  0.00  0.00    -0.057 C 
ATOM     63  H   LIG d   1       3.589   1.378 -12.072  0.00  0.00     0.024 H 
ATOM     64  H   LIG d   1       3.111   1.495 -10.362  0.00  0.00     0.024 H 
ATOM     65  H   LIG d   1       4.830   1.334 -10.797  0.00  0.00     0.024 H 
ENDBRANCH  16  62
BRANCH   1  66
ATOM     66  C   LIG d   1       4.010  -1.098 -14.469  0.00  0.00    -0.059 C 
ATOM     67  H   LIG d   1       3.089  -0.645 -14.836  0.00  0.00     0.024 H 
ATOM     68  H   LIG d   1       4.309  -0.613 -13.540  0.00  0.00     0.024 H 
ATOM     69  H   LIG d   1       4.797  -0.973 -15.213  0.00  0.00     0.024 H 
ENDBRANCH   1  66
TORSDOF 7
ENDMDL
MODEL 6
REMARK VINA RESULT:      -6.2      6.823      9.224
REMARK  7 active torsions:
REMARK  status: ('A' for Active; 'I' for Inactive)
REMARK    1  A    between atoms: C_1  and  C_2 
REMARK    2  A    between atoms: C_17  and  C_35 
REMARK    3  A    between atoms: C_22  and  C_23 
REMARK    4  A    between atoms: C_22  and  O_34 
REMARK    5  A    between atoms: C_23  and  N_24 
REMARK    6  A    between atoms: C_25  and  C_26 
REMARK    7  A    between atoms: C_31  and  O_32 
ROOT
ATOM      1  C   LIG d   1       3.646   0.095  -9.923  0.00  0.00    -0.026 C 
ATOM      2  C   LIG d   1       3.136   1.358  -9.210  0.00  0.00    -0.047 C 
ATOM      3  C   LIG d   1       4.064   2.541  -9.472  0.00  0.00    -0.052 C 
ATOM      4  C   LIG d   1       5.485   2.228  -9.013  0.00  0.00    -0.053 C 
ATOM      5  C   LIG d   1       5.998   0.969  -9.714  0.00  0.00    -0.050 C 
ATOM      6  C   LIG d   1       5.062  -0.194  -9.411  0.00  0.00    -0.035 C 
ATOM      7  H   LIG d   1       5.011  -0.328  -8.322  0.00  0.00     0.031 H 
ATOM      8  C   LIG d   1       5.586  -1.486 -10.032  0.00  0.00    -0.049 C 
ATOM      9  C   LIG d   1       4.711  -2.650  -9.564  0.00  0.00    -0.049 C 
ATOM     10  C   LIG d   1       3.258  -2.433  -9.978  0.00  0.00    -0.034 C 
ATOM     11  H   LIG d   1       2.658  -3.192  -9.427  0.00  0.00     0.031 H 
ATOM     12  C   LIG d   1       2.745  -1.075  -9.550  0.00  0.00    -0.032 C 
ATOM     13  H   LIG d   1       2.739  -1.095  -8.427  0.00  0.00     0.031 H 
ATOM     14  C   LIG d   1       1.299  -0.867  -9.960  0.00  0.00    -0.049 C 
ATOM     15  C   LIG d   1       0.998  -1.228 -11.399  0.00  0.00    -0.044 C 
ATOM     16  C   LIG d   1       1.619  -2.505 -11.900  0.00  0.00     0.002 C 
ATOM     17  C   LIG d   1       3.073  -2.725 -11.461  0.00  0.00    -0.030 C 
ATOM     18  H   LIG d   1       3.779  -2.172 -12.089  0.00  0.00     0.031 H 
ATOM     19  C   LIG d   1       3.258  -4.260 -11.649  0.00  0.00    -0.047 C 
ATOM     20  C   LIG d   1       1.895  -4.864 -11.253  0.00  0.00    -0.021 C 
ATOM     21  C   LIG d   1       0.845  -3.757 -11.466  0.00  0.00     0.091 C 
ATOM     22  H   LIG d   1       2.137   1.595  -9.578  0.00  0.00     0.027 H 
ATOM     23  H   LIG d   1       3.088   1.163  -8.138  0.00  0.00     0.027 H 
ATOM     24  H   LIG d   1       3.696   3.408  -8.907  0.00  0.00     0.026 H 
ATOM     25  H   LIG d   1       4.063   2.808 -10.528  0.00  0.00     0.026 H 
ATOM     26  H   LIG d   1       5.492   2.069  -7.933  0.00  0.00     0.026 H 
ATOM     27  H   LIG d   1       6.139   3.068  -9.254  0.00  0.00     0.026 H 
ATOM     28  H   LIG d   1       6.080   1.144 -10.783  0.00  0.00     0.027 H 
ATOM     29  H   LIG d   1       6.997   0.734  -9.327  0.00  0.00     0.027 H 
ATOM     30  H   LIG d   1       5.586  -1.430 -11.116  0.00  0.00     0.027 H 
ATOM     31  H   LIG d   1       6.613  -1.656  -9.690  0.00  0.00     0.027 H 
ATOM     32  H   LIG d   1       4.770  -2.723  -8.474  0.00  0.00     0.027 H 
ATOM     33  H   LIG d   1       5.090  -3.579  -9.994  0.00  0.00     0.027 H 
ATOM     34  H   LIG d   1       0.652  -1.462  -9.293  0.00  0.00     0.027 H 
ATOM     35  H   LIG d   1       1.017   0.183  -9.788  0.00  0.00     0.027 H 
ATOM     36  H   LIG d   1       1.272  -0.407 -12.066  0.00  0.00     0.027 H 
ATOM     37  H   LIG d   1      -0.099  -1.330 -11.501  0.00  0.00     0.027 H 
ATOM     38  H   LIG d   1       3.499  -4.496 -12.685  0.00  0.00     0.027 H 
ATOM     39  H   LIG d   1       4.044  -4.637 -10.992  0.00  0.00     0.027 H 
ATOM     40  H   LIG d   1       1.668  -5.722 -11.888  0.00  0.00     0.029 H 
ATOM     41  H   LIG d   1       1.910  -5.173 -10.207  0.00  0.00     0.029 H 
ENDROOT
BRANCH  21  42
ATOM     42  C   LIG d   1      -0.131  -4.175 -12.571  0.00  0.00     0.069 C 
ATOM     43  H   LIG d   1       0.143  -3.682 -13.504  0.00  0.00     0.054 H 
ATOM     44  H   LIG d   1      -0.089  -5.255 -12.704  0.00  0.00     0.054 H 
BRANCH  42  45
ATOM     45  N   LIG d   1      -1.491  -3.782 -12.195  0.00  0.00    -0.288 NA
ATOM     46  C   LIG d   1      -2.476  -4.600 -12.380  0.00  0.00     0.033 C 
ATOM     47  H   LIG d   1      -2.295  -5.573 -12.813  0.00  0.00     0.083 H 
BRANCH  46  48
ATOM     48  C   LIG d   1      -3.845  -4.205 -12.001  0.00  0.00     0.035 A 
ATOM     49  C   LIG d   1      -4.208  -4.130 -10.650  0.00  0.00     0.126 A 
ATOM     50  C   LIG d   1      -5.497  -3.753 -10.304  0.00  0.00    -0.018 A 
ATOM     51  C   LIG d   1      -6.421  -3.464 -11.287  0.00  0.00    -0.044 A 
ATOM     52  H   LIG d   1      -5.779  -3.691  -9.263  0.00  0.00     0.065 H 
ATOM     53  C   LIG d   1      -6.069  -3.541 -12.625  0.00  0.00     0.019 A 
ATOM     54  H   LIG d   1      -7.425  -3.175 -11.013  0.00  0.00     0.063 H 
ATOM     55  C   LIG d   1      -4.789  -3.909 -12.987  0.00  0.00    -0.036 A 
ATOM     56 BR   LIG d   1      -7.346  -3.142 -13.961  0.00  0.00    -0.050 Br
ATOM     57  H   LIG d   1      -4.519  -3.970 -14.031  0.00  0.00     0.064 H 
BRANCH  49  58
ATOM     58  O   LIG d   1      -3.300  -4.420  -9.683  0.00  0.00    -0.506 OA
ATOM     59  H   LIG d   1      -3.327  -3.821  -8.925  0.00  0.00     0.292 HD
ENDBRANCH  49  58
ENDBRANCH  46  48
ENDBRANCH  42  45
ENDBRANCH  21  42
BRANCH  21  60
ATOM     60  O   LIG d   1       0.130  -3.518 -10.254  0.00  0.00    -0.386 OA
ATOM     61  H   LIG d   1       0.437  -4.047  -9.505  0.00  0.00     0.210 HD
ENDBRANCH  21  60
BRANCH  16  62
ATOM     62  C   LIG d   1       1.595  -2.457 -13.440  0.00  0.00    -0.057 C 
ATOM     63  H   LIG d   1       1.163  -1.511 -13.767  0.00  0.00     0.024 H 
ATOM     64  H   LIG d   1       2.612  -2.544 -13.822  0.00  0.00     0.024 H 
ATOM     65  H   LIG d   1       0.992  -3.282 -13.819  0.00  0.00     0.024 H 
ENDBRANCH  16  62
BRANCH   1  66
ATOM     66  C   LIG d   1       3.664   0.351 -11.424  0.00  0.00    -0.059 C 
ATOM     67  H   LIG d   1       2.931   1.119 -11.671  0.00  0.00     0.024 H 
ATOM     68  H   LIG d   1       4.657   0.687 -11.723  0.00  0.00     0.024 H 
ATOM     69  H   LIG d   1       3.417  -0.570 -11.954  0.00  0.00     0.024 H 
ENDBRANCH   1  66
TORSDOF 7
ENDMDL
MODEL 7
REMARK VINA RESULT:      -6.1     12.912     15.994
REMARK  7 active torsions:
REMARK  status: ('A' for Active; 'I' for Inactive)
REMARK    1  A    between atoms: C_1  and  C_2 
REMARK    2  A    between atoms: C_17  and  C_35 
REMARK    3  A    between atoms: C_22  and  C_23 
REMARK    4  A    between atoms: C_22  and  O_34 
REMARK    5  A    between atoms: C_23  and  N_24 
REMARK    6  A    between atoms: C_25  and  C_26 
REMARK    7  A    between atoms: C_31  and  O_32 
ROOT
ATOM      1  C   LIG d   1      10.450   5.626  -4.729  0.00  0.00    -0.026 C 
ATOM      2  C   LIG d   1      10.903   5.957  -6.160  0.00  0.00    -0.047 C 
ATOM      3  C   LIG d   1       9.870   5.488  -7.180  0.00  0.00    -0.052 C 
ATOM      4  C   LIG d   1       9.624   3.987  -7.051  0.00  0.00    -0.053 C 
ATOM      5  C   LIG d   1       9.177   3.648  -5.628  0.00  0.00    -0.050 C 
ATOM      6  C   LIG d   1      10.243   4.110  -4.641  0.00  0.00    -0.035 C 
ATOM      7  H   LIG d   1      11.192   3.619  -4.897  0.00  0.00     0.031 H 
ATOM      8  C   LIG d   1       9.865   3.718  -3.215  0.00  0.00    -0.049 C 
ATOM      9  C   LIG d   1      11.034   4.049  -2.286  0.00  0.00    -0.049 C 
ATOM     10  C   LIG d   1      11.361   5.539  -2.340  0.00  0.00    -0.034 C 
ATOM     11  H   LIG d   1      12.338   5.664  -1.820  0.00  0.00     0.031 H 
ATOM     12  C   LIG d   1      11.557   6.023  -3.760  0.00  0.00    -0.032 C 
ATOM     13  H   LIG d   1      12.477   5.498  -4.134  0.00  0.00     0.031 H 
ATOM     14  C   LIG d   1      11.886   7.504  -3.808  0.00  0.00    -0.049 C 
ATOM     15  C   LIG d   1      10.979   8.374  -2.965  0.00  0.00    -0.044 C 
ATOM     16  C   LIG d   1      10.645   7.845  -1.595  0.00  0.00     0.002 C 
ATOM     17  C   LIG d   1      10.339   6.342  -1.547  0.00  0.00    -0.030 C 
ATOM     18  H   LIG d   1       9.309   6.123  -1.849  0.00  0.00     0.031 H 
ATOM     19  C   LIG d   1      10.556   5.997  -0.044  0.00  0.00    -0.047 C 
ATOM     20  C   LIG d   1      11.742   6.883   0.388  0.00  0.00    -0.021 C 
ATOM     21  C   LIG d   1      11.762   8.088  -0.572  0.00  0.00     0.091 C 
ATOM     22  H   LIG d   1      11.034   7.036  -6.250  0.00  0.00     0.027 H 
ATOM     23  H   LIG d   1      11.856   5.462  -6.352  0.00  0.00     0.027 H 
ATOM     24  H   LIG d   1      10.252   5.696  -8.188  0.00  0.00     0.026 H 
ATOM     25  H   LIG d   1       8.933   6.031  -7.060  0.00  0.00     0.026 H 
ATOM     26  H   LIG d   1      10.545   3.447  -7.279  0.00  0.00     0.026 H 
ATOM     27  H   LIG d   1       8.848   3.684  -7.756  0.00  0.00     0.026 H 
ATOM     28  H   LIG d   1       8.217   4.109  -5.418  0.00  0.00     0.027 H 
ATOM     29  H   LIG d   1       9.062   2.561  -5.547  0.00  0.00     0.027 H 
ATOM     30  H   LIG d   1       8.970   4.235  -2.889  0.00  0.00     0.027 H 
ATOM     31  H   LIG d   1       9.679   2.639  -3.179  0.00  0.00     0.027 H 
ATOM     32  H   LIG d   1      11.911   3.474  -2.599  0.00  0.00     0.027 H 
ATOM     33  H   LIG d   1      10.775   3.757  -1.267  0.00  0.00     0.027 H 
ATOM     34  H   LIG d   1      12.930   7.645  -3.481  0.00  0.00     0.027 H 
ATOM     35  H   LIG d   1      11.851   7.853  -4.851  0.00  0.00     0.027 H 
ATOM     36  H   LIG d   1      10.053   8.595  -3.502  0.00  0.00     0.027 H 
ATOM     37  H   LIG d   1      11.476   9.353  -2.830  0.00  0.00     0.027 H 
ATOM     38  H   LIG d   1       9.665   6.231   0.538  0.00  0.00     0.027 H 
ATOM     39  H   LIG d   1      10.808   4.942   0.077  0.00  0.00     0.027 H 
ATOM     40  H   LIG d   1      11.599   7.224   1.415  0.00  0.00     0.029 H 
ATOM     41  H   LIG d   1      12.676   6.325   0.311  0.00  0.00     0.029 H 
ENDROOT
BRANCH  21  42
ATOM     42  C   LIG d   1      11.480   9.377   0.209  0.00  0.00     0.069 C 
ATOM     43  H   LIG d   1      12.231  10.126  -0.043  0.00  0.00     0.054 H 
ATOM     44  H   LIG d   1      10.491   9.750  -0.052  0.00  0.00     0.054 H 
BRANCH  42  45
ATOM     45  N   LIG d   1      11.535   9.098   1.646  0.00  0.00    -0.288 NA
ATOM     46  C   LIG d   1      12.201   9.880   2.433  0.00  0.00     0.033 C 
ATOM     47  H   LIG d   1      12.718  10.738   2.029  0.00  0.00     0.083 H 
BRANCH  46  48
ATOM     48  C   LIG d   1      12.256   9.599   3.879  0.00  0.00     0.035 A 
ATOM     49  C   LIG d   1      12.635  10.605   4.778  0.00  0.00     0.126 A 
ATOM     50  C   LIG d   1      12.679  10.332   6.137  0.00  0.00    -0.018 A 
ATOM     51  C   LIG d   1      12.362   9.071   6.600  0.00  0.00    -0.044 A 
ATOM     52  H   LIG d   1      12.968  11.106   6.833  0.00  0.00     0.065 H 
ATOM     53  C   LIG d   1      11.992   8.072   5.715  0.00  0.00     0.019 A 
ATOM     54  H   LIG d   1      12.402   8.862   7.659  0.00  0.00     0.063 H 
ATOM     55  C   LIG d   1      11.937   8.327   4.360  0.00  0.00    -0.036 A 
ATOM     56 BR   LIG d   1      11.559   6.349   6.365  0.00  0.00    -0.050 Br
ATOM     57  H   LIG d   1      11.649   7.546   3.674  0.00  0.00     0.064 H 
BRANCH  49  58
ATOM     58  O   LIG d   1      12.952  11.844   4.321  0.00  0.00    -0.506 OA
ATOM     59  H   LIG d   1      12.639  12.564   4.884  0.00  0.00     0.292 HD
ENDBRANCH  49  58
ENDBRANCH  46  48
ENDBRANCH  42  45
ENDBRANCH  21  42
BRANCH  21  60
ATOM     60  O   LIG d   1      13.032   8.182  -1.217  0.00  0.00    -0.386 OA
ATOM     61  H   LIG d   1      13.258   7.410  -1.754  0.00  0.00     0.210 HD
ENDBRANCH  21  60
BRANCH  16  62
ATOM     62  C   LIG d   1       9.394   8.595  -1.102  0.00  0.00    -0.057 C 
ATOM     63  H   LIG d   1       8.599   8.503  -1.842  0.00  0.00     0.024 H 
ATOM     64  H   LIG d   1       9.061   8.166  -0.156  0.00  0.00     0.024 H 
ATOM     65  H   LIG d   1       9.635   9.648  -0.958  0.00  0.00     0.024 H 
ENDBRANCH  16  62
BRANCH   1  66
ATOM     66  C   LIG d   1       9.146   6.359  -4.444  0.00  0.00    -0.059 C 
ATOM     67  H   LIG d   1       9.122   6.667  -3.398  0.00  0.00     0.024 H 
ATOM     68  H   LIG d   1       9.076   7.239  -5.083  0.00  0.00     0.024 H 
ATOM     69  H   LIG d   1       8.304   5.696  -4.645  0.00  0.00     0.024 H 
ENDBRANCH   1  66
TORSDOF 7
ENDMDL
MODEL 8
REMARK VINA RESULT:      -6.1     12.275     15.306
REMARK  7 active torsions:
REMARK  status: ('A' for Active; 'I' for Inactive)
REMARK    1  A    between atoms: C_1  and  C_2 
REMARK    2  A    between atoms: C_17  and  C_35 
REMARK    3  A    between atoms: C_22  and  C_23 
REMARK    4  A    between atoms: C_22  and  O_34 
REMARK    5  A    between atoms: C_23  and  N_24 
REMARK    6  A    between atoms: C_25  and  C_26 
REMARK    7  A    between atoms: C_31  and  O_32 
ROOT
ATOM      1  C   LIG d   1      10.356   7.088  -3.170  0.00  0.00    -0.026 C 
ATOM      2  C   LIG d   1      10.054   8.115  -2.067  0.00  0.00    -0.047 C 
ATOM      3  C   LIG d   1      10.863   7.816  -0.809  0.00  0.00    -0.052 C 
ATOM      4  C   LIG d   1      10.569   6.409  -0.297  0.00  0.00    -0.053 C 
ATOM      5  C   LIG d   1      10.862   5.380  -1.390  0.00  0.00    -0.050 C 
ATOM      6  C   LIG d   1      10.021   5.697  -2.621  0.00  0.00    -0.035 C 
ATOM      7  H   LIG d   1       8.961   5.690  -2.330  0.00  0.00     0.031 H 
ATOM      8  C   LIG d   1      10.231   4.644  -3.705  0.00  0.00    -0.049 C 
ATOM      9  C   LIG d   1       9.247   4.907  -4.846  0.00  0.00    -0.049 C 
ATOM     10  C   LIG d   1       9.461   6.300  -5.433  0.00  0.00    -0.034 C 
ATOM     11  H   LIG d   1       8.587   6.499  -6.094  0.00  0.00     0.031 H 
ATOM     12  C   LIG d   1       9.454   7.371  -4.364  0.00  0.00    -0.032 C 
ATOM     13  H   LIG d   1       8.410   7.375  -3.949  0.00  0.00     0.031 H 
ATOM     14  C   LIG d   1       9.662   8.754  -4.953  0.00  0.00    -0.049 C 
ATOM     15  C   LIG d   1      10.813   8.849  -5.932  0.00  0.00    -0.044 C 
ATOM     16  C   LIG d   1      10.934   7.718  -6.918  0.00  0.00     0.002 C 
ATOM     17  C   LIG d   1      10.696   6.323  -6.324  0.00  0.00    -0.030 C 
ATOM     18  H   LIG d   1      11.586   5.936  -5.817  0.00  0.00     0.031 H 
ATOM     19  C   LIG d   1      10.365   5.468  -7.582  0.00  0.00    -0.047 C 
ATOM     20  C   LIG d   1       9.561   6.417  -8.494  0.00  0.00    -0.021 C 
ATOM     21  C   LIG d   1       9.968   7.850  -8.103  0.00  0.00     0.091 C 
ATOM     22  H   LIG d   1      10.309   9.112  -2.430  0.00  0.00     0.027 H 
ATOM     23  H   LIG d   1       8.989   8.079  -1.833  0.00  0.00     0.027 H 
ATOM     24  H   LIG d   1      10.582   8.538  -0.031  0.00  0.00     0.026 H 
ATOM     25  H   LIG d   1      11.930   7.928  -0.998  0.00  0.00     0.026 H 
ATOM     26  H   LIG d   1       9.518   6.339  -0.007  0.00  0.00     0.026 H 
ATOM     27  H   LIG d   1      11.193   6.199   0.573  0.00  0.00     0.026 H 
ATOM     28  H   LIG d   1      11.922   5.377  -1.625  0.00  0.00     0.027 H 
ATOM     29  H   LIG d   1      10.590   4.385  -1.018  0.00  0.00     0.027 H 
ATOM     30  H   LIG d   1      11.250   4.661  -4.077  0.00  0.00     0.027 H 
ATOM     31  H   LIG d   1      10.028   3.653  -3.285  0.00  0.00     0.027 H 
ATOM     32  H   LIG d   1       8.226   4.830  -4.460  0.00  0.00     0.027 H 
ATOM     33  H   LIG d   1       9.383   4.148  -5.619  0.00  0.00     0.027 H 
ATOM     34  H   LIG d   1       8.732   9.069  -5.454  0.00  0.00     0.027 H 
ATOM     35  H   LIG d   1       9.822   9.477  -4.140  0.00  0.00     0.027 H 
ATOM     36  H   LIG d   1      11.760   8.968  -5.400  0.00  0.00     0.027 H 
ATOM     37  H   LIG d   1      10.688   9.783  -6.513  0.00  0.00     0.027 H 
ATOM     38  H   LIG d   1      11.279   5.138  -8.076  0.00  0.00     0.027 H 
ATOM     39  H   LIG d   1       9.760   4.601  -7.311  0.00  0.00     0.027 H 
ATOM     40  H   LIG d   1       9.810   6.230  -9.540  0.00  0.00     0.029 H 
ATOM     41  H   LIG d   1       8.491   6.273  -8.337  0.00  0.00     0.029 H 
ENDROOT
BRANCH  21  42
ATOM     42  C   LIG d   1      10.678   8.527  -9.280  0.00  0.00     0.069 C 
ATOM     43  H   LIG d   1      10.322   9.553  -9.379  0.00  0.00     0.054 H 
ATOM     44  H   LIG d   1      11.753   8.531  -9.102  0.00  0.00     0.054 H 
BRANCH  42  45
ATOM     45  N   LIG d   1      10.390   7.790 -10.513  0.00  0.00    -0.288 NA
ATOM     46  C   LIG d   1      10.073   8.431 -11.592  0.00  0.00     0.033 C 
ATOM     47  H   LIG d   1      10.021   9.509 -11.583  0.00  0.00     0.083 H 
BRANCH  46  48
ATOM     48  C   LIG d   1       9.783   7.689 -12.832  0.00  0.00     0.035 A 
ATOM     49  C   LIG d   1       8.957   6.557 -12.798  0.00  0.00     0.126 A 
ATOM     50  C   LIG d   1       8.686   5.869 -13.971  0.00  0.00    -0.018 A 
ATOM     51  C   LIG d   1       9.237   6.290 -15.165  0.00  0.00    -0.044 A 
ATOM     52  H   LIG d   1       8.048   4.998 -13.950  0.00  0.00     0.065 H 
ATOM     53  C   LIG d   1      10.058   7.406 -15.202  0.00  0.00     0.019 A 
ATOM     54  H   LIG d   1       9.027   5.748 -16.075  0.00  0.00     0.063 H 
ATOM     55  C   LIG d   1      10.334   8.106 -14.045  0.00  0.00    -0.036 A 
ATOM     56 BR   LIG d   1      10.806   7.972 -16.844  0.00  0.00    -0.050 Br
ATOM     57  H   LIG d   1      10.975   8.974 -14.078  0.00  0.00     0.064 H 
BRANCH  49  58
ATOM     58  O   LIG d   1       8.420   6.139 -11.623  0.00  0.00    -0.506 OA
ATOM     59  H   LIG d   1       8.821   5.334 -11.271  0.00  0.00     0.292 HD
ENDBRANCH  49  58
ENDBRANCH  46  48
ENDBRANCH  42  45
ENDBRANCH  21  42
BRANCH  21  60
ATOM     60  O   LIG d   1       8.814   8.606  -7.735  0.00  0.00    -0.386 OA
ATOM     61  H   LIG d   1       8.651   9.375  -8.298  0.00  0.00     0.210 HD
ENDBRANCH  21  60
BRANCH  16  62
ATOM     62  C   LIG d   1      12.366   7.749  -7.484  0.00  0.00    -0.057 C 
ATOM     63  H   LIG d   1      12.930   8.548  -7.001  0.00  0.00     0.024 H 
ATOM     64  H   LIG d   1      12.854   6.793  -7.293  0.00  0.00     0.024 H 
ATOM     65  H   LIG d   1      12.329   7.931  -8.558  0.00  0.00     0.024 H 
ENDBRANCH  16  62
BRANCH   1  66
ATOM     66  C   LIG d   1      11.833   7.176  -3.532  0.00  0.00    -0.059 C 
ATOM     67  H   LIG d   1      12.311   6.214  -3.346  0.00  0.00     0.024 H 
ATOM     68  H   LIG d   1      11.934   7.434  -4.586  0.00  0.00     0.024 H 
ATOM     69  H   LIG d   1      12.313   7.943  -2.922  0.00  0.00     0.024 H 
ENDBRANCH   1  66
TORSDOF 7
ENDMDL
MODEL 9
REMARK VINA RESULT:      -6.1      6.267      7.700
REMARK  7 active torsions:
REMARK  status: ('A' for Active; 'I' for Inactive)
REMARK    1  A    between atoms: C_1  and  C_2 
REMARK    2  A    between atoms: C_17  and  C_35 
REMARK    3  A    between atoms: C_22  and  C_23 
REMARK    4  A    between atoms: C_22  and  O_34 
REMARK    5  A    between atoms: C_23  and  N_24 
REMARK    6  A    between atoms: C_25  and  C_26 
REMARK    7  A    between atoms: C_31  and  O_32 
ROOT
ATOM      1  C   LIG d   1       3.610   0.113  -9.882  0.00  0.00    -0.026 C 
ATOM      2  C   LIG d   1       3.073   1.433  -9.306  0.00  0.00    -0.047 C 
ATOM      3  C   LIG d   1       4.026   2.586  -9.608  0.00  0.00    -0.052 C 
ATOM      4  C   LIG d   1       5.415   2.304  -9.041  0.00  0.00    -0.053 C 
ATOM      5  C   LIG d   1       5.955   0.989  -9.605  0.00  0.00    -0.050 C 
ATOM      6  C   LIG d   1       4.990  -0.141  -9.265  0.00  0.00    -0.035 C 
ATOM      7  H   LIG d   1       4.875  -0.185  -8.174  0.00  0.00     0.031 H 
ATOM      8  C   LIG d   1       5.537  -1.482  -9.747  0.00  0.00    -0.049 C 
ATOM      9  C   LIG d   1       4.624  -2.599  -9.239  0.00  0.00    -0.049 C 
ATOM     10  C   LIG d   1       3.200  -2.409  -9.755  0.00  0.00    -0.034 C 
ATOM     11  H   LIG d   1       2.561  -3.117  -9.180  0.00  0.00     0.031 H 
ATOM     12  C   LIG d   1       2.677  -1.018  -9.470  0.00  0.00    -0.032 C 
ATOM     13  H   LIG d   1       2.605  -0.946  -8.351  0.00  0.00     0.031 H 
ATOM     14  C   LIG d   1       1.260  -0.836  -9.981  0.00  0.00    -0.049 C 
ATOM     15  C   LIG d   1       1.041  -1.312 -11.401  0.00  0.00    -0.044 C 
ATOM     16  C   LIG d   1       1.677  -2.629 -11.759  0.00  0.00     0.002 C 
ATOM     17  C   LIG d   1       3.100  -2.820 -11.217  0.00  0.00    -0.030 C 
ATOM     18  H   LIG d   1       3.848  -2.324 -11.845  0.00  0.00     0.031 H 
ATOM     19  C   LIG d   1       3.280  -4.366 -11.268  0.00  0.00    -0.047 C 
ATOM     20  C   LIG d   1       1.891  -4.929 -10.907  0.00  0.00    -0.021 C 
ATOM     21  C   LIG d   1       0.866  -3.837 -11.271  0.00  0.00     0.091 C 
ATOM     22  H   LIG d   1       2.100   1.645  -9.751  0.00  0.00     0.027 H 
ATOM     23  H   LIG d   1       2.959   1.326  -8.226  0.00  0.00     0.027 H 
ATOM     24  H   LIG d   1       3.634   3.497  -9.138  0.00  0.00     0.026 H 
ATOM     25  H   LIG d   1       4.090   2.765 -10.680  0.00  0.00     0.026 H 
ATOM     26  H   LIG d   1       5.356   2.233  -7.953  0.00  0.00     0.026 H 
ATOM     27  H   LIG d   1       6.090   3.117  -9.310  0.00  0.00     0.026 H 
ATOM     28  H   LIG d   1       6.102   1.075 -10.678  0.00  0.00     0.027 H 
ATOM     29  H   LIG d   1       6.926   0.781  -9.141  0.00  0.00     0.027 H 
ATOM     30  H   LIG d   1       5.602  -1.514 -10.829  0.00  0.00     0.027 H 
ATOM     31  H   LIG d   1       6.540  -1.629  -9.332  0.00  0.00     0.027 H 
ATOM     32  H   LIG d   1       4.618  -2.583  -8.145  0.00  0.00     0.027 H 
ATOM     33  H   LIG d   1       5.018  -3.562  -9.568  0.00  0.00     0.027 H 
ATOM     34  H   LIG d   1       0.569  -1.371  -9.308  0.00  0.00     0.027 H 
ATOM     35  H   LIG d   1       0.980   0.226  -9.912  0.00  0.00     0.027 H 
ATOM     36  H   LIG d   1       1.362  -0.549 -12.115  0.00  0.00     0.027 H 
ATOM     37  H   LIG d   1      -0.049  -1.416 -11.560  0.00  0.00     0.027 H 
ATOM     38  H   LIG d   1       3.580  -4.687 -12.266  0.00  0.00     0.027 H 
ATOM     39  H   LIG d   1       4.022  -4.692 -10.538  0.00  0.00     0.027 H 
ATOM     40  H   LIG d   1       1.692  -5.835 -11.482  0.00  0.00     0.029 H 
ATOM     41  H   LIG d   1       1.840  -5.151  -9.840  0.00  0.00     0.029 H 
ENDROOT
BRANCH  21  42
ATOM     42  C   LIG d   1      -0.047  -4.339 -12.395  0.00  0.00     0.069 C 
ATOM     43  H   LIG d   1      -0.853  -3.622 -12.556  0.00  0.00     0.054 H 
ATOM     44  H   LIG d   1       0.531  -4.447 -13.312  0.00  0.00     0.054 H 
BRANCH  42  45
ATOM     45  N   LIG d   1      -0.616  -5.635 -12.020  0.00  0.00    -0.288 NA
ATOM     46  C   LIG d   1      -1.860  -5.721 -11.673  0.00  0.00     0.033 C 
ATOM     47  H   LIG d   1      -2.478  -4.836 -11.660  0.00  0.00     0.083 H 
BRANCH  46  48
ATOM     48  C   LIG d   1      -2.432  -7.026 -11.295  0.00  0.00     0.035 A 
ATOM     49  C   LIG d   1      -1.980  -7.686 -10.144  0.00  0.00     0.126 A 
ATOM     50  C   LIG d   1      -2.527  -8.912  -9.795  0.00  0.00    -0.018 A 
ATOM     51  C   LIG d   1      -3.505  -9.483 -10.584  0.00  0.00    -0.044 A 
ATOM     52  H   LIG d   1      -2.184  -9.422  -8.908  0.00  0.00     0.065 H 
ATOM     53  C   LIG d   1      -3.952  -8.836 -11.725  0.00  0.00     0.019 A 
ATOM     54  H   LIG d   1      -3.926 -10.439 -10.310  0.00  0.00     0.063 H 
ATOM     55  C   LIG d   1      -3.422  -7.614 -12.084  0.00  0.00    -0.036 A 
ATOM     56 BR   LIG d   1      -5.293  -9.631 -12.795  0.00  0.00    -0.050 Br
ATOM     57  H   LIG d   1      -3.772  -7.114 -12.975  0.00  0.00     0.064 H 
BRANCH  49  58
ATOM     58  O   LIG d   1      -1.014  -7.126  -9.372  0.00  0.00    -0.506 OA
ATOM     59  H   LIG d   1      -1.221  -7.116  -8.428  0.00  0.00     0.292 HD
ENDBRANCH  49  58
ENDBRANCH  46  48
ENDBRANCH  42  45
ENDBRANCH  21  42
BRANCH  21  60
ATOM     60  O   LIG d   1       0.083  -3.496 -10.128  0.00  0.00    -0.386 OA
ATOM     61  H   LIG d   1      -0.846  -3.752 -10.197  0.00  0.00     0.210 HD
ENDBRANCH  21  60
BRANCH  16  62
ATOM     62  C   LIG d   1       1.744  -2.707 -13.296  0.00  0.00    -0.057 C 
ATOM     63  H   LIG d   1       2.052  -3.709 -13.596  0.00  0.00     0.024 H 
ATOM     64  H   LIG d   1       0.762  -2.489 -13.714  0.00  0.00     0.024 H 
ATOM     65  H   LIG d   1       2.467  -1.980 -13.665  0.00  0.00     0.024 H 
ENDBRANCH  16  62
BRANCH   1  66
ATOM     66  C   LIG d   1       3.720   0.245 -11.396  0.00  0.00    -0.059 C 
ATOM     67  H   LIG d   1       2.918  -0.321 -11.870  0.00  0.00     0.024 H 
ATOM     68  H   LIG d   1       3.637   1.295 -11.676  0.00  0.00     0.024 H 
ATOM     69  H   LIG d   1       4.684  -0.144 -11.726  0.00  0.00     0.024 H 
ENDBRANCH   1  66
TORSDOF 7
ENDMDL
