MODEL 1
REMARK VINA RESULT:      -5.8      0.000      0.000
REMARK  4 active torsions:
REMARK  status: ('A' for Active; 'I' for Inactive)
REMARK    1  A    between atoms: C_1  and  C_2 
REMARK    2  A    between atoms: C_2  and  C_3 
REMARK    3  A    between atoms: C_3  and  C_5 
REMARK    4  A    between atoms: C_3  and  C_11 
REMARK       I    between atoms: C_11  and  N_13 
REMARK       I    between atoms: N_13  and  C_14 
REMARK       I    between atoms: C_14  and  N_16 
ROOT
ATOM      1  C   LIG d   1       5.768  -2.284  -3.660  0.00  0.00     0.061 C 
ATOM      2  H   LIG d   1       5.545  -3.122  -3.000  0.00  0.00     0.044 H 
ENDROOT
BRANCH   1   3
ATOM      3  C   LIG d   1       7.274  -2.016  -3.655  0.00  0.00    -0.041 C 
ATOM      4  H   LIG d   1       7.562  -1.575  -2.701  0.00  0.00     0.027 H 
ATOM      5  H   LIG d   1       7.524  -1.329  -4.462  0.00  0.00     0.027 H 
BRANCH   3   6
ATOM      6  C   LIG d   1       8.026  -3.334  -3.856  0.00  0.00    -0.064 C 
ATOM      7  H   LIG d   1       7.964  -3.631  -4.903  0.00  0.00     0.023 H 
ATOM      8  H   LIG d   1       9.071  -3.202  -3.577  0.00  0.00     0.023 H 
ATOM      9  H   LIG d   1       7.577  -4.106  -3.232  0.00  0.00     0.023 H 
ENDBRANCH   3   6
ENDBRANCH   1   3
BRANCH   1  10
ATOM     10  C   LIG d   1       5.038  -1.057  -3.177  0.00  0.00    -0.035 A 
ATOM     11  C   LIG d   1       5.746   0.084  -2.852  0.00  0.00    -0.058 A 
ATOM     12  C   LIG d   1       5.076   1.212  -2.413  0.00  0.00    -0.061 A 
ATOM     13  H   LIG d   1       6.822   0.097  -2.944  0.00  0.00     0.062 H 
ATOM     14  C   LIG d   1       3.700   1.194  -2.290  0.00  0.00    -0.062 A 
ATOM     15  H   LIG d   1       5.630   2.106  -2.164  0.00  0.00     0.062 H 
ATOM     16  C   LIG d   1       2.992   0.050  -2.610  0.00  0.00    -0.061 A 
ATOM     17  H   LIG d   1       3.177   2.074  -1.945  0.00  0.00     0.062 H 
ATOM     18  C   LIG d   1       3.661  -1.075  -3.053  0.00  0.00    -0.058 A 
ATOM     19  H   LIG d   1       1.917   0.036  -2.515  0.00  0.00     0.062 H 
ATOM     20  H   LIG d   1       3.109  -1.968  -3.303  0.00  0.00     0.062 H 
ENDBRANCH   1  10
BRANCH   1  21
ATOM     21  C   LIG d   1       5.322  -2.614  -5.061  0.00  0.00     0.228 C 
ATOM     22  O   LIG d   1       5.683  -1.926  -5.991  0.00  0.00    -0.275 OA
ATOM     23  N   LIG d   1       4.519  -3.675  -5.279  0.00  0.00    -0.240 N 
ATOM     24  C   LIG d   1       4.119  -3.970  -6.532  0.00  0.00     0.303 C 
ATOM     25  H   LIG d   1       4.229  -4.226  -4.536  0.00  0.00     0.159 HD
ATOM     26  O   LIG d   1       4.481  -3.281  -7.465  0.00  0.00    -0.253 OA
ATOM     27  N   LIG d   1       3.317  -5.031  -6.751  0.00  0.00    -0.313 N 
ATOM     28  H   LIG d   1       3.026  -5.582  -6.007  0.00  0.00     0.146 HD
ATOM     29  H   LIG d   1       3.029  -5.244  -7.653  0.00  0.00     0.146 HD
ENDBRANCH   1  21
TORSDOF 4
ENDMDL
MODEL 2
REMARK VINA RESULT:      -5.6      1.735      2.179
REMARK  4 active torsions:
REMARK  status: ('A' for Active; 'I' for Inactive)
REMARK    1  A    between atoms: C_1  and  C_2 
REMARK    2  A    between atoms: C_2  and  C_3 
REMARK    3  A    between atoms: C_3  and  C_5 
REMARK    4  A    between atoms: C_3  and  C_11 
REMARK       I    between atoms: C_11  and  N_13 
REMARK       I    between atoms: N_13  and  C_14 
REMARK       I    between atoms: C_14  and  N_16 
ROOT
ATOM      1  C   LIG d   1       5.566  -1.974  -5.087  0.00  0.00     0.061 C 
ATOM      2  H   LIG d   1       6.535  -2.221  -4.653  0.00  0.00     0.044 H 
ENDROOT
BRANCH   1   3
ATOM      3  C   LIG d   1       5.771  -1.219  -6.401  0.00  0.00    -0.041 C 
ATOM      4  H   LIG d   1       4.866  -0.664  -6.647  0.00  0.00     0.027 H 
ATOM      5  H   LIG d   1       5.989  -1.929  -7.198  0.00  0.00     0.027 H 
BRANCH   3   6
ATOM      6  C   LIG d   1       6.942  -0.245  -6.251  0.00  0.00    -0.064 C 
ATOM      7  H   LIG d   1       6.572   0.714  -5.886  0.00  0.00     0.023 H 
ATOM      8  H   LIG d   1       7.663  -0.650  -5.542  0.00  0.00     0.023 H 
ATOM      9  H   LIG d   1       7.422  -0.104  -7.219  0.00  0.00     0.023 H 
ENDBRANCH   3   6
ENDBRANCH   1   3
BRANCH   1  10
ATOM     10  C   LIG d   1       4.791  -1.109  -4.126  0.00  0.00    -0.035 A 
ATOM     11  C   LIG d   1       3.679  -0.415  -4.564  0.00  0.00    -0.058 A 
ATOM     12  C   LIG d   1       2.966   0.376  -3.682  0.00  0.00    -0.061 A 
ATOM     13  H   LIG d   1       3.366  -0.492  -5.595  0.00  0.00     0.062 H 
ATOM     14  C   LIG d   1       3.370   0.479  -2.365  0.00  0.00    -0.062 A 
ATOM     15  H   LIG d   1       2.094   0.914  -4.023  0.00  0.00     0.062 H 
ATOM     16  C   LIG d   1       4.486  -0.212  -1.927  0.00  0.00    -0.061 A 
ATOM     17  H   LIG d   1       2.815   1.098  -1.676  0.00  0.00     0.062 H 
ATOM     18  C   LIG d   1       5.196  -1.005  -2.808  0.00  0.00    -0.058 A 
ATOM     19  H   LIG d   1       4.801  -0.131  -0.898  0.00  0.00     0.062 H 
ATOM     20  H   LIG d   1       6.067  -1.545  -2.467  0.00  0.00     0.062 H 
ENDBRANCH   1  10
BRANCH   1  21
ATOM     21  C   LIG d   1       4.796  -3.243  -5.352  0.00  0.00     0.228 C 
ATOM     22  O   LIG d   1       4.535  -3.996  -4.439  0.00  0.00    -0.275 OA
ATOM     23  N   LIG d   1       4.400  -3.541  -6.606  0.00  0.00    -0.240 N 
ATOM     24  C   LIG d   1       3.712  -4.675  -6.843  0.00  0.00     0.303 C 
ATOM     25  H   LIG d   1       4.609  -2.938  -7.337  0.00  0.00     0.159 HD
ATOM     26  O   LIG d   1       3.450  -5.430  -5.928  0.00  0.00    -0.253 OA
ATOM     27  N   LIG d   1       3.315  -4.972  -8.097  0.00  0.00    -0.313 N 
ATOM     28  H   LIG d   1       3.525  -4.370  -8.828  0.00  0.00     0.146 HD
ATOM     29  H   LIG d   1       2.820  -5.789  -8.268  0.00  0.00     0.146 HD
ENDBRANCH   1  21
TORSDOF 4
ENDMDL
MODEL 3
REMARK VINA RESULT:      -5.5      3.734      5.063
REMARK  4 active torsions:
REMARK  status: ('A' for Active; 'I' for Inactive)
REMARK    1  A    between atoms: C_1  and  C_2 
REMARK    2  A    between atoms: C_2  and  C_3 
REMARK    3  A    between atoms: C_3  and  C_5 
REMARK    4  A    between atoms: C_3  and  C_11 
REMARK       I    between atoms: C_11  and  N_13 
REMARK       I    between atoms: N_13  and  C_14 
REMARK       I    between atoms: C_14  and  N_16 
ROOT
ATOM      1  C   LIG d   1       5.468  -0.495  -3.524  0.00  0.00     0.061 C 
ATOM      2  H   LIG d   1       5.979  -1.452  -3.641  0.00  0.00     0.044 H 
ENDROOT
BRANCH   1   3
ATOM      3  C   LIG d   1       4.665  -0.501  -2.222  0.00  0.00    -0.041 C 
ATOM      4  H   LIG d   1       3.844   0.211  -2.298  0.00  0.00     0.027 H 
ATOM      5  H   LIG d   1       5.314  -0.221  -1.393  0.00  0.00     0.027 H 
BRANCH   3   6
ATOM      6  C   LIG d   1       4.103  -1.903  -1.977  0.00  0.00    -0.064 C 
ATOM      7  H   LIG d   1       3.991  -2.421  -2.930  0.00  0.00     0.023 H 
ATOM      8  H   LIG d   1       4.785  -2.462  -1.337  0.00  0.00     0.023 H 
ATOM      9  H   LIG d   1       3.130  -1.824  -1.491  0.00  0.00     0.023 H 
ENDBRANCH   3   6
ENDBRANCH   1   3
BRANCH   1  10
ATOM     10  C   LIG d   1       4.537  -0.277  -4.688  0.00  0.00    -0.035 A 
ATOM     11  C   LIG d   1       4.923  -0.649  -5.962  0.00  0.00    -0.058 A 
ATOM     12  C   LIG d   1       4.067  -0.453  -7.030  0.00  0.00    -0.061 A 
ATOM     13  H   LIG d   1       5.894  -1.096  -6.123  0.00  0.00     0.062 H 
ATOM     14  C   LIG d   1       2.828   0.124  -6.824  0.00  0.00    -0.062 A 
ATOM     15  H   LIG d   1       4.367  -0.749  -8.024  0.00  0.00     0.062 H 
ATOM     16  C   LIG d   1       2.443   0.501  -5.551  0.00  0.00    -0.061 A 
ATOM     17  H   LIG d   1       2.159   0.280  -7.658  0.00  0.00     0.062 H 
ATOM     18  C   LIG d   1       3.297   0.301  -4.483  0.00  0.00    -0.058 A 
ATOM     19  H   LIG d   1       1.475   0.952  -5.391  0.00  0.00     0.062 H 
ATOM     20  H   LIG d   1       2.997   0.595  -3.489  0.00  0.00     0.062 H 
ENDBRANCH   1  10
BRANCH   1  21
ATOM     21  C   LIG d   1       6.486   0.616  -3.481  0.00  0.00     0.228 C 
ATOM     22  O   LIG d   1       6.161   1.722  -3.105  0.00  0.00    -0.275 OA
ATOM     23  N   LIG d   1       7.757   0.380  -3.861  0.00  0.00    -0.240 N 
ATOM     24  C   LIG d   1       8.667   1.374  -3.823  0.00  0.00     0.303 C 
ATOM     25  H   LIG d   1       8.018  -0.504  -4.162  0.00  0.00     0.159 HD
ATOM     26  O   LIG d   1       8.342   2.482  -3.446  0.00  0.00    -0.253 OA
ATOM     27  N   LIG d   1       9.939   1.138  -4.203  0.00  0.00    -0.313 N 
ATOM     28  H   LIG d   1      10.199   0.254  -4.505  0.00  0.00     0.146 HD
ATOM     29  H   LIG d   1      10.594   1.853  -4.176  0.00  0.00     0.146 HD
ENDBRANCH   1  21
TORSDOF 4
ENDMDL
MODEL 4
REMARK VINA RESULT:      -5.4      3.034      3.823
REMARK  4 active torsions:
REMARK  status: ('A' for Active; 'I' for Inactive)
REMARK    1  A    between atoms: C_1  and  C_2 
REMARK    2  A    between atoms: C_2  and  C_3 
REMARK    3  A    between atoms: C_3  and  C_5 
REMARK    4  A    between atoms: C_3  and  C_11 
REMARK       I    between atoms: C_11  and  N_13 
REMARK       I    between atoms: N_13  and  C_14 
REMARK       I    between atoms: C_14  and  N_16 
ROOT
ATOM      1  C   LIG d   1       7.610   0.389  -3.973  0.00  0.00     0.061 C 
ATOM      2  H   LIG d   1       8.458  -0.158  -3.562  0.00  0.00     0.044 H 
ENDROOT
BRANCH   1   3
ATOM      3  C   LIG d   1       7.831   1.891  -3.783  0.00  0.00    -0.041 C 
ATOM      4  H   LIG d   1       7.355   2.214  -2.858  0.00  0.00     0.027 H 
ATOM      5  H   LIG d   1       7.397   2.432  -4.623  0.00  0.00     0.027 H 
BRANCH   3   6
ATOM      6  C   LIG d   1       9.332   2.180  -3.713  0.00  0.00    -0.064 C 
ATOM      7  H   LIG d   1       9.676   2.552  -4.678  0.00  0.00     0.023 H 
ATOM      8  H   LIG d   1       9.523   2.929  -2.945  0.00  0.00     0.023 H 
ATOM      9  H   LIG d   1       9.867   1.262  -3.467  0.00  0.00     0.023 H 
ENDBRANCH   3   6
ENDBRANCH   1   3
BRANCH   1  10
ATOM     10  C   LIG d   1       6.349  -0.027  -3.260  0.00  0.00    -0.035 A 
ATOM     11  C   LIG d   1       5.998  -1.362  -3.201  0.00  0.00    -0.058 A 
ATOM     12  C   LIG d   1       4.843  -1.745  -2.543  0.00  0.00    -0.061 A 
ATOM     13  H   LIG d   1       6.626  -2.107  -3.666  0.00  0.00     0.062 H 
ATOM     14  C   LIG d   1       4.036  -0.791  -1.952  0.00  0.00    -0.062 A 
ATOM     15  H   LIG d   1       4.571  -2.789  -2.492  0.00  0.00     0.062 H 
ATOM     16  C   LIG d   1       4.385   0.546  -2.016  0.00  0.00    -0.061 A 
ATOM     17  H   LIG d   1       3.133  -1.089  -1.440  0.00  0.00     0.062 H 
ATOM     18  C   LIG d   1       5.541   0.927  -2.670  0.00  0.00    -0.058 A 
ATOM     19  H   LIG d   1       3.755   1.291  -1.554  0.00  0.00     0.062 H 
ATOM     20  H   LIG d   1       5.814   1.971  -2.720  0.00  0.00     0.062 H 
ENDBRANCH   1  10
BRANCH   1  21
ATOM     21  C   LIG d   1       7.479   0.084  -5.443  0.00  0.00     0.228 C 
ATOM     22  O   LIG d   1       8.175  -0.770  -5.950  0.00  0.00    -0.275 OA
ATOM     23  N   LIG d   1       6.588   0.761  -6.195  0.00  0.00    -0.240 N 
ATOM     24  C   LIG d   1       6.470   0.488  -7.509  0.00  0.00     0.303 C 
ATOM     25  H   LIG d   1       6.030   1.444  -5.790  0.00  0.00     0.159 HD
ATOM     26  O   LIG d   1       7.168  -0.367  -8.018  0.00  0.00    -0.253 OA
ATOM     27  N   LIG d   1       5.579   1.164  -8.261  0.00  0.00    -0.313 N 
ATOM     28  H   LIG d   1       5.022   1.848  -7.856  0.00  0.00     0.146 HD
ATOM     29  H   LIG d   1       5.494   0.969  -9.208  0.00  0.00     0.146 HD
ENDBRANCH   1  21
TORSDOF 4
ENDMDL
MODEL 5
REMARK VINA RESULT:      -5.4      3.167      5.366
REMARK  4 active torsions:
REMARK  status: ('A' for Active; 'I' for Inactive)
REMARK    1  A    between atoms: C_1  and  C_2 
REMARK    2  A    between atoms: C_2  and  C_3 
REMARK    3  A    between atoms: C_3  and  C_5 
REMARK    4  A    between atoms: C_3  and  C_11 
REMARK       I    between atoms: C_11  and  N_13 
REMARK       I    between atoms: N_13  and  C_14 
REMARK       I    between atoms: C_14  and  N_16 
ROOT
ATOM      1  C   LIG d   1       5.957  -1.001  -2.959  0.00  0.00     0.061 C 
ATOM      2  H   LIG d   1       6.534  -1.155  -2.048  0.00  0.00     0.044 H 
ENDROOT
BRANCH   1   3
ATOM      3  C   LIG d   1       4.506  -0.677  -2.597  0.00  0.00    -0.041 C 
ATOM      4  H   LIG d   1       4.068  -1.520  -2.063  0.00  0.00     0.027 H 
ATOM      5  H   LIG d   1       3.937  -0.489  -3.507  0.00  0.00     0.027 H 
BRANCH   3   6
ATOM      6  C   LIG d   1       4.468   0.566  -1.706  0.00  0.00    -0.064 C 
ATOM      7  H   LIG d   1       3.951   1.372  -2.229  0.00  0.00     0.023 H 
ATOM      8  H   LIG d   1       3.941   0.335  -0.781  0.00  0.00     0.023 H 
ATOM      9  H   LIG d   1       5.487   0.879  -1.476  0.00  0.00     0.023 H 
ENDBRANCH   3   6
ENDBRANCH   1   3
BRANCH   1  10
ATOM     10  C   LIG d   1       5.998  -2.252  -3.799  0.00  0.00    -0.035 A 
ATOM     11  C   LIG d   1       7.213  -2.801  -4.161  0.00  0.00    -0.058 A 
ATOM     12  C   LIG d   1       7.251  -3.951  -4.928  0.00  0.00    -0.061 A 
ATOM     13  H   LIG d   1       8.133  -2.333  -3.843  0.00  0.00     0.062 H 
ATOM     14  C   LIG d   1       6.073  -4.546  -5.339  0.00  0.00    -0.062 A 
ATOM     15  H   LIG d   1       8.201  -4.383  -5.206  0.00  0.00     0.062 H 
ATOM     16  C   LIG d   1       4.857  -3.994  -4.981  0.00  0.00    -0.061 A 
ATOM     17  H   LIG d   1       6.102  -5.443  -5.940  0.00  0.00     0.062 H 
ATOM     18  C   LIG d   1       4.820  -2.846  -4.211  0.00  0.00    -0.058 A 
ATOM     19  H   LIG d   1       3.937  -4.458  -5.303  0.00  0.00     0.062 H 
ATOM     20  H   LIG d   1       3.870  -2.415  -3.932  0.00  0.00     0.062 H 
ENDBRANCH   1  10
BRANCH   1  21
ATOM     21  C   LIG d   1       6.546   0.146  -3.739  0.00  0.00     0.228 C 
ATOM     22  O   LIG d   1       6.014   0.523  -4.761  0.00  0.00    -0.275 OA
ATOM     23  N   LIG d   1       7.668   0.753  -3.301  0.00  0.00    -0.240 N 
ATOM     24  C   LIG d   1       8.195   1.778  -3.998  0.00  0.00     0.303 C 
ATOM     25  H   LIG d   1       8.094   0.453  -2.483  0.00  0.00     0.159 HD
ATOM     26  O   LIG d   1       7.662   2.156  -5.023  0.00  0.00    -0.253 OA
ATOM     27  N   LIG d   1       9.316   2.386  -3.559  0.00  0.00    -0.313 N 
ATOM     28  H   LIG d   1       9.743   2.085  -2.742  0.00  0.00     0.146 HD
ATOM     29  H   LIG d   1       9.696   3.124  -4.062  0.00  0.00     0.146 HD
ENDBRANCH   1  21
TORSDOF 4
ENDMDL
MODEL 6
REMARK VINA RESULT:      -5.3      2.000      2.073
REMARK  4 active torsions:
REMARK  status: ('A' for Active; 'I' for Inactive)
REMARK    1  A    between atoms: C_1  and  C_2 
REMARK    2  A    between atoms: C_2  and  C_3 
REMARK    3  A    between atoms: C_3  and  C_5 
REMARK    4  A    between atoms: C_3  and  C_11 
REMARK       I    between atoms: C_11  and  N_13 
REMARK       I    between atoms: N_13  and  C_14 
REMARK       I    between atoms: C_14  and  N_16 
ROOT
ATOM      1  C   LIG d   1       5.989  -1.971  -4.835  0.00  0.00     0.061 C 
ATOM      2  H   LIG d   1       5.593  -2.972  -4.664  0.00  0.00     0.044 H 
ENDROOT
BRANCH   1   3
ATOM      3  C   LIG d   1       7.518  -2.021  -4.834  0.00  0.00    -0.041 C 
ATOM      4  H   LIG d   1       7.914  -1.029  -4.618  0.00  0.00     0.027 H 
ATOM      5  H   LIG d   1       7.871  -2.348  -5.811  0.00  0.00     0.027 H 
BRANCH   3   6
ATOM      6  C   LIG d   1       7.995  -3.005  -3.764  0.00  0.00    -0.064 C 
ATOM      7  H   LIG d   1       8.832  -3.586  -4.152  0.00  0.00     0.023 H 
ATOM      8  H   LIG d   1       8.315  -2.453  -2.879  0.00  0.00     0.023 H 
ATOM      9  H   LIG d   1       7.179  -3.676  -3.499  0.00  0.00     0.023 H 
ENDBRANCH   3   6
ENDBRANCH   1   3
BRANCH   1  10
ATOM     10  C   LIG d   1       5.516  -1.050  -3.740  0.00  0.00    -0.035 A 
ATOM     11  C   LIG d   1       5.916   0.272  -3.729  0.00  0.00    -0.058 A 
ATOM     12  C   LIG d   1       5.478   1.119  -2.726  0.00  0.00    -0.061 A 
ATOM     13  H   LIG d   1       6.567   0.646  -4.505  0.00  0.00     0.062 H 
ATOM     14  C   LIG d   1       4.649   0.639  -1.730  0.00  0.00    -0.062 A 
ATOM     15  H   LIG d   1       5.787   2.154  -2.721  0.00  0.00     0.062 H 
ATOM     16  C   LIG d   1       4.253  -0.686  -1.738  0.00  0.00    -0.061 A 
ATOM     17  H   LIG d   1       4.309   1.299  -0.946  0.00  0.00     0.062 H 
ATOM     18  C   LIG d   1       4.687  -1.530  -2.743  0.00  0.00    -0.058 A 
ATOM     19  H   LIG d   1       3.605  -1.060  -0.960  0.00  0.00     0.062 H 
ATOM     20  H   LIG d   1       4.378  -2.565  -2.749  0.00  0.00     0.062 H 
ENDBRANCH   1  10
BRANCH   1  21
ATOM     21  C   LIG d   1       5.504  -1.458  -6.166  0.00  0.00     0.228 C 
ATOM     22  O   LIG d   1       6.293  -1.266  -7.066  0.00  0.00    -0.275 OA
ATOM     23  N   LIG d   1       4.192  -1.212  -6.356  0.00  0.00    -0.240 N 
ATOM     24  C   LIG d   1       3.759  -0.753  -7.547  0.00  0.00     0.303 C 
ATOM     25  H   LIG d   1       3.560  -1.366  -5.637  0.00  0.00     0.159 HD
ATOM     26  O   LIG d   1       4.550  -0.560  -8.449  0.00  0.00    -0.253 OA
ATOM     27  N   LIG d   1       2.447  -0.508  -7.737  0.00  0.00    -0.313 N 
ATOM     28  H   LIG d   1       1.815  -0.661  -7.017  0.00  0.00     0.146 HD
ATOM     29  H   LIG d   1       2.134  -0.177  -8.594  0.00  0.00     0.146 HD
ENDBRANCH   1  21
TORSDOF 4
ENDMDL
MODEL 7
REMARK VINA RESULT:      -5.2      2.223      3.269
REMARK  4 active torsions:
REMARK  status: ('A' for Active; 'I' for Inactive)
REMARK    1  A    between atoms: C_1  and  C_2 
REMARK    2  A    between atoms: C_2  and  C_3 
REMARK    3  A    between atoms: C_3  and  C_5 
REMARK    4  A    between atoms: C_3  and  C_11 
REMARK       I    between atoms: C_11  and  N_13 
REMARK       I    between atoms: N_13  and  C_14 
REMARK       I    between atoms: C_14  and  N_16 
ROOT
ATOM      1  C   LIG d   1       4.291  -0.316  -6.227  0.00  0.00     0.061 C 
ATOM      2  H   LIG d   1       5.046   0.451  -6.404  0.00  0.00     0.044 H 
ENDROOT
BRANCH   1   3
ATOM      3  C   LIG d   1       2.923   0.203  -6.675  0.00  0.00    -0.041 C 
ATOM      4  H   LIG d   1       2.510   0.853  -5.903  0.00  0.00     0.027 H 
ATOM      5  H   LIG d   1       2.251  -0.638  -6.838  0.00  0.00     0.027 H 
BRANCH   3   6
ATOM      6  C   LIG d   1       3.078   0.992  -7.976  0.00  0.00    -0.064 C 
ATOM      7  H   LIG d   1       2.095   1.171  -8.412  0.00  0.00     0.023 H 
ATOM      8  H   LIG d   1       3.563   1.946  -7.768  0.00  0.00     0.023 H 
ATOM      9  H   LIG d   1       3.687   0.421  -8.677  0.00  0.00     0.023 H 
ENDBRANCH   3   6
ENDBRANCH   1   3
BRANCH   1  10
ATOM     10  C   LIG d   1       4.246  -0.648  -4.758  0.00  0.00    -0.035 A 
ATOM     11  C   LIG d   1       3.088  -0.433  -4.036  0.00  0.00    -0.058 A 
ATOM     12  C   LIG d   1       3.045  -0.741  -2.689  0.00  0.00    -0.061 A 
ATOM     13  H   LIG d   1       2.214  -0.026  -4.525  0.00  0.00     0.062 H 
ATOM     14  C   LIG d   1       4.164  -1.256  -2.062  0.00  0.00    -0.062 A 
ATOM     15  H   LIG d   1       2.138  -0.578  -2.126  0.00  0.00     0.062 H 
ATOM     16  C   LIG d   1       5.325  -1.467  -2.784  0.00  0.00    -0.061 A 
ATOM     17  H   LIG d   1       4.132  -1.496  -1.010  0.00  0.00     0.062 H 
ATOM     18  C   LIG d   1       5.366  -1.162  -4.131  0.00  0.00    -0.058 A 
ATOM     19  H   LIG d   1       6.199  -1.869  -2.294  0.00  0.00     0.062 H 
ATOM     20  H   LIG d   1       6.272  -1.326  -4.694  0.00  0.00     0.062 H 
ENDBRANCH   1  10
BRANCH   1  21
ATOM     21  C   LIG d   1       4.638  -1.555  -7.012  0.00  0.00     0.228 C 
ATOM     22  O   LIG d   1       5.639  -1.579  -7.696  0.00  0.00    -0.275 OA
ATOM     23  N   LIG d   1       3.836  -2.636  -6.953  0.00  0.00    -0.240 N 
ATOM     24  C   LIG d   1       4.146  -3.744  -7.655  0.00  0.00     0.303 C 
ATOM     25  H   LIG d   1       3.036  -2.618  -6.405  0.00  0.00     0.159 HD
ATOM     26  O   LIG d   1       5.149  -3.769  -8.341  0.00  0.00    -0.253 OA
ATOM     27  N   LIG d   1       3.344  -4.826  -7.595  0.00  0.00    -0.313 N 
ATOM     28  H   LIG d   1       2.543  -4.807  -7.048  0.00  0.00     0.146 HD
ATOM     29  H   LIG d   1       3.567  -5.624  -8.101  0.00  0.00     0.146 HD
ENDBRANCH   1  21
TORSDOF 4
ENDMDL
MODEL 8
REMARK VINA RESULT:      -5.2      3.020      3.359
REMARK  4 active torsions:
REMARK  status: ('A' for Active; 'I' for Inactive)
REMARK    1  A    between atoms: C_1  and  C_2 
REMARK    2  A    between atoms: C_2  and  C_3 
REMARK    3  A    between atoms: C_3  and  C_5 
REMARK    4  A    between atoms: C_3  and  C_11 
REMARK       I    between atoms: C_11  and  N_13 
REMARK       I    between atoms: N_13  and  C_14 
REMARK       I    between atoms: C_14  and  N_16 
ROOT
ATOM      1  C   LIG d   1       4.339  -1.319  -5.574  0.00  0.00     0.061 C 
ATOM      2  H   LIG d   1       3.372  -1.817  -5.641  0.00  0.00     0.044 H 
ENDROOT
BRANCH   1   3
ATOM      3  C   LIG d   1       5.452  -2.369  -5.542  0.00  0.00    -0.041 C 
ATOM      4  H   LIG d   1       6.358  -1.926  -5.128  0.00  0.00     0.027 H 
ATOM      5  H   LIG d   1       5.650  -2.720  -6.554  0.00  0.00     0.027 H 
BRANCH   3   6
ATOM      6  C   LIG d   1       5.015  -3.548  -4.670  0.00  0.00    -0.064 C 
ATOM      7  H   LIG d   1       5.333  -4.481  -5.136  0.00  0.00     0.023 H 
ATOM      8  H   LIG d   1       5.471  -3.459  -3.684  0.00  0.00     0.023 H 
ATOM      9  H   LIG d   1       3.930  -3.543  -4.571  0.00  0.00     0.023 H 
ENDBRANCH   3   6
ENDBRANCH   1   3
BRANCH   1  10
ATOM     10  C   LIG d   1       4.393  -0.491  -4.316  0.00  0.00    -0.035 A 
ATOM     11  C   LIG d   1       5.586   0.082  -3.918  0.00  0.00    -0.058 A 
ATOM     12  C   LIG d   1       5.635   0.846  -2.765  0.00  0.00    -0.061 A 
ATOM     13  H   LIG d   1       6.479  -0.062  -4.508  0.00  0.00     0.062 H 
ATOM     14  C   LIG d   1       4.494   1.027  -2.008  0.00  0.00    -0.062 A 
ATOM     15  H   LIG d   1       6.566   1.299  -2.457  0.00  0.00     0.062 H 
ATOM     16  C   LIG d   1       3.301   0.448  -2.404  0.00  0.00    -0.061 A 
ATOM     17  H   LIG d   1       4.532   1.621  -1.106  0.00  0.00     0.062 H 
ATOM     18  C   LIG d   1       3.252  -0.311  -3.557  0.00  0.00    -0.058 A 
ATOM     19  H   LIG d   1       2.410   0.589  -1.811  0.00  0.00     0.062 H 
ATOM     20  H   LIG d   1       2.321  -0.763  -3.867  0.00  0.00     0.062 H 
ENDBRANCH   1  10
BRANCH   1  21
ATOM     21  C   LIG d   1       4.528  -0.425  -6.772  0.00  0.00     0.228 C 
ATOM     22  O   LIG d   1       5.558  -0.474  -7.411  0.00  0.00    -0.275 OA
ATOM     23  N   LIG d   1       3.552   0.433  -7.133  0.00  0.00    -0.240 N 
ATOM     24  C   LIG d   1       3.721   1.233  -8.204  0.00  0.00     0.303 C 
ATOM     25  H   LIG d   1       2.728   0.473  -6.623  0.00  0.00     0.159 HD
ATOM     26  O   LIG d   1       4.753   1.183  -8.845  0.00  0.00    -0.253 OA
ATOM     27  N   LIG d   1       2.745   2.089  -8.566  0.00  0.00    -0.313 N 
ATOM     28  H   LIG d   1       1.921   2.130  -8.055  0.00  0.00     0.146 HD
ATOM     29  H   LIG d   1       2.866   2.666  -9.337  0.00  0.00     0.146 HD
ENDBRANCH   1  21
TORSDOF 4
ENDMDL
MODEL 9
REMARK VINA RESULT:      -5.2      2.974      3.257
REMARK  4 active torsions:
REMARK  status: ('A' for Active; 'I' for Inactive)
REMARK    1  A    between atoms: C_1  and  C_2 
REMARK    2  A    between atoms: C_2  and  C_3 
REMARK    3  A    between atoms: C_3  and  C_5 
REMARK    4  A    between atoms: C_3  and  C_11 
REMARK       I    between atoms: C_11  and  N_13 
REMARK       I    between atoms: N_13  and  C_14 
REMARK       I    between atoms: C_14  and  N_16 
ROOT
ATOM      1  C   LIG d   1       5.660  -1.299  -5.774  0.00  0.00     0.061 C 
ATOM      2  H   LIG d   1       5.970  -2.327  -5.962  0.00  0.00     0.044 H 
ENDROOT
BRANCH   1   3
ATOM      3  C   LIG d   1       6.847  -0.359  -5.997  0.00  0.00    -0.041 C 
ATOM      4  H   LIG d   1       6.954   0.302  -5.137  0.00  0.00     0.027 H 
ATOM      5  H   LIG d   1       6.676   0.236  -6.893  0.00  0.00     0.027 H 
BRANCH   3   6
ATOM      6  C   LIG d   1       8.124  -1.184  -6.168  0.00  0.00    -0.064 C 
ATOM      7  H   LIG d   1       7.876  -2.150  -6.608  0.00  0.00     0.023 H 
ATOM      8  H   LIG d   1       8.816  -0.653  -6.822  0.00  0.00     0.023 H 
ATOM      9  H   LIG d   1       8.590  -1.338  -5.194  0.00  0.00     0.023 H 
ENDBRANCH   3   6
ENDBRANCH   1   3
BRANCH   1  10
ATOM     10  C   LIG d   1       5.178  -1.170  -4.353  0.00  0.00    -0.035 A 
ATOM     11  C   LIG d   1       5.498  -0.048  -3.613  0.00  0.00    -0.058 A 
ATOM     12  C   LIG d   1       5.052   0.072  -2.310  0.00  0.00    -0.061 A 
ATOM     13  H   LIG d   1       6.094   0.738  -4.054  0.00  0.00     0.062 H 
ATOM     14  C   LIG d   1       4.293  -0.935  -1.744  0.00  0.00    -0.062 A 
ATOM     15  H   LIG d   1       5.298   0.952  -1.734  0.00  0.00     0.062 H 
ATOM     16  C   LIG d   1       3.977  -2.061  -2.482  0.00  0.00    -0.061 A 
ATOM     17  H   LIG d   1       3.947  -0.843  -0.725  0.00  0.00     0.062 H 
ATOM     18  C   LIG d   1       4.419  -2.178  -3.786  0.00  0.00    -0.058 A 
ATOM     19  H   LIG d   1       3.385  -2.847  -2.039  0.00  0.00     0.062 H 
ATOM     20  H   LIG d   1       4.173  -3.057  -4.362  0.00  0.00     0.062 H 
ENDBRANCH   1  10
BRANCH   1  21
ATOM     21  C   LIG d   1       4.545  -0.930  -6.718  0.00  0.00     0.228 C 
ATOM     22  O   LIG d   1       3.935  -1.798  -7.306  0.00  0.00    -0.275 OA
ATOM     23  N   LIG d   1       4.226   0.366  -6.910  0.00  0.00    -0.240 N 
ATOM     24  C   LIG d   1       3.228   0.695  -7.755  0.00  0.00     0.303 C 
ATOM     25  H   LIG d   1       4.713   1.060  -6.441  0.00  0.00     0.159 HD
ATOM     26  O   LIG d   1       2.617  -0.174  -8.344  0.00  0.00    -0.253 OA
ATOM     27  N   LIG d   1       2.909   1.991  -7.946  0.00  0.00    -0.313 N 
ATOM     28  H   LIG d   1       3.397   2.686  -7.477  0.00  0.00     0.146 HD
ATOM     29  H   LIG d   1       2.191   2.229  -8.555  0.00  0.00     0.146 HD
ENDBRANCH   1  21
TORSDOF 4
ENDMDL
MODEL 10
REMARK VINA RESULT:      -5.2      3.379      3.884
REMARK  4 active torsions:
REMARK  status: ('A' for Active; 'I' for Inactive)
REMARK    1  A    between atoms: C_1  and  C_2 
REMARK    2  A    between atoms: C_2  and  C_3 
REMARK    3  A    between atoms: C_3  and  C_5 
REMARK    4  A    between atoms: C_3  and  C_11 
REMARK       I    between atoms: C_11  and  N_13 
REMARK       I    between atoms: N_13  and  C_14 
REMARK       I    between atoms: C_14  and  N_16 
ROOT
ATOM      1  C   LIG d   1       4.314  -1.049  -5.743  0.00  0.00     0.061 C 
ATOM      2  H   LIG d   1       3.668  -1.924  -5.666  0.00  0.00     0.044 H 
ENDROOT
BRANCH   1   3
ATOM      3  C   LIG d   1       5.721  -1.489  -6.152  0.00  0.00    -0.041 C 
ATOM      4  H   LIG d   1       6.459  -0.908  -5.599  0.00  0.00     0.027 H 
ATOM      5  H   LIG d   1       5.856  -1.324  -7.221  0.00  0.00     0.027 H 
BRANCH   3   6
ATOM      6  C   LIG d   1       5.902  -2.975  -5.839  0.00  0.00    -0.064 C 
ATOM      7  H   LIG d   1       6.453  -3.453  -6.649  0.00  0.00     0.023 H 
ATOM      8  H   LIG d   1       6.456  -3.086  -4.907  0.00  0.00     0.023 H 
ATOM      9  H   LIG d   1       4.924  -3.447  -5.739  0.00  0.00     0.023 H 
ENDBRANCH   3   6
ENDBRANCH   1   3
BRANCH   1  10
ATOM     10  C   LIG d   1       4.375  -0.351  -4.409  0.00  0.00    -0.035 A 
ATOM     11  C   LIG d   1       3.235  -0.238  -3.636  0.00  0.00    -0.058 A 
ATOM     12  C   LIG d   1       3.291   0.400  -2.410  0.00  0.00    -0.061 A 
ATOM     13  H   LIG d   1       2.300  -0.650  -3.987  0.00  0.00     0.062 H 
ATOM     14  C   LIG d   1       4.486   0.932  -1.962  0.00  0.00    -0.062 A 
ATOM     15  H   LIG d   1       2.401   0.483  -1.803  0.00  0.00     0.062 H 
ATOM     16  C   LIG d   1       5.625   0.823  -2.738  0.00  0.00    -0.061 A 
ATOM     17  H   LIG d   1       4.530   1.432  -1.006  0.00  0.00     0.062 H 
ATOM     18  C   LIG d   1       5.569   0.183  -3.961  0.00  0.00    -0.058 A 
ATOM     19  H   LIG d   1       6.558   1.239  -2.388  0.00  0.00     0.062 H 
ATOM     20  H   LIG d   1       6.459   0.098  -4.567  0.00  0.00     0.062 H 
ENDBRANCH   1  10
BRANCH   1  21
ATOM     21  C   LIG d   1       3.762  -0.105  -6.779  0.00  0.00     0.228 C 
ATOM     22  O   LIG d   1       2.567  -0.053  -6.977  0.00  0.00    -0.275 OA
ATOM     23  N   LIG d   1       4.597   0.682  -7.486  0.00  0.00    -0.240 N 
ATOM     24  C   LIG d   1       4.103   1.526  -8.413  0.00  0.00     0.303 C 
ATOM     25  H   LIG d   1       5.553   0.641  -7.328  0.00  0.00     0.159 HD
ATOM     26  O   LIG d   1       2.905   1.579  -8.613  0.00  0.00    -0.253 OA
ATOM     27  N   LIG d   1       4.938   2.314  -9.120  0.00  0.00    -0.313 N 
ATOM     28  H   LIG d   1       5.894   2.273  -8.963  0.00  0.00     0.146 HD
ATOM     29  H   LIG d   1       4.583   2.922  -9.789  0.00  0.00     0.146 HD
ENDBRANCH   1  21
TORSDOF 4
ENDMDL
