MODEL 1
REMARK VINA RESULT:      -7.2      0.000      0.000
REMARK  3 active torsions:
REMARK  status: ('A' for Active; 'I' for Inactive)
REMARK    1  A    between atoms: C_1  and  C_2 
REMARK    2  A    between atoms: C_2  and  C_23 
REMARK    3  A    between atoms: N_7  and  O_8 
ROOT
ATOM      1  C   LIG d   1       9.419  -4.578  -5.705  0.00  0.00    -0.022 C 
ATOM      2  C   LIG d   1       8.820  -3.892  -4.475  0.00  0.00    -0.006 C 
ATOM      3  C   LIG d   1       7.331  -3.729  -4.661  0.00  0.00     0.037 A 
ATOM      4  C   LIG d   1       6.626  -4.638  -5.416  0.00  0.00     0.112 A 
ATOM      5  C   LIG d   1       5.164  -4.446  -5.578  0.00  0.00     0.264 A 
ATOM      6  N   LIG d   1       4.438  -5.287  -6.280  0.00  0.00    -0.035 N 
ATOM      7  C   LIG d   1       4.561  -3.280  -4.923  0.00  0.00     0.038 A 
ATOM      8  C   LIG d   1       5.357  -2.452  -4.202  0.00  0.00     0.056 A 
ATOM      9  N   LIG d   1       6.711  -2.686  -4.068  0.00  0.00    -0.342 N 
ATOM     10  C   LIG d   1       7.513  -1.771  -3.237  0.00  0.00     0.028 C 
ATOM     11  C   LIG d   1       7.083  -0.326  -3.534  0.00  0.00    -0.009 C 
ATOM     12  C   LIG d   1       5.616  -0.202  -3.202  0.00  0.00    -0.037 A 
ATOM     13  C   LIG d   1       4.770  -1.265  -3.541  0.00  0.00     0.002 A 
ATOM     14  C   LIG d   1       3.412  -1.188  -3.253  0.00  0.00    -0.052 A 
ATOM     15  C   LIG d   1       2.911  -0.060  -2.634  0.00  0.00    -0.061 A 
ATOM     16  C   LIG d   1       3.752   0.987  -2.302  0.00  0.00    -0.061 A 
ATOM     17  C   LIG d   1       5.107   0.916  -2.586  0.00  0.00    -0.058 A 
ATOM     18  C   LIG d   1       7.261  -5.739  -6.034  0.00  0.00     0.172 C 
ATOM     19  O   LIG d   1       6.604  -6.528  -6.683  0.00  0.00    -0.292 OA
ATOM     20  C   LIG d   1       8.748  -5.941  -5.894  0.00  0.00     0.016 C 
ATOM     21  H   LIG d   1       9.012  -4.502  -3.591  0.00  0.00     0.033 H 
ATOM     22  H   LIG d   1       9.280  -2.912  -4.346  0.00  0.00     0.033 H 
ATOM     23  H   LIG d   1       3.503  -3.083  -5.012  0.00  0.00     0.071 H 
ATOM     24  H   LIG d   1       7.345  -1.993  -2.183  0.00  0.00     0.050 H 
ATOM     25  H   LIG d   1       8.571  -1.893  -3.474  0.00  0.00     0.050 H 
ATOM     26  H   LIG d   1       7.661   0.364  -2.919  0.00  0.00     0.033 H 
ATOM     27  H   LIG d   1       7.244  -0.103  -4.589  0.00  0.00     0.033 H 
ATOM     28  H   LIG d   1       2.754  -2.004  -3.513  0.00  0.00     0.062 H 
ATOM     29  H   LIG d   1       1.856   0.006  -2.407  0.00  0.00     0.062 H 
ATOM     30  H   LIG d   1       3.352   1.865  -1.818  0.00  0.00     0.062 H 
ATOM     31  H   LIG d   1       5.760   1.735  -2.325  0.00  0.00     0.062 H 
ATOM     32  H   LIG d   1       9.137  -6.419  -6.792  0.00  0.00     0.035 H 
ATOM     33  H   LIG d   1       8.950  -6.570  -5.026  0.00  0.00     0.035 H 
ATOM     34  H   LIG d   1       4.868  -6.002  -6.776  0.00  0.00     0.514 HD
ENDROOT
BRANCH   1  35
ATOM     35  C   LIG d   1      10.924  -4.772  -5.502  0.00  0.00    -0.059 C 
ATOM     36  H   LIG d   1      11.097  -5.306  -4.567  0.00  0.00     0.024 H 
ATOM     37  H   LIG d   1      11.331  -5.350  -6.332  0.00  0.00     0.024 H 
ATOM     38  H   LIG d   1      11.414  -3.799  -5.463  0.00  0.00     0.024 H 
ENDBRANCH   1  35
BRANCH   1  39
ATOM     39  C   LIG d   1       9.177  -3.713  -6.944  0.00  0.00    -0.059 C 
ATOM     40  H   LIG d   1       8.133  -3.401  -6.970  0.00  0.00     0.024 H 
ATOM     41  H   LIG d   1       9.819  -2.833  -6.903  0.00  0.00     0.024 H 
ATOM     42  H   LIG d   1       9.407  -4.290  -7.840  0.00  0.00     0.024 H 
ENDBRANCH   1  39
BRANCH   6  43
ATOM     43  O   LIG d   1       3.029  -5.150  -6.314  0.00  0.00    -0.289 OA
ATOM     44  H   LIG d   1       2.724  -4.233  -6.312  0.00  0.00     0.382 HD
ENDBRANCH   6  43
TORSDOF 3
ENDMDL
MODEL 2
REMARK VINA RESULT:      -6.6      3.836      6.003
REMARK  3 active torsions:
REMARK  status: ('A' for Active; 'I' for Inactive)
REMARK    1  A    between atoms: C_1  and  C_2 
REMARK    2  A    between atoms: C_2  and  C_23 
REMARK    3  A    between atoms: N_7  and  O_8 
ROOT
ATOM      1  C   LIG d   1       4.929   0.241  -2.873  0.00  0.00    -0.022 C 
ATOM      2  C   LIG d   1       3.859  -0.027  -3.933  0.00  0.00    -0.006 C 
ATOM      3  C   LIG d   1       4.464  -0.800  -5.079  0.00  0.00     0.037 A 
ATOM      4  C   LIG d   1       5.512  -1.663  -4.854  0.00  0.00     0.112 A 
ATOM      5  C   LIG d   1       6.083  -2.406  -6.003  0.00  0.00     0.264 A 
ATOM      6  N   LIG d   1       7.078  -3.250  -5.845  0.00  0.00    -0.035 N 
ATOM      7  C   LIG d   1       5.492  -2.161  -7.324  0.00  0.00     0.038 A 
ATOM      8  C   LIG d   1       4.460  -1.287  -7.425  0.00  0.00     0.056 A 
ATOM      9  N   LIG d   1       3.953  -0.635  -6.318  0.00  0.00    -0.342 N 
ATOM     10  C   LIG d   1       2.804   0.271  -6.490  0.00  0.00     0.028 C 
ATOM     11  C   LIG d   1       3.022   1.114  -7.757  0.00  0.00    -0.009 C 
ATOM     12  C   LIG d   1       3.138   0.169  -8.928  0.00  0.00    -0.037 A 
ATOM     13  C   LIG d   1       3.856  -1.019  -8.750  0.00  0.00     0.002 A 
ATOM     14  C   LIG d   1       3.986  -1.915  -9.805  0.00  0.00    -0.052 A 
ATOM     15  C   LIG d   1       3.403  -1.621 -11.022  0.00  0.00    -0.061 A 
ATOM     16  C   LIG d   1       2.694  -0.445 -11.192  0.00  0.00    -0.061 A 
ATOM     17  C   LIG d   1       2.562   0.451 -10.143  0.00  0.00    -0.058 A 
ATOM     18  C   LIG d   1       6.049  -1.853  -3.561  0.00  0.00     0.172 C 
ATOM     19  O   LIG d   1       6.966  -2.633  -3.397  0.00  0.00    -0.292 OA
ATOM     20  C   LIG d   1       5.493  -1.095  -2.383  0.00  0.00     0.016 C 
ATOM     21  H   LIG d   1       3.048  -0.607  -3.491  0.00  0.00     0.033 H 
ATOM     22  H   LIG d   1       3.466   0.921  -4.302  0.00  0.00     0.033 H 
ATOM     23  H   LIG d   1       5.871  -2.666  -8.200  0.00  0.00     0.071 H 
ATOM     24  H   LIG d   1       1.890  -0.314  -6.595  0.00  0.00     0.050 H 
ATOM     25  H   LIG d   1       2.723   0.928  -5.624  0.00  0.00     0.050 H 
ATOM     26  H   LIG d   1       2.174   1.784  -7.904  0.00  0.00     0.033 H 
ATOM     27  H   LIG d   1       3.939   1.696  -7.659  0.00  0.00     0.033 H 
ATOM     28  H   LIG d   1       4.540  -2.833  -9.674  0.00  0.00     0.062 H 
ATOM     29  H   LIG d   1       3.501  -2.313 -11.847  0.00  0.00     0.062 H 
ATOM     30  H   LIG d   1       2.242  -0.223 -12.147  0.00  0.00     0.062 H 
ATOM     31  H   LIG d   1       2.007   1.368 -10.280  0.00  0.00     0.062 H 
ATOM     32  H   LIG d   1       6.286  -0.913  -1.658  0.00  0.00     0.035 H 
ATOM     33  H   LIG d   1       4.697  -1.677  -1.917  0.00  0.00     0.035 H 
ATOM     34  H   LIG d   1       7.510  -3.333  -4.981  0.00  0.00     0.514 HD
ENDROOT
BRANCH   1  35
ATOM     35  C   LIG d   1       4.307   0.997  -1.696  0.00  0.00    -0.059 C 
ATOM     36  H   LIG d   1       4.907   1.879  -1.473  0.00  0.00     0.024 H 
ATOM     37  H   LIG d   1       3.293   1.304  -1.957  0.00  0.00     0.024 H 
ATOM     38  H   LIG d   1       4.274   0.347  -0.823  0.00  0.00     0.024 H 
ENDBRANCH   1  35
BRANCH   1  39
ATOM     39  C   LIG d   1       6.055   1.079  -3.481  0.00  0.00    -0.059 C 
ATOM     40  H   LIG d   1       6.483   0.549  -4.332  0.00  0.00     0.024 H 
ATOM     41  H   LIG d   1       5.657   2.037  -3.814  0.00  0.00     0.024 H 
ATOM     42  H   LIG d   1       6.829   1.247  -2.731  0.00  0.00     0.024 H 
ENDBRANCH   1  39
BRANCH   6  43
ATOM     43  O   LIG d   1       7.519  -4.037  -6.937  0.00  0.00    -0.289 OA
ATOM     44  H   LIG d   1       8.398  -3.801  -7.262  0.00  0.00     0.382 HD
ENDBRANCH   6  43
TORSDOF 3
ENDMDL
MODEL 3
REMARK VINA RESULT:      -6.5     10.605     13.378
REMARK  3 active torsions:
REMARK  status: ('A' for Active; 'I' for Inactive)
REMARK    1  A    between atoms: C_1  and  C_2 
REMARK    2  A    between atoms: C_2  and  C_23 
REMARK    3  A    between atoms: N_7  and  O_8 
ROOT
ATOM      1  C   LIG d   1       9.914  11.908  -3.266  0.00  0.00    -0.022 C 
ATOM      2  C   LIG d   1      10.614  10.551  -3.162  0.00  0.00    -0.006 C 
ATOM      3  C   LIG d   1      10.188   9.672  -4.313  0.00  0.00     0.037 A 
ATOM      4  C   LIG d   1       9.843  10.234  -5.521  0.00  0.00     0.112 A 
ATOM      5  C   LIG d   1       9.428   9.341  -6.630  0.00  0.00     0.264 A 
ATOM      6  N   LIG d   1       9.097   9.822  -7.807  0.00  0.00    -0.035 N 
ATOM      7  C   LIG d   1       9.402   7.899  -6.359  0.00  0.00     0.038 A 
ATOM      8  C   LIG d   1       9.764   7.460  -5.129  0.00  0.00     0.056 A 
ATOM      9  N   LIG d   1      10.161   8.334  -4.136  0.00  0.00    -0.342 N 
ATOM     10  C   LIG d   1      10.581   7.788  -2.833  0.00  0.00     0.028 C 
ATOM     11  C   LIG d   1       9.610   6.668  -2.428  0.00  0.00    -0.009 C 
ATOM     12  C   LIG d   1       9.661   5.602  -3.496  0.00  0.00    -0.037 A 
ATOM     13  C   LIG d   1       9.736   6.009  -4.833  0.00  0.00     0.002 A 
ATOM     14  C   LIG d   1       9.784   5.057  -5.845  0.00  0.00    -0.052 A 
ATOM     15  C   LIG d   1       9.756   3.716  -5.520  0.00  0.00    -0.061 A 
ATOM     16  C   LIG d   1       9.682   3.320  -4.196  0.00  0.00    -0.061 A 
ATOM     17  C   LIG d   1       9.634   4.264  -3.183  0.00  0.00    -0.058 A 
ATOM     18  C   LIG d   1       9.876  11.633  -5.723  0.00  0.00     0.172 C 
ATOM     19  O   LIG d   1       9.577  12.093  -6.806  0.00  0.00    -0.292 OA
ATOM     20  C   LIG d   1      10.280  12.557  -4.603  0.00  0.00     0.016 C 
ATOM     21  H   LIG d   1      11.694  10.696  -3.196  0.00  0.00     0.033 H 
ATOM     22  H   LIG d   1      10.342  10.072  -2.221  0.00  0.00     0.033 H 
ATOM     23  H   LIG d   1       9.100   7.200  -7.125  0.00  0.00     0.071 H 
ATOM     24  H   LIG d   1      11.591   7.384  -2.915  0.00  0.00     0.050 H 
ATOM     25  H   LIG d   1      10.561   8.578  -2.082  0.00  0.00     0.050 H 
ATOM     26  H   LIG d   1       9.914   6.246  -1.470  0.00  0.00     0.033 H 
ATOM     27  H   LIG d   1       8.599   7.067  -2.352  0.00  0.00     0.033 H 
ATOM     28  H   LIG d   1       9.841   5.366  -6.879  0.00  0.00     0.062 H 
ATOM     29  H   LIG d   1       9.792   2.971  -6.302  0.00  0.00     0.062 H 
ATOM     30  H   LIG d   1       9.660   2.269  -3.950  0.00  0.00     0.062 H 
ATOM     31  H   LIG d   1       9.577   3.950  -2.151  0.00  0.00     0.062 H 
ATOM     32  H   LIG d   1       9.753  13.505  -4.704  0.00  0.00     0.035 H 
ATOM     33  H   LIG d   1      11.356  12.730  -4.642  0.00  0.00     0.035 H 
ATOM     34  H   LIG d   1       9.038  10.781  -7.940  0.00  0.00     0.514 HD
ENDROOT
BRANCH   1  35
ATOM     35  C   LIG d   1      10.372  12.809  -2.116  0.00  0.00    -0.059 C 
ATOM     36  H   LIG d   1       9.702  13.665  -2.037  0.00  0.00     0.024 H 
ATOM     37  H   LIG d   1      10.354  12.245  -1.183  0.00  0.00     0.024 H 
ATOM     38  H   LIG d   1      11.387  13.156  -2.309  0.00  0.00     0.024 H 
ENDBRANCH   1  35
BRANCH   1  39
ATOM     39  C   LIG d   1       8.399  11.711  -3.190  0.00  0.00    -0.059 C 
ATOM     40  H   LIG d   1       7.975  12.427  -2.486  0.00  0.00     0.024 H 
ATOM     41  H   LIG d   1       7.962  11.868  -4.175  0.00  0.00     0.024 H 
ATOM     42  H   LIG d   1       8.181  10.697  -2.852  0.00  0.00     0.024 H 
ENDBRANCH   1  39
BRANCH   6  43
ATOM     43  O   LIG d   1       8.827   8.940  -8.882  0.00  0.00    -0.289 OA
ATOM     44  H   LIG d   1       9.575   8.380  -9.128  0.00  0.00     0.382 HD
ENDBRANCH   6  43
TORSDOF 3
ENDMDL
MODEL 4
REMARK VINA RESULT:      -6.5      3.518      4.478
REMARK  3 active torsions:
REMARK  status: ('A' for Active; 'I' for Inactive)
REMARK    1  A    between atoms: C_1  and  C_2 
REMARK    2  A    between atoms: C_2  and  C_23 
REMARK    3  A    between atoms: N_7  and  O_8 
ROOT
ATOM      1  C   LIG d   1       5.306  -3.935  -8.770  0.00  0.00    -0.022 C 
ATOM      2  C   LIG d   1       4.724  -3.792  -7.362  0.00  0.00    -0.006 C 
ATOM      3  C   LIG d   1       4.292  -2.363  -7.136  0.00  0.00     0.037 A 
ATOM      4  C   LIG d   1       3.861  -1.596  -8.194  0.00  0.00     0.112 A 
ATOM      5  C   LIG d   1       3.444  -0.196  -7.936  0.00  0.00     0.264 A 
ATOM      6  N   LIG d   1       3.015   0.579  -8.906  0.00  0.00    -0.035 N 
ATOM      7  C   LIG d   1       3.530   0.287  -6.553  0.00  0.00     0.038 A 
ATOM      8  C   LIG d   1       3.970  -0.561  -5.591  0.00  0.00     0.056 A 
ATOM      9  N   LIG d   1       4.328  -1.862  -5.882  0.00  0.00    -0.342 N 
ATOM     10  C   LIG d   1       4.759  -2.744  -4.784  0.00  0.00     0.028 C 
ATOM     11  C   LIG d   1       5.693  -1.957  -3.852  0.00  0.00    -0.009 C 
ATOM     12  C   LIG d   1       4.923  -0.774  -3.317  0.00  0.00    -0.037 A 
ATOM     13  C   LIG d   1       4.072  -0.089  -4.192  0.00  0.00     0.002 A 
ATOM     14  C   LIG d   1       3.347   1.007  -3.736  0.00  0.00    -0.052 A 
ATOM     15  C   LIG d   1       3.475   1.408  -2.422  0.00  0.00    -0.061 A 
ATOM     16  C   LIG d   1       4.318   0.727  -1.562  0.00  0.00    -0.061 A 
ATOM     17  C   LIG d   1       5.043  -0.366  -2.010  0.00  0.00    -0.058 A 
ATOM     18  C   LIG d   1       3.808  -2.112  -9.509  0.00  0.00     0.172 C 
ATOM     19  O   LIG d   1       3.410  -1.409 -10.416  0.00  0.00    -0.292 OA
ATOM     20  C   LIG d   1       4.243  -3.527  -9.793  0.00  0.00     0.016 C 
ATOM     21  H   LIG d   1       3.864  -4.453  -7.255  0.00  0.00     0.033 H 
ATOM     22  H   LIG d   1       5.482  -4.062  -6.626  0.00  0.00     0.033 H 
ATOM     23  H   LIG d   1       3.249   1.300  -6.305  0.00  0.00     0.071 H 
ATOM     24  H   LIG d   1       3.886  -3.084  -4.225  0.00  0.00     0.050 H 
ATOM     25  H   LIG d   1       5.291  -3.604  -5.192  0.00  0.00     0.050 H 
ATOM     26  H   LIG d   1       6.013  -2.594  -3.027  0.00  0.00     0.033 H 
ATOM     27  H   LIG d   1       6.563  -1.610  -4.410  0.00  0.00     0.033 H 
ATOM     28  H   LIG d   1       2.689   1.540  -4.407  0.00  0.00     0.062 H 
ATOM     29  H   LIG d   1       2.914   2.260  -2.062  0.00  0.00     0.062 H 
ATOM     30  H   LIG d   1       4.412   1.048  -0.535  0.00  0.00     0.062 H 
ATOM     31  H   LIG d   1       5.699  -0.895  -1.335  0.00  0.00     0.062 H 
ATOM     32  H   LIG d   1       4.661  -3.585 -10.797  0.00  0.00     0.035 H 
ATOM     33  H   LIG d   1       3.384  -4.195  -9.714  0.00  0.00     0.035 H 
ATOM     34  H   LIG d   1       3.047   0.269  -9.825  0.00  0.00     0.514 HD
ENDROOT
BRANCH   1  35
ATOM     35  C   LIG d   1       5.714  -5.391  -9.009  0.00  0.00    -0.059 C 
ATOM     36  H   LIG d   1       5.407  -5.694 -10.010  0.00  0.00     0.024 H 
ATOM     37  H   LIG d   1       6.796  -5.485  -8.916  0.00  0.00     0.024 H 
ATOM     38  H   LIG d   1       5.230  -6.030  -8.270  0.00  0.00     0.024 H 
ENDBRANCH   1  35
BRANCH   1  39
ATOM     39  C   LIG d   1       6.530  -3.030  -8.914  0.00  0.00    -0.059 C 
ATOM     40  H   LIG d   1       6.337  -2.076  -8.423  0.00  0.00     0.024 H 
ATOM     41  H   LIG d   1       7.393  -3.508  -8.452  0.00  0.00     0.024 H 
ATOM     42  H   LIG d   1       6.733  -2.859  -9.972  0.00  0.00     0.024 H 
ENDBRANCH   1  39
BRANCH   6  43
ATOM     43  O   LIG d   1       2.507   1.867  -8.611  0.00  0.00    -0.289 OA
ATOM     44  H   LIG d   1       2.394   2.432  -9.387  0.00  0.00     0.382 HD
ENDBRANCH   6  43
TORSDOF 3
ENDMDL
MODEL 5
REMARK VINA RESULT:      -6.4     10.660     12.977
REMARK  3 active torsions:
REMARK  status: ('A' for Active; 'I' for Inactive)
REMARK    1  A    between atoms: C_1  and  C_2 
REMARK    2  A    between atoms: C_2  and  C_23 
REMARK    3  A    between atoms: N_7  and  O_8 
ROOT
ATOM      1  C   LIG d   1      11.750   9.332   1.153  0.00  0.00    -0.022 C 
ATOM      2  C   LIG d   1      10.722   9.564   0.043  0.00  0.00    -0.006 C 
ATOM      3  C   LIG d   1      10.676   8.359  -0.864  0.00  0.00     0.037 A 
ATOM      4  C   LIG d   1      10.952   7.107  -0.365  0.00  0.00     0.112 A 
ATOM      5  C   LIG d   1      10.899   5.945  -1.285  0.00  0.00     0.264 A 
ATOM      6  N   LIG d   1      11.144   4.726  -0.862  0.00  0.00    -0.035 N 
ATOM      7  C   LIG d   1      10.559   6.213  -2.688  0.00  0.00     0.038 A 
ATOM      8  C   LIG d   1      10.305   7.489  -3.066  0.00  0.00     0.056 A 
ATOM      9  N   LIG d   1      10.351   8.534  -2.164  0.00  0.00    -0.342 N 
ATOM     10  C   LIG d   1      10.024   9.892  -2.630  0.00  0.00     0.028 C 
ATOM     11  C   LIG d   1      10.691  10.122  -3.996  0.00  0.00    -0.009 C 
ATOM     12  C   LIG d   1      10.156   9.085  -4.953  0.00  0.00    -0.037 A 
ATOM     13  C   LIG d   1       9.971   7.781  -4.478  0.00  0.00     0.002 A 
ATOM     14  C   LIG d   1       9.481   6.797  -5.330  0.00  0.00    -0.052 A 
ATOM     15  C   LIG d   1       9.181   7.118  -6.639  0.00  0.00    -0.061 A 
ATOM     16  C   LIG d   1       9.367   8.409  -7.102  0.00  0.00    -0.061 A 
ATOM     17  C   LIG d   1       9.855   9.393  -6.258  0.00  0.00    -0.058 A 
ATOM     18  C   LIG d   1      11.283   6.908   0.994  0.00  0.00     0.172 C 
ATOM     19  O   LIG d   1      11.509   5.787   1.403  0.00  0.00    -0.292 OA
ATOM     20  C   LIG d   1      11.359   8.079   1.941  0.00  0.00     0.016 C 
ATOM     21  H   LIG d   1       9.739   9.723   0.487  0.00  0.00     0.033 H 
ATOM     22  H   LIG d   1      11.005  10.443  -0.536  0.00  0.00     0.033 H 
ATOM     23  H   LIG d   1      10.514   5.408  -3.407  0.00  0.00     0.071 H 
ATOM     24  H   LIG d   1       8.943   9.994  -2.731  0.00  0.00     0.050 H 
ATOM     25  H   LIG d   1      10.397  10.625  -1.914  0.00  0.00     0.050 H 
ATOM     26  H   LIG d   1      10.450  11.121  -4.360  0.00  0.00     0.033 H 
ATOM     27  H   LIG d   1      11.772  10.014  -3.900  0.00  0.00     0.033 H 
ATOM     28  H   LIG d   1       9.336   5.789  -4.970  0.00  0.00     0.062 H 
ATOM     29  H   LIG d   1       8.800   6.358  -7.306  0.00  0.00     0.062 H 
ATOM     30  H   LIG d   1       9.131   8.651  -8.127  0.00  0.00     0.062 H 
ATOM     31  H   LIG d   1       9.998  10.399  -6.623  0.00  0.00     0.062 H 
ATOM     32  H   LIG d   1      12.108   7.881   2.707  0.00  0.00     0.035 H 
ATOM     33  H   LIG d   1      10.386   8.232   2.410  0.00  0.00     0.035 H 
ATOM     34  H   LIG d   1      11.450   4.580   0.048  0.00  0.00     0.514 HD
ENDROOT
BRANCH   1  35
ATOM     35  C   LIG d   1      11.772  10.541   2.091  0.00  0.00    -0.059 C 
ATOM     36  H   LIG d   1      10.933  11.196   1.858  0.00  0.00     0.024 H 
ATOM     37  H   LIG d   1      11.693  10.201   3.124  0.00  0.00     0.024 H 
ATOM     38  H   LIG d   1      12.707  11.086   1.960  0.00  0.00     0.024 H 
ENDBRANCH   1  35
BRANCH   1  39
ATOM     39  C   LIG d   1      13.136   9.136   0.536  0.00  0.00    -0.059 C 
ATOM     40  H   LIG d   1      13.404   8.081   0.572  0.00  0.00     0.024 H 
ATOM     41  H   LIG d   1      13.123   9.473  -0.500  0.00  0.00     0.024 H 
ATOM     42  H   LIG d   1      13.868   9.716   1.098  0.00  0.00     0.024 H 
ENDBRANCH   1  39
BRANCH   6  43
ATOM     43  O   LIG d   1      10.963   3.623  -1.732  0.00  0.00    -0.289 OA
ATOM     44  H   LIG d   1      11.344   2.797  -1.405  0.00  0.00     0.382 HD
ENDBRANCH   6  43
TORSDOF 3
ENDMDL
MODEL 6
REMARK VINA RESULT:      -6.4      2.243      3.648
REMARK  3 active torsions:
REMARK  status: ('A' for Active; 'I' for Inactive)
REMARK    1  A    between atoms: C_1  and  C_2 
REMARK    2  A    between atoms: C_2  and  C_23 
REMARK    3  A    between atoms: N_7  and  O_8 
ROOT
ATOM      1  C   LIG d   1       7.700  -6.035  -5.782  0.00  0.00    -0.022 C 
ATOM      2  C   LIG d   1       6.613  -4.958  -5.825  0.00  0.00    -0.006 C 
ATOM      3  C   LIG d   1       7.162  -3.662  -5.280  0.00  0.00     0.037 A 
ATOM      4  C   LIG d   1       8.498  -3.366  -5.416  0.00  0.00     0.112 A 
ATOM      5  C   LIG d   1       9.004  -2.084  -4.867  0.00  0.00     0.264 A 
ATOM      6  N   LIG d   1      10.269  -1.745  -4.977  0.00  0.00    -0.035 N 
ATOM      7  C   LIG d   1       8.034  -1.210  -4.199  0.00  0.00     0.038 A 
ATOM      8  C   LIG d   1       6.739  -1.606  -4.125  0.00  0.00     0.056 A 
ATOM      9  N   LIG d   1       6.317  -2.803  -4.669  0.00  0.00    -0.342 N 
ATOM     10  C   LIG d   1       4.889  -3.156  -4.591  0.00  0.00     0.028 C 
ATOM     11  C   LIG d   1       4.367  -2.807  -3.189  0.00  0.00    -0.009 C 
ATOM     12  C   LIG d   1       4.564  -1.325  -2.977  0.00  0.00    -0.037 A 
ATOM     13  C   LIG d   1       5.747  -0.742  -3.446  0.00  0.00     0.002 A 
ATOM     14  C   LIG d   1       5.966   0.620  -3.270  0.00  0.00    -0.052 A 
ATOM     15  C   LIG d   1       5.010   1.385  -2.631  0.00  0.00    -0.061 A 
ATOM     16  C   LIG d   1       3.843   0.803  -2.170  0.00  0.00    -0.061 A 
ATOM     17  C   LIG d   1       3.619  -0.554  -2.343  0.00  0.00    -0.058 A 
ATOM     18  C   LIG d   1       9.391  -4.252  -6.062  0.00  0.00     0.172 C 
ATOM     19  O   LIG d   1      10.562  -3.952  -6.174  0.00  0.00    -0.292 OA
ATOM     20  C   LIG d   1       8.899  -5.567  -6.611  0.00  0.00     0.016 C 
ATOM     21  H   LIG d   1       6.289  -4.811  -6.856  0.00  0.00     0.033 H 
ATOM     22  H   LIG d   1       5.763  -5.275  -5.220  0.00  0.00     0.033 H 
ATOM     23  H   LIG d   1       8.344  -0.267  -3.772  0.00  0.00     0.071 H 
ATOM     24  H   LIG d   1       4.332  -2.591  -5.339  0.00  0.00     0.050 H 
ATOM     25  H   LIG d   1       4.766  -4.225  -4.771  0.00  0.00     0.050 H 
ATOM     26  H   LIG d   1       3.308  -3.053  -3.118  0.00  0.00     0.033 H 
ATOM     27  H   LIG d   1       4.927  -3.365  -2.438  0.00  0.00     0.033 H 
ATOM     28  H   LIG d   1       6.877   1.075  -3.628  0.00  0.00     0.062 H 
ATOM     29  H   LIG d   1       5.174   2.444  -2.490  0.00  0.00     0.062 H 
ATOM     30  H   LIG d   1       3.101   1.408  -1.672  0.00  0.00     0.062 H 
ATOM     31  H   LIG d   1       2.707  -1.004  -1.982  0.00  0.00     0.062 H 
ATOM     32  H   LIG d   1       9.696  -6.308  -6.552  0.00  0.00     0.035 H 
ATOM     33  H   LIG d   1       8.596  -5.437  -7.650  0.00  0.00     0.035 H 
ATOM     34  H   LIG d   1      10.909  -2.374  -5.345  0.00  0.00     0.514 HD
ENDROOT
BRANCH   1  35
ATOM     35  C   LIG d   1       7.152  -7.339  -6.365  0.00  0.00    -0.059 C 
ATOM     36  H   LIG d   1       6.122  -7.188  -6.686  0.00  0.00     0.024 H 
ATOM     37  H   LIG d   1       7.760  -7.639  -7.219  0.00  0.00     0.024 H 
ATOM     38  H   LIG d   1       7.186  -8.120  -5.605  0.00  0.00     0.024 H 
ENDBRANCH   1  35
BRANCH   1  39
ATOM     39  C   LIG d   1       8.137  -6.264  -4.334  0.00  0.00    -0.059 C 
ATOM     40  H   LIG d   1       7.440  -5.767  -3.660  0.00  0.00     0.024 H 
ATOM     41  H   LIG d   1       8.147  -7.333  -4.122  0.00  0.00     0.024 H 
ATOM     42  H   LIG d   1       9.137  -5.855  -4.187  0.00  0.00     0.024 H 
ENDBRANCH   1  39
BRANCH   6  43
ATOM     43  O   LIG d   1      10.697  -0.463  -4.556  0.00  0.00    -0.289 OA
ATOM     44  H   LIG d   1      11.185  -0.465  -3.722  0.00  0.00     0.382 HD
ENDBRANCH   6  43
TORSDOF 3
ENDMDL
MODEL 7
REMARK VINA RESULT:      -6.3      2.344      3.450
REMARK  3 active torsions:
REMARK  status: ('A' for Active; 'I' for Inactive)
REMARK    1  A    between atoms: C_1  and  C_2 
REMARK    2  A    between atoms: C_2  and  C_23 
REMARK    3  A    between atoms: N_7  and  O_8 
ROOT
ATOM      1  C   LIG d   1       7.320  -3.939  -8.104  0.00  0.00    -0.022 C 
ATOM      2  C   LIG d   1       6.907  -2.525  -7.690  0.00  0.00    -0.006 C 
ATOM      3  C   LIG d   1       7.023  -2.381  -6.192  0.00  0.00     0.037 A 
ATOM      4  C   LIG d   1       7.963  -3.107  -5.499  0.00  0.00     0.112 A 
ATOM      5  C   LIG d   1       8.048  -2.942  -4.027  0.00  0.00     0.264 A 
ATOM      6  N   LIG d   1       8.933  -3.603  -3.316  0.00  0.00    -0.035 N 
ATOM      7  C   LIG d   1       7.104  -2.011  -3.399  0.00  0.00     0.038 A 
ATOM      8  C   LIG d   1       6.220  -1.348  -4.185  0.00  0.00     0.056 A 
ATOM      9  N   LIG d   1       6.195  -1.525  -5.554  0.00  0.00    -0.342 N 
ATOM     10  C   LIG d   1       5.237  -0.744  -6.356  0.00  0.00     0.028 C 
ATOM     11  C   LIG d   1       3.882  -0.727  -5.632  0.00  0.00    -0.009 C 
ATOM     12  C   LIG d   1       4.089  -0.092  -4.277  0.00  0.00    -0.037 A 
ATOM     13  C   LIG d   1       5.253  -0.411  -3.570  0.00  0.00     0.002 A 
ATOM     14  C   LIG d   1       5.480   0.152  -2.318  0.00  0.00    -0.052 A 
ATOM     15  C   LIG d   1       4.549   1.023  -1.786  0.00  0.00    -0.061 A 
ATOM     16  C   LIG d   1       3.400   1.333  -2.491  0.00  0.00    -0.061 A 
ATOM     17  C   LIG d   1       3.169   0.775  -3.738  0.00  0.00    -0.058 A 
ATOM     18  C   LIG d   1       8.841  -3.999  -6.155  0.00  0.00     0.172 C 
ATOM     19  O   LIG d   1       9.668  -4.615  -5.512  0.00  0.00    -0.292 OA
ATOM     20  C   LIG d   1       8.759  -4.193  -7.648  0.00  0.00     0.016 C 
ATOM     21  H   LIG d   1       7.561  -1.800  -8.177  0.00  0.00     0.033 H 
ATOM     22  H   LIG d   1       5.876  -2.344  -7.994  0.00  0.00     0.033 H 
ATOM     23  H   LIG d   1       7.112  -1.855  -2.330  0.00  0.00     0.071 H 
ATOM     24  H   LIG d   1       5.603   0.277  -6.469  0.00  0.00     0.050 H 
ATOM     25  H   LIG d   1       5.121  -1.204  -7.338  0.00  0.00     0.050 H 
ATOM     26  H   LIG d   1       3.164  -0.143  -6.208  0.00  0.00     0.033 H 
ATOM     27  H   LIG d   1       3.517  -1.746  -5.510  0.00  0.00     0.033 H 
ATOM     28  H   LIG d   1       6.376  -0.090  -1.767  0.00  0.00     0.062 H 
ATOM     29  H   LIG d   1       4.718   1.463  -0.814  0.00  0.00     0.062 H 
ATOM     30  H   LIG d   1       2.677   2.014  -2.067  0.00  0.00     0.062 H 
ATOM     31  H   LIG d   1       2.271   1.021  -4.285  0.00  0.00     0.062 H 
ATOM     32  H   LIG d   1       9.048  -5.213  -7.900  0.00  0.00     0.035 H 
ATOM     33  H   LIG d   1       9.428  -3.489  -8.144  0.00  0.00     0.035 H 
ATOM     34  H   LIG d   1       9.489  -4.277  -3.737  0.00  0.00     0.514 HD
ENDROOT
BRANCH   1  35
ATOM     35  C   LIG d   1       7.234  -4.074  -9.626  0.00  0.00    -0.059 C 
ATOM     36  H   LIG d   1       6.412  -4.741  -9.885  0.00  0.00     0.024 H 
ATOM     37  H   LIG d   1       7.058  -3.092 -10.068  0.00  0.00     0.024 H 
ATOM     38  H   LIG d   1       8.169  -4.481 -10.008  0.00  0.00     0.024 H 
ENDBRANCH   1  35
BRANCH   1  39
ATOM     39  C   LIG d   1       6.388  -4.959  -7.446  0.00  0.00    -0.059 C 
ATOM     40  H   LIG d   1       5.574  -4.436  -6.944  0.00  0.00     0.024 H 
ATOM     41  H   LIG d   1       5.978  -5.621  -8.208  0.00  0.00     0.024 H 
ATOM     42  H   LIG d   1       6.948  -5.545  -6.716  0.00  0.00     0.024 H 
ENDBRANCH   1  39
BRANCH   6  43
ATOM     43  O   LIG d   1       9.074  -3.332  -1.933  0.00  0.00    -0.289 OA
ATOM     44  H   LIG d   1       8.918  -2.408  -1.695  0.00  0.00     0.382 HD
ENDBRANCH   6  43
TORSDOF 3
ENDMDL
MODEL 8
REMARK VINA RESULT:      -6.2      4.351      5.687
REMARK  3 active torsions:
REMARK  status: ('A' for Active; 'I' for Inactive)
REMARK    1  A    between atoms: C_1  and  C_2 
REMARK    2  A    between atoms: C_2  and  C_23 
REMARK    3  A    between atoms: N_7  and  O_8 
ROOT
ATOM      1  C   LIG d   1      10.951  -0.952  -7.140  0.00  0.00    -0.022 C 
ATOM      2  C   LIG d   1       9.437  -1.023  -6.929  0.00  0.00    -0.006 C 
ATOM      3  C   LIG d   1       9.025  -0.023  -5.877  0.00  0.00     0.037 A 
ATOM      4  C   LIG d   1       9.739   1.142  -5.713  0.00  0.00     0.112 A 
ATOM      5  C   LIG d   1       9.307   2.101  -4.668  0.00  0.00     0.264 A 
ATOM      6  N   LIG d   1       9.945   3.233  -4.474  0.00  0.00    -0.035 N 
ATOM      7  C   LIG d   1       8.137   1.736  -3.861  0.00  0.00     0.038 A 
ATOM      8  C   LIG d   1       7.511   0.560  -4.114  0.00  0.00     0.056 A 
ATOM      9  N   LIG d   1       7.944  -0.290  -5.112  0.00  0.00    -0.342 N 
ATOM     10  C   LIG d   1       7.195  -1.534  -5.363  0.00  0.00     0.028 C 
ATOM     11  C   LIG d   1       6.830  -2.173  -4.014  0.00  0.00    -0.009 C 
ATOM     12  C   LIG d   1       5.984  -1.185  -3.247  0.00  0.00    -0.037 A 
ATOM     13  C   LIG d   1       6.335   0.168  -3.304  0.00  0.00     0.002 A 
ATOM     14  C   LIG d   1       5.581   1.109  -2.611  0.00  0.00    -0.052 A 
ATOM     15  C   LIG d   1       4.491   0.696  -1.871  0.00  0.00    -0.061 A 
ATOM     16  C   LIG d   1       4.150  -0.644  -1.818  0.00  0.00    -0.061 A 
ATOM     17  C   LIG d   1       4.898  -1.586  -2.507  0.00  0.00    -0.058 A 
ATOM     18  C   LIG d   1      10.866   1.438  -6.513  0.00  0.00     0.172 C 
ATOM     19  O   LIG d   1      11.464   2.482  -6.348  0.00  0.00    -0.292 OA
ATOM     20  C   LIG d   1      11.330   0.468  -7.569  0.00  0.00     0.016 C 
ATOM     21  H   LIG d   1       8.930  -0.794  -7.867  0.00  0.00     0.033 H 
ATOM     22  H   LIG d   1       9.162  -2.027  -6.604  0.00  0.00     0.033 H 
ATOM     23  H   LIG d   1       7.780   2.390  -3.079  0.00  0.00     0.071 H 
ATOM     24  H   LIG d   1       6.285  -1.306  -5.917  0.00  0.00     0.050 H 
ATOM     25  H   LIG d   1       7.814  -2.224  -5.938  0.00  0.00     0.050 H 
ATOM     26  H   LIG d   1       6.265  -3.091  -4.182  0.00  0.00     0.033 H 
ATOM     27  H   LIG d   1       7.738  -2.396  -3.453  0.00  0.00     0.033 H 
ATOM     28  H   LIG d   1       5.847   2.156  -2.651  0.00  0.00     0.062 H 
ATOM     29  H   LIG d   1       3.902   1.422  -1.329  0.00  0.00     0.062 H 
ATOM     30  H   LIG d   1       3.297  -0.959  -1.236  0.00  0.00     0.062 H 
ATOM     31  H   LIG d   1       4.627  -2.631  -2.464  0.00  0.00     0.062 H 
ATOM     32  H   LIG d   1      12.412   0.540  -7.680  0.00  0.00     0.035 H 
ATOM     33  H   LIG d   1      10.847   0.703  -8.518  0.00  0.00     0.035 H 
ATOM     34  H   LIG d   1      10.765   3.417  -4.958  0.00  0.00     0.514 HD
ENDROOT
BRANCH   1  35
ATOM     35  C   LIG d   1      11.364  -1.944  -8.230  0.00  0.00    -0.059 C 
ATOM     36  H   LIG d   1      11.433  -1.423  -9.186  0.00  0.00     0.024 H 
ATOM     37  H   LIG d   1      12.332  -2.377  -7.980  0.00  0.00     0.024 H 
ATOM     38  H   LIG d   1      10.619  -2.737  -8.301  0.00  0.00     0.024 H 
ENDBRANCH   1  35
BRANCH   1  39
ATOM     39  C   LIG d   1      11.668  -1.301  -5.834  0.00  0.00    -0.059 C 
ATOM     40  H   LIG d   1      11.108  -2.073  -5.307  0.00  0.00     0.024 H 
ATOM     41  H   LIG d   1      12.670  -1.666  -6.055  0.00  0.00     0.024 H 
ATOM     42  H   LIG d   1      11.735  -0.410  -5.208  0.00  0.00     0.024 H 
ENDBRANCH   1  39
BRANCH   6  43
ATOM     43  O   LIG d   1       9.436   4.185  -3.556  0.00  0.00    -0.289 OA
ATOM     44  H   LIG d   1       9.778   5.079  -3.688  0.00  0.00     0.382 HD
ENDBRANCH   6  43
TORSDOF 3
ENDMDL
MODEL 9
REMARK VINA RESULT:      -6.2      9.029     11.753
REMARK  3 active torsions:
REMARK  status: ('A' for Active; 'I' for Inactive)
REMARK    1  A    between atoms: C_1  and  C_2 
REMARK    2  A    between atoms: C_2  and  C_23 
REMARK    3  A    between atoms: N_7  and  O_8 
ROOT
ATOM      1  C   LIG d   1      10.837   9.072  -1.206  0.00  0.00    -0.022 C 
ATOM      2  C   LIG d   1       9.934   8.786  -2.409  0.00  0.00    -0.006 C 
ATOM      3  C   LIG d   1      10.117   7.355  -2.851  0.00  0.00     0.037 A 
ATOM      4  C   LIG d   1      10.452   6.386  -1.933  0.00  0.00     0.112 A 
ATOM      5  C   LIG d   1      10.625   4.990  -2.403  0.00  0.00     0.264 A 
ATOM      6  N   LIG d   1      10.935   4.022  -1.570  0.00  0.00    -0.035 N 
ATOM      7  C   LIG d   1      10.435   4.733  -3.835  0.00  0.00     0.038 A 
ATOM      8  C   LIG d   1      10.105   5.768  -4.646  0.00  0.00     0.056 A 
ATOM      9  N   LIG d   1       9.938   7.048  -4.154  0.00  0.00    -0.342 N 
ATOM     10  C   LIG d   1       9.539   8.121  -5.081  0.00  0.00     0.028 C 
ATOM     11  C   LIG d   1      10.342   7.975  -6.384  0.00  0.00    -0.009 C 
ATOM     12  C   LIG d   1      10.031   6.619  -6.970  0.00  0.00    -0.037 A 
ATOM     13  C   LIG d   1       9.918   5.532  -6.095  0.00  0.00     0.002 A 
ATOM     14  C   LIG d   1       9.634   4.266  -6.597  0.00  0.00    -0.052 A 
ATOM     15  C   LIG d   1       9.466   4.095  -7.957  0.00  0.00    -0.061 A 
ATOM     16  C   LIG d   1       9.580   5.174  -8.815  0.00  0.00    -0.061 A 
ATOM     17  C   LIG d   1       9.863   6.438  -8.321  0.00  0.00    -0.058 A 
ATOM     18  C   LIG d   1      10.633   6.692  -0.566  0.00  0.00     0.172 C 
ATOM     19  O   LIG d   1      10.916   5.808   0.218  0.00  0.00    -0.292 OA
ATOM     20  C   LIG d   1      10.478   8.108  -0.072  0.00  0.00     0.016 C 
ATOM     21  H   LIG d   1       8.894   8.950  -2.128  0.00  0.00     0.033 H 
ATOM     22  H   LIG d   1      10.198   9.456  -3.228  0.00  0.00     0.033 H 
ATOM     23  H   LIG d   1      10.556   3.738  -4.238  0.00  0.00     0.071 H 
ATOM     24  H   LIG d   1       8.473   8.038  -5.298  0.00  0.00     0.050 H 
ATOM     25  H   LIG d   1       9.748   9.091  -4.630  0.00  0.00     0.050 H 
ATOM     26  H   LIG d   1      10.050   8.757  -7.085  0.00  0.00     0.033 H 
ATOM     27  H   LIG d   1      11.408   8.050  -6.169  0.00  0.00     0.033 H 
ATOM     28  H   LIG d   1       9.546   3.423  -5.927  0.00  0.00     0.062 H 
ATOM     29  H   LIG d   1       9.246   3.114  -8.353  0.00  0.00     0.062 H 
ATOM     30  H   LIG d   1       9.448   5.032  -9.878  0.00  0.00     0.062 H 
ATOM     31  H   LIG d   1       9.950   7.277  -8.995  0.00  0.00     0.062 H 
ATOM     32  H   LIG d   1      11.144   8.275   0.774  0.00  0.00     0.035 H 
ATOM     33  H   LIG d   1       9.445   8.276   0.235  0.00  0.00     0.035 H 
ATOM     34  H   LIG d   1      11.141   4.226  -0.644  0.00  0.00     0.514 HD
ENDROOT
BRANCH   1  35
ATOM     35  C   LIG d   1      10.627  10.514  -0.739  0.00  0.00    -0.059 C 
ATOM     36  H   LIG d   1       9.674  10.590  -0.214  0.00  0.00     0.024 H 
ATOM     37  H   LIG d   1      11.436  10.800  -0.067  0.00  0.00     0.024 H 
ATOM     38  H   LIG d   1      10.621  11.179  -1.602  0.00  0.00     0.024 H 
ENDBRANCH   1  35
BRANCH   1  39
ATOM     39  C   LIG d   1      12.301   8.871  -1.604  0.00  0.00    -0.059 C 
ATOM     40  H   LIG d   1      12.542   9.525  -2.442  0.00  0.00     0.024 H 
ATOM     41  H   LIG d   1      12.943   9.111  -0.758  0.00  0.00     0.024 H 
ATOM     42  H   LIG d   1      12.458   7.832  -1.898  0.00  0.00     0.024 H 
ENDBRANCH   1  39
BRANCH   6  43
ATOM     43  O   LIG d   1      10.970   2.681  -2.024  0.00  0.00    -0.289 OA
ATOM     44  H   LIG d   1      11.862   2.338  -2.167  0.00  0.00     0.382 HD
ENDBRANCH   6  43
TORSDOF 3
ENDMDL
