MODEL 1
REMARK VINA RESULT:      -5.7      0.000      0.000
REMARK  13 active torsions:
REMARK  status: ('A' for Active; 'I' for Inactive)
REMARK    1  A    between atoms: C_1  and  C_2 
REMARK    2  A    between atoms: C_5  and  O_40 
REMARK    3  A    between atoms: C_7  and  C_38 
REMARK    4  A    between atoms: C_7  and  C_39 
REMARK    5  A    between atoms: C_12  and  C_37 
REMARK    6  A    between atoms: C_20  and  C_30 
REMARK    7  A    between atoms: C_20  and  C_31 
REMARK    8  A    between atoms: C_24  and  C_29 
REMARK    9  A    between atoms: C_27  and  C_28 
REMARK   10  A    between atoms: C_31  and  O_33 
REMARK   11  A    between atoms: O_33  and  C_34 
REMARK   12  A    between atoms: C_34  and  C_35 
REMARK   13  A    between atoms: C_35  and  N_36 
ROOT
ATOM      1  C   LIG d   1      11.390   8.454  -2.881  0.00  0.00    -0.022 C 
ATOM      2  C   LIG d   1      10.708   9.059  -4.105  0.00  0.00    -0.044 C 
ATOM      3  C   LIG d   1      10.263  10.496  -3.829  0.00  0.00    -0.026 C 
ATOM      4  C   LIG d   1       9.260  10.475  -2.678  0.00  0.00     0.061 C 
ATOM      5  H   LIG d   1       8.414   9.839  -2.950  0.00  0.00     0.060 H 
ATOM      6  C   LIG d   1       9.910   9.933  -1.406  0.00  0.00    -0.006 C 
ATOM      7  C   LIG d   1      10.555   8.570  -1.619  0.00  0.00    -0.028 C 
ATOM      8  H   LIG d   1      11.236   8.397  -0.757  0.00  0.00     0.031 H 
ATOM      9  C   LIG d   1       9.496   7.468  -1.570  0.00  0.00    -0.049 C 
ATOM     10  C   LIG d   1      10.170   6.101  -1.583  0.00  0.00    -0.046 C 
ATOM     11  C   LIG d   1      10.999   5.863  -2.835  0.00  0.00    -0.016 C 
ATOM     12  C   LIG d   1      11.856   7.040  -3.212  0.00  0.00    -0.011 C 
ATOM     13  H   LIG d   1      12.797   6.916  -2.597  0.00  0.00     0.035 H 
ATOM     14  C   LIG d   1      12.345   6.994  -4.629  0.00  0.00    -0.080 C 
ATOM     15  C   LIG d   1      11.989   6.093  -5.520  0.00  0.00    -0.062 C 
ATOM     16  C   LIG d   1      11.040   5.015  -5.173  0.00  0.00    -0.041 C 
ATOM     17  C   LIG d   1      10.947   3.948  -5.950  0.00  0.00    -0.052 C 
ATOM     18  C   LIG d   1      11.830   3.840  -7.176  0.00  0.00    -0.014 C 
ATOM     19  C   LIG d   1      10.956   3.637  -8.414  0.00  0.00     0.075 C 
ATOM     20  C   LIG d   1      10.142   2.351  -8.260  0.00  0.00     0.022 C 
ATOM     21  C   LIG d   1       9.331   2.416  -6.992  0.00  0.00     0.144 C 
ATOM     22  O   LIG d   1       8.155   2.135  -7.008  0.00  0.00    -0.296 OA
ATOM     23  C   LIG d   1       9.981   2.826  -5.693  0.00  0.00     0.048 C 
ATOM     24  C   LIG d   1       8.905   3.208  -4.689  0.00  0.00    -0.036 C 
ATOM     25  C   LIG d   1       9.529   3.931  -3.495  0.00  0.00    -0.042 C 
ATOM     26  C   LIG d   1      10.190   5.227  -3.950  0.00  0.00    -0.001 C 
ATOM     27  H   LIG d   1      11.409   9.064  -4.945  0.00  0.00     0.027 H 
ATOM     28  H   LIG d   1       9.831   8.481  -4.381  0.00  0.00     0.027 H 
ATOM     29  H   LIG d   1      11.106  11.135  -3.605  0.00  0.00     0.029 H 
ATOM     30  H   LIG d   1       9.760  10.882  -4.726  0.00  0.00     0.029 H 
ATOM     31  H   LIG d   1       8.943   7.499  -0.619  0.00  0.00     0.027 H 
ATOM     32  H   LIG d   1       8.783   7.589  -2.372  0.00  0.00     0.027 H 
ATOM     33  H   LIG d   1      10.824   6.019  -0.708  0.00  0.00     0.027 H 
ATOM     34  H   LIG d   1       9.406   5.324  -1.500  0.00  0.00     0.027 H 
ATOM     35  H   LIG d   1      13.051   7.754  -4.952  0.00  0.00     0.058 H 
ATOM     36  H   LIG d   1      12.389   6.174  -6.520  0.00  0.00     0.062 H 
ATOM     37  H   LIG d   1      12.440   4.723  -7.303  0.00  0.00     0.032 H 
ATOM     38  H   LIG d   1      12.484   2.971  -7.063  0.00  0.00     0.032 H 
ATOM     39  H   LIG d   1       9.467   2.248  -9.115  0.00  0.00     0.035 H 
ATOM     40  H   LIG d   1      10.813   1.491  -8.229  0.00  0.00     0.035 H 
ATOM     41  H   LIG d   1       8.146   3.823  -5.165  0.00  0.00     0.028 H 
ATOM     42  H   LIG d   1       8.420   2.292  -4.326  0.00  0.00     0.028 H 
ATOM     43  H   LIG d   1       8.734   4.181  -2.784  0.00  0.00     0.027 H 
ATOM     44  H   LIG d   1      10.232   3.268  -3.009  0.00  0.00     0.027 H 
ENDROOT
BRANCH  19  45
ATOM     45  C   LIG d   1      11.851   3.528  -9.650  0.00  0.00    -0.049 C 
ATOM     46  H   LIG d   1      12.893   3.449  -9.338  0.00  0.00     0.024 H 
ATOM     47  H   LIG d   1      11.575   2.641 -10.221  0.00  0.00     0.024 H 
ATOM     48  H   LIG d   1      11.723   4.414 -10.271  0.00  0.00     0.024 H 
ENDBRANCH  19  45
BRANCH  19  49
ATOM     49  C   LIG d   1      10.027   4.811  -8.574  0.00  0.00     0.314 C 
ATOM     50  O   LIG d   1       8.872   4.630  -8.879  0.00  0.00    -0.250 OA
BRANCH  49  51
ATOM     51  O   LIG d   1      10.481   6.059  -8.377  0.00  0.00    -0.459 OA
BRANCH  51  52
ATOM     52  C   LIG d   1       9.757   7.120  -9.003  0.00  0.00     0.132 C 
ATOM     53  H   LIG d   1      10.415   7.652  -9.691  0.00  0.00     0.075 H 
ATOM     54  H   LIG d   1       8.913   6.706  -9.556  0.00  0.00     0.075 H 
BRANCH  52  55
ATOM     55  C   LIG d   1       9.245   8.086  -7.935  0.00  0.00    -0.000 C 
ATOM     56  H   LIG d   1       8.624   7.544  -7.222  0.00  0.00     0.085 H 
ATOM     57  H   LIG d   1      10.090   8.535  -7.414  0.00  0.00     0.085 H 
BRANCH  55  58
ATOM     58  N   LIG d   1       8.447   9.143  -8.572  0.00  0.00     0.221 N 
ATOM     59  H   LIG d   1       8.972   9.547  -9.334  0.00  0.00     0.200 HD
ATOM     60  H   LIG d   1       7.588   8.748  -8.927  0.00  0.00     0.200 HD
ATOM     61  H   LIG d   1       8.234   9.859  -7.894  0.00  0.00     0.200 HD
ENDBRANCH  55  58
ENDBRANCH  52  55
ENDBRANCH  51  52
ENDBRANCH  49  51
ENDBRANCH  19  49
BRANCH  23  62
ATOM     62  C   LIG d   1      10.759   1.626  -5.153  0.00  0.00    -0.049 C 
ATOM     63  H   LIG d   1      11.533   1.974  -4.468  0.00  0.00     0.024 H 
ATOM     64  H   LIG d   1      10.079   0.960  -4.622  0.00  0.00     0.024 H 
ATOM     65  H   LIG d   1      11.221   1.089  -5.980  0.00  0.00     0.024 H 
ENDBRANCH  23  62
BRANCH  26  66
ATOM     66  C   LIG d   1       9.043   6.152  -4.379  0.00  0.00    -0.055 C 
ATOM     67  H   LIG d   1       8.349   5.599  -5.012  0.00  0.00     0.024 H 
ATOM     68  H   LIG d   1       8.519   6.515  -3.496  0.00  0.00     0.024 H 
ATOM     69  H   LIG d   1       9.448   6.998  -4.936  0.00  0.00     0.024 H 
ENDBRANCH  26  66
BRANCH  11  70
ATOM     70  C   LIG d   1      12.039   4.784  -2.397  0.00  0.00    -0.058 C 
ATOM     71  H   LIG d   1      12.889   5.271  -1.918  0.00  0.00     0.024 H 
ATOM     72  H   LIG d   1      11.573   4.094  -1.692  0.00  0.00     0.024 H 
ATOM     73  H   LIG d   1      12.382   4.232  -3.272  0.00  0.00     0.024 H 
ENDBRANCH  11  70
BRANCH   1  74
ATOM     74  C   LIG d   1      12.713   9.241  -2.665  0.00  0.00    -0.059 C 
ATOM     75  H   LIG d   1      12.656  10.198  -3.182  0.00  0.00     0.024 H 
ATOM     76  H   LIG d   1      12.864   9.412  -1.599  0.00  0.00     0.024 H 
ATOM     77  H   LIG d   1      13.548   8.664  -3.062  0.00  0.00     0.024 H 
ENDBRANCH   1  74
BRANCH   6  78
ATOM     78  C   LIG d   1      10.920  10.959  -0.871  0.00  0.00    -0.057 C 
ATOM     79  H   LIG d   1      10.509  11.449   0.011  0.00  0.00     0.024 H 
ATOM     80  H   LIG d   1      11.847  10.450  -0.605  0.00  0.00     0.024 H 
ATOM     81  H   LIG d   1      11.123  11.704  -1.640  0.00  0.00     0.024 H 
ENDBRANCH   6  78
BRANCH   6  82
ATOM     82  C   LIG d   1       8.801   9.844  -0.335  0.00  0.00    -0.057 C 
ATOM     83  H   LIG d   1       8.675  10.818   0.138  0.00  0.00     0.024 H 
ATOM     84  H   LIG d   1       7.865   9.545  -0.804  0.00  0.00     0.024 H 
ATOM     85  H   LIG d   1       9.081   9.108   0.419  0.00  0.00     0.024 H 
ENDBRANCH   6  82
BRANCH   4  86
ATOM     86  O   LIG d   1       8.782  11.802  -2.440  0.00  0.00    -0.391 OA
ATOM     87  H   LIG d   1       8.147  11.868  -1.713  0.00  0.00     0.210 HD
ENDBRANCH   4  86
TORSDOF 13
ENDMDL
MODEL 2
REMARK VINA RESULT:      -5.7      2.260      7.332
REMARK  13 active torsions:
REMARK  status: ('A' for Active; 'I' for Inactive)
REMARK    1  A    between atoms: C_1  and  C_2 
REMARK    2  A    between atoms: C_5  and  O_40 
REMARK    3  A    between atoms: C_7  and  C_38 
REMARK    4  A    between atoms: C_7  and  C_39 
REMARK    5  A    between atoms: C_12  and  C_37 
REMARK    6  A    between atoms: C_20  and  C_30 
REMARK    7  A    between atoms: C_20  and  C_31 
REMARK    8  A    between atoms: C_24  and  C_29 
REMARK    9  A    between atoms: C_27  and  C_28 
REMARK   10  A    between atoms: C_31  and  O_33 
REMARK   11  A    between atoms: O_33  and  C_34 
REMARK   12  A    between atoms: C_34  and  C_35 
REMARK   13  A    between atoms: C_35  and  N_36 
ROOT
ATOM      1  C   LIG d   1      10.823   4.569  -6.235  0.00  0.00    -0.022 C 
ATOM      2  C   LIG d   1      11.095   6.019  -6.626  0.00  0.00    -0.044 C 
ATOM      3  C   LIG d   1      11.495   6.122  -8.099  0.00  0.00    -0.026 C 
ATOM      4  C   LIG d   1      12.776   5.318  -8.306  0.00  0.00     0.061 C 
ATOM      5  H   LIG d   1      13.557   5.711  -7.649  0.00  0.00     0.060 H 
ATOM      6  C   LIG d   1      12.544   3.842  -7.984  0.00  0.00    -0.006 C 
ATOM      7  C   LIG d   1      11.964   3.635  -6.592  0.00  0.00    -0.028 C 
ATOM      8  H   LIG d   1      11.562   2.598  -6.560  0.00  0.00     0.031 H 
ATOM      9  C   LIG d   1      13.071   3.709  -5.540  0.00  0.00    -0.049 C 
ATOM     10  C   LIG d   1      12.519   3.304  -4.178  0.00  0.00    -0.046 C 
ATOM     11  C   LIG d   1      11.395   4.209  -3.703  0.00  0.00    -0.016 C 
ATOM     12  C   LIG d   1      10.386   4.515  -4.775  0.00  0.00    -0.011 C 
ATOM     13  H   LIG d   1       9.662   3.647  -4.742  0.00  0.00     0.035 H 
ATOM     14  C   LIG d   1       9.528   5.707  -4.467  0.00  0.00    -0.080 C 
ATOM     15  C   LIG d   1       9.686   6.501  -3.428  0.00  0.00    -0.062 C 
ATOM     16  C   LIG d   1      10.769   6.266  -2.450  0.00  0.00    -0.041 C 
ATOM     17  C   LIG d   1      10.720   6.850  -1.264  0.00  0.00    -0.052 C 
ATOM     18  C   LIG d   1       9.541   7.738  -0.920  0.00  0.00    -0.014 C 
ATOM     19  C   LIG d   1      10.051   9.123  -0.519  0.00  0.00     0.075 C 
ATOM     20  C   LIG d   1      10.966   8.997   0.701  0.00  0.00     0.022 C 
ATOM     21  C   LIG d   1      12.089   8.042   0.393  0.00  0.00     0.144 C 
ATOM     22  O   LIG d   1      13.232   8.345   0.648  0.00  0.00    -0.296 OA
ATOM     23  C   LIG d   1      11.796   6.698  -0.227  0.00  0.00     0.048 C 
ATOM     24  C   LIG d   1      13.078   6.119  -0.806  0.00  0.00    -0.036 C 
ATOM     25  C   LIG d   1      12.758   4.934  -1.716  0.00  0.00    -0.042 C 
ATOM     26  C   LIG d   1      11.907   5.388  -2.896  0.00  0.00    -0.001 C 
ATOM     27  H   LIG d   1      10.190   6.614  -6.466  0.00  0.00     0.027 H 
ATOM     28  H   LIG d   1      11.899   6.434  -6.028  0.00  0.00     0.027 H 
ATOM     29  H   LIG d   1      10.704   5.776  -8.749  0.00  0.00     0.029 H 
ATOM     30  H   LIG d   1      11.701   7.176  -8.330  0.00  0.00     0.029 H 
ATOM     31  H   LIG d   1      13.861   2.972  -5.752  0.00  0.00     0.027 H 
ATOM     32  H   LIG d   1      13.523   4.689  -5.531  0.00  0.00     0.027 H 
ATOM     33  H   LIG d   1      12.140   2.277  -4.239  0.00  0.00     0.027 H 
ATOM     34  H   LIG d   1      13.330   3.314  -3.445  0.00  0.00     0.027 H 
ATOM     35  H   LIG d   1       8.708   5.936  -5.141  0.00  0.00     0.058 H 
ATOM     36  H   LIG d   1       9.021   7.345  -3.322  0.00  0.00     0.062 H 
ATOM     37  H   LIG d   1       8.859   7.830  -1.753  0.00  0.00     0.032 H 
ATOM     38  H   LIG d   1       9.008   7.303  -0.071  0.00  0.00     0.032 H 
ATOM     39  H   LIG d   1      11.383   9.980   0.941  0.00  0.00     0.035 H 
ATOM     40  H   LIG d   1      10.392   8.635   1.556  0.00  0.00     0.035 H 
ATOM     41  H   LIG d   1      13.629   6.886  -1.342  0.00  0.00     0.028 H 
ATOM     42  H   LIG d   1      13.708   5.764   0.021  0.00  0.00     0.028 H 
ATOM     43  H   LIG d   1      13.699   4.530  -2.106  0.00  0.00     0.027 H 
ATOM     44  H   LIG d   1      12.266   4.164  -1.135  0.00  0.00     0.027 H 
ENDROOT
BRANCH  19  45
ATOM     45  C   LIG d   1       8.859  10.017  -0.171  0.00  0.00    -0.049 C 
ATOM     46  H   LIG d   1       8.686  10.724  -0.984  0.00  0.00     0.024 H 
ATOM     47  H   LIG d   1       7.972   9.401  -0.030  0.00  0.00     0.024 H 
ATOM     48  H   LIG d   1       9.072  10.564   0.747  0.00  0.00     0.024 H 
ENDBRANCH  19  45
BRANCH  19  49
ATOM     49  C   LIG d   1      10.814   9.732  -1.665  0.00  0.00     0.314 C 
ATOM     50  O   LIG d   1      11.929  10.163  -1.488  0.00  0.00    -0.250 OA
BRANCH  49  51
ATOM     51  O   LIG d   1      10.255   9.797  -2.884  0.00  0.00    -0.459 OA
BRANCH  51  52
ATOM     52  C   LIG d   1      10.211  11.081  -3.511  0.00  0.00     0.132 C 
ATOM     53  H   LIG d   1      10.416  11.854  -2.769  0.00  0.00     0.075 H 
ATOM     54  H   LIG d   1      10.963  11.126  -4.299  0.00  0.00     0.075 H 
BRANCH  52  55
ATOM     55  C   LIG d   1       8.824  11.307  -4.114  0.00  0.00    -0.000 C 
ATOM     56  H   LIG d   1       8.865  12.138  -4.817  0.00  0.00     0.085 H 
ATOM     57  H   LIG d   1       8.502  10.405  -4.634  0.00  0.00     0.085 H 
BRANCH  55  58
ATOM     58  N   LIG d   1       7.869  11.620  -3.042  0.00  0.00     0.221 N 
ATOM     59  H   LIG d   1       7.650  10.778  -2.530  0.00  0.00     0.200 HD
ATOM     60  H   LIG d   1       8.276  12.299  -2.416  0.00  0.00     0.200 HD
ATOM     61  H   LIG d   1       7.024  11.997  -3.445  0.00  0.00     0.200 HD
ENDBRANCH  55  58
ENDBRANCH  52  55
ENDBRANCH  51  52
ENDBRANCH  49  51
ENDBRANCH  19  49
BRANCH  23  62
ATOM     62  C   LIG d   1      11.285   5.768   0.874  0.00  0.00    -0.049 C 
ATOM     63  H   LIG d   1      10.740   6.350   1.617  0.00  0.00     0.024 H 
ATOM     64  H   LIG d   1      10.621   5.021   0.440  0.00  0.00     0.024 H 
ATOM     65  H   LIG d   1      12.129   5.271   1.351  0.00  0.00     0.024 H 
ENDBRANCH  23  62
BRANCH  26  66
ATOM     66  C   LIG d   1      12.822   6.273  -3.753  0.00  0.00    -0.055 C 
ATOM     67  H   LIG d   1      12.473   6.262  -4.786  0.00  0.00     0.024 H 
ATOM     68  H   LIG d   1      12.800   7.294  -3.373  0.00  0.00     0.024 H 
ATOM     69  H   LIG d   1      13.842   5.890  -3.710  0.00  0.00     0.024 H 
ENDBRANCH  26  66
BRANCH  11  70
ATOM     70  C   LIG d   1      10.596   3.321  -2.697  0.00  0.00    -0.058 C 
ATOM     71  H   LIG d   1       9.527   3.476  -2.845  0.00  0.00     0.024 H 
ATOM     72  H   LIG d   1      10.838   2.272  -2.867  0.00  0.00     0.024 H 
ATOM     73  H   LIG d   1      10.866   3.595  -1.676  0.00  0.00     0.024 H 
ENDBRANCH  11  70
BRANCH   1  74
ATOM     74  C   LIG d   1       9.558   4.118  -7.019  0.00  0.00    -0.059 C 
ATOM     75  H   LIG d   1       9.671   3.079  -7.324  0.00  0.00     0.024 H 
ATOM     76  H   LIG d   1       8.681   4.216  -6.380  0.00  0.00     0.024 H 
ATOM     77  H   LIG d   1       9.436   4.745  -7.902  0.00  0.00     0.024 H 
ENDBRANCH   1  74
BRANCH   6  78
ATOM     78  C   LIG d   1      11.651   3.218  -9.067  0.00  0.00    -0.057 C 
ATOM     79  H   LIG d   1      12.061   2.254  -9.366  0.00  0.00     0.024 H 
ATOM     80  H   LIG d   1      10.645   3.078  -8.672  0.00  0.00     0.024 H 
ATOM     81  H   LIG d   1      11.612   3.881  -9.933  0.00  0.00     0.024 H 
ENDBRANCH   6  78
BRANCH   6  82
ATOM     82  C   LIG d   1      13.909   3.132  -8.113  0.00  0.00    -0.057 C 
ATOM     83  H   LIG d   1      14.613   3.569  -7.404  0.00  0.00     0.024 H 
ATOM     84  H   LIG d   1      13.788   2.071  -7.896  0.00  0.00     0.024 H 
ATOM     85  H   LIG d   1      14.290   3.255  -9.126  0.00  0.00     0.024 H 
ENDBRANCH   6  82
BRANCH   4  86
ATOM     86  O   LIG d   1      13.206   5.448  -9.664  0.00  0.00    -0.391 OA
ATOM     87  H   LIG d   1      14.107   5.136  -9.823  0.00  0.00     0.210 HD
ENDBRANCH   4  86
TORSDOF 13
ENDMDL
MODEL 3
REMARK VINA RESULT:      -5.6      2.452      7.629
REMARK  13 active torsions:
REMARK  status: ('A' for Active; 'I' for Inactive)
REMARK    1  A    between atoms: C_1  and  C_2 
REMARK    2  A    between atoms: C_5  and  O_40 
REMARK    3  A    between atoms: C_7  and  C_38 
REMARK    4  A    between atoms: C_7  and  C_39 
REMARK    5  A    between atoms: C_12  and  C_37 
REMARK    6  A    between atoms: C_20  and  C_30 
REMARK    7  A    between atoms: C_20  and  C_31 
REMARK    8  A    between atoms: C_24  and  C_29 
REMARK    9  A    between atoms: C_27  and  C_28 
REMARK   10  A    between atoms: C_31  and  O_33 
REMARK   11  A    between atoms: O_33  and  C_34 
REMARK   12  A    between atoms: C_34  and  C_35 
REMARK   13  A    between atoms: C_35  and  N_36 
ROOT
ATOM      1  C   LIG d   1      11.360   6.018  -7.884  0.00  0.00    -0.022 C 
ATOM      2  C   LIG d   1      10.561   5.055  -7.010  0.00  0.00    -0.044 C 
ATOM      3  C   LIG d   1       9.974   3.917  -7.846  0.00  0.00    -0.026 C 
ATOM      4  C   LIG d   1       9.032   4.521  -8.885  0.00  0.00     0.061 C 
ATOM      5  H   LIG d   1       8.250   5.088  -8.374  0.00  0.00     0.060 H 
ATOM      6  C   LIG d   1       9.794   5.452  -9.828  0.00  0.00    -0.006 C 
ATOM      7  C   LIG d   1      10.575   6.523  -9.080  0.00  0.00    -0.028 C 
ATOM      8  H   LIG d   1      11.309   6.949  -9.799  0.00  0.00     0.031 H 
ATOM      9  C   LIG d   1       9.646   7.668  -8.671  0.00  0.00    -0.049 C 
ATOM     10  C   LIG d   1      10.465   8.822  -8.105  0.00  0.00    -0.046 C 
ATOM     11  C   LIG d   1      11.259   8.432  -6.868  0.00  0.00    -0.016 C 
ATOM     12  C   LIG d   1      11.963   7.111  -7.007  0.00  0.00    -0.011 C 
ATOM     13  H   LIG d   1      12.940   7.360  -7.522  0.00  0.00     0.035 H 
ATOM     14  C   LIG d   1      12.390   6.520  -5.696  0.00  0.00    -0.080 C 
ATOM     15  C   LIG d   1      12.097   7.018  -4.514  0.00  0.00    -0.062 C 
ATOM     16  C   LIG d   1      11.288   8.249  -4.387  0.00  0.00    -0.041 C 
ATOM     17  C   LIG d   1      11.278   8.912  -3.242  0.00  0.00    -0.052 C 
ATOM     18  C   LIG d   1      12.112   8.408  -2.082  0.00  0.00    -0.014 C 
ATOM     19  C   LIG d   1      11.210   8.194  -0.866  0.00  0.00     0.075 C 
ATOM     20  C   LIG d   1      10.550   9.519  -0.479  0.00  0.00     0.022 C 
ATOM     21  C   LIG d   1       9.795  10.070  -1.661  0.00  0.00     0.144 C 
ATOM     22  O   LIG d   1       8.658  10.459  -1.527  0.00  0.00    -0.296 OA
ATOM     23  C   LIG d   1      10.454  10.148  -3.016  0.00  0.00     0.048 C 
ATOM     24  C   LIG d   1       9.389  10.336  -4.085  0.00  0.00    -0.036 C 
ATOM     25  C   LIG d   1       9.983  10.090  -5.472  0.00  0.00    -0.042 C 
ATOM     26  C   LIG d   1      10.475   8.653  -5.588  0.00  0.00    -0.001 C 
ATOM     27  H   LIG d   1      11.219   4.627  -6.247  0.00  0.00     0.027 H 
ATOM     28  H   LIG d   1       9.742   5.571  -6.519  0.00  0.00     0.027 H 
ATOM     29  H   LIG d   1      10.751   3.329  -8.315  0.00  0.00     0.029 H 
ATOM     30  H   LIG d   1       9.392   3.263  -7.182  0.00  0.00     0.029 H 
ATOM     31  H   LIG d   1       9.138   8.091  -9.551  0.00  0.00     0.027 H 
ATOM     32  H   LIG d   1       8.890   7.318  -7.986  0.00  0.00     0.027 H 
ATOM     33  H   LIG d   1      11.164   9.174  -8.873  0.00  0.00     0.027 H 
ATOM     34  H   LIG d   1       9.796   9.651  -7.861  0.00  0.00     0.027 H 
ATOM     35  H   LIG d   1      12.993   5.616  -5.714  0.00  0.00     0.058 H 
ATOM     36  H   LIG d   1      12.440   6.491  -3.635  0.00  0.00     0.062 H 
ATOM     37  H   LIG d   1      12.615   7.484  -2.329  0.00  0.00     0.032 H 
ATOM     38  H   LIG d   1      12.861   9.164  -1.834  0.00  0.00     0.032 H 
ATOM     39  H   LIG d   1       9.853   9.346   0.346  0.00  0.00     0.035 H 
ATOM     40  H   LIG d   1      11.313  10.231  -0.159  0.00  0.00     0.035 H 
ATOM     41  H   LIG d   1       8.546   9.676  -3.898  0.00  0.00     0.028 H 
ATOM     42  H   LIG d   1       9.024  11.371  -4.040  0.00  0.00     0.028 H 
ATOM     43  H   LIG d   1       9.197  10.246  -6.220  0.00  0.00     0.027 H 
ATOM     44  H   LIG d   1      10.775  10.805  -5.648  0.00  0.00     0.027 H 
ENDROOT
BRANCH  19  45
ATOM     45  C   LIG d   1      12.055   7.686   0.304  0.00  0.00    -0.049 C 
ATOM     46  H   LIG d   1      12.978   7.247  -0.078  0.00  0.00     0.024 H 
ATOM     47  H   LIG d   1      12.296   8.518   0.966  0.00  0.00     0.024 H 
ATOM     48  H   LIG d   1      11.495   6.933   0.856  0.00  0.00     0.024 H 
ENDBRANCH  19  45
BRANCH  19  49
ATOM     49  C   LIG d   1      10.152   7.176  -1.195  0.00  0.00     0.314 C 
ATOM     50  O   LIG d   1       8.984   7.450  -1.050  0.00  0.00    -0.250 OA
BRANCH  49  51
ATOM     51  O   LIG d   1      10.505   5.963  -1.649  0.00  0.00    -0.459 OA
BRANCH  51  52
ATOM     52  C   LIG d   1       9.694   5.394  -2.679  0.00  0.00     0.132 C 
ATOM     53  H   LIG d   1       8.650   5.404  -2.367  0.00  0.00     0.075 H 
ATOM     54  H   LIG d   1       9.805   5.978  -3.593  0.00  0.00     0.075 H 
BRANCH  52  55
ATOM     55  C   LIG d   1      10.136   3.953  -2.938  0.00  0.00    -0.000 C 
ATOM     56  H   LIG d   1       9.261   3.304  -2.965  0.00  0.00     0.085 H 
ATOM     57  H   LIG d   1      10.658   3.898  -3.893  0.00  0.00     0.085 H 
BRANCH  55  58
ATOM     58  N   LIG d   1      11.036   3.515  -1.862  0.00  0.00     0.221 N 
ATOM     59  H   LIG d   1      10.510   2.994  -1.175  0.00  0.00     0.200 HD
ATOM     60  H   LIG d   1      11.760   2.928  -2.247  0.00  0.00     0.200 HD
ATOM     61  H   LIG d   1      11.453   4.322  -1.424  0.00  0.00     0.200 HD
ENDBRANCH  55  58
ENDBRANCH  52  55
ENDBRANCH  51  52
ENDBRANCH  49  51
ENDBRANCH  19  49
BRANCH  23  62
ATOM     62  C   LIG d   1      11.383  11.362  -3.023  0.00  0.00    -0.049 C 
ATOM     63  H   LIG d   1      11.591  11.654  -4.053  0.00  0.00     0.024 H 
ATOM     64  H   LIG d   1      10.903  12.191  -2.502  0.00  0.00     0.024 H 
ATOM     65  H   LIG d   1      12.316  11.110  -2.522  0.00  0.00     0.024 H 
ENDBRANCH  23  62
BRANCH  26  66
ATOM     66  C   LIG d   1       9.216   7.777  -5.568  0.00  0.00    -0.055 C 
ATOM     67  H   LIG d   1       9.260   7.097  -4.718  0.00  0.00     0.024 H 
ATOM     68  H   LIG d   1       8.334   8.411  -5.481  0.00  0.00     0.024 H 
ATOM     69  H   LIG d   1       9.159   7.201  -6.492  0.00  0.00     0.024 H 
ENDBRANCH  26  66
BRANCH  11  70
ATOM     70  C   LIG d   1      12.430   9.465  -6.832  0.00  0.00    -0.058 C 
ATOM     71  H   LIG d   1      12.872   9.547  -7.825  0.00  0.00     0.024 H 
ATOM     72  H   LIG d   1      12.047  10.438  -6.524  0.00  0.00     0.024 H 
ATOM     73  H   LIG d   1      13.188   9.131  -6.123  0.00  0.00     0.024 H 
ENDBRANCH  11  70
BRANCH   1  74
ATOM     74  C   LIG d   1      12.597   5.235  -8.407  0.00  0.00    -0.059 C 
ATOM     75  H   LIG d   1      13.508   5.725  -8.065  0.00  0.00     0.024 H 
ATOM     76  H   LIG d   1      12.569   4.215  -8.026  0.00  0.00     0.024 H 
ATOM     77  H   LIG d   1      12.581   5.216  -9.496  0.00  0.00     0.024 H 
ENDBRANCH   1  74
BRANCH   6  78
ATOM     78  C   LIG d   1      10.708   4.618 -10.738  0.00  0.00    -0.057 C 
ATOM     79  H   LIG d   1      10.870   5.149 -11.676  0.00  0.00     0.024 H 
ATOM     80  H   LIG d   1      11.665   4.458 -10.242  0.00  0.00     0.024 H 
ATOM     81  H   LIG d   1      10.239   3.655 -10.942  0.00  0.00     0.024 H 
ENDBRANCH   6  78
BRANCH   6  82
ATOM     82  C   LIG d   1       8.751   6.097 -10.766  0.00  0.00    -0.057 C 
ATOM     83  H   LIG d   1       7.753   5.760 -10.485  0.00  0.00     0.024 H 
ATOM     84  H   LIG d   1       8.806   7.182 -10.678  0.00  0.00     0.024 H 
ATOM     85  H   LIG d   1       8.958   5.805 -11.795  0.00  0.00     0.024 H 
ENDBRANCH   6  82
BRANCH   4  86
ATOM     86  O   LIG d   1       8.422   3.472  -9.641  0.00  0.00    -0.391 OA
ATOM     87  H   LIG d   1       8.293   3.684 -10.576  0.00  0.00     0.210 HD
ENDBRANCH   4  86
TORSDOF 13
ENDMDL
MODEL 4
REMARK VINA RESULT:      -5.6      5.364      8.656
REMARK  13 active torsions:
REMARK  status: ('A' for Active; 'I' for Inactive)
REMARK    1  A    between atoms: C_1  and  C_2 
REMARK    2  A    between atoms: C_5  and  O_40 
REMARK    3  A    between atoms: C_7  and  C_38 
REMARK    4  A    between atoms: C_7  and  C_39 
REMARK    5  A    between atoms: C_12  and  C_37 
REMARK    6  A    between atoms: C_20  and  C_30 
REMARK    7  A    between atoms: C_20  and  C_31 
REMARK    8  A    between atoms: C_24  and  C_29 
REMARK    9  A    between atoms: C_27  and  C_28 
REMARK   10  A    between atoms: C_31  and  O_33 
REMARK   11  A    between atoms: O_33  and  C_34 
REMARK   12  A    between atoms: C_34  and  C_35 
REMARK   13  A    between atoms: C_35  and  N_36 
ROOT
ATOM      1  C   LIG d   1       5.777  -1.293  -4.268  0.00  0.00    -0.022 C 
ATOM      2  C   LIG d   1       6.407  -0.124  -3.516  0.00  0.00    -0.044 C 
ATOM      3  C   LIG d   1       5.436   0.450  -2.484  0.00  0.00    -0.026 C 
ATOM      4  C   LIG d   1       4.199   0.960  -3.219  0.00  0.00     0.061 C 
ATOM      5  H   LIG d   1       4.502   1.716  -3.949  0.00  0.00     0.060 H 
ATOM      6  C   LIG d   1       3.492  -0.185  -3.944  0.00  0.00    -0.006 C 
ATOM      7  C   LIG d   1       4.426  -0.951  -4.870  0.00  0.00    -0.028 C 
ATOM      8  H   LIG d   1       3.922  -1.912  -5.115  0.00  0.00     0.031 H 
ATOM      9  C   LIG d   1       4.599  -0.198  -6.190  0.00  0.00    -0.049 C 
ATOM     10  C   LIG d   1       5.369  -1.062  -7.182  0.00  0.00    -0.046 C 
ATOM     11  C   LIG d   1       6.762  -1.426  -6.693  0.00  0.00    -0.016 C 
ATOM     12  C   LIG d   1       6.790  -1.863  -5.255  0.00  0.00    -0.011 C 
ATOM     13  H   LIG d   1       6.544  -2.967  -5.287  0.00  0.00     0.035 H 
ATOM     14  C   LIG d   1       8.160  -1.820  -4.643  0.00  0.00    -0.080 C 
ATOM     15  C   LIG d   1       9.235  -1.345  -5.236  0.00  0.00    -0.062 C 
ATOM     16  C   LIG d   1       9.167  -0.793  -6.606  0.00  0.00    -0.041 C 
ATOM     17  C   LIG d   1      10.279  -0.629  -7.303  0.00  0.00    -0.052 C 
ATOM     18  C   LIG d   1      11.607  -1.027  -6.691  0.00  0.00    -0.014 C 
ATOM     19  C   LIG d   1      12.551   0.175  -6.706  0.00  0.00     0.075 C 
ATOM     20  C   LIG d   1      12.774   0.632  -8.150  0.00  0.00     0.022 C 
ATOM     21  C   LIG d   1      11.446   0.941  -8.791  0.00  0.00     0.144 C 
ATOM     22  O   LIG d   1      11.292   1.974  -9.401  0.00  0.00    -0.296 OA
ATOM     23  C   LIG d   1      10.304  -0.039  -8.684  0.00  0.00     0.048 C 
ATOM     24  C   LIG d   1       9.002   0.664  -9.036  0.00  0.00    -0.036 C 
ATOM     25  C   LIG d   1       7.808  -0.198  -8.623  0.00  0.00    -0.042 C 
ATOM     26  C   LIG d   1       7.804  -0.406  -7.114  0.00  0.00    -0.001 C 
ATOM     27  H   LIG d   1       7.307  -0.470  -2.997  0.00  0.00     0.027 H 
ATOM     28  H   LIG d   1       6.681   0.671  -4.202  0.00  0.00     0.027 H 
ATOM     29  H   LIG d   1       5.173  -0.286  -1.736  0.00  0.00     0.029 H 
ATOM     30  H   LIG d   1       5.922   1.298  -1.983  0.00  0.00     0.029 H 
ATOM     31  H   LIG d   1       3.624  -0.022  -6.670  0.00  0.00     0.027 H 
ATOM     32  H   LIG d   1       5.066   0.760  -6.023  0.00  0.00     0.027 H 
ATOM     33  H   LIG d   1       4.807  -1.987  -7.359  0.00  0.00     0.027 H 
ATOM     34  H   LIG d   1       5.445  -0.533  -8.136  0.00  0.00     0.027 H 
ATOM     35  H   LIG d   1       8.285  -2.214  -3.639  0.00  0.00     0.058 H 
ATOM     36  H   LIG d   1      10.165  -1.344  -4.687  0.00  0.00     0.062 H 
ATOM     37  H   LIG d   1      11.485  -1.380  -5.677  0.00  0.00     0.032 H 
ATOM     38  H   LIG d   1      12.047  -1.825  -7.294  0.00  0.00     0.032 H 
ATOM     39  H   LIG d   1      13.393   1.534  -8.150  0.00  0.00     0.035 H 
ATOM     40  H   LIG d   1      13.285  -0.152  -8.710  0.00  0.00     0.035 H 
ATOM     41  H   LIG d   1       8.961   1.641  -8.562  0.00  0.00     0.028 H 
ATOM     42  H   LIG d   1       8.965   0.813 -10.123  0.00  0.00     0.028 H 
ATOM     43  H   LIG d   1       6.887   0.327  -8.901  0.00  0.00     0.027 H 
ATOM     44  H   LIG d   1       7.847  -1.136  -9.161  0.00  0.00     0.027 H 
ENDROOT
BRANCH  19  45
ATOM     45  C   LIG d   1      13.892  -0.230  -6.089  0.00  0.00    -0.049 C 
ATOM     46  H   LIG d   1      14.490  -0.758  -6.833  0.00  0.00     0.024 H 
ATOM     47  H   LIG d   1      14.425   0.662  -5.761  0.00  0.00     0.024 H 
ATOM     48  H   LIG d   1      13.716  -0.883  -5.235  0.00  0.00     0.024 H 
ENDBRANCH  19  45
BRANCH  19  49
ATOM     49  C   LIG d   1      11.952   1.299  -5.904  0.00  0.00     0.314 C 
ATOM     50  O   LIG d   1      11.953   2.424  -6.345  0.00  0.00    -0.250 OA
BRANCH  49  51
ATOM     51  O   LIG d   1      11.418   1.052  -4.697  0.00  0.00    -0.459 OA
BRANCH  51  52
ATOM     52  C   LIG d   1      11.825   1.899  -3.621  0.00  0.00     0.132 C 
ATOM     53  H   LIG d   1      12.315   1.299  -2.853  0.00  0.00     0.075 H 
ATOM     54  H   LIG d   1      12.522   2.650  -3.994  0.00  0.00     0.075 H 
BRANCH  52  55
ATOM     55  C   LIG d   1      10.599   2.591  -3.025  0.00  0.00    -0.000 C 
ATOM     56  H   LIG d   1      10.108   3.186  -3.794  0.00  0.00     0.085 H 
ATOM     57  H   LIG d   1       9.905   1.840  -2.647  0.00  0.00     0.085 H 
BRANCH  55  58
ATOM     58  N   LIG d   1      11.019   3.467  -1.923  0.00  0.00     0.221 N 
ATOM     59  H   LIG d   1      11.288   2.904  -1.129  0.00  0.00     0.200 HD
ATOM     60  H   LIG d   1      11.804   4.028  -2.219  0.00  0.00     0.200 HD
ATOM     61  H   LIG d   1      10.253   4.070  -1.663  0.00  0.00     0.200 HD
ENDBRANCH  55  58
ENDBRANCH  52  55
ENDBRANCH  51  52
ENDBRANCH  49  51
ENDBRANCH  19  49
BRANCH  23  62
ATOM     62  C   LIG d   1      10.547  -1.164  -9.691  0.00  0.00    -0.049 C 
ATOM     63  H   LIG d   1       9.867  -1.990  -9.483  0.00  0.00     0.024 H 
ATOM     64  H   LIG d   1      10.368  -0.793 -10.701  0.00  0.00     0.024 H 
ATOM     65  H   LIG d   1      11.577  -1.511  -9.608  0.00  0.00     0.024 H 
ENDBRANCH  23  62
BRANCH  26  66
ATOM     66  C   LIG d   1       7.493   0.967  -6.504  0.00  0.00    -0.055 C 
ATOM     67  H   LIG d   1       7.399   0.872  -5.423  0.00  0.00     0.024 H 
ATOM     68  H   LIG d   1       8.300   1.660  -6.739  0.00  0.00     0.024 H 
ATOM     69  H   LIG d   1       6.557   1.345  -6.919  0.00  0.00     0.024 H 
ENDBRANCH  26  66
BRANCH  11  70
ATOM     70  C   LIG d   1       7.106  -2.732  -7.476  0.00  0.00    -0.058 C 
ATOM     71  H   LIG d   1       6.241  -3.395  -7.474  0.00  0.00     0.024 H 
ATOM     72  H   LIG d   1       7.369  -2.482  -8.504  0.00  0.00     0.024 H 
ATOM     73  H   LIG d   1       7.949  -3.232  -6.997  0.00  0.00     0.024 H 
ENDBRANCH  11  70
BRANCH   1  74
ATOM     74  C   LIG d   1       5.575  -2.439  -3.237  0.00  0.00    -0.059 C 
ATOM     75  H   LIG d   1       5.217  -2.023  -2.297  0.00  0.00     0.024 H 
ATOM     76  H   LIG d   1       4.845  -3.150  -3.623  0.00  0.00     0.024 H 
ATOM     77  H   LIG d   1       6.524  -2.949  -3.071  0.00  0.00     0.024 H 
ENDBRANCH   1  74
BRANCH   6  78
ATOM     78  C   LIG d   1       2.833  -1.113  -2.912  0.00  0.00    -0.057 C 
ATOM     79  H   LIG d   1       3.298  -2.097  -2.959  0.00  0.00     0.024 H 
ATOM     80  H   LIG d   1       2.965  -0.696  -1.914  0.00  0.00     0.024 H 
ATOM     81  H   LIG d   1       1.769  -1.202  -3.131  0.00  0.00     0.024 H 
ENDBRANCH   6  78
BRANCH   6  82
ATOM     82  C   LIG d   1       2.328   0.438  -4.745  0.00  0.00    -0.057 C 
ATOM     83  H   LIG d   1       1.628   0.914  -4.057  0.00  0.00     0.024 H 
ATOM     84  H   LIG d   1       2.720   1.183  -5.436  0.00  0.00     0.024 H 
ATOM     85  H   LIG d   1       1.813  -0.342  -5.305  0.00  0.00     0.024 H 
ENDBRANCH   6  82
BRANCH   4  86
ATOM     86  O   LIG d   1       3.300   1.558  -2.281  0.00  0.00    -0.391 OA
ATOM     87  H   LIG d   1       2.759   0.921  -1.794  0.00  0.00     0.210 HD
ENDBRANCH   4  86
TORSDOF 13
ENDMDL
MODEL 5
REMARK VINA RESULT:      -5.3      2.698      7.594
REMARK  13 active torsions:
REMARK  status: ('A' for Active; 'I' for Inactive)
REMARK    1  A    between atoms: C_1  and  C_2 
REMARK    2  A    between atoms: C_5  and  O_40 
REMARK    3  A    between atoms: C_7  and  C_38 
REMARK    4  A    between atoms: C_7  and  C_39 
REMARK    5  A    between atoms: C_12  and  C_37 
REMARK    6  A    between atoms: C_20  and  C_30 
REMARK    7  A    between atoms: C_20  and  C_31 
REMARK    8  A    between atoms: C_24  and  C_29 
REMARK    9  A    between atoms: C_27  and  C_28 
REMARK   10  A    between atoms: C_31  and  O_33 
REMARK   11  A    between atoms: O_33  and  C_34 
REMARK   12  A    between atoms: C_34  and  C_35 
REMARK   13  A    between atoms: C_35  and  N_36 
ROOT
ATOM      1  C   LIG d   1      11.440   3.741  -4.860  0.00  0.00    -0.022 C 
ATOM      2  C   LIG d   1      10.670   3.784  -3.543  0.00  0.00    -0.044 C 
ATOM      3  C   LIG d   1      10.131   2.400  -3.179  0.00  0.00    -0.026 C 
ATOM      4  C   LIG d   1       9.177   1.950  -4.282  0.00  0.00     0.061 C 
ATOM      5  H   LIG d   1       8.370   2.681  -4.379  0.00  0.00     0.060 H 
ATOM      6  C   LIG d   1       9.912   1.831  -5.616  0.00  0.00    -0.006 C 
ATOM      7  C   LIG d   1      10.647   3.111  -5.990  0.00  0.00    -0.028 C 
ATOM      8  H   LIG d   1      11.371   2.846  -6.792  0.00  0.00     0.031 H 
ATOM      9  C   LIG d   1       9.674   4.124  -6.595  0.00  0.00    -0.049 C 
ATOM     10  C   LIG d   1      10.445   5.317  -7.148  0.00  0.00    -0.046 C 
ATOM     11  C   LIG d   1      11.242   6.051  -6.082  0.00  0.00    -0.016 C 
ATOM     12  C   LIG d   1      11.995   5.128  -5.164  0.00  0.00    -0.011 C 
ATOM     13  H   LIG d   1      12.966   4.917  -5.705  0.00  0.00     0.035 H 
ATOM     14  C   LIG d   1      12.433   5.782  -3.886  0.00  0.00    -0.080 C 
ATOM     15  C   LIG d   1      12.111   7.004  -3.517  0.00  0.00    -0.062 C 
ATOM     16  C   LIG d   1      11.257   7.856  -4.370  0.00  0.00    -0.041 C 
ATOM     17  C   LIG d   1      11.212   9.161  -4.158  0.00  0.00    -0.052 C 
ATOM     18  C   LIG d   1      12.055   9.765  -3.053  0.00  0.00    -0.014 C 
ATOM     19  C   LIG d   1      11.152  10.544  -2.096  0.00  0.00     0.075 C 
ATOM     20  C   LIG d   1      10.440  11.662  -2.861  0.00  0.00     0.022 C 
ATOM     21  C   LIG d   1       9.675  11.074  -4.018  0.00  0.00     0.144 C 
ATOM     22  O   LIG d   1       8.523  11.389  -4.208  0.00  0.00    -0.296 OA
ATOM     23  C   LIG d   1      10.342  10.094  -4.951  0.00  0.00     0.048 C 
ATOM     24  C   LIG d   1       9.280   9.354  -5.750  0.00  0.00    -0.036 C 
ATOM     25  C   LIG d   1       9.894   8.143  -6.451  0.00  0.00    -0.042 C 
ATOM     26  C   LIG d   1      10.440   7.158  -5.424  0.00  0.00    -0.001 C 
ATOM     27  H   LIG d   1      11.336   4.123  -2.744  0.00  0.00     0.027 H 
ATOM     28  H   LIG d   1       9.828   4.466  -3.612  0.00  0.00     0.027 H 
ATOM     29  H   LIG d   1      10.933   1.688  -3.038  0.00  0.00     0.029 H 
ATOM     30  H   LIG d   1       9.569   2.482  -2.239  0.00  0.00     0.029 H 
ATOM     31  H   LIG d   1       9.157   3.696  -7.468  0.00  0.00     0.027 H 
ATOM     32  H   LIG d   1       8.925   4.411  -5.873  0.00  0.00     0.027 H 
ATOM     33  H   LIG d   1      11.136   4.965  -7.923  0.00  0.00     0.027 H 
ATOM     34  H   LIG d   1       9.744   6.010  -7.620  0.00  0.00     0.027 H 
ATOM     35  H   LIG d   1      13.068   5.214  -3.213  0.00  0.00     0.058 H 
ATOM     36  H   LIG d   1      12.466   7.361  -2.561  0.00  0.00     0.062 H 
ATOM     37  H   LIG d   1      12.593   9.005  -2.506  0.00  0.00     0.032 H 
ATOM     38  H   LIG d   1      12.774  10.458  -3.497  0.00  0.00     0.032 H 
ATOM     39  H   LIG d   1       9.743  12.171  -2.189  0.00  0.00     0.035 H 
ATOM     40  H   LIG d   1      11.173  12.383  -3.227  0.00  0.00     0.035 H 
ATOM     41  H   LIG d   1       8.460   9.056  -5.101  0.00  0.00     0.028 H 
ATOM     42  H   LIG d   1       8.877  10.032  -6.514  0.00  0.00     0.028 H 
ATOM     43  H   LIG d   1       9.109   7.639  -7.027  0.00  0.00     0.027 H 
ATOM     44  H   LIG d   1      10.661   8.482  -7.135  0.00  0.00     0.027 H 
ENDROOT
BRANCH  19  45
ATOM     45  C   LIG d   1      12.005  11.154  -0.982  0.00  0.00    -0.049 C 
ATOM     46  H   LIG d   1      13.049  11.176  -1.295  0.00  0.00     0.024 H 
ATOM     47  H   LIG d   1      11.665  12.169  -0.778  0.00  0.00     0.024 H 
ATOM     48  H   LIG d   1      11.909  10.551  -0.080  0.00  0.00     0.024 H 
ENDBRANCH  19  45
BRANCH  19  49
ATOM     49  C   LIG d   1      10.134   9.614  -1.492  0.00  0.00     0.314 C 
ATOM     50  O   LIG d   1       9.028  10.021  -1.224  0.00  0.00    -0.250 OA
BRANCH  49  51
ATOM     51  O   LIG d   1      10.454   8.333  -1.252  0.00  0.00    -0.459 OA
BRANCH  51  52
ATOM     52  C   LIG d   1      10.644   7.956   0.114  0.00  0.00     0.132 C 
ATOM     53  H   LIG d   1      11.167   8.755   0.641  0.00  0.00     0.075 H 
ATOM     54  H   LIG d   1       9.674   7.787   0.582  0.00  0.00     0.075 H 
BRANCH  52  55
ATOM     55  C   LIG d   1      11.473   6.673   0.178  0.00  0.00    -0.000 C 
ATOM     56  H   LIG d   1      12.336   6.764  -0.480  0.00  0.00     0.085 H 
ATOM     57  H   LIG d   1      11.811   6.510   1.201  0.00  0.00     0.085 H 
BRANCH  55  58
ATOM     58  N   LIG d   1      10.649   5.535  -0.252  0.00  0.00     0.221 N 
ATOM     59  H   LIG d   1      11.131   4.673  -0.044  0.00  0.00     0.200 HD
ATOM     60  H   LIG d   1       9.767   5.554   0.239  0.00  0.00     0.200 HD
ATOM     61  H   LIG d   1      10.483   5.596  -1.245  0.00  0.00     0.200 HD
ENDBRANCH  55  58
ENDBRANCH  52  55
ENDBRANCH  51  52
ENDBRANCH  49  51
ENDBRANCH  19  49
BRANCH  23  62
ATOM     62  C   LIG d   1      11.226  10.884  -5.917  0.00  0.00    -0.049 C 
ATOM     63  H   LIG d   1      10.608  11.312  -6.706  0.00  0.00     0.024 H 
ATOM     64  H   LIG d   1      11.730  11.685  -5.376  0.00  0.00     0.024 H 
ATOM     65  H   LIG d   1      11.968  10.220  -6.358  0.00  0.00     0.024 H 
ENDBRANCH  23  62
BRANCH  26  66
ATOM     66  C   LIG d   1       9.213   6.582  -4.705  0.00  0.00    -0.055 C 
ATOM     67  H   LIG d   1       9.341   5.508  -4.571  0.00  0.00     0.024 H 
ATOM     68  H   LIG d   1       9.106   7.059  -3.731  0.00  0.00     0.024 H 
ATOM     69  H   LIG d   1       8.320   6.771  -5.302  0.00  0.00     0.024 H 
ENDBRANCH  26  66
BRANCH  11  70
ATOM     70  C   LIG d   1      12.374   6.766  -6.885  0.00  0.00    -0.058 C 
ATOM     71  H   LIG d   1      11.965   7.162  -7.815  0.00  0.00     0.024 H 
ATOM     72  H   LIG d   1      12.781   7.585  -6.290  0.00  0.00     0.024 H 
ATOM     73  H   LIG d   1      13.167   6.053  -7.111  0.00  0.00     0.024 H 
ENDBRANCH  11  70
BRANCH   1  74
ATOM     74  C   LIG d   1      12.709   2.878  -4.614  0.00  0.00    -0.059 C 
ATOM     75  H   LIG d   1      12.551   2.237  -3.748  0.00  0.00     0.024 H 
ATOM     76  H   LIG d   1      12.905   2.262  -5.491  0.00  0.00     0.024 H 
ATOM     77  H   LIG d   1      13.563   3.530  -4.431  0.00  0.00     0.024 H 
ENDBRANCH   1  74
BRANCH   6  78
ATOM     78  C   LIG d   1      10.864   0.627  -5.569  0.00  0.00    -0.057 C 
ATOM     79  H   LIG d   1      10.487  -0.161  -6.221  0.00  0.00     0.024 H 
ATOM     80  H   LIG d   1      11.854   0.933  -5.906  0.00  0.00     0.024 H 
ATOM     81  H   LIG d   1      10.928   0.254  -4.547  0.00  0.00     0.024 H 
ENDBRANCH   6  78
BRANCH   6  82
ATOM     82  C   LIG d   1       8.855   1.483  -6.686  0.00  0.00    -0.057 C 
ATOM     83  H   LIG d   1       9.285   1.617  -7.678  0.00  0.00     0.024 H 
ATOM     84  H   LIG d   1       8.541   0.447  -6.563  0.00  0.00     0.024 H 
ATOM     85  H   LIG d   1       7.992   2.139  -6.571  0.00  0.00     0.024 H 
ENDBRANCH   6  82
BRANCH   4  86
ATOM     86  O   LIG d   1       8.612   0.682  -3.935  0.00  0.00    -0.391 OA
ATOM     87  H   LIG d   1       9.263   0.024  -3.655  0.00  0.00     0.210 HD
ENDBRANCH   4  86
TORSDOF 13
ENDMDL
MODEL 6
REMARK VINA RESULT:      -5.3      2.762      7.136
REMARK  13 active torsions:
REMARK  status: ('A' for Active; 'I' for Inactive)
REMARK    1  A    between atoms: C_1  and  C_2 
REMARK    2  A    between atoms: C_5  and  O_40 
REMARK    3  A    between atoms: C_7  and  C_38 
REMARK    4  A    between atoms: C_7  and  C_39 
REMARK    5  A    between atoms: C_12  and  C_37 
REMARK    6  A    between atoms: C_20  and  C_30 
REMARK    7  A    between atoms: C_20  and  C_31 
REMARK    8  A    between atoms: C_24  and  C_29 
REMARK    9  A    between atoms: C_27  and  C_28 
REMARK   10  A    between atoms: C_31  and  O_33 
REMARK   11  A    between atoms: O_33  and  C_34 
REMARK   12  A    between atoms: C_34  and  C_35 
REMARK   13  A    between atoms: C_35  and  N_36 
ROOT
ATOM      1  C   LIG d   1      10.413   7.108  -7.814  0.00  0.00    -0.022 C 
ATOM      2  C   LIG d   1      10.940   8.528  -7.623  0.00  0.00    -0.044 C 
ATOM      3  C   LIG d   1      11.408   9.121  -8.953  0.00  0.00    -0.026 C 
ATOM      4  C   LIG d   1      12.540   8.254  -9.495  0.00  0.00     0.061 C 
ATOM      5  H   LIG d   1      13.352   8.223  -8.762  0.00  0.00     0.060 H 
ATOM      6  C   LIG d   1      12.050   6.831  -9.762  0.00  0.00    -0.006 C 
ATOM      7  C   LIG d   1      11.391   6.205  -8.541  0.00  0.00    -0.028 C 
ATOM      8  H   LIG d   1      10.819   5.322  -8.900  0.00  0.00     0.031 H 
ATOM      9  C   LIG d   1      12.455   5.677  -7.577  0.00  0.00    -0.049 C 
ATOM     10  C   LIG d   1      11.792   4.878  -6.462  0.00  0.00    -0.046 C 
ATOM     11  C   LIG d   1      10.820   5.707  -5.638  0.00  0.00    -0.016 C 
ATOM     12  C   LIG d   1       9.918   6.570  -6.476  0.00  0.00    -0.011 C 
ATOM     13  H   LIG d   1       9.057   5.893  -6.759  0.00  0.00     0.035 H 
ATOM     14  C   LIG d   1       9.264   7.678  -5.704  0.00  0.00    -0.080 C 
ATOM     15  C   LIG d   1       9.515   7.969  -4.445  0.00  0.00    -0.062 C 
ATOM     16  C   LIG d   1      10.505   7.194  -3.668  0.00  0.00    -0.041 C 
ATOM     17  C   LIG d   1      10.510   7.274  -2.347  0.00  0.00    -0.052 C 
ATOM     18  C   LIG d   1       9.487   8.147  -1.650  0.00  0.00    -0.014 C 
ATOM     19  C   LIG d   1      10.209   9.160  -0.761  0.00  0.00     0.075 C 
ATOM     20  C   LIG d   1      11.042   8.419   0.286  0.00  0.00     0.022 C 
ATOM     21  C   LIG d   1      11.998   7.480  -0.402  0.00  0.00     0.144 C 
ATOM     22  O   LIG d   1      13.165   7.463  -0.086  0.00  0.00    -0.296 OA
ATOM     23  C   LIG d   1      11.506   6.552  -1.484  0.00  0.00     0.048 C 
ATOM     24  C   LIG d   1      12.692   6.032  -2.282  0.00  0.00    -0.036 C 
ATOM     25  C   LIG d   1      12.210   5.363  -3.569  0.00  0.00    -0.042 C 
ATOM     26  C   LIG d   1      11.494   6.376  -4.455  0.00  0.00    -0.001 C 
ATOM     27  H   LIG d   1      10.144   9.159  -7.217  0.00  0.00     0.027 H 
ATOM     28  H   LIG d   1      11.781   8.536  -6.936  0.00  0.00     0.027 H 
ATOM     29  H   LIG d   1      10.594   9.193  -9.661  0.00  0.00     0.029 H 
ATOM     30  H   LIG d   1      11.797  10.131  -8.764  0.00  0.00     0.029 H 
ATOM     31  H   LIG d   1      13.117   4.956  -8.082  0.00  0.00     0.027 H 
ATOM     32  H   LIG d   1      13.066   6.485  -7.204  0.00  0.00     0.027 H 
ATOM     33  H   LIG d   1      11.247   4.035  -6.903  0.00  0.00     0.027 H 
ATOM     34  H   LIG d   1      12.564   4.466  -5.807  0.00  0.00     0.027 H 
ATOM     35  H   LIG d   1       8.520   8.285  -6.212  0.00  0.00     0.058 H 
ATOM     36  H   LIG d   1       8.998   8.807  -3.999  0.00  0.00     0.062 H 
ATOM     37  H   LIG d   1       8.861   8.668  -2.361  0.00  0.00     0.032 H 
ATOM     38  H   LIG d   1       8.856   7.515  -1.020  0.00  0.00     0.032 H 
ATOM     39  H   LIG d   1      11.611   9.146   0.874  0.00  0.00     0.035 H 
ATOM     40  H   LIG d   1      10.384   7.859   0.952  0.00  0.00     0.035 H 
ATOM     41  H   LIG d   1      13.385   6.840  -2.497  0.00  0.00     0.028 H 
ATOM     42  H   LIG d   1      13.221   5.283  -1.677  0.00  0.00     0.028 H 
ATOM     43  H   LIG d   1      13.084   4.988  -4.114  0.00  0.00     0.027 H 
ATOM     44  H   LIG d   1      11.574   4.525  -3.316  0.00  0.00     0.027 H 
ENDROOT
BRANCH  19  45
ATOM     45  C   LIG d   1       9.173  10.040  -0.057  0.00  0.00    -0.049 C 
ATOM     46  H   LIG d   1       9.683  10.835   0.488  0.00  0.00     0.024 H 
ATOM     47  H   LIG d   1       8.504  10.478  -0.798  0.00  0.00     0.024 H 
ATOM     48  H   LIG d   1       8.596   9.434   0.640  0.00  0.00     0.024 H 
ENDBRANCH  19  45
BRANCH  19  49
ATOM     49  C   LIG d   1      11.106  10.025  -1.606  0.00  0.00     0.314 C 
ATOM     50  O   LIG d   1      12.184  10.370  -1.184  0.00  0.00    -0.250 OA
BRANCH  49  51
ATOM     51  O   LIG d   1      10.707  10.414  -2.827  0.00  0.00    -0.459 OA
BRANCH  51  52
ATOM     52  C   LIG d   1      10.111  11.708  -2.935  0.00  0.00     0.132 C 
ATOM     53  H   LIG d   1       9.836  12.064  -1.941  0.00  0.00     0.075 H 
ATOM     54  H   LIG d   1      10.824  12.400  -3.384  0.00  0.00     0.075 H 
BRANCH  52  55
ATOM     55  C   LIG d   1       8.861  11.623  -3.812  0.00  0.00    -0.000 C 
ATOM     56  H   LIG d   1       8.797  12.511  -4.439  0.00  0.00     0.085 H 
ATOM     57  H   LIG d   1       8.919  10.736  -4.442  0.00  0.00     0.085 H 
BRANCH  55  58
ATOM     58  N   LIG d   1       7.668  11.540  -2.958  0.00  0.00     0.221 N 
ATOM     59  H   LIG d   1       7.668  10.658  -2.466  0.00  0.00     0.200 HD
ATOM     60  H   LIG d   1       7.679  12.297  -2.291  0.00  0.00     0.200 HD
ATOM     61  H   LIG d   1       6.840  11.605  -3.530  0.00  0.00     0.200 HD
ENDBRANCH  55  58
ENDBRANCH  52  55
ENDBRANCH  51  52
ENDBRANCH  49  51
ENDBRANCH  19  49
BRANCH  23  62
ATOM     62  C   LIG d   1      10.804   5.370  -0.813  0.00  0.00    -0.049 C 
ATOM     63  H   LIG d   1      11.070   5.344   0.244  0.00  0.00     0.024 H 
ATOM     64  H   LIG d   1       9.725   5.484  -0.913  0.00  0.00     0.024 H 
ATOM     65  H   LIG d   1      11.118   4.442  -1.290  0.00  0.00     0.024 H 
ENDBRANCH  23  62
BRANCH  26  66
ATOM     66  C   LIG d   1      12.576   7.354  -4.931  0.00  0.00    -0.055 C 
ATOM     67  H   LIG d   1      12.970   7.020  -5.890  0.00  0.00     0.024 H 
ATOM     68  H   LIG d   1      12.145   8.348  -5.042  0.00  0.00     0.024 H 
ATOM     69  H   LIG d   1      13.383   7.387  -4.198  0.00  0.00     0.024 H 
ENDBRANCH  26  66
BRANCH  11  70
ATOM     70  C   LIG d   1       9.845   4.649  -5.029  0.00  0.00    -0.058 C 
ATOM     71  H   LIG d   1       9.486   5.001  -4.062  0.00  0.00     0.024 H 
ATOM     72  H   LIG d   1       8.998   4.506  -5.701  0.00  0.00     0.024 H 
ATOM     73  H   LIG d   1      10.371   3.703  -4.900  0.00  0.00     0.024 H 
ENDBRANCH  11  70
BRANCH   1  74
ATOM     74  C   LIG d   1       9.120   7.218  -8.672  0.00  0.00    -0.059 C 
ATOM     75  H   LIG d   1       8.420   7.898  -8.189  0.00  0.00     0.024 H 
ATOM     76  H   LIG d   1       9.373   7.598  -9.662  0.00  0.00     0.024 H 
ATOM     77  H   LIG d   1       8.663   6.233  -8.767  0.00  0.00     0.024 H 
ENDBRANCH   1  74
BRANCH   6  78
ATOM     78  C   LIG d   1      11.106   6.836 -10.973  0.00  0.00    -0.057 C 
ATOM     79  H   LIG d   1      11.676   6.641 -11.881  0.00  0.00     0.024 H 
ATOM     80  H   LIG d   1      10.349   6.062 -10.847  0.00  0.00     0.024 H 
ATOM     81  H   LIG d   1      10.620   7.810 -11.051  0.00  0.00     0.024 H 
ENDBRANCH   6  78
BRANCH   6  82
ATOM     82  C   LIG d   1      13.279   6.004 -10.198  0.00  0.00    -0.057 C 
ATOM     83  H   LIG d   1      12.949   5.141 -10.775  0.00  0.00     0.024 H 
ATOM     84  H   LIG d   1      13.934   6.622 -10.811  0.00  0.00     0.024 H 
ATOM     85  H   LIG d   1      13.821   5.665  -9.315  0.00  0.00     0.024 H 
ENDBRANCH   6  82
BRANCH   4  86
ATOM     86  O   LIG d   1      13.037   8.823 -10.709  0.00  0.00    -0.391 OA
ATOM     87  H   LIG d   1      12.410   9.411 -11.154  0.00  0.00     0.210 HD
ENDBRANCH   4  86
TORSDOF 13
ENDMDL
MODEL 7
REMARK VINA RESULT:      -5.3     13.518     16.425
REMARK  13 active torsions:
REMARK  status: ('A' for Active; 'I' for Inactive)
REMARK    1  A    between atoms: C_1  and  C_2 
REMARK    2  A    between atoms: C_5  and  O_40 
REMARK    3  A    between atoms: C_7  and  C_38 
REMARK    4  A    between atoms: C_7  and  C_39 
REMARK    5  A    between atoms: C_12  and  C_37 
REMARK    6  A    between atoms: C_20  and  C_30 
REMARK    7  A    between atoms: C_20  and  C_31 
REMARK    8  A    between atoms: C_24  and  C_29 
REMARK    9  A    between atoms: C_27  and  C_28 
REMARK   10  A    between atoms: C_31  and  O_33 
REMARK   11  A    between atoms: O_33  and  C_34 
REMARK   12  A    between atoms: C_34  and  C_35 
REMARK   13  A    between atoms: C_35  and  N_36 
ROOT
ATOM      1  C   LIG d   1      11.450 -10.338  -1.452  0.00  0.00    -0.022 C 
ATOM      2  C   LIG d   1      11.435  -8.860  -1.832  0.00  0.00    -0.044 C 
ATOM      3  C   LIG d   1      12.444  -8.070  -0.996  0.00  0.00    -0.026 C 
ATOM      4  C   LIG d   1      12.052  -8.195   0.474  0.00  0.00     0.061 C 
ATOM      5  H   LIG d   1      11.035  -7.815   0.609  0.00  0.00     0.060 H 
ATOM      6  C   LIG d   1      12.108  -9.654   0.926  0.00  0.00    -0.006 C 
ATOM      7  C   LIG d   1      11.276 -10.569   0.038  0.00  0.00    -0.028 C 
ATOM      8  H   LIG d   1      11.604 -11.610   0.250  0.00  0.00     0.031 H 
ATOM      9  C   LIG d   1       9.799 -10.486   0.428  0.00  0.00    -0.049 C 
ATOM     10  C   LIG d   1       9.005 -11.547  -0.325  0.00  0.00    -0.046 C 
ATOM     11  C   LIG d   1       9.075 -11.378  -1.834  0.00  0.00    -0.016 C 
ATOM     12  C   LIG d   1      10.464 -11.095  -2.335  0.00  0.00    -0.011 C 
ATOM     13  H   LIG d   1      10.938 -12.115  -2.455  0.00  0.00     0.035 H 
ATOM     14  C   LIG d   1      10.494 -10.521  -3.721  0.00  0.00    -0.080 C 
ATOM     15  C   LIG d   1       9.431 -10.178  -4.418  0.00  0.00    -0.062 C 
ATOM     16  C   LIG d   1       8.072 -10.338  -3.860  0.00  0.00    -0.041 C 
ATOM     17  C   LIG d   1       7.024 -10.306  -4.666  0.00  0.00    -0.052 C 
ATOM     18  C   LIG d   1       7.235 -10.124  -6.155  0.00  0.00    -0.014 C 
ATOM     19  C   LIG d   1       6.440  -8.909  -6.634  0.00  0.00     0.075 C 
ATOM     20  C   LIG d   1       4.951  -9.131  -6.356  0.00  0.00     0.022 C 
ATOM     21  C   LIG d   1       4.748  -9.405  -4.888  0.00  0.00     0.144 C 
ATOM     22  O   LIG d   1       3.890  -8.815  -4.273  0.00  0.00    -0.296 OA
ATOM     23  C   LIG d   1       5.608 -10.421  -4.178  0.00  0.00     0.048 C 
ATOM     24  C   LIG d   1       5.496 -10.215  -2.675  0.00  0.00    -0.036 C 
ATOM     25  C   LIG d   1       6.591 -10.999  -1.952  0.00  0.00    -0.042 C 
ATOM     26  C   LIG d   1       7.966 -10.490  -2.366  0.00  0.00    -0.001 C 
ATOM     27  H   LIG d   1      11.696  -8.754  -2.889  0.00  0.00     0.027 H 
ATOM     28  H   LIG d   1      10.451  -8.431  -1.668  0.00  0.00     0.027 H 
ATOM     29  H   LIG d   1      13.454  -8.416  -1.164  0.00  0.00     0.029 H 
ATOM     30  H   LIG d   1      12.383  -7.013  -1.287  0.00  0.00     0.029 H 
ATOM     31  H   LIG d   1       9.661 -10.735   1.491  0.00  0.00     0.027 H 
ATOM     32  H   LIG d   1       9.419  -9.489   0.267  0.00  0.00     0.027 H 
ATOM     33  H   LIG d   1       9.397 -12.537  -0.064  0.00  0.00     0.027 H 
ATOM     34  H   LIG d   1       7.961 -11.509  -0.003  0.00  0.00     0.027 H 
ATOM     35  H   LIG d   1      11.461 -10.381  -4.196  0.00  0.00     0.058 H 
ATOM     36  H   LIG d   1       9.577  -9.752  -5.400  0.00  0.00     0.062 H 
ATOM     37  H   LIG d   1       8.281  -9.990  -6.393  0.00  0.00     0.032 H 
ATOM     38  H   LIG d   1       6.865 -11.011  -6.675  0.00  0.00     0.032 H 
ATOM     39  H   LIG d   1       4.395  -8.231  -6.635  0.00  0.00     0.035 H 
ATOM     40  H   LIG d   1       4.587  -9.973  -6.946  0.00  0.00     0.035 H 
ATOM     41  H   LIG d   1       5.549  -9.157  -2.435  0.00  0.00     0.028 H 
ATOM     42  H   LIG d   1       4.519 -10.590  -2.341  0.00  0.00     0.028 H 
ATOM     43  H   LIG d   1       6.476 -10.842  -0.873  0.00  0.00     0.027 H 
ATOM     44  H   LIG d   1       6.469 -12.053  -2.163  0.00  0.00     0.027 H 
ENDROOT
BRANCH  19  45
ATOM     45  C   LIG d   1       6.654  -8.728  -8.138  0.00  0.00    -0.049 C 
ATOM     46  H   LIG d   1       5.731  -8.367  -8.596  0.00  0.00     0.024 H 
ATOM     47  H   LIG d   1       7.450  -8.003  -8.307  0.00  0.00     0.024 H 
ATOM     48  H   LIG d   1       6.931  -9.683  -8.583  0.00  0.00     0.024 H 
ENDBRANCH  19  45
BRANCH  19  49
ATOM     49  C   LIG d   1       6.914  -7.677  -5.911  0.00  0.00     0.314 C 
ATOM     50  O   LIG d   1       8.098  -7.462  -5.796  0.00  0.00    -0.250 OA
BRANCH  49  51
ATOM     51  O   LIG d   1       6.022  -6.817  -5.393  0.00  0.00    -0.459 OA
BRANCH  51  52
ATOM     52  C   LIG d   1       5.772  -5.619  -6.131  0.00  0.00     0.132 C 
ATOM     53  H   LIG d   1       6.152  -4.763  -5.572  0.00  0.00     0.075 H 
ATOM     54  H   LIG d   1       6.276  -5.675  -7.096  0.00  0.00     0.075 H 
BRANCH  52  55
ATOM     55  C   LIG d   1       4.267  -5.461  -6.350  0.00  0.00    -0.000 C 
ATOM     56  H   LIG d   1       4.039  -5.580  -7.408  0.00  0.00     0.085 H 
ATOM     57  H   LIG d   1       3.734  -6.218  -5.775  0.00  0.00     0.085 H 
BRANCH  55  58
ATOM     58  N   LIG d   1       3.846  -4.124  -5.907  0.00  0.00     0.221 N 
ATOM     59  H   LIG d   1       2.840  -4.101  -5.820  0.00  0.00     0.200 HD
ATOM     60  H   LIG d   1       4.265  -3.918  -5.013  0.00  0.00     0.200 HD
ATOM     61  H   LIG d   1       4.140  -3.438  -6.585  0.00  0.00     0.200 HD
ENDBRANCH  55  58
ENDBRANCH  52  55
ENDBRANCH  51  52
ENDBRANCH  49  51
ENDBRANCH  19  49
BRANCH  23  62
ATOM     62  C   LIG d   1       5.082 -11.814  -4.527  0.00  0.00    -0.049 C 
ATOM     63  H   LIG d   1       5.918 -12.512  -4.590  0.00  0.00     0.024 H 
ATOM     64  H   LIG d   1       4.390 -12.146  -3.753  0.00  0.00     0.024 H 
ATOM     65  H   LIG d   1       4.566 -11.779  -5.486  0.00  0.00     0.024 H 
ENDBRANCH  23  62
BRANCH  26  66
ATOM     66  C   LIG d   1       8.081  -9.075  -1.782  0.00  0.00    -0.055 C 
ATOM     67  H   LIG d   1       8.832  -8.513  -2.336  0.00  0.00     0.024 H 
ATOM     68  H   LIG d   1       7.118  -8.570  -1.862  0.00  0.00     0.024 H 
ATOM     69  H   LIG d   1       8.373  -9.137  -0.733  0.00  0.00     0.024 H 
ENDBRANCH  26  66
BRANCH  11  70
ATOM     70  C   LIG d   1       8.775 -12.808  -2.386  0.00  0.00    -0.058 C 
ATOM     71  H   LIG d   1       8.235 -12.727  -3.330  0.00  0.00     0.024 H 
ATOM     72  H   LIG d   1       9.714 -13.339  -2.550  0.00  0.00     0.024 H 
ATOM     73  H   LIG d   1       8.169 -13.357  -1.665  0.00  0.00     0.024 H 
ENDBRANCH  11  70
BRANCH   1  74
ATOM     74  C   LIG d   1      12.836 -10.900  -1.874  0.00  0.00    -0.059 C 
ATOM     75  H   LIG d   1      12.759 -11.975  -2.034  0.00  0.00     0.024 H 
ATOM     76  H   LIG d   1      13.158 -10.417  -2.797  0.00  0.00     0.024 H 
ATOM     77  H   LIG d   1      13.564 -10.701  -1.088  0.00  0.00     0.024 H 
ENDBRANCH   1  74
BRANCH   6  78
ATOM     78  C   LIG d   1      13.573 -10.111   0.993  0.00  0.00    -0.057 C 
ATOM     79  H   LIG d   1      14.082  -9.583   1.798  0.00  0.00     0.024 H 
ATOM     80  H   LIG d   1      13.610 -11.184   1.181  0.00  0.00     0.024 H 
ATOM     81  H   LIG d   1      14.066  -9.892   0.045  0.00  0.00     0.024 H 
ENDBRANCH   6  78
BRANCH   6  82
ATOM     82  C   LIG d   1      11.593  -9.697   2.381  0.00  0.00    -0.057 C 
ATOM     83  H   LIG d   1      11.903  -8.791   2.902  0.00  0.00     0.024 H 
ATOM     84  H   LIG d   1      10.505  -9.760   2.379  0.00  0.00     0.024 H 
ATOM     85  H   LIG d   1      12.007 -10.568   2.888  0.00  0.00     0.024 H 
ENDBRANCH   6  82
BRANCH   4  86
ATOM     86  O   LIG d   1      12.946  -7.414   1.273  0.00  0.00    -0.391 OA
ATOM     87  H   LIG d   1      13.666  -7.923   1.670  0.00  0.00     0.210 HD
ENDBRANCH   4  86
TORSDOF 13
ENDMDL
MODEL 8
REMARK VINA RESULT:      -5.2      3.272      4.959
REMARK  13 active torsions:
REMARK  status: ('A' for Active; 'I' for Inactive)
REMARK    1  A    between atoms: C_1  and  C_2 
REMARK    2  A    between atoms: C_5  and  O_40 
REMARK    3  A    between atoms: C_7  and  C_38 
REMARK    4  A    between atoms: C_7  and  C_39 
REMARK    5  A    between atoms: C_12  and  C_37 
REMARK    6  A    between atoms: C_20  and  C_30 
REMARK    7  A    between atoms: C_20  and  C_31 
REMARK    8  A    between atoms: C_24  and  C_29 
REMARK    9  A    between atoms: C_27  and  C_28 
REMARK   10  A    between atoms: C_31  and  O_33 
REMARK   11  A    between atoms: O_33  and  C_34 
REMARK   12  A    between atoms: C_34  and  C_35 
REMARK   13  A    between atoms: C_35  and  N_36 
ROOT
ATOM      1  C   LIG d   1      11.036   6.784  -3.439  0.00  0.00    -0.022 C 
ATOM      2  C   LIG d   1       9.847   6.284  -2.624  0.00  0.00    -0.044 C 
ATOM      3  C   LIG d   1       9.626   7.156  -1.387  0.00  0.00    -0.026 C 
ATOM      4  C   LIG d   1      10.876   7.077  -0.515  0.00  0.00     0.061 C 
ATOM      5  H   LIG d   1      11.060   6.034  -0.243  0.00  0.00     0.060 H 
ATOM      6  C   LIG d   1      12.092   7.623  -1.263  0.00  0.00    -0.006 C 
ATOM      7  C   LIG d   1      12.297   6.945  -2.610  0.00  0.00    -0.028 C 
ATOM      8  H   LIG d   1      12.994   7.587  -3.193  0.00  0.00     0.031 H 
ATOM      9  C   LIG d   1      12.995   5.597  -2.424  0.00  0.00    -0.049 C 
ATOM     10  C   LIG d   1      13.376   5.019  -3.782  0.00  0.00    -0.046 C 
ATOM     11  C   LIG d   1      12.173   4.775  -4.679  0.00  0.00    -0.016 C 
ATOM     12  C   LIG d   1      11.195   5.917  -4.683  0.00  0.00    -0.011 C 
ATOM     13  H   LIG d   1      11.595   6.633  -5.462  0.00  0.00     0.035 H 
ATOM     14  C   LIG d   1       9.839   5.541  -5.206  0.00  0.00    -0.080 C 
ATOM     15  C   LIG d   1       9.469   4.321  -5.530  0.00  0.00    -0.062 C 
ATOM     16  C   LIG d   1      10.401   3.182  -5.395  0.00  0.00    -0.041 C 
ATOM     17  C   LIG d   1      10.141   2.044  -6.019  0.00  0.00    -0.052 C 
ATOM     18  C   LIG d   1       8.899   1.933  -6.879  0.00  0.00    -0.014 C 
ATOM     19  C   LIG d   1       8.053   0.754  -6.396  0.00  0.00     0.075 C 
ATOM     20  C   LIG d   1       8.866  -0.538  -6.508  0.00  0.00     0.022 C 
ATOM     21  C   LIG d   1      10.147  -0.397  -5.728  0.00  0.00     0.144 C 
ATOM     22  O   LIG d   1      10.491  -1.266  -4.962  0.00  0.00    -0.296 OA
ATOM     23  C   LIG d   1      11.013   0.826  -5.904  0.00  0.00     0.048 C 
ATOM     24  C   LIG d   1      11.991   0.923  -4.742  0.00  0.00    -0.036 C 
ATOM     25  C   LIG d   1      12.646   2.304  -4.717  0.00  0.00    -0.042 C 
ATOM     26  C   LIG d   1      11.593   3.384  -4.499  0.00  0.00    -0.001 C 
ATOM     27  H   LIG d   1       8.944   6.317  -3.242  0.00  0.00     0.027 H 
ATOM     28  H   LIG d   1      10.010   5.263  -2.293  0.00  0.00     0.027 H 
ATOM     29  H   LIG d   1       9.400   8.177  -1.658  0.00  0.00     0.029 H 
ATOM     30  H   LIG d   1       8.777   6.748  -0.822  0.00  0.00     0.029 H 
ATOM     31  H   LIG d   1      13.952   5.722  -1.895  0.00  0.00     0.027 H 
ATOM     32  H   LIG d   1      12.379   4.926  -1.844  0.00  0.00     0.027 H 
ATOM     33  H   LIG d   1      14.055   5.715  -4.288  0.00  0.00     0.027 H 
ATOM     34  H   LIG d   1      13.915   4.079  -3.634  0.00  0.00     0.027 H 
ATOM     35  H   LIG d   1       9.105   6.331  -5.336  0.00  0.00     0.058 H 
ATOM     36  H   LIG d   1       8.456   4.166  -5.874  0.00  0.00     0.062 H 
ATOM     37  H   LIG d   1       8.312   2.840  -6.844  0.00  0.00     0.032 H 
ATOM     38  H   LIG d   1       9.202   1.746  -7.912  0.00  0.00     0.032 H 
ATOM     39  H   LIG d   1       8.282  -1.366  -6.096  0.00  0.00     0.035 H 
ATOM     40  H   LIG d   1       9.088  -0.744  -7.556  0.00  0.00     0.035 H 
ATOM     41  H   LIG d   1      11.484   0.714  -3.805  0.00  0.00     0.028 H 
ATOM     42  H   LIG d   1      12.776   0.167  -4.879  0.00  0.00     0.028 H 
ATOM     43  H   LIG d   1      13.353   2.339  -3.880  0.00  0.00     0.027 H 
ATOM     44  H   LIG d   1      13.193   2.453  -5.639  0.00  0.00     0.027 H 
ENDROOT
BRANCH  19  45
ATOM     45  C   LIG d   1       6.800   0.644  -7.267  0.00  0.00    -0.049 C 
ATOM     46  H   LIG d   1       7.023   0.043  -8.150  0.00  0.00     0.024 H 
ATOM     47  H   LIG d   1       6.002   0.168  -6.696  0.00  0.00     0.024 H 
ATOM     48  H   LIG d   1       6.483   1.639  -7.575  0.00  0.00     0.024 H 
ENDBRANCH  19  45
BRANCH  19  49
ATOM     49  C   LIG d   1       7.647   0.977  -4.963  0.00  0.00     0.314 C 
ATOM     50  O   LIG d   1       7.286   2.072  -4.601  0.00  0.00    -0.250 OA
BRANCH  49  51
ATOM     51  O   LIG d   1       7.687  -0.040  -4.089  0.00  0.00    -0.459 OA
BRANCH  51  52
ATOM     52  C   LIG d   1       6.438  -0.628  -3.719  0.00  0.00     0.132 C 
ATOM     53  H   LIG d   1       6.016  -0.082  -2.874  0.00  0.00     0.075 H 
ATOM     54  H   LIG d   1       5.749  -0.578  -4.563  0.00  0.00     0.075 H 
BRANCH  52  55
ATOM     55  C   LIG d   1       6.658  -2.089  -3.326  0.00  0.00    -0.000 C 
ATOM     56  H   LIG d   1       6.308  -2.248  -2.306  0.00  0.00     0.085 H 
ATOM     57  H   LIG d   1       6.104  -2.736  -4.005  0.00  0.00     0.085 H 
BRANCH  55  58
ATOM     58  N   LIG d   1       8.090  -2.408  -3.405  0.00  0.00     0.221 N 
ATOM     59  H   LIG d   1       8.306  -2.756  -4.328  0.00  0.00     0.200 HD
ATOM     60  H   LIG d   1       8.631  -1.575  -3.226  0.00  0.00     0.200 HD
ATOM     61  H   LIG d   1       8.317  -3.111  -2.719  0.00  0.00     0.200 HD
ENDBRANCH  55  58
ENDBRANCH  52  55
ENDBRANCH  51  52
ENDBRANCH  49  51
ENDBRANCH  19  49
BRANCH  23  62
ATOM     62  C   LIG d   1      11.803   0.666  -7.203  0.00  0.00    -0.049 C 
ATOM     63  H   LIG d   1      12.225   1.629  -7.492  0.00  0.00     0.024 H 
ATOM     64  H   LIG d   1      12.609  -0.052  -7.053  0.00  0.00     0.024 H 
ATOM     65  H   LIG d   1      11.140   0.310  -7.991  0.00  0.00     0.024 H 
ENDBRANCH  23  62
BRANCH  26  66
ATOM     66  C   LIG d   1      11.088   3.191  -3.063  0.00  0.00    -0.055 C 
ATOM     67  H   LIG d   1      11.062   4.155  -2.555  0.00  0.00     0.024 H 
ATOM     68  H   LIG d   1      10.086   2.764  -3.084  0.00  0.00     0.024 H 
ATOM     69  H   LIG d   1      11.760   2.517  -2.530  0.00  0.00     0.024 H 
ENDBRANCH  26  66
BRANCH  11  70
ATOM     70  C   LIG d   1      12.768   4.803  -6.122  0.00  0.00    -0.058 C 
ATOM     71  H   LIG d   1      13.302   5.740  -6.277  0.00  0.00     0.024 H 
ATOM     72  H   LIG d   1      13.459   3.968  -6.247  0.00  0.00     0.024 H 
ATOM     73  H   LIG d   1      11.961   4.719  -6.851  0.00  0.00     0.024 H 
ENDBRANCH  11  70
BRANCH   1  74
ATOM     74  C   LIG d   1      10.643   8.178  -4.005  0.00  0.00    -0.059 C 
ATOM     75  H   LIG d   1      11.154   8.343  -4.953  0.00  0.00     0.024 H 
ATOM     76  H   LIG d   1       9.565   8.215  -4.162  0.00  0.00     0.024 H 
ATOM     77  H   LIG d   1      10.934   8.953  -3.296  0.00  0.00     0.024 H 
ENDBRANCH   1  74
BRANCH   6  78
ATOM     78  C   LIG d   1      11.957   9.146  -1.412  0.00  0.00    -0.057 C 
ATOM     79  H   LIG d   1      11.306   9.532  -0.629  0.00  0.00     0.024 H 
ATOM     80  H   LIG d   1      12.941   9.607  -1.327  0.00  0.00     0.024 H 
ATOM     81  H   LIG d   1      11.530   9.380  -2.388  0.00  0.00     0.024 H 
ENDBRANCH   6  78
BRANCH   6  82
ATOM     82  C   LIG d   1      13.320   7.402  -0.354  0.00  0.00    -0.057 C 
ATOM     83  H   LIG d   1      14.044   6.771  -0.869  0.00  0.00     0.024 H 
ATOM     84  H   LIG d   1      13.777   8.363  -0.121  0.00  0.00     0.024 H 
ATOM     85  H   LIG d   1      13.005   6.916   0.570  0.00  0.00     0.024 H 
ENDBRANCH   6  82
BRANCH   4  86
ATOM     86  O   LIG d   1      10.672   7.836   0.680  0.00  0.00    -0.391 OA
ATOM     87  H   LIG d   1       9.775   7.776   1.036  0.00  0.00     0.210 HD
ENDBRANCH   4  86
TORSDOF 13
ENDMDL
MODEL 9
REMARK VINA RESULT:      -5.1      7.885     11.011
REMARK  13 active torsions:
REMARK  status: ('A' for Active; 'I' for Inactive)
REMARK    1  A    between atoms: C_1  and  C_2 
REMARK    2  A    between atoms: C_5  and  O_40 
REMARK    3  A    between atoms: C_7  and  C_38 
REMARK    4  A    between atoms: C_7  and  C_39 
REMARK    5  A    between atoms: C_12  and  C_37 
REMARK    6  A    between atoms: C_20  and  C_30 
REMARK    7  A    between atoms: C_20  and  C_31 
REMARK    8  A    between atoms: C_24  and  C_29 
REMARK    9  A    between atoms: C_27  and  C_28 
REMARK   10  A    between atoms: C_31  and  O_33 
REMARK   11  A    between atoms: O_33  and  C_34 
REMARK   12  A    between atoms: C_34  and  C_35 
REMARK   13  A    between atoms: C_35  and  N_36 
ROOT
ATOM      1  C   LIG d   1       7.841  -2.610  -4.575  0.00  0.00    -0.022 C 
ATOM      2  C   LIG d   1       7.262  -3.839  -5.272  0.00  0.00    -0.044 C 
ATOM      3  C   LIG d   1       7.919  -5.120  -4.757  0.00  0.00    -0.026 C 
ATOM      4  C   LIG d   1       9.413  -5.050  -5.063  0.00  0.00     0.061 C 
ATOM      5  H   LIG d   1       9.554  -4.933  -6.141  0.00  0.00     0.060 H 
ATOM      6  C   LIG d   1      10.057  -3.869  -4.339  0.00  0.00    -0.006 C 
ATOM      7  C   LIG d   1       9.356  -2.551  -4.639  0.00  0.00    -0.028 C 
ATOM      8  H   LIG d   1       9.689  -1.824  -3.866  0.00  0.00     0.031 H 
ATOM      9  C   LIG d   1       9.817  -2.000  -5.989  0.00  0.00    -0.049 C 
ATOM     10  C   LIG d   1       9.267  -0.593  -6.189  0.00  0.00    -0.046 C 
ATOM     11  C   LIG d   1       7.748  -0.546  -6.187  0.00  0.00    -0.016 C 
ATOM     12  C   LIG d   1       7.130  -1.361  -5.084  0.00  0.00    -0.011 C 
ATOM     13  H   LIG d   1       7.125  -0.670  -4.188  0.00  0.00     0.035 H 
ATOM     14  C   LIG d   1       5.679  -1.668  -5.308  0.00  0.00    -0.080 C 
ATOM     15  C   LIG d   1       5.006  -1.372  -6.400  0.00  0.00    -0.062 C 
ATOM     16  C   LIG d   1       5.661  -0.688  -7.535  0.00  0.00    -0.041 C 
ATOM     17  C   LIG d   1       4.922  -0.111  -8.468  0.00  0.00    -0.052 C 
ATOM     18  C   LIG d   1       3.412  -0.145  -8.348  0.00  0.00    -0.014 C 
ATOM     19  C   LIG d   1       2.818  -0.767  -9.612  0.00  0.00     0.075 C 
ATOM     20  C   LIG d   1       3.212   0.072 -10.830  0.00  0.00     0.022 C 
ATOM     21  C   LIG d   1       4.713   0.186 -10.899  0.00  0.00     0.144 C 
ATOM     22  O   LIG d   1       5.291  -0.026 -11.940  0.00  0.00    -0.296 OA
ATOM     23  C   LIG d   1       5.504   0.571  -9.673  0.00  0.00     0.048 C 
ATOM     24  C   LIG d   1       6.968   0.217  -9.886  0.00  0.00    -0.036 C 
ATOM     25  C   LIG d   1       7.726   0.287  -8.561  0.00  0.00    -0.042 C 
ATOM     26  C   LIG d   1       7.165  -0.731  -7.576  0.00  0.00    -0.001 C 
ATOM     27  H   LIG d   1       6.186  -3.893  -5.077  0.00  0.00     0.027 H 
ATOM     28  H   LIG d   1       7.423  -3.784  -6.344  0.00  0.00     0.027 H 
ATOM     29  H   LIG d   1       7.740  -5.259  -3.700  0.00  0.00     0.029 H 
ATOM     30  H   LIG d   1       7.488  -5.973  -5.299  0.00  0.00     0.029 H 
ATOM     31  H   LIG d   1      10.911  -1.878  -6.007  0.00  0.00     0.027 H 
ATOM     32  H   LIG d   1       9.544  -2.672  -6.788  0.00  0.00     0.027 H 
ATOM     33  H   LIG d   1       9.638   0.052  -5.383  0.00  0.00     0.027 H 
ATOM     34  H   LIG d   1       9.642  -0.192  -7.134  0.00  0.00     0.027 H 
ATOM     35  H   LIG d   1       5.133  -2.166  -4.512  0.00  0.00     0.058 H 
ATOM     36  H   LIG d   1       3.968  -1.665  -6.458  0.00  0.00     0.062 H 
ATOM     37  H   LIG d   1       3.096  -0.710  -7.483  0.00  0.00     0.032 H 
ATOM     38  H   LIG d   1       3.043   0.880  -8.257  0.00  0.00     0.032 H 
ATOM     39  H   LIG d   1       2.845  -0.415 -11.737  0.00  0.00     0.035 H 
ATOM     40  H   LIG d   1       2.767   1.065 -10.752  0.00  0.00     0.035 H 
ATOM     41  H   LIG d   1       7.056  -0.769 -10.335  0.00  0.00     0.028 H 
ATOM     42  H   LIG d   1       7.409   0.946 -10.579  0.00  0.00     0.028 H 
ATOM     43  H   LIG d   1       8.778   0.042  -8.748  0.00  0.00     0.027 H 
ATOM     44  H   LIG d   1       7.671   1.297  -8.175  0.00  0.00     0.027 H 
ENDROOT
BRANCH  19  45
ATOM     45  C   LIG d   1       1.293  -0.799  -9.490  0.00  0.00    -0.049 C 
ATOM     46  H   LIG d   1       0.902   0.216  -9.558  0.00  0.00     0.024 H 
ATOM     47  H   LIG d   1       0.877  -1.404 -10.295  0.00  0.00     0.024 H 
ATOM     48  H   LIG d   1       1.015  -1.232  -8.529  0.00  0.00     0.024 H 
ENDBRANCH  19  45
BRANCH  19  49
ATOM     49  C   LIG d   1       3.335  -2.172  -9.775  0.00  0.00     0.314 C 
ATOM     50  O   LIG d   1       3.809  -2.523 -10.830  0.00  0.00    -0.250 OA
BRANCH  49  51
ATOM     51  O   LIG d   1       3.269  -3.034  -8.748  0.00  0.00    -0.459 OA
BRANCH  51  52
ATOM     52  C   LIG d   1       4.247  -4.075  -8.710  0.00  0.00     0.132 C 
ATOM     53  H   LIG d   1       4.443  -4.426  -9.724  0.00  0.00     0.075 H 
ATOM     54  H   LIG d   1       5.170  -3.690  -8.275  0.00  0.00     0.075 H 
BRANCH  52  55
ATOM     55  C   LIG d   1       3.726  -5.234  -7.859  0.00  0.00    -0.000 C 
ATOM     56  H   LIG d   1       2.798  -5.611  -8.288  0.00  0.00     0.085 H 
ATOM     57  H   LIG d   1       4.468  -6.032  -7.839  0.00  0.00     0.085 H 
BRANCH  55  58
ATOM     58  N   LIG d   1       3.476  -4.763  -6.490  0.00  0.00     0.221 N 
ATOM     59  H   LIG d   1       2.506  -4.916  -6.254  0.00  0.00     0.200 HD
ATOM     60  H   LIG d   1       4.063  -5.272  -5.846  0.00  0.00     0.200 HD
ATOM     61  H   LIG d   1       3.684  -3.778  -6.430  0.00  0.00     0.200 HD
ENDBRANCH  55  58
ENDBRANCH  52  55
ENDBRANCH  51  52
ENDBRANCH  49  51
ENDBRANCH  19  49
BRANCH  23  62
ATOM     62  C   LIG d   1       5.383   2.083  -9.486  0.00  0.00    -0.049 C 
ATOM     63  H   LIG d   1       4.454   2.310  -8.962  0.00  0.00     0.024 H 
ATOM     64  H   LIG d   1       6.227   2.446  -8.899  0.00  0.00     0.024 H 
ATOM     65  H   LIG d   1       5.379   2.572 -10.459  0.00  0.00     0.024 H 
ENDBRANCH  23  62
BRANCH  26  66
ATOM     66  C   LIG d   1       7.540  -2.108  -8.140  0.00  0.00    -0.055 C 
ATOM     67  H   LIG d   1       8.603  -2.287  -7.984  0.00  0.00     0.024 H 
ATOM     68  H   LIG d   1       6.962  -2.879  -7.631  0.00  0.00     0.024 H 
ATOM     69  H   LIG d   1       7.319  -2.135  -9.208  0.00  0.00     0.024 H 
ENDBRANCH  26  66
BRANCH  11  70
ATOM     70  C   LIG d   1       7.417   0.924  -5.780  0.00  0.00    -0.058 C 
ATOM     71  H   LIG d   1       6.615   0.926  -5.042  0.00  0.00     0.024 H 
ATOM     72  H   LIG d   1       8.304   1.392  -5.353  0.00  0.00     0.024 H 
ATOM     73  H   LIG d   1       7.101   1.483  -6.662  0.00  0.00     0.024 H 
ENDBRANCH  11  70
BRANCH   1  74
ATOM     74  C   LIG d   1       7.418  -2.696  -3.081  0.00  0.00    -0.059 C 
ATOM     75  H   LIG d   1       8.004  -1.988  -2.496  0.00  0.00     0.024 H 
ATOM     76  H   LIG d   1       6.359  -2.455  -2.989  0.00  0.00     0.024 H 
ATOM     77  H   LIG d   1       7.593  -3.706  -2.711  0.00  0.00     0.024 H 
ENDBRANCH   1  74
BRANCH   6  78
ATOM     78  C   LIG d   1      10.100  -4.156  -2.830  0.00  0.00    -0.057 C 
ATOM     79  H   LIG d   1      10.634  -5.088  -2.652  0.00  0.00     0.024 H 
ATOM     80  H   LIG d   1      10.611  -3.340  -2.320  0.00  0.00     0.024 H 
ATOM     81  H   LIG d   1       9.082  -4.242  -2.448  0.00  0.00     0.024 H 
ENDBRANCH   6  78
BRANCH   6  82
ATOM     82  C   LIG d   1      11.532  -3.811  -4.792  0.00  0.00    -0.057 C 
ATOM     83  H   LIG d   1      12.103  -3.200  -4.093  0.00  0.00     0.024 H 
ATOM     84  H   LIG d   1      11.945  -4.819  -4.813  0.00  0.00     0.024 H 
ATOM     85  H   LIG d   1      11.590  -3.374  -5.789  0.00  0.00     0.024 H 
ENDBRANCH   6  82
BRANCH   4  86
ATOM     86  O   LIG d   1      10.041  -6.265  -4.645  0.00  0.00    -0.391 OA
ATOM     87  H   LIG d   1       9.643  -6.665  -3.859  0.00  0.00     0.210 HD
ENDBRANCH   4  86
TORSDOF 13
ENDMDL
MODEL 10
REMARK VINA RESULT:      -5.1      4.940      8.216
REMARK  13 active torsions:
REMARK  status: ('A' for Active; 'I' for Inactive)
REMARK    1  A    between atoms: C_1  and  C_2 
REMARK    2  A    between atoms: C_5  and  O_40 
REMARK    3  A    between atoms: C_7  and  C_38 
REMARK    4  A    between atoms: C_7  and  C_39 
REMARK    5  A    between atoms: C_12  and  C_37 
REMARK    6  A    between atoms: C_20  and  C_30 
REMARK    7  A    between atoms: C_20  and  C_31 
REMARK    8  A    between atoms: C_24  and  C_29 
REMARK    9  A    between atoms: C_27  and  C_28 
REMARK   10  A    between atoms: C_31  and  O_33 
REMARK   11  A    between atoms: O_33  and  C_34 
REMARK   12  A    between atoms: C_34  and  C_35 
REMARK   13  A    between atoms: C_35  and  N_36 
ROOT
ATOM      1  C   LIG d   1      10.062   2.422  -5.923  0.00  0.00    -0.022 C 
ATOM      2  C   LIG d   1       8.982   2.513  -4.848  0.00  0.00    -0.044 C 
ATOM      3  C   LIG d   1       9.474   3.318  -3.644  0.00  0.00    -0.026 C 
ATOM      4  C   LIG d   1      10.685   2.604  -3.052  0.00  0.00     0.061 C 
ATOM      5  H   LIG d   1      10.399   1.588  -2.765  0.00  0.00     0.060 H 
ATOM      6  C   LIG d   1      11.824   2.537  -4.069  0.00  0.00    -0.006 C 
ATOM      7  C   LIG d   1      11.388   1.914  -5.388  0.00  0.00    -0.028 C 
ATOM      8  H   LIG d   1      12.166   2.172  -6.140  0.00  0.00     0.031 H 
ATOM      9  C   LIG d   1      11.375   0.389  -5.276  0.00  0.00    -0.049 C 
ATOM     10  C   LIG d   1      11.135  -0.229  -6.648  0.00  0.00    -0.046 C 
ATOM     11  C   LIG d   1       9.804   0.181  -7.256  0.00  0.00    -0.016 C 
ATOM     12  C   LIG d   1       9.517   1.651  -7.120  0.00  0.00    -0.011 C 
ATOM     13  H   LIG d   1      10.037   2.127  -8.005  0.00  0.00     0.035 H 
ATOM     14  C   LIG d   1       8.072   2.000  -7.323  0.00  0.00    -0.080 C 
ATOM     15  C   LIG d   1       7.103   1.126  -7.492  0.00  0.00    -0.062 C 
ATOM     16  C   LIG d   1       7.379  -0.325  -7.491  0.00  0.00    -0.041 C 
ATOM     17  C   LIG d   1       6.481  -1.165  -7.979  0.00  0.00    -0.052 C 
ATOM     18  C   LIG d   1       5.187  -0.621  -8.551  0.00  0.00    -0.014 C 
ATOM     19  C   LIG d   1       4.004  -1.272  -7.834  0.00  0.00     0.075 C 
ATOM     20  C   LIG d   1       4.053  -2.788  -8.040  0.00  0.00     0.022 C 
ATOM     21  C   LIG d   1       5.377  -3.320  -7.557  0.00  0.00     0.144 C 
ATOM     22  O   LIG d   1       5.415  -4.287  -6.831  0.00  0.00    -0.296 OA
ATOM     23  C   LIG d   1       6.664  -2.656  -7.980  0.00  0.00     0.048 C 
ATOM     24  C   LIG d   1       7.788  -3.101  -7.058  0.00  0.00    -0.036 C 
ATOM     25  C   LIG d   1       9.014  -2.207  -7.251  0.00  0.00    -0.042 C 
ATOM     26  C   LIG d   1       8.681  -0.767  -6.879  0.00  0.00    -0.001 C 
ATOM     27  H   LIG d   1       8.098   3.007  -5.263  0.00  0.00     0.027 H 
ATOM     28  H   LIG d   1       8.701   1.524  -4.501  0.00  0.00     0.027 H 
ATOM     29  H   LIG d   1       9.713   4.335  -3.920  0.00  0.00     0.029 H 
ATOM     30  H   LIG d   1       8.675   3.339  -2.891  0.00  0.00     0.029 H 
ATOM     31  H   LIG d   1      12.363   0.012  -4.968  0.00  0.00     0.027 H 
ATOM     32  H   LIG d   1      10.652   0.068  -4.541  0.00  0.00     0.027 H 
ATOM     33  H   LIG d   1      11.940   0.081  -7.324  0.00  0.00     0.027 H 
ATOM     34  H   LIG d   1      11.175  -1.318  -6.563  0.00  0.00     0.027 H 
ATOM     35  H   LIG d   1       7.798   3.051  -7.341  0.00  0.00     0.058 H 
ATOM     36  H   LIG d   1       6.094   1.495  -7.606  0.00  0.00     0.062 H 
ATOM     37  H   LIG d   1       5.129   0.453  -8.446  0.00  0.00     0.032 H 
ATOM     38  H   LIG d   1       5.137  -0.876  -9.612  0.00  0.00     0.032 H 
ATOM     39  H   LIG d   1       3.245  -3.255  -7.468  0.00  0.00     0.035 H 
ATOM     40  H   LIG d   1       3.921  -3.020  -9.098  0.00  0.00     0.035 H 
ATOM     41  H   LIG d   1       7.455  -3.089  -6.024  0.00  0.00     0.028 H 
ATOM     42  H   LIG d   1       8.066  -4.132  -7.314  0.00  0.00     0.028 H 
ATOM     43  H   LIG d   1       9.810  -2.560  -6.585  0.00  0.00     0.027 H 
ATOM     44  H   LIG d   1       9.356  -2.292  -8.274  0.00  0.00     0.027 H 
ENDROOT
BRANCH  19  45
ATOM     45  C   LIG d   1       2.699  -0.722  -8.414  0.00  0.00    -0.049 C 
ATOM     46  H   LIG d   1       2.679   0.362  -8.298  0.00  0.00     0.024 H 
ATOM     47  H   LIG d   1       2.637  -0.976  -9.472  0.00  0.00     0.024 H 
ATOM     48  H   LIG d   1       1.853  -1.160  -7.885  0.00  0.00     0.024 H 
ENDBRANCH  19  45
BRANCH  19  49
ATOM     49  C   LIG d   1       4.068  -0.957  -6.363  0.00  0.00     0.314 C 
ATOM     50  O   LIG d   1       4.056   0.193  -5.991  0.00  0.00    -0.250 OA
BRANCH  49  51
ATOM     51  O   LIG d   1       4.139  -1.952  -5.466  0.00  0.00    -0.459 OA
BRANCH  51  52
ATOM     52  C   LIG d   1       4.781  -1.661  -4.223  0.00  0.00     0.132 C 
ATOM     53  H   LIG d   1       5.630  -2.332  -4.087  0.00  0.00     0.075 H 
ATOM     54  H   LIG d   1       5.131  -0.628  -4.228  0.00  0.00     0.075 H 
BRANCH  52  55
ATOM     55  C   LIG d   1       3.787  -1.857  -3.077  0.00  0.00    -0.000 C 
ATOM     56  H   LIG d   1       3.296  -2.824  -3.184  0.00  0.00     0.085 H 
ATOM     57  H   LIG d   1       4.317  -1.821  -2.126  0.00  0.00     0.085 H 
BRANCH  55  58
ATOM     58  N   LIG d   1       2.778  -0.790  -3.116  0.00  0.00     0.221 N 
ATOM     59  H   LIG d   1       1.868  -1.180  -2.916  0.00  0.00     0.200 HD
ATOM     60  H   LIG d   1       3.002  -0.089  -2.426  0.00  0.00     0.200 HD
ATOM     61  H   LIG d   1       2.768  -0.370  -4.033  0.00  0.00     0.200 HD
ENDBRANCH  55  58
ENDBRANCH  52  55
ENDBRANCH  51  52
ENDBRANCH  49  51
ENDBRANCH  19  49
BRANCH  23  62
ATOM     62  C   LIG d   1       6.984  -3.108  -9.406  0.00  0.00    -0.049 C 
ATOM     63  H   LIG d   1       6.757  -4.169  -9.509  0.00  0.00     0.024 H 
ATOM     64  H   LIG d   1       6.381  -2.538 -10.112  0.00  0.00     0.024 H 
ATOM     65  H   LIG d   1       8.041  -2.941  -9.612  0.00  0.00     0.024 H 
ENDBRANCH  23  62
BRANCH  26  66
ATOM     66  C   LIG d   1       8.463  -0.769  -5.360  0.00  0.00    -0.055 C 
ATOM     67  H   LIG d   1       8.101  -1.747  -5.046  0.00  0.00     0.024 H 
ATOM     68  H   LIG d   1       9.405  -0.551  -4.857  0.00  0.00     0.024 H 
ATOM     69  H   LIG d   1       7.727  -0.007  -5.098  0.00  0.00     0.024 H 
ENDBRANCH  26  66
BRANCH  11  70
ATOM     70  C   LIG d   1      10.018  -0.005  -8.792  0.00  0.00    -0.058 C 
ATOM     71  H   LIG d   1      10.924   0.518  -9.098  0.00  0.00     0.024 H 
ATOM     72  H   LIG d   1      10.119  -1.067  -9.019  0.00  0.00     0.024 H 
ATOM     73  H   LIG d   1       9.163   0.402  -9.331  0.00  0.00     0.024 H 
ENDBRANCH  11  70
BRANCH   1  74
ATOM     74  C   LIG d   1      10.275   3.861  -6.472  0.00  0.00    -0.059 C 
ATOM     75  H   LIG d   1      10.994   3.834  -7.291  0.00  0.00     0.024 H 
ATOM     76  H   LIG d   1       9.326   4.256  -6.834  0.00  0.00     0.024 H 
ATOM     77  H   LIG d   1      10.656   4.501  -5.676  0.00  0.00     0.024 H 
ENDBRANCH   1  74
BRANCH   6  78
ATOM     78  C   LIG d   1      12.408   3.943  -4.274  0.00  0.00    -0.057 C 
ATOM     79  H   LIG d   1      11.627   4.687  -4.120  0.00  0.00     0.024 H 
ATOM     80  H   LIG d   1      13.214   4.109  -3.559  0.00  0.00     0.024 H 
ATOM     81  H   LIG d   1      12.798   4.031  -5.288  0.00  0.00     0.024 H 
ENDBRANCH   6  78
BRANCH   6  82
ATOM     82  C   LIG d   1      12.956   1.707  -3.427  0.00  0.00    -0.057 C 
ATOM     83  H   LIG d   1      13.134   2.061  -2.411  0.00  0.00     0.024 H 
ATOM     84  H   LIG d   1      12.667   0.657  -3.400  0.00  0.00     0.024 H 
ATOM     85  H   LIG d   1      13.867   1.818  -4.015  0.00  0.00     0.024 H 
ENDBRANCH   6  82
BRANCH   4  86
ATOM     86  O   LIG d   1      11.128   3.304  -1.886  0.00  0.00    -0.391 OA
ATOM     87  H   LIG d   1      10.696   3.021  -1.069  0.00  0.00     0.210 HD
ENDBRANCH   4  86
TORSDOF 13
ENDMDL
