MODEL 1
REMARK VINA RESULT:      -6.7      0.000      0.000
REMARK  8 active torsions:
REMARK  status: ('A' for Active; 'I' for Inactive)
REMARK    1  A    between atoms: C_1  and  C_2 
REMARK    2  A    between atoms: C_2  and  C_3 
REMARK    3  A    between atoms: C_2  and  N_4 
REMARK    4  A    between atoms: N_4  and  C_5 
REMARK    5  A    between atoms: C_8  and  C_31 
REMARK    6  A    between atoms: C_11  and  C_27 
REMARK    7  A    between atoms: C_27  and  O_29 
REMARK    8  A    between atoms: O_29  and  C_30 
ROOT
ATOM      1  C   LIG d   1       5.084  -1.045  -3.156  0.00  0.00    -0.019 C 
ATOM      2  H   LIG d   1       5.269  -0.268  -3.897  0.00  0.00     0.085 H 
ATOM      3  C   LIG d   1       3.918  -1.922  -3.616  0.00  0.00     0.010 C 
ATOM      4  C   LIG d   1       4.293  -2.627  -4.923  0.00  0.00     0.042 C 
ATOM      5  H   LIG d   1       3.470  -3.269  -5.239  0.00  0.00     0.051 H 
ATOM      6  N   LIG d   1       5.494  -3.442  -4.706  0.00  0.00    -0.274 N 
ATOM      7  C   LIG d   1       5.798  -4.285  -5.867  0.00  0.00     0.113 C 
ATOM      8  H   LIG d   1       6.235  -3.673  -6.655  0.00  0.00     0.058 H 
ATOM      9  C   LIG d   1       6.792  -5.381  -5.458  0.00  0.00     0.001 C 
ATOM     10  C   LIG d   1       7.921  -4.732  -4.698  0.00  0.00    -0.016 A 
ATOM     11  C   LIG d   1       9.227  -5.260  -4.371  0.00  0.00     0.003 A 
ATOM     12  C   LIG d   1       9.851  -6.483  -4.634  0.00  0.00    -0.052 A 
ATOM     13  C   LIG d   1      11.130  -6.643  -4.160  0.00  0.00    -0.061 A 
ATOM     14  C   LIG d   1      11.782  -5.647  -3.454  0.00  0.00    -0.060 A 
ATOM     15  C   LIG d   1      11.189  -4.427  -3.178  0.00  0.00    -0.038 A 
ATOM     16  C   LIG d   1       9.891  -4.236  -3.647  0.00  0.00     0.047 A 
ATOM     17  N   LIG d   1       9.032  -3.178  -3.556  0.00  0.00    -0.356 N 
ATOM     18  H   LIG d   1       9.226  -2.338  -3.111  0.00  0.00     0.166 HD
ATOM     19  C   LIG d   1       7.857  -3.481  -4.187  0.00  0.00     0.038 A 
ATOM     20  C   LIG d   1       6.639  -2.602  -4.328  0.00  0.00     0.057 C 
ATOM     21  H   LIG d   1       6.815  -1.855  -5.103  0.00  0.00     0.053 H 
ATOM     22  C   LIG d   1       6.339  -1.910  -2.997  0.00  0.00     0.011 C 
ATOM     23  H   LIG d   1       3.699  -2.668  -2.851  0.00  0.00     0.034 H 
ATOM     24  H   LIG d   1       3.037  -1.301  -3.778  0.00  0.00     0.034 H 
ATOM     25  H   LIG d   1       6.292  -6.112  -4.822  0.00  0.00     0.033 H 
ATOM     26  H   LIG d   1       7.182  -5.874  -6.349  0.00  0.00     0.033 H 
ATOM     27  H   LIG d   1       9.350  -7.266  -5.184  0.00  0.00     0.062 H 
ATOM     28  H   LIG d   1      11.643  -7.575  -4.344  0.00  0.00     0.062 H 
ATOM     29  H   LIG d   1      12.789  -5.827  -3.105  0.00  0.00     0.062 H 
ATOM     30  H   LIG d   1      11.709  -3.658  -2.625  0.00  0.00     0.064 H 
ATOM     31  H   LIG d   1       7.183  -1.280  -2.716  0.00  0.00     0.034 H 
ATOM     32  H   LIG d   1       6.169  -2.660  -2.226  0.00  0.00     0.034 H 
ENDROOT
BRANCH   1  33
ATOM     33  N   LIG d   1       4.751  -0.423  -1.867  0.00  0.00     0.231 N 
ATOM     34  H   LIG d   1       5.435  -0.694  -1.177  0.00  0.00     0.202 HD
ATOM     35  H   LIG d   1       3.837  -0.729  -1.572  0.00  0.00     0.202 HD
BRANCH  33  36
ATOM     36  C   LIG d   1       4.755   1.039  -2.014  0.00  0.00    -0.028 C 
ATOM     37  H   LIG d   1       5.006   1.499  -1.058  0.00  0.00     0.085 H 
BRANCH  36  38
ATOM     38  C   LIG d   1       5.793   1.443  -3.062  0.00  0.00    -0.022 C 
ATOM     39  H   LIG d   1       5.669   2.498  -3.307  0.00  0.00     0.028 H 
ATOM     40  H   LIG d   1       6.794   1.277  -2.666  0.00  0.00     0.028 H 
ATOM     41  H   LIG d   1       5.654   0.843  -3.961  0.00  0.00     0.028 H 
ENDBRANCH  36  38
BRANCH  36  42
ATOM     42  C   LIG d   1       3.369   1.510  -2.460  0.00  0.00    -0.022 C 
ATOM     43  H   LIG d   1       2.854   1.972  -1.619  0.00  0.00     0.028 H 
ATOM     44  H   LIG d   1       3.476   2.238  -3.265  0.00  0.00     0.028 H 
ATOM     45  H   LIG d   1       2.792   0.657  -2.816  0.00  0.00     0.028 H 
ENDBRANCH  36  42
ENDBRANCH  33  36
ENDBRANCH   1  33
BRANCH   4  46
ATOM     46  C   LIG d   1       4.568  -1.599  -5.989  0.00  0.00    -0.027 A 
ATOM     47  C   LIG d   1       3.597  -0.673  -6.322  0.00  0.00    -0.020 A 
ATOM     48  C   LIG d   1       3.851   0.276  -7.297  0.00  0.00     0.142 A 
ATOM     49  H   LIG d   1       2.641  -0.687  -5.819  0.00  0.00     0.065 H 
ATOM     50  C   LIG d   1       5.076   0.290  -7.946  0.00  0.00     0.076 A 
ATOM     51  F   LIG d   1       2.905   1.185  -7.620  0.00  0.00    -0.204 F 
ATOM     52  C   LIG d   1       6.044  -0.641  -7.615  0.00  0.00    -0.040 A 
ATOM     53 CL   LIG d   1       5.394   1.475  -9.173  0.00  0.00    -0.081 Cl
ATOM     54  C   LIG d   1       5.789  -1.584  -6.637  0.00  0.00    -0.056 A 
ATOM     55  H   LIG d   1       6.998  -0.631  -8.120  0.00  0.00     0.063 H 
ATOM     56  H   LIG d   1       6.546  -2.310  -6.378  0.00  0.00     0.062 H 
ENDBRANCH   4  46
BRANCH   7  57
ATOM     57  C   LIG d   1       4.529  -4.921  -6.372  0.00  0.00     0.325 C 
ATOM     58  O   LIG d   1       3.918  -5.691  -5.670  0.00  0.00    -0.249 OA
BRANCH  57  59
ATOM     59  O   LIG d   1       4.076  -4.632  -7.603  0.00  0.00    -0.467 OA
BRANCH  59  60
ATOM     60  C   LIG d   1       5.036  -4.621  -8.662  0.00  0.00     0.082 C 
ATOM     61  H   LIG d   1       4.812  -5.425  -9.363  0.00  0.00     0.066 H 
ATOM     62  H   LIG d   1       4.993  -3.663  -9.181  0.00  0.00     0.066 H 
ATOM     63  H   LIG d   1       6.034  -4.766  -8.249  0.00  0.00     0.066 H 
ENDBRANCH  59  60
ENDBRANCH  57  59
ENDBRANCH   7  57
TORSDOF 8
ENDMDL
MODEL 2
REMARK VINA RESULT:      -6.5      3.682      7.095
REMARK  8 active torsions:
REMARK  status: ('A' for Active; 'I' for Inactive)
REMARK    1  A    between atoms: C_1  and  C_2 
REMARK    2  A    between atoms: C_2  and  C_3 
REMARK    3  A    between atoms: C_2  and  N_4 
REMARK    4  A    between atoms: N_4  and  C_5 
REMARK    5  A    between atoms: C_8  and  C_31 
REMARK    6  A    between atoms: C_11  and  C_27 
REMARK    7  A    between atoms: C_27  and  O_29 
REMARK    8  A    between atoms: O_29  and  C_30 
ROOT
ATOM      1  C   LIG d   1      10.475  -2.654  -5.334  0.00  0.00    -0.019 C 
ATOM      2  H   LIG d   1      10.916  -3.169  -4.481  0.00  0.00     0.085 H 
ATOM      3  C   LIG d   1      10.004  -3.682  -6.365  0.00  0.00     0.010 C 
ATOM      4  C   LIG d   1       8.906  -4.555  -5.750  0.00  0.00     0.042 C 
ATOM      5  H   LIG d   1       8.556  -5.274  -6.492  0.00  0.00     0.051 H 
ATOM      6  N   LIG d   1       7.788  -3.702  -5.329  0.00  0.00    -0.274 N 
ATOM      7  C   LIG d   1       6.630  -4.493  -4.901  0.00  0.00     0.113 C 
ATOM      8  H   LIG d   1       6.818  -4.906  -3.911  0.00  0.00     0.058 H 
ATOM      9  C   LIG d   1       5.386  -3.595  -4.855  0.00  0.00     0.001 C 
ATOM     10  C   LIG d   1       5.742  -2.337  -4.103  0.00  0.00    -0.016 A 
ATOM     11  C   LIG d   1       4.870  -1.336  -3.530  0.00  0.00     0.003 A 
ATOM     12  C   LIG d   1       3.479  -1.201  -3.482  0.00  0.00    -0.052 A 
ATOM     13  C   LIG d   1       2.984  -0.094  -2.838  0.00  0.00    -0.061 A 
ATOM     14  C   LIG d   1       3.813   0.852  -2.259  0.00  0.00    -0.060 A 
ATOM     15  C   LIG d   1       5.193   0.746  -2.292  0.00  0.00    -0.038 A 
ATOM     16  C   LIG d   1       5.724  -0.368  -2.939  0.00  0.00     0.047 A 
ATOM     17  N   LIG d   1       7.010  -0.776  -3.151  0.00  0.00    -0.356 N 
ATOM     18  H   LIG d   1       7.803  -0.301  -2.854  0.00  0.00     0.166 HD
ATOM     19  C   LIG d   1       7.013  -1.954  -3.847  0.00  0.00     0.038 A 
ATOM     20  C   LIG d   1       8.214  -2.753  -4.290  0.00  0.00     0.057 C 
ATOM     21  H   LIG d   1       8.621  -3.301  -3.440  0.00  0.00     0.053 H 
ATOM     22  C   LIG d   1       9.279  -1.818  -4.866  0.00  0.00     0.011 C 
ATOM     23  H   LIG d   1       9.611  -3.166  -7.240  0.00  0.00     0.034 H 
ATOM     24  H   LIG d   1      10.844  -4.310  -6.662  0.00  0.00     0.034 H 
ATOM     25  H   LIG d   1       5.076  -3.342  -5.869  0.00  0.00     0.033 H 
ATOM     26  H   LIG d   1       4.577  -4.115  -4.342  0.00  0.00     0.033 H 
ATOM     27  H   LIG d   1       2.825  -1.934  -3.930  0.00  0.00     0.062 H 
ATOM     28  H   LIG d   1       1.915   0.043  -2.780  0.00  0.00     0.062 H 
ATOM     29  H   LIG d   1       3.368   1.704  -1.765  0.00  0.00     0.062 H 
ATOM     30  H   LIG d   1       5.828   1.491  -1.838  0.00  0.00     0.064 H 
ATOM     31  H   LIG d   1       9.602  -1.117  -4.097  0.00  0.00     0.034 H 
ATOM     32  H   LIG d   1       8.864  -1.270  -5.711  0.00  0.00     0.034 H 
ENDROOT
BRANCH   1  33
ATOM     33  N   LIG d   1      11.479  -1.771  -5.945  0.00  0.00     0.231 N 
ATOM     34  H   LIG d   1      11.089  -0.849  -6.061  0.00  0.00     0.202 HD
ATOM     35  H   LIG d   1      11.746  -2.139  -6.846  0.00  0.00     0.202 HD
BRANCH  33  36
ATOM     36  C   LIG d   1      12.661  -1.699  -5.076  0.00  0.00    -0.028 C 
ATOM     37  H   LIG d   1      13.563  -1.784  -5.681  0.00  0.00     0.085 H 
BRANCH  36  38
ATOM     38  C   LIG d   1      12.668  -0.360  -4.336  0.00  0.00    -0.022 C 
ATOM     39  H   LIG d   1      11.910  -0.375  -3.552  0.00  0.00     0.028 H 
ATOM     40  H   LIG d   1      13.648  -0.196  -3.891  0.00  0.00     0.028 H 
ATOM     41  H   LIG d   1      12.447   0.444  -5.038  0.00  0.00     0.028 H 
ENDBRANCH  36  38
BRANCH  36  42
ATOM     42  C   LIG d   1      12.618  -2.843  -4.061  0.00  0.00    -0.022 C 
ATOM     43  H   LIG d   1      11.772  -3.493  -4.280  0.00  0.00     0.028 H 
ATOM     44  H   LIG d   1      13.543  -3.418  -4.122  0.00  0.00     0.028 H 
ATOM     45  H   LIG d   1      12.512  -2.433  -3.056  0.00  0.00     0.028 H 
ENDBRANCH  36  42
ENDBRANCH  33  36
ENDBRANCH   1  33
BRANCH   4  46
ATOM     46  C   LIG d   1       9.457  -5.290  -4.556  0.00  0.00    -0.027 A 
ATOM     47  C   LIG d   1       9.192  -4.830  -3.280  0.00  0.00    -0.020 A 
ATOM     48  C   LIG d   1       9.693  -5.509  -2.182  0.00  0.00     0.142 A 
ATOM     49  H   LIG d   1       8.592  -3.943  -3.138  0.00  0.00     0.065 H 
ATOM     50  C   LIG d   1      10.468  -6.643  -2.365  0.00  0.00     0.076 A 
ATOM     51  F   LIG d   1       9.431  -5.063  -0.934  0.00  0.00    -0.204 F 
ATOM     52  C   LIG d   1      10.736  -7.098  -3.644  0.00  0.00    -0.040 A 
ATOM     53 CL   LIG d   1      11.102  -7.492  -0.990  0.00  0.00    -0.081 Cl
ATOM     54  C   LIG d   1      10.230  -6.422  -4.737  0.00  0.00    -0.056 A 
ATOM     55  H   LIG d   1      11.340  -7.982  -3.787  0.00  0.00     0.063 H 
ATOM     56  H   LIG d   1      10.439  -6.778  -5.736  0.00  0.00     0.062 H 
ENDBRANCH   4  46
BRANCH   7  57
ATOM     57  C   LIG d   1       6.402  -5.618  -5.878  0.00  0.00     0.325 C 
ATOM     58  O   LIG d   1       6.158  -5.372  -7.036  0.00  0.00    -0.249 OA
BRANCH  57  59
ATOM     59  O   LIG d   1       6.469  -6.892  -5.462  0.00  0.00    -0.467 OA
BRANCH  59  60
ATOM     60  C   LIG d   1       5.242  -7.623  -5.406  0.00  0.00     0.082 C 
ATOM     61  H   LIG d   1       5.202  -8.329  -6.236  0.00  0.00     0.066 H 
ATOM     62  H   LIG d   1       5.185  -8.166  -4.463  0.00  0.00     0.066 H 
ATOM     63  H   LIG d   1       4.404  -6.931  -5.478  0.00  0.00     0.066 H 
ENDBRANCH  59  60
ENDBRANCH  57  59
ENDBRANCH   7  57
TORSDOF 8
ENDMDL
MODEL 3
REMARK VINA RESULT:      -6.4      3.111      6.036
REMARK  8 active torsions:
REMARK  status: ('A' for Active; 'I' for Inactive)
REMARK    1  A    between atoms: C_1  and  C_2 
REMARK    2  A    between atoms: C_2  and  C_3 
REMARK    3  A    between atoms: C_2  and  N_4 
REMARK    4  A    between atoms: N_4  and  C_5 
REMARK    5  A    between atoms: C_8  and  C_31 
REMARK    6  A    between atoms: C_11  and  C_27 
REMARK    7  A    between atoms: C_27  and  O_29 
REMARK    8  A    between atoms: O_29  and  C_30 
ROOT
ATOM      1  C   LIG d   1       3.649  -1.414  -9.498  0.00  0.00    -0.019 C 
ATOM      2  H   LIG d   1       4.646  -1.294  -9.923  0.00  0.00     0.085 H 
ATOM      3  C   LIG d   1       3.278  -2.898  -9.474  0.00  0.00     0.010 C 
ATOM      4  C   LIG d   1       4.250  -3.653  -8.561  0.00  0.00     0.042 C 
ATOM      5  H   LIG d   1       3.972  -4.707  -8.527  0.00  0.00     0.051 H 
ATOM      6  N   LIG d   1       4.184  -3.085  -7.209  0.00  0.00    -0.274 N 
ATOM      7  C   LIG d   1       4.953  -3.880  -6.246  0.00  0.00     0.113 C 
ATOM      8  H   LIG d   1       6.016  -3.686  -6.383  0.00  0.00     0.058 H 
ATOM      9  C   LIG d   1       4.540  -3.494  -4.819  0.00  0.00     0.001 C 
ATOM     10  C   LIG d   1       4.554  -1.989  -4.716  0.00  0.00    -0.016 A 
ATOM     11  C   LIG d   1       4.544  -1.152  -3.537  0.00  0.00     0.003 A 
ATOM     12  C   LIG d   1       4.519  -1.438  -2.169  0.00  0.00    -0.052 A 
ATOM     13  C   LIG d   1       4.517  -0.366  -1.310  0.00  0.00    -0.061 A 
ATOM     14  C   LIG d   1       4.538   0.942  -1.766  0.00  0.00    -0.060 A 
ATOM     15  C   LIG d   1       4.563   1.254  -3.114  0.00  0.00    -0.038 A 
ATOM     16  C   LIG d   1       4.566   0.186  -4.009  0.00  0.00     0.047 A 
ATOM     17  N   LIG d   1       4.588   0.136  -5.374  0.00  0.00    -0.356 N 
ATOM     18  H   LIG d   1       4.605   0.909  -5.961  0.00  0.00     0.166 HD
ATOM     19  C   LIG d   1       4.582  -1.167  -5.790  0.00  0.00     0.038 A 
ATOM     20  C   LIG d   1       4.602  -1.676  -7.210  0.00  0.00     0.057 C 
ATOM     21  H   LIG d   1       5.612  -1.595  -7.612  0.00  0.00     0.053 H 
ATOM     22  C   LIG d   1       3.633  -0.862  -8.069  0.00  0.00     0.011 C 
ATOM     23  H   LIG d   1       2.262  -3.014  -9.097  0.00  0.00     0.034 H 
ATOM     24  H   LIG d   1       3.339  -3.305 -10.483  0.00  0.00     0.034 H 
ATOM     25  H   LIG d   1       3.537  -3.867  -4.612  0.00  0.00     0.033 H 
ATOM     26  H   LIG d   1       5.246  -3.919  -4.105  0.00  0.00     0.033 H 
ATOM     27  H   LIG d   1       4.502  -2.454  -1.804  0.00  0.00     0.062 H 
ATOM     28  H   LIG d   1       4.497  -0.548  -0.246  0.00  0.00     0.062 H 
ATOM     29  H   LIG d   1       4.536   1.746  -1.045  0.00  0.00     0.062 H 
ATOM     30  H   LIG d   1       4.579   2.278  -3.457  0.00  0.00     0.064 H 
ATOM     31  H   LIG d   1       3.942   0.183  -8.078  0.00  0.00     0.034 H 
ATOM     32  H   LIG d   1       2.626  -0.943  -7.659  0.00  0.00     0.034 H 
ENDROOT
BRANCH   1  33
ATOM     33  N   LIG d   1       2.676  -0.679 -10.318  0.00  0.00     0.231 N 
ATOM     34  H   LIG d   1       2.130  -0.071  -9.727  0.00  0.00     0.202 HD
ATOM     35  H   LIG d   1       2.065  -1.334 -10.782  0.00  0.00     0.202 HD
BRANCH  33  36
ATOM     36  C   LIG d   1       3.388   0.122 -11.322  0.00  0.00    -0.028 C 
ATOM     37  H   LIG d   1       2.729   0.314 -12.168  0.00  0.00     0.085 H 
BRANCH  36  38
ATOM     38  C   LIG d   1       3.820   1.451 -10.700  0.00  0.00    -0.022 C 
ATOM     39  H   LIG d   1       4.075   1.296  -9.652  0.00  0.00     0.028 H 
ATOM     40  H   LIG d   1       4.689   1.837 -11.233  0.00  0.00     0.028 H 
ATOM     41  H   LIG d   1       3.002   2.168 -10.772  0.00  0.00     0.028 H 
ENDBRANCH  36  38
BRANCH  36  42
ATOM     42  C   LIG d   1       4.624  -0.642 -11.801  0.00  0.00    -0.022 C 
ATOM     43  H   LIG d   1       4.313  -1.546 -12.323  0.00  0.00     0.028 H 
ATOM     44  H   LIG d   1       5.201  -0.011 -12.480  0.00  0.00     0.028 H 
ATOM     45  H   LIG d   1       5.241  -0.910 -10.943  0.00  0.00     0.028 H 
ENDBRANCH  36  42
ENDBRANCH  33  36
ENDBRANCH   1  33
BRANCH   4  46
ATOM     46  C   LIG d   1       5.651  -3.517  -9.096  0.00  0.00    -0.027 A 
ATOM     47  C   LIG d   1       6.632  -2.927  -8.321  0.00  0.00    -0.020 A 
ATOM     48  C   LIG d   1       7.922  -2.808  -8.811  0.00  0.00     0.142 A 
ATOM     49  H   LIG d   1       6.394  -2.563  -7.333  0.00  0.00     0.065 H 
ATOM     50  C   LIG d   1       8.225  -3.270 -10.081  0.00  0.00     0.076 A 
ATOM     51  F   LIG d   1       8.883  -2.236  -8.052  0.00  0.00    -0.204 F 
ATOM     52  C   LIG d   1       7.240  -3.856 -10.857  0.00  0.00    -0.040 A 
ATOM     53 CL   LIG d   1       9.840  -3.117 -10.699  0.00  0.00    -0.081 Cl
ATOM     54  C   LIG d   1       5.955  -3.978 -10.364  0.00  0.00    -0.056 A 
ATOM     55  H   LIG d   1       7.476  -4.217 -11.847  0.00  0.00     0.063 H 
ATOM     56  H   LIG d   1       5.187  -4.436 -10.970  0.00  0.00     0.062 H 
ENDBRANCH   4  46
BRANCH   7  57
ATOM     57  C   LIG d   1       4.677  -5.344  -6.470  0.00  0.00     0.325 C 
ATOM     58  O   LIG d   1       3.565  -5.783  -6.294  0.00  0.00    -0.249 OA
BRANCH  57  59
ATOM     59  O   LIG d   1       5.666  -6.162  -6.864  0.00  0.00    -0.467 OA
BRANCH  59  60
ATOM     60  C   LIG d   1       6.963  -5.924  -6.312  0.00  0.00     0.082 C 
ATOM     61  H   LIG d   1       7.655  -6.687  -6.670  0.00  0.00     0.066 H 
ATOM     62  H   LIG d   1       7.315  -4.941  -6.621  0.00  0.00     0.066 H 
ATOM     63  H   LIG d   1       6.908  -5.966  -5.225  0.00  0.00     0.066 H 
ENDBRANCH  59  60
ENDBRANCH  57  59
ENDBRANCH   7  57
TORSDOF 8
ENDMDL
MODEL 4
REMARK VINA RESULT:      -6.3      3.261      6.980
REMARK  8 active torsions:
REMARK  status: ('A' for Active; 'I' for Inactive)
REMARK    1  A    between atoms: C_1  and  C_2 
REMARK    2  A    between atoms: C_2  and  C_3 
REMARK    3  A    between atoms: C_2  and  N_4 
REMARK    4  A    between atoms: N_4  and  C_5 
REMARK    5  A    between atoms: C_8  and  C_31 
REMARK    6  A    between atoms: C_11  and  C_27 
REMARK    7  A    between atoms: C_27  and  O_29 
REMARK    8  A    between atoms: O_29  and  C_30 
ROOT
ATOM      1  C   LIG d   1       6.958  -2.823  -5.511  0.00  0.00    -0.019 C 
ATOM      2  H   LIG d   1       7.746  -2.078  -5.616  0.00  0.00     0.085 H 
ATOM      3  C   LIG d   1       6.112  -2.503  -4.276  0.00  0.00     0.010 C 
ATOM      4  C   LIG d   1       5.426  -1.147  -4.465  0.00  0.00     0.042 C 
ATOM      5  H   LIG d   1       4.807  -0.929  -3.594  0.00  0.00     0.051 H 
ATOM      6  N   LIG d   1       4.583  -1.193  -5.666  0.00  0.00    -0.274 N 
ATOM      7  C   LIG d   1       3.758   0.011  -5.799  0.00  0.00     0.113 C 
ATOM      8  H   LIG d   1       4.377   0.839  -6.145  0.00  0.00     0.058 H 
ATOM      9  C   LIG d   1       2.635  -0.247  -6.813  0.00  0.00     0.001 C 
ATOM     10  C   LIG d   1       3.247  -0.866  -8.045  0.00  0.00    -0.016 A 
ATOM     11  C   LIG d   1       2.688  -1.013  -9.370  0.00  0.00     0.003 A 
ATOM     12  C   LIG d   1       1.458  -0.651  -9.928  0.00  0.00    -0.052 A 
ATOM     13  C   LIG d   1       1.264  -0.953 -11.254  0.00  0.00    -0.061 A 
ATOM     14  C   LIG d   1       2.233  -1.586 -12.013  0.00  0.00    -0.060 A 
ATOM     15  C   LIG d   1       3.459  -1.957 -11.487  0.00  0.00    -0.038 A 
ATOM     16  C   LIG d   1       3.684  -1.662 -10.144  0.00  0.00     0.047 A 
ATOM     17  N   LIG d   1       4.756  -1.881  -9.327  0.00  0.00    -0.356 N 
ATOM     18  H   LIG d   1       5.584  -2.312  -9.595  0.00  0.00     0.166 HD
ATOM     19  C   LIG d   1       4.489  -1.402  -8.074  0.00  0.00     0.038 A 
ATOM     20  C   LIG d   1       5.394  -1.434  -6.868  0.00  0.00     0.057 C 
ATOM     21  H   LIG d   1       6.152  -0.657  -6.959  0.00  0.00     0.053 H 
ATOM     22  C   LIG d   1       6.066  -2.804  -6.757  0.00  0.00     0.011 C 
ATOM     23  H   LIG d   1       5.357  -3.277  -4.142  0.00  0.00     0.034 H 
ATOM     24  H   LIG d   1       6.754  -2.466  -3.396  0.00  0.00     0.034 H 
ATOM     25  H   LIG d   1       1.902  -0.931  -6.384  0.00  0.00     0.033 H 
ATOM     26  H   LIG d   1       2.152   0.694  -7.075  0.00  0.00     0.033 H 
ATOM     27  H   LIG d   1       0.696  -0.157  -9.344  0.00  0.00     0.062 H 
ATOM     28  H   LIG d   1       0.326  -0.688 -11.718  0.00  0.00     0.062 H 
ATOM     29  H   LIG d   1       2.026  -1.799 -13.052  0.00  0.00     0.062 H 
ATOM     30  H   LIG d   1       4.206  -2.451 -12.090  0.00  0.00     0.064 H 
ATOM     31  H   LIG d   1       6.674  -2.985  -7.643  0.00  0.00     0.034 H 
ATOM     32  H   LIG d   1       5.304  -3.578  -6.671  0.00  0.00     0.034 H 
ENDROOT
BRANCH   1  33
ATOM     33  N   LIG d   1       7.561  -4.155  -5.360  0.00  0.00     0.231 N 
ATOM     34  H   LIG d   1       7.478  -4.661  -6.229  0.00  0.00     0.202 HD
ATOM     35  H   LIG d   1       7.082  -4.660  -4.630  0.00  0.00     0.202 HD
BRANCH  33  36
ATOM     36  C   LIG d   1       8.980  -4.013  -5.008  0.00  0.00    -0.028 C 
ATOM     37  H   LIG d   1       9.569  -4.733  -5.575  0.00  0.00     0.085 H 
BRANCH  36  38
ATOM     38  C   LIG d   1       9.448  -2.596  -5.344  0.00  0.00    -0.022 C 
ATOM     39  H   LIG d   1       9.410  -2.447  -6.424  0.00  0.00     0.028 H 
ATOM     40  H   LIG d   1       8.797  -1.872  -4.854  0.00  0.00     0.028 H 
ATOM     41  H   LIG d   1      10.472  -2.459  -4.995  0.00  0.00     0.028 H 
ENDBRANCH  36  38
BRANCH  36  42
ATOM     42  C   LIG d   1       9.162  -4.269  -3.511  0.00  0.00    -0.022 C 
ATOM     43  H   LIG d   1       8.550  -5.119  -3.210  0.00  0.00     0.028 H 
ATOM     44  H   LIG d   1      10.211  -4.485  -3.305  0.00  0.00     0.028 H 
ATOM     45  H   LIG d   1       8.857  -3.384  -2.951  0.00  0.00     0.028 H 
ENDBRANCH  36  42
ENDBRANCH  33  36
ENDBRANCH   1  33
BRANCH   4  46
ATOM     46  C   LIG d   1       6.470  -0.072  -4.623  0.00  0.00    -0.027 A 
ATOM     47  C   LIG d   1       6.907   0.284  -5.884  0.00  0.00    -0.020 A 
ATOM     48  C   LIG d   1       7.862   1.276  -6.030  0.00  0.00     0.142 A 
ATOM     49  H   LIG d   1       6.502  -0.207  -6.756  0.00  0.00     0.065 H 
ATOM     50  C   LIG d   1       8.386   1.902  -4.910  0.00  0.00     0.076 A 
ATOM     51  F   LIG d   1       8.288   1.630  -7.263  0.00  0.00    -0.204 F 
ATOM     52  C   LIG d   1       7.950   1.539  -3.649  0.00  0.00    -0.040 A 
ATOM     53 CL   LIG d   1       9.588   3.142  -5.091  0.00  0.00    -0.081 Cl
ATOM     54  C   LIG d   1       6.993   0.553  -3.506  0.00  0.00    -0.056 A 
ATOM     55  H   LIG d   1       8.358   2.027  -2.775  0.00  0.00     0.063 H 
ATOM     56  H   LIG d   1       6.653   0.270  -2.521  0.00  0.00     0.062 H 
ENDBRANCH   4  46
BRANCH   7  57
ATOM     57  C   LIG d   1       3.157   0.359  -4.462  0.00  0.00     0.325 C 
ATOM     58  O   LIG d   1       2.362  -0.389  -3.944  0.00  0.00    -0.249 OA
BRANCH  57  59
ATOM     59  O   LIG d   1       3.504   1.500  -3.846  0.00  0.00    -0.467 OA
BRANCH  59  60
ATOM     60  C   LIG d   1       3.632   1.457  -2.422  0.00  0.00     0.082 C 
ATOM     61  H   LIG d   1       3.271   0.496  -2.055  0.00  0.00     0.066 H 
ATOM     62  H   LIG d   1       4.679   1.581  -2.148  0.00  0.00     0.066 H 
ATOM     63  H   LIG d   1       3.042   2.260  -1.981  0.00  0.00     0.066 H 
ENDBRANCH  59  60
ENDBRANCH  57  59
ENDBRANCH   7  57
TORSDOF 8
ENDMDL
MODEL 5
REMARK VINA RESULT:      -6.2      4.101      6.683
REMARK  8 active torsions:
REMARK  status: ('A' for Active; 'I' for Inactive)
REMARK    1  A    between atoms: C_1  and  C_2 
REMARK    2  A    between atoms: C_2  and  C_3 
REMARK    3  A    between atoms: C_2  and  N_4 
REMARK    4  A    between atoms: N_4  and  C_5 
REMARK    5  A    between atoms: C_8  and  C_31 
REMARK    6  A    between atoms: C_11  and  C_27 
REMARK    7  A    between atoms: C_27  and  O_29 
REMARK    8  A    between atoms: O_29  and  C_30 
ROOT
ATOM      1  C   LIG d   1       5.144  -4.550  -9.139  0.00  0.00    -0.019 C 
ATOM      2  H   LIG d   1       4.158  -4.447  -9.591  0.00  0.00     0.085 H 
ATOM      3  C   LIG d   1       6.151  -3.687  -9.903  0.00  0.00     0.010 C 
ATOM      4  C   LIG d   1       5.754  -2.213  -9.784  0.00  0.00     0.042 C 
ATOM      5  H   LIG d   1       6.483  -1.596 -10.311  0.00  0.00     0.051 H 
ATOM      6  N   LIG d   1       5.723  -1.832  -8.367  0.00  0.00    -0.274 N 
ATOM      7  C   LIG d   1       5.529  -0.389  -8.195  0.00  0.00     0.113 C 
ATOM      8  H   LIG d   1       4.487  -0.137  -8.387  0.00  0.00     0.058 H 
ATOM      9  C   LIG d   1       5.896   0.009  -6.758  0.00  0.00     0.001 C 
ATOM     10  C   LIG d   1       5.211  -0.948  -5.816  0.00  0.00    -0.016 A 
ATOM     11  C   LIG d   1       4.986  -0.828  -4.393  0.00  0.00     0.003 A 
ATOM     12  C   LIG d   1       5.310   0.160  -3.459  0.00  0.00    -0.052 A 
ATOM     13  C   LIG d   1       4.932  -0.065  -2.158  0.00  0.00    -0.061 A 
ATOM     14  C   LIG d   1       4.259  -1.213  -1.776  0.00  0.00    -0.060 A 
ATOM     15  C   LIG d   1       3.926  -2.209  -2.678  0.00  0.00    -0.038 A 
ATOM     16  C   LIG d   1       4.297  -2.007  -4.006  0.00  0.00     0.047 A 
ATOM     17  N   LIG d   1       4.129  -2.767  -5.128  0.00  0.00    -0.356 N 
ATOM     18  H   LIG d   1       3.687  -3.631  -5.156  0.00  0.00     0.166 HD
ATOM     19  C   LIG d   1       4.676  -2.128  -6.206  0.00  0.00     0.038 A 
ATOM     20  C   LIG d   1       4.712  -2.609  -7.636  0.00  0.00     0.057 C 
ATOM     21  H   LIG d   1       3.735  -2.461  -8.095  0.00  0.00     0.053 H 
ATOM     22  C   LIG d   1       5.087  -4.091  -7.678  0.00  0.00     0.011 C 
ATOM     23  H   LIG d   1       7.146  -3.830  -9.482  0.00  0.00     0.034 H 
ATOM     24  H   LIG d   1       6.156  -3.978 -10.953  0.00  0.00     0.034 H 
ATOM     25  H   LIG d   1       6.976  -0.053  -6.623  0.00  0.00     0.033 H 
ATOM     26  H   LIG d   1       5.558   1.026  -6.561  0.00  0.00     0.033 H 
ATOM     27  H   LIG d   1       5.835   1.059  -3.747  0.00  0.00     0.062 H 
ATOM     28  H   LIG d   1       5.166   0.678  -1.410  0.00  0.00     0.062 H 
ATOM     29  H   LIG d   1       3.985  -1.337  -0.738  0.00  0.00     0.062 H 
ATOM     30  H   LIG d   1       3.402  -3.100  -2.367  0.00  0.00     0.064 H 
ATOM     31  H   LIG d   1       4.337  -4.673  -7.142  0.00  0.00     0.034 H 
ATOM     32  H   LIG d   1       6.062  -4.234  -7.213  0.00  0.00     0.034 H 
ENDROOT
BRANCH   1  33
ATOM     33  N   LIG d   1       5.564  -5.958  -9.194  0.00  0.00     0.231 N 
ATOM     34  H   LIG d   1       5.800  -6.274  -8.266  0.00  0.00     0.202 HD
ATOM     35  H   LIG d   1       6.370  -6.045  -9.794  0.00  0.00     0.202 HD
BRANCH  33  36
ATOM     36  C   LIG d   1       4.466  -6.774  -9.727  0.00  0.00    -0.028 C 
ATOM     37  H   LIG d   1       4.842  -7.412 -10.527  0.00  0.00     0.085 H 
BRANCH  36  38
ATOM     38  C   LIG d   1       3.890  -7.646  -8.609  0.00  0.00    -0.022 C 
ATOM     39  H   LIG d   1       4.706  -8.107  -8.051  0.00  0.00     0.028 H 
ATOM     40  H   LIG d   1       3.294  -7.030  -7.937  0.00  0.00     0.028 H 
ATOM     41  H   LIG d   1       3.262  -8.425  -9.042  0.00  0.00     0.028 H 
ENDBRANCH  36  38
BRANCH  36  42
ATOM     42  C   LIG d   1       3.369  -5.860 -10.276  0.00  0.00    -0.022 C 
ATOM     43  H   LIG d   1       2.598  -6.463 -10.754  0.00  0.00     0.028 H 
ATOM     44  H   LIG d   1       2.928  -5.290  -9.456  0.00  0.00     0.028 H 
ATOM     45  H   LIG d   1       3.799  -5.173 -11.005  0.00  0.00     0.028 H 
ENDBRANCH  36  42
ENDBRANCH  33  36
ENDBRANCH   1  33
BRANCH   4  46
ATOM     46  C   LIG d   1       4.390  -2.009 -10.390  0.00  0.00    -0.027 A 
ATOM     47  C   LIG d   1       3.374  -1.457  -9.633  0.00  0.00    -0.020 A 
ATOM     48  C   LIG d   1       2.122  -1.263 -10.192  0.00  0.00     0.142 A 
ATOM     49  H   LIG d   1       3.557  -1.172  -8.608  0.00  0.00     0.065 H 
ATOM     50  C   LIG d   1       1.886  -1.634 -11.506  0.00  0.00     0.076 A 
ATOM     51  F   LIG d   1       1.128  -0.719  -9.454  0.00  0.00    -0.204 F 
ATOM     52  C   LIG d   1       2.903  -2.191 -12.260  0.00  0.00    -0.040 A 
ATOM     53 CL   LIG d   1       0.315  -1.398 -12.206  0.00  0.00    -0.081 Cl
ATOM     54  C   LIG d   1       4.153  -2.378 -11.702  0.00  0.00    -0.056 A 
ATOM     55  H   LIG d   1       2.720  -2.480 -13.284  0.00  0.00     0.063 H 
ATOM     56  H   LIG d   1       4.948  -2.813 -12.291  0.00  0.00     0.062 H 
ENDBRANCH   4  46
BRANCH   7  57
ATOM     57  C   LIG d   1       6.412   0.356  -9.163  0.00  0.00     0.325 C 
ATOM     58  O   LIG d   1       7.608   0.188  -9.141  0.00  0.00    -0.249 OA
BRANCH  57  59
ATOM     59  O   LIG d   1       5.869   1.205 -10.049  0.00  0.00    -0.467 OA
BRANCH  59  60
ATOM     60  C   LIG d   1       4.727   1.950  -9.620  0.00  0.00     0.082 C 
ATOM     61  H   LIG d   1       5.045   2.933  -9.271  0.00  0.00     0.066 H 
ATOM     62  H   LIG d   1       4.036   2.067 -10.454  0.00  0.00     0.066 H 
ATOM     63  H   LIG d   1       4.232   1.419  -8.808  0.00  0.00     0.066 H 
ENDBRANCH  59  60
ENDBRANCH  57  59
ENDBRANCH   7  57
TORSDOF 8
ENDMDL
MODEL 6
REMARK VINA RESULT:      -6.0      3.291      6.719
REMARK  8 active torsions:
REMARK  status: ('A' for Active; 'I' for Inactive)
REMARK    1  A    between atoms: C_1  and  C_2 
REMARK    2  A    between atoms: C_2  and  C_3 
REMARK    3  A    between atoms: C_2  and  N_4 
REMARK    4  A    between atoms: N_4  and  C_5 
REMARK    5  A    between atoms: C_8  and  C_31 
REMARK    6  A    between atoms: C_11  and  C_27 
REMARK    7  A    between atoms: C_27  and  O_29 
REMARK    8  A    between atoms: O_29  and  C_30 
ROOT
ATOM      1  C   LIG d   1       7.540  -1.594  -7.131  0.00  0.00    -0.019 C 
ATOM      2  H   LIG d   1       7.226  -0.975  -6.291  0.00  0.00     0.085 H 
ATOM      3  C   LIG d   1       7.733  -3.037  -6.660  0.00  0.00     0.010 C 
ATOM      4  C   LIG d   1       6.396  -3.595  -6.163  0.00  0.00     0.042 C 
ATOM      5  H   LIG d   1       6.529  -4.630  -5.847  0.00  0.00     0.051 H 
ATOM      6  N   LIG d   1       5.413  -3.539  -7.252  0.00  0.00    -0.274 N 
ATOM      7  C   LIG d   1       4.168  -4.227  -6.898  0.00  0.00     0.113 C 
ATOM      8  H   LIG d   1       3.592  -3.605  -6.214  0.00  0.00     0.058 H 
ATOM      9  C   LIG d   1       3.347  -4.485  -8.169  0.00  0.00     0.001 C 
ATOM     10  C   LIG d   1       3.286  -3.202  -8.959  0.00  0.00    -0.016 A 
ATOM     11  C   LIG d   1       2.405  -2.836 -10.046  0.00  0.00     0.003 A 
ATOM     12  C   LIG d   1       1.368  -3.511 -10.697  0.00  0.00    -0.052 A 
ATOM     13  C   LIG d   1       0.731  -2.841 -11.713  0.00  0.00    -0.061 A 
ATOM     14  C   LIG d   1       1.089  -1.556 -12.084  0.00  0.00    -0.060 A 
ATOM     15  C   LIG d   1       2.112  -0.864 -11.458  0.00  0.00    -0.038 A 
ATOM     16  C   LIG d   1       2.776  -1.519 -10.423  0.00  0.00     0.047 A 
ATOM     17  N   LIG d   1       3.806  -1.138  -9.611  0.00  0.00    -0.356 N 
ATOM     18  H   LIG d   1       4.258  -0.280  -9.647  0.00  0.00     0.166 HD
ATOM     19  C   LIG d   1       4.105  -2.148  -8.738  0.00  0.00     0.038 A 
ATOM     20  C   LIG d   1       5.170  -2.151  -7.669  0.00  0.00     0.057 C 
ATOM     21  H   LIG d   1       4.831  -1.567  -6.814  0.00  0.00     0.053 H 
ATOM     22  C   LIG d   1       6.466  -1.556  -8.224  0.00  0.00     0.011 C 
ATOM     23  H   LIG d   1       8.096  -3.646  -7.488  0.00  0.00     0.034 H 
ATOM     24  H   LIG d   1       8.460  -3.060  -5.848  0.00  0.00     0.034 H 
ATOM     25  H   LIG d   1       3.827  -5.261  -8.766  0.00  0.00     0.033 H 
ATOM     26  H   LIG d   1       2.339  -4.799  -7.898  0.00  0.00     0.033 H 
ATOM     27  H   LIG d   1       1.081  -4.513 -10.415  0.00  0.00     0.062 H 
ATOM     28  H   LIG d   1      -0.074  -3.332 -12.238  0.00  0.00     0.062 H 
ATOM     29  H   LIG d   1       0.553  -1.076 -12.890  0.00  0.00     0.062 H 
ATOM     30  H   LIG d   1       2.382   0.138 -11.757  0.00  0.00     0.064 H 
ATOM     31  H   LIG d   1       6.292  -0.524  -8.529  0.00  0.00     0.034 H 
ATOM     32  H   LIG d   1       6.797  -2.141  -9.081  0.00  0.00     0.034 H 
ENDROOT
BRANCH   1  33
ATOM     33  N   LIG d   1       8.807  -1.081  -7.672  0.00  0.00     0.231 N 
ATOM     34  H   LIG d   1       8.649  -0.699  -8.592  0.00  0.00     0.202 HD
ATOM     35  H   LIG d   1       9.476  -1.834  -7.731  0.00  0.00     0.202 HD
BRANCH  33  36
ATOM     36  C   LIG d   1       9.327  -0.032  -6.786  0.00  0.00    -0.028 C 
ATOM     37  H   LIG d   1       9.844   0.722  -7.380  0.00  0.00     0.085 H 
BRANCH  36  38
ATOM     38  C   LIG d   1       8.166   0.621  -6.034  0.00  0.00    -0.022 C 
ATOM     39  H   LIG d   1       8.518   1.528  -5.540  0.00  0.00     0.028 H 
ATOM     40  H   LIG d   1       7.373   0.874  -6.737  0.00  0.00     0.028 H 
ATOM     41  H   LIG d   1       7.782  -0.073  -5.286  0.00  0.00     0.028 H 
ENDBRANCH  36  38
BRANCH  36  42
ATOM     42  C   LIG d   1      10.303  -0.648  -5.782  0.00  0.00    -0.022 C 
ATOM     43  H   LIG d   1      10.486   0.057  -4.973  0.00  0.00     0.028 H 
ATOM     44  H   LIG d   1       9.874  -1.565  -5.376  0.00  0.00     0.028 H 
ATOM     45  H   LIG d   1      11.243  -0.879  -6.284  0.00  0.00     0.028 H 
ENDBRANCH  36  42
ENDBRANCH  33  36
ENDBRANCH   1  33
BRANCH   4  46
ATOM     46  C   LIG d   1       5.907  -2.772  -5.000  0.00  0.00    -0.027 A 
ATOM     47  C   LIG d   1       4.565  -2.459  -4.892  0.00  0.00    -0.020 A 
ATOM     48  C   LIG d   1       4.114  -1.707  -3.820  0.00  0.00     0.142 A 
ATOM     49  H   LIG d   1       3.867  -2.804  -5.641  0.00  0.00     0.065 H 
ATOM     50  C   LIG d   1       5.011  -1.260  -2.863  0.00  0.00     0.076 A 
ATOM     51  F   LIG d   1       2.802  -1.405  -3.710  0.00  0.00    -0.204 F 
ATOM     52  C   LIG d   1       6.355  -1.570  -2.977  0.00  0.00    -0.040 A 
ATOM     53 CL   LIG d   1       4.449  -0.313  -1.522  0.00  0.00    -0.081 Cl
ATOM     54  C   LIG d   1       6.801  -2.325  -4.045  0.00  0.00    -0.056 A 
ATOM     55  H   LIG d   1       7.054  -1.222  -2.232  0.00  0.00     0.063 H 
ATOM     56  H   LIG d   1       7.850  -2.568  -4.133  0.00  0.00     0.062 H 
ENDBRANCH   4  46
BRANCH   7  57
ATOM     57  C   LIG d   1       4.490  -5.539  -6.233  0.00  0.00     0.325 C 
ATOM     58  O   LIG d   1       4.046  -5.786  -5.137  0.00  0.00    -0.249 OA
BRANCH  57  59
ATOM     59  O   LIG d   1       5.271  -6.435  -6.858  0.00  0.00    -0.467 OA
BRANCH  59  60
ATOM     60  C   LIG d   1       4.754  -7.760  -7.000  0.00  0.00     0.082 C 
ATOM     61  H   LIG d   1       4.899  -8.098  -8.026  0.00  0.00     0.066 H 
ATOM     62  H   LIG d   1       5.279  -8.429  -6.319  0.00  0.00     0.066 H 
ATOM     63  H   LIG d   1       3.691  -7.762  -6.764  0.00  0.00     0.066 H 
ENDBRANCH  59  60
ENDBRANCH  57  59
ENDBRANCH   7  57
TORSDOF 8
ENDMDL
MODEL 7
REMARK VINA RESULT:      -6.0      3.759      6.898
REMARK  8 active torsions:
REMARK  status: ('A' for Active; 'I' for Inactive)
REMARK    1  A    between atoms: C_1  and  C_2 
REMARK    2  A    between atoms: C_2  and  C_3 
REMARK    3  A    between atoms: C_2  and  N_4 
REMARK    4  A    between atoms: N_4  and  C_5 
REMARK    5  A    between atoms: C_8  and  C_31 
REMARK    6  A    between atoms: C_11  and  C_27 
REMARK    7  A    between atoms: C_27  and  O_29 
REMARK    8  A    between atoms: O_29  and  C_30 
ROOT
ATOM      1  C   LIG d   1       5.644  -1.866  -3.588  0.00  0.00    -0.019 C 
ATOM      2  H   LIG d   1       5.784  -2.945  -3.532  0.00  0.00     0.085 H 
ATOM      3  C   LIG d   1       7.007  -1.174  -3.639  0.00  0.00     0.010 C 
ATOM      4  C   LIG d   1       7.748  -1.598  -4.911  0.00  0.00     0.042 C 
ATOM      5  H   LIG d   1       8.712  -1.089  -4.957  0.00  0.00     0.051 H 
ATOM      6  N   LIG d   1       6.945  -1.235  -6.084  0.00  0.00    -0.274 N 
ATOM      7  C   LIG d   1       7.680  -1.448  -7.335  0.00  0.00     0.113 C 
ATOM      8  H   LIG d   1       7.709  -2.513  -7.562  0.00  0.00     0.058 H 
ATOM      9  C   LIG d   1       6.975  -0.700  -8.476  0.00  0.00     0.001 C 
ATOM     10  C   LIG d   1       5.505  -1.028  -8.415  0.00  0.00    -0.016 A 
ATOM     11  C   LIG d   1       4.482  -0.833  -9.418  0.00  0.00     0.003 A 
ATOM     12  C   LIG d   1       4.507  -0.305 -10.712  0.00  0.00    -0.052 A 
ATOM     13  C   LIG d   1       3.316  -0.275 -11.395  0.00  0.00    -0.061 A 
ATOM     14  C   LIG d   1       2.138  -0.743 -10.840  0.00  0.00    -0.060 A 
ATOM     15  C   LIG d   1       2.082  -1.271  -9.561  0.00  0.00    -0.038 A 
ATOM     16  C   LIG d   1       3.276  -1.315  -8.844  0.00  0.00     0.047 A 
ATOM     17  N   LIG d   1       3.573  -1.762  -7.588  0.00  0.00    -0.356 N 
ATOM     18  H   LIG d   1       2.934  -2.145  -6.966  0.00  0.00     0.166 HD
ATOM     19  C   LIG d   1       4.907  -1.588  -7.339  0.00  0.00     0.038 A 
ATOM     20  C   LIG d   1       5.658  -1.945  -6.080  0.00  0.00     0.057 C 
ATOM     21  H   LIG d   1       5.834  -3.020  -6.053  0.00  0.00     0.053 H 
ATOM     22  C   LIG d   1       4.850  -1.519  -4.853  0.00  0.00     0.011 C 
ATOM     23  H   LIG d   1       6.868  -0.093  -3.644  0.00  0.00     0.034 H 
ATOM     24  H   LIG d   1       7.593  -1.459  -2.765  0.00  0.00     0.034 H 
ATOM     25  H   LIG d   1       7.118   0.374  -8.355  0.00  0.00     0.033 H 
ATOM     26  H   LIG d   1       7.385  -1.020  -9.433  0.00  0.00     0.033 H 
ATOM     27  H   LIG d   1       5.421   0.064 -11.154  0.00  0.00     0.062 H 
ATOM     28  H   LIG d   1       3.298   0.127 -12.398  0.00  0.00     0.062 H 
ATOM     29  H   LIG d   1       1.230  -0.696 -11.423  0.00  0.00     0.062 H 
ATOM     30  H   LIG d   1       1.157  -1.633  -9.139  0.00  0.00     0.064 H 
ATOM     31  H   LIG d   1       3.897  -2.048  -4.842  0.00  0.00     0.034 H 
ATOM     32  H   LIG d   1       4.673  -0.445  -4.888  0.00  0.00     0.034 H 
ENDROOT
BRANCH   1  33
ATOM     33  N   LIG d   1       4.904  -1.405  -2.405  0.00  0.00     0.231 N 
ATOM     34  H   LIG d   1       5.552  -1.230  -1.652  0.00  0.00     0.202 HD
ATOM     35  H   LIG d   1       4.246  -2.115  -2.123  0.00  0.00     0.202 HD
BRANCH  33  36
ATOM     36  C   LIG d   1       4.182  -0.168  -2.729  0.00  0.00    -0.028 C 
ATOM     37  H   LIG d   1       4.477   0.174  -3.721  0.00  0.00     0.085 H 
BRANCH  36  38
ATOM     38  C   LIG d   1       2.676  -0.437  -2.710  0.00  0.00    -0.022 C 
ATOM     39  H   LIG d   1       2.315  -0.555  -3.732  0.00  0.00     0.028 H 
ATOM     40  H   LIG d   1       2.477  -1.348  -2.146  0.00  0.00     0.028 H 
ATOM     41  H   LIG d   1       2.164   0.402  -2.239  0.00  0.00     0.028 H 
ENDBRANCH  36  38
BRANCH  36  42
ATOM     42  C   LIG d   1       4.522   0.907  -1.696  0.00  0.00    -0.022 C 
ATOM     43  H   LIG d   1       4.119   1.865  -2.022  0.00  0.00     0.028 H 
ATOM     44  H   LIG d   1       4.084   0.637  -0.733  0.00  0.00     0.028 H 
ATOM     45  H   LIG d   1       5.605   0.984  -1.593  0.00  0.00     0.028 H 
ENDBRANCH  36  42
ENDBRANCH  33  36
ENDBRANCH   1  33
BRANCH   4  46
ATOM     46  C   LIG d   1       7.967  -3.089  -4.892  0.00  0.00    -0.027 A 
ATOM     47  C   LIG d   1       8.699  -3.666  -3.872  0.00  0.00    -0.020 A 
ATOM     48  C   LIG d   1       8.896  -5.037  -3.851  0.00  0.00     0.142 A 
ATOM     49  H   LIG d   1       9.115  -3.050  -3.088  0.00  0.00     0.065 H 
ATOM     50  C   LIG d   1       8.368  -5.826  -4.860  0.00  0.00     0.076 A 
ATOM     51  F   LIG d   1       9.607  -5.603  -2.851  0.00  0.00    -0.204 F 
ATOM     52  C   LIG d   1       7.640  -5.245  -5.883  0.00  0.00    -0.040 A 
ATOM     53 CL   LIG d   1       8.618  -7.544  -4.839  0.00  0.00    -0.081 Cl
ATOM     54  C   LIG d   1       7.441  -3.878  -5.898  0.00  0.00    -0.056 A 
ATOM     55  H   LIG d   1       7.228  -5.860  -6.669  0.00  0.00     0.063 H 
ATOM     56  H   LIG d   1       6.872  -3.424  -6.697  0.00  0.00     0.062 H 
ENDBRANCH   4  46
BRANCH   7  57
ATOM     57  C   LIG d   1       9.086  -0.928  -7.186  0.00  0.00     0.325 C 
ATOM     58  O   LIG d   1      10.025  -1.676  -7.322  0.00  0.00    -0.249 OA
BRANCH  57  59
ATOM     59  O   LIG d   1       9.296   0.368  -6.902  0.00  0.00    -0.467 OA
BRANCH  59  60
ATOM     60  C   LIG d   1      10.582   0.719  -6.386  0.00  0.00     0.082 C 
ATOM     61  H   LIG d   1      11.220   1.058  -7.202  0.00  0.00     0.066 H 
ATOM     62  H   LIG d   1      10.473   1.517  -5.652  0.00  0.00     0.066 H 
ATOM     63  H   LIG d   1      11.033  -0.152  -5.911  0.00  0.00     0.066 H 
ENDBRANCH  59  60
ENDBRANCH  57  59
ENDBRANCH   7  57
TORSDOF 8
ENDMDL
MODEL 8
REMARK VINA RESULT:      -6.0      3.913      6.464
REMARK  8 active torsions:
REMARK  status: ('A' for Active; 'I' for Inactive)
REMARK    1  A    between atoms: C_1  and  C_2 
REMARK    2  A    between atoms: C_2  and  C_3 
REMARK    3  A    between atoms: C_2  and  N_4 
REMARK    4  A    between atoms: N_4  and  C_5 
REMARK    5  A    between atoms: C_8  and  C_31 
REMARK    6  A    between atoms: C_11  and  C_27 
REMARK    7  A    between atoms: C_27  and  O_29 
REMARK    8  A    between atoms: O_29  and  C_30 
ROOT
ATOM      1  C   LIG d   1       4.903  -0.902  -7.715  0.00  0.00    -0.019 C 
ATOM      2  H   LIG d   1       5.400  -1.869  -7.798  0.00  0.00     0.085 H 
ATOM      3  C   LIG d   1       3.916  -0.934  -6.546  0.00  0.00     0.010 C 
ATOM      4  C   LIG d   1       4.678  -1.163  -5.238  0.00  0.00     0.042 C 
ATOM      5  H   LIG d   1       3.977  -1.165  -4.404  0.00  0.00     0.051 H 
ATOM      6  N   LIG d   1       5.657  -0.085  -5.053  0.00  0.00    -0.274 N 
ATOM      7  C   LIG d   1       6.291  -0.146  -3.732  0.00  0.00     0.113 C 
ATOM      8  H   LIG d   1       7.026  -0.950  -3.719  0.00  0.00     0.058 H 
ATOM      9  C   LIG d   1       6.987   1.190  -3.437  0.00  0.00     0.001 C 
ATOM     10  C   LIG d   1       7.816   1.565  -4.640  0.00  0.00    -0.016 A 
ATOM     11  C   LIG d   1       8.874   2.543  -4.754  0.00  0.00     0.003 A 
ATOM     12  C   LIG d   1       9.456   3.425  -3.838  0.00  0.00    -0.052 A 
ATOM     13  C   LIG d   1      10.465   4.230  -4.306  0.00  0.00    -0.061 A 
ATOM     14  C   LIG d   1      10.896   4.181  -5.621  0.00  0.00    -0.060 A 
ATOM     15  C   LIG d   1      10.338   3.319  -6.550  0.00  0.00    -0.038 A 
ATOM     16  C   LIG d   1       9.312   2.489  -6.103  0.00  0.00     0.047 A 
ATOM     17  N   LIG d   1       8.560   1.542  -6.737  0.00  0.00    -0.356 N 
ATOM     18  H   LIG d   1       8.644   1.296  -7.672  0.00  0.00     0.166 HD
ATOM     19  C   LIG d   1       7.668   0.993  -5.857  0.00  0.00     0.038 A 
ATOM     20  C   LIG d   1       6.652  -0.086  -6.135  0.00  0.00     0.057 C 
ATOM     21  H   LIG d   1       7.149  -1.055  -6.173  0.00  0.00     0.053 H 
ATOM     22  C   LIG d   1       5.949   0.190  -7.466  0.00  0.00     0.011 C 
ATOM     23  H   LIG d   1       3.382   0.015  -6.494  0.00  0.00     0.034 H 
ATOM     24  H   LIG d   1       3.201  -1.743  -6.696  0.00  0.00     0.034 H 
ATOM     25  H   LIG d   1       6.239   1.962  -3.251  0.00  0.00     0.033 H 
ATOM     26  H   LIG d   1       7.631   1.084  -2.564  0.00  0.00     0.033 H 
ATOM     27  H   LIG d   1       9.128   3.471  -2.811  0.00  0.00     0.062 H 
ATOM     28  H   LIG d   1      10.938   4.924  -3.627  0.00  0.00     0.062 H 
ATOM     29  H   LIG d   1      11.694   4.838  -5.934  0.00  0.00     0.062 H 
ATOM     30  H   LIG d   1      10.682   3.291  -7.572  0.00  0.00     0.064 H 
ATOM     31  H   LIG d   1       6.682   0.184  -8.273  0.00  0.00     0.034 H 
ATOM     32  H   LIG d   1       5.458   1.162  -7.424  0.00  0.00     0.034 H 
ENDROOT
BRANCH   1  33
ATOM     33  N   LIG d   1       4.180  -0.613  -8.961  0.00  0.00     0.231 N 
ATOM     34  H   LIG d   1       4.080  -1.462  -9.496  0.00  0.00     0.202 HD
ATOM     35  H   LIG d   1       4.697   0.064  -9.500  0.00  0.00     0.202 HD
BRANCH  33  36
ATOM     36  C   LIG d   1       2.851  -0.075  -8.641  0.00  0.00    -0.028 C 
ATOM     37  H   LIG d   1       2.659  -0.190  -7.575  0.00  0.00     0.085 H 
BRANCH  36  38
ATOM     38  C   LIG d   1       2.801   1.409  -9.011  0.00  0.00    -0.022 C 
ATOM     39  H   LIG d   1       1.866   1.840  -8.651  0.00  0.00     0.028 H 
ATOM     40  H   LIG d   1       3.641   1.927  -8.551  0.00  0.00     0.028 H 
ATOM     41  H   LIG d   1       2.856   1.515 -10.094  0.00  0.00     0.028 H 
ENDBRANCH  36  38
BRANCH  36  42
ATOM     42  C   LIG d   1       1.788  -0.835  -9.437  0.00  0.00    -0.022 C 
ATOM     43  H   LIG d   1       1.328  -1.590  -8.800  0.00  0.00     0.028 H 
ATOM     44  H   LIG d   1       1.025  -0.137  -9.783  0.00  0.00     0.028 H 
ATOM     45  H   LIG d   1       2.254  -1.319 -10.296  0.00  0.00     0.028 H 
ENDBRANCH  36  42
ENDBRANCH  33  36
ENDBRANCH   1  33
BRANCH   4  46
ATOM     46  C   LIG d   1       5.393  -2.488  -5.298  0.00  0.00    -0.027 A 
ATOM     47  C   LIG d   1       4.668  -3.659  -5.412  0.00  0.00    -0.020 A 
ATOM     48  C   LIG d   1       5.325  -4.876  -5.473  0.00  0.00     0.142 A 
ATOM     49  H   LIG d   1       3.590  -3.625  -5.458  0.00  0.00     0.065 H 
ATOM     50  C   LIG d   1       6.709  -4.920  -5.407  0.00  0.00     0.076 A 
ATOM     51  F   LIG d   1       4.618  -6.022  -5.590  0.00  0.00    -0.204 F 
ATOM     52  C   LIG d   1       7.431  -3.746  -5.287  0.00  0.00    -0.040 A 
ATOM     53 CL   LIG d   1       7.534  -6.445  -5.477  0.00  0.00    -0.081 Cl
ATOM     54  C   LIG d   1       6.774  -2.532  -5.233  0.00  0.00    -0.056 A 
ATOM     55  H   LIG d   1       8.510  -3.779  -5.237  0.00  0.00     0.063 H 
ATOM     56  H   LIG d   1       7.339  -1.616  -5.140  0.00  0.00     0.062 H 
ENDBRANCH   4  46
BRANCH   7  57
ATOM     57  C   LIG d   1       5.242  -0.408  -2.683  0.00  0.00     0.325 C 
ATOM     58  O   LIG d   1       5.062  -1.532  -2.276  0.00  0.00    -0.249 OA
BRANCH  57  59
ATOM     59  O   LIG d   1       4.507   0.606  -2.200  0.00  0.00    -0.467 OA
BRANCH  59  60
ATOM     60  C   LIG d   1       3.168   0.727  -2.687  0.00  0.00     0.082 C 
ATOM     61  H   LIG d   1       2.926  -0.141  -3.301  0.00  0.00     0.066 H 
ATOM     62  H   LIG d   1       2.479   0.780  -1.845  0.00  0.00     0.066 H 
ATOM     63  H   LIG d   1       3.080   1.632  -3.287  0.00  0.00     0.066 H 
ENDBRANCH  59  60
ENDBRANCH  57  59
ENDBRANCH   7  57
TORSDOF 8
ENDMDL
MODEL 9
REMARK VINA RESULT:      -6.0      3.250      5.097
REMARK  8 active torsions:
REMARK  status: ('A' for Active; 'I' for Inactive)
REMARK    1  A    between atoms: C_1  and  C_2 
REMARK    2  A    between atoms: C_2  and  C_3 
REMARK    3  A    between atoms: C_2  and  N_4 
REMARK    4  A    between atoms: N_4  and  C_5 
REMARK    5  A    between atoms: C_8  and  C_31 
REMARK    6  A    between atoms: C_11  and  C_27 
REMARK    7  A    between atoms: C_27  and  O_29 
REMARK    8  A    between atoms: O_29  and  C_30 
ROOT
ATOM      1  C   LIG d   1       4.320  -2.280  -7.260  0.00  0.00    -0.019 C 
ATOM      2  H   LIG d   1       3.923  -1.799  -6.366  0.00  0.00     0.085 H 
ATOM      3  C   LIG d   1       5.689  -1.684  -7.596  0.00  0.00     0.010 C 
ATOM      4  C   LIG d   1       6.668  -1.976  -6.455  0.00  0.00     0.042 C 
ATOM      5  H   LIG d   1       7.648  -1.569  -6.704  0.00  0.00     0.051 H 
ATOM      6  N   LIG d   1       6.773  -3.428  -6.266  0.00  0.00    -0.274 N 
ATOM      7  C   LIG d   1       7.831  -3.778  -5.314  0.00  0.00     0.113 C 
ATOM      8  H   LIG d   1       7.489  -3.572  -4.300  0.00  0.00     0.058 H 
ATOM      9  C   LIG d   1       8.167  -5.270  -5.447  0.00  0.00     0.001 C 
ATOM     10  C   LIG d   1       6.874  -6.046  -5.437  0.00  0.00    -0.016 A 
ATOM     11  C   LIG d   1       6.656  -7.460  -5.231  0.00  0.00     0.003 A 
ATOM     12  C   LIG d   1       7.523  -8.530  -4.986  0.00  0.00    -0.052 A 
ATOM     13  C   LIG d   1       6.953  -9.771  -4.838  0.00  0.00    -0.061 A 
ATOM     14  C   LIG d   1       5.585  -9.967  -4.925  0.00  0.00    -0.060 A 
ATOM     15  C   LIG d   1       4.703  -8.928  -5.167  0.00  0.00    -0.038 A 
ATOM     16  C   LIG d   1       5.254  -7.657  -5.321  0.00  0.00     0.047 A 
ATOM     17  N   LIG d   1       4.686  -6.438  -5.563  0.00  0.00    -0.356 N 
ATOM     18  H   LIG d   1       3.736  -6.276  -5.672  0.00  0.00     0.166 HD
ATOM     19  C   LIG d   1       5.660  -5.480  -5.630  0.00  0.00     0.038 A 
ATOM     20  C   LIG d   1       5.477  -4.003  -5.878  0.00  0.00     0.057 C 
ATOM     21  H   LIG d   1       5.123  -3.521  -4.967  0.00  0.00     0.053 H 
ATOM     22  C   LIG d   1       4.469  -3.785  -7.007  0.00  0.00     0.011 C 
ATOM     23  H   LIG d   1       6.063  -2.129  -8.518  0.00  0.00     0.034 H 
ATOM     24  H   LIG d   1       5.594  -0.606  -7.727  0.00  0.00     0.034 H 
ATOM     25  H   LIG d   1       8.693  -5.446  -6.386  0.00  0.00     0.033 H 
ATOM     26  H   LIG d   1       8.791  -5.583  -4.611  0.00  0.00     0.033 H 
ATOM     27  H   LIG d   1       8.591  -8.387  -4.917  0.00  0.00     0.062 H 
ATOM     28  H   LIG d   1       7.592 -10.620  -4.648  0.00  0.00     0.062 H 
ATOM     29  H   LIG d   1       5.192 -10.965  -4.800  0.00  0.00     0.062 H 
ATOM     30  H   LIG d   1       3.639  -9.094  -5.233  0.00  0.00     0.064 H 
ATOM     31  H   LIG d   1       3.505  -4.204  -6.722  0.00  0.00     0.034 H 
ATOM     32  H   LIG d   1       4.827  -4.272  -7.914  0.00  0.00     0.034 H 
ENDROOT
BRANCH   1  33
ATOM     33  N   LIG d   1       3.400  -2.061  -8.384  0.00  0.00     0.231 N 
ATOM     34  H   LIG d   1       2.534  -2.548  -8.209  0.00  0.00     0.202 HD
ATOM     35  H   LIG d   1       3.817  -2.412  -9.233  0.00  0.00     0.202 HD
BRANCH  33  36
ATOM     36  C   LIG d   1       3.135  -0.624  -8.527  0.00  0.00    -0.028 C 
ATOM     37  H   LIG d   1       4.024  -0.127  -8.914  0.00  0.00     0.085 H 
BRANCH  36  38
ATOM     38  C   LIG d   1       1.971  -0.414  -9.497  0.00  0.00    -0.022 C 
ATOM     39  H   LIG d   1       2.279   0.267 -10.291  0.00  0.00     0.028 H 
ATOM     40  H   LIG d   1       1.681  -1.371  -9.929  0.00  0.00     0.028 H 
ATOM     41  H   LIG d   1       1.124   0.015  -8.960  0.00  0.00     0.028 H 
ENDBRANCH  36  38
BRANCH  36  42
ATOM     42  C   LIG d   1       2.774  -0.034  -7.162  0.00  0.00    -0.022 C 
ATOM     43  H   LIG d   1       2.638  -0.840  -6.442  0.00  0.00     0.028 H 
ATOM     44  H   LIG d   1       3.578   0.622  -6.825  0.00  0.00     0.028 H 
ATOM     45  H   LIG d   1       1.850   0.539  -7.246  0.00  0.00     0.028 H 
ENDBRANCH  36  42
ENDBRANCH  33  36
ENDBRANCH   1  33
BRANCH   4  46
ATOM     46  C   LIG d   1       6.166  -1.338  -5.186  0.00  0.00    -0.027 A 
ATOM     47  C   LIG d   1       5.462  -2.093  -4.266  0.00  0.00    -0.020 A 
ATOM     48  C   LIG d   1       5.006  -1.508  -3.096  0.00  0.00     0.142 A 
ATOM     49  H   LIG d   1       5.272  -3.138  -4.456  0.00  0.00     0.065 H 
ATOM     50  C   LIG d   1       5.245  -0.165  -2.855  0.00  0.00     0.076 A 
ATOM     51  F   LIG d   1       4.323  -2.246  -2.193  0.00  0.00    -0.204 F 
ATOM     52  C   LIG d   1       5.945   0.589  -3.781  0.00  0.00    -0.040 A 
ATOM     53 CL   LIG d   1       4.669   0.571  -1.393  0.00  0.00    -0.081 Cl
ATOM     54  C   LIG d   1       6.404   0.002  -4.944  0.00  0.00    -0.056 A 
ATOM     55  H   LIG d   1       6.132   1.636  -3.593  0.00  0.00     0.063 H 
ATOM     56  H   LIG d   1       6.951   0.591  -5.666  0.00  0.00     0.062 H 
ENDBRANCH   4  46
BRANCH   7  57
ATOM     57  C   LIG d   1       9.061  -2.958  -5.605  0.00  0.00     0.325 C 
ATOM     58  O   LIG d   1       9.501  -2.209  -4.766  0.00  0.00    -0.249 OA
BRANCH  57  59
ATOM     59  O   LIG d   1       9.669  -3.060  -6.798  0.00  0.00    -0.467 OA
BRANCH  59  60
ATOM     60  C   LIG d   1      11.074  -3.321  -6.791  0.00  0.00     0.082 C 
ATOM     61  H   LIG d   1      11.420  -3.477  -7.813  0.00  0.00     0.066 H 
ATOM     62  H   LIG d   1      11.599  -2.470  -6.356  0.00  0.00     0.066 H 
ATOM     63  H   LIG d   1      11.275  -4.213  -6.199  0.00  0.00     0.066 H 
ENDBRANCH  59  60
ENDBRANCH  57  59
ENDBRANCH   7  57
TORSDOF 8
ENDMDL
MODEL 10
REMARK VINA RESULT:      -6.0      4.156      6.938
REMARK  8 active torsions:
REMARK  status: ('A' for Active; 'I' for Inactive)
REMARK    1  A    between atoms: C_1  and  C_2 
REMARK    2  A    between atoms: C_2  and  C_3 
REMARK    3  A    between atoms: C_2  and  N_4 
REMARK    4  A    between atoms: N_4  and  C_5 
REMARK    5  A    between atoms: C_8  and  C_31 
REMARK    6  A    between atoms: C_11  and  C_27 
REMARK    7  A    between atoms: C_27  and  O_29 
REMARK    8  A    between atoms: O_29  and  C_30 
ROOT
ATOM      1  C   LIG d   1       7.037  -2.081  -9.056  0.00  0.00    -0.019 C 
ATOM      2  H   LIG d   1       6.801  -3.145  -9.032  0.00  0.00     0.085 H 
ATOM      3  C   LIG d   1       6.157  -1.386 -10.097  0.00  0.00     0.010 C 
ATOM      4  C   LIG d   1       4.686  -1.511  -9.689  0.00  0.00     0.042 C 
ATOM      5  H   LIG d   1       4.061  -0.997 -10.420  0.00  0.00     0.051 H 
ATOM      6  N   LIG d   1       4.497  -0.901  -8.367  0.00  0.00    -0.274 N 
ATOM      7  C   LIG d   1       3.079  -0.824  -8.001  0.00  0.00     0.113 C 
ATOM      8  H   LIG d   1       2.727  -1.812  -7.705  0.00  0.00     0.058 H 
ATOM      9  C   LIG d   1       2.905   0.154  -6.830  0.00  0.00     0.001 C 
ATOM     10  C   LIG d   1       3.926  -0.189  -5.775  0.00  0.00    -0.016 A 
ATOM     11  C   LIG d   1       3.981   0.216  -4.388  0.00  0.00     0.003 A 
ATOM     12  C   LIG d   1       3.153   1.020  -3.599  0.00  0.00    -0.052 A 
ATOM     13  C   LIG d   1       3.520   1.193  -2.287  0.00  0.00    -0.061 A 
ATOM     14  C   LIG d   1       4.656   0.603  -1.758  0.00  0.00    -0.060 A 
ATOM     15  C   LIG d   1       5.495  -0.196  -2.515  0.00  0.00    -0.038 A 
ATOM     16  C   LIG d   1       5.146  -0.390  -3.850  0.00  0.00     0.047 A 
ATOM     17  N   LIG d   1       5.735  -1.103  -4.855  0.00  0.00    -0.356 N 
ATOM     18  H   LIG d   1       6.552  -1.620  -4.769  0.00  0.00     0.166 HD
ATOM     19  C   LIG d   1       5.000  -0.980  -6.002  0.00  0.00     0.038 A 
ATOM     20  C   LIG d   1       5.287  -1.603  -7.346  0.00  0.00     0.057 C 
ATOM     21  H   LIG d   1       5.006  -2.656  -7.328  0.00  0.00     0.053 H 
ATOM     22  C   LIG d   1       6.774  -1.467  -7.677  0.00  0.00     0.011 C 
ATOM     23  H   LIG d   1       6.429  -0.332 -10.158  0.00  0.00     0.034 H 
ATOM     24  H   LIG d   1       6.305  -1.854 -11.070  0.00  0.00     0.034 H 
ATOM     25  H   LIG d   1       3.065   1.175  -7.177  0.00  0.00     0.033 H 
ATOM     26  H   LIG d   1       1.901   0.058  -6.417  0.00  0.00     0.033 H 
ATOM     27  H   LIG d   1       2.265   1.484  -4.003  0.00  0.00     0.062 H 
ATOM     28  H   LIG d   1       2.904   1.808  -1.648  0.00  0.00     0.062 H 
ATOM     29  H   LIG d   1       4.897   0.773  -0.719  0.00  0.00     0.062 H 
ATOM     30  H   LIG d   1       6.378  -0.650  -2.091  0.00  0.00     0.064 H 
ATOM     31  H   LIG d   1       7.364  -1.992  -6.925  0.00  0.00     0.034 H 
ATOM     32  H   LIG d   1       7.050  -0.413  -7.689  0.00  0.00     0.034 H 
ENDROOT
BRANCH   1  33
ATOM     33  N   LIG d   1       8.452  -1.902  -9.410  0.00  0.00     0.231 N 
ATOM     34  H   LIG d   1       8.963  -1.584  -8.601  0.00  0.00     0.202 HD
ATOM     35  H   LIG d   1       8.529  -1.216 -10.147  0.00  0.00     0.202 HD
BRANCH  33  36
ATOM     36  C   LIG d   1       9.006  -3.181  -9.871  0.00  0.00    -0.028 C 
ATOM     37  H   LIG d   1       9.979  -3.343  -9.407  0.00  0.00     0.085 H 
BRANCH  36  38
ATOM     38  C   LIG d   1       8.060  -4.317  -9.481  0.00  0.00    -0.022 C 
ATOM     39  H   LIG d   1       7.279  -4.415 -10.236  0.00  0.00     0.028 H 
ATOM     40  H   LIG d   1       8.619  -5.250  -9.413  0.00  0.00     0.028 H 
ATOM     41  H   LIG d   1       7.604  -4.095  -8.516  0.00  0.00     0.028 H 
ENDBRANCH  36  38
BRANCH  36  42
ATOM     42  C   LIG d   1       9.165  -3.150 -11.393  0.00  0.00    -0.022 C 
ATOM     43  H   LIG d   1       8.461  -3.845 -11.846  0.00  0.00     0.028 H 
ATOM     44  H   LIG d   1       8.967  -2.141 -11.758  0.00  0.00     0.028 H 
ATOM     45  H   LIG d   1      10.183  -3.437 -11.658  0.00  0.00     0.028 H 
ENDBRANCH  36  42
ENDBRANCH  33  36
ENDBRANCH   1  33
BRANCH   4  46
ATOM     46  C   LIG d   1       4.302  -2.966  -9.632  0.00  0.00    -0.027 A 
ATOM     47  C   LIG d   1       3.956  -3.541  -8.423  0.00  0.00    -0.020 A 
ATOM     48  C   LIG d   1       3.596  -4.878  -8.371  0.00  0.00     0.142 A 
ATOM     49  H   LIG d   1       3.961  -2.949  -7.521  0.00  0.00     0.065 H 
ATOM     50  C   LIG d   1       3.595  -5.639  -9.529  0.00  0.00     0.076 A 
ATOM     51  F   LIG d   1       3.253  -5.441  -7.192  0.00  0.00    -0.204 F 
ATOM     52  C   LIG d   1       3.947  -5.062 -10.736  0.00  0.00    -0.040 A 
ATOM     53 CL   LIG d   1       3.151  -7.316  -9.465  0.00  0.00    -0.081 Cl
ATOM     54  C   LIG d   1       4.300  -3.727 -10.786  0.00  0.00    -0.056 A 
ATOM     55  H   LIG d   1       3.946  -5.655 -11.639  0.00  0.00     0.063 H 
ATOM     56  H   LIG d   1       4.574  -3.276 -11.729  0.00  0.00     0.062 H 
ENDBRANCH   4  46
BRANCH   7  57
ATOM     57  C   LIG d   1       2.280  -0.340  -9.183  0.00  0.00     0.325 C 
ATOM     58  O   LIG d   1       2.447   0.779  -9.607  0.00  0.00    -0.249 OA
BRANCH  57  59
ATOM     59  O   LIG d   1       1.382  -1.151  -9.764  0.00  0.00    -0.467 OA
BRANCH  59  60
ATOM     60  C   LIG d   1       1.309  -1.122 -11.192  0.00  0.00     0.082 C 
ATOM     61  H   LIG d   1       0.497  -1.768 -11.527  0.00  0.00     0.066 H 
ATOM     62  H   LIG d   1       1.123  -0.101 -11.525  0.00  0.00     0.066 H 
ATOM     63  H   LIG d   1       2.251  -1.475 -11.611  0.00  0.00     0.066 H 
ENDBRANCH  59  60
ENDBRANCH  57  59
ENDBRANCH   7  57
TORSDOF 8
ENDMDL
