MODEL 1
REMARK VINA RESULT:      -5.2      0.000      0.000
REMARK  9 active torsions:
REMARK  status: ('A' for Active; 'I' for Inactive)
REMARK    1  A    between atoms: C_1  and  C_2 
REMARK    2  A    between atoms: C_7  and  N_9 
REMARK    3  A    between atoms: N_9  and  C_10 
REMARK    4  A    between atoms: C_12  and  C_31 
REMARK    5  A    between atoms: C_15  and  O_30 
REMARK    6  A    between atoms: C_17  and  C_21 
REMARK    7  A    between atoms: C_21  and  C_23 
REMARK    8  A    between atoms: C_21  and  C_24 
REMARK       I    between atoms: C_24  and  N_26 
REMARK    9  A    between atoms: N_26  and  C_27 
ROOT
ATOM      1  C   LIG d   1       2.301  -2.015 -10.918  0.00  0.00     0.005 C 
ATOM      2  H   LIG d   1       3.062  -1.919 -11.692  0.00  0.00     0.036 H 
ATOM      3  C   LIG d   1       1.602  -3.359 -11.072  0.00  0.00     0.057 A 
ATOM      4  C   LIG d   1       1.924  -4.394 -10.255  0.00  0.00     0.015 A 
ATOM      5  S   LIG d   1       0.855  -5.688 -10.826  0.00  0.00    -0.057 SA
ATOM      6  C   LIG d   1       0.071  -4.778 -12.082  0.00  0.00     0.158 A 
ATOM      7  N   LIG d   1       0.656  -3.603 -11.979  0.00  0.00    -0.229 NA
ATOM      8  C   LIG d   1       2.931  -4.410  -9.159  0.00  0.00    -0.014 C 
ATOM      9  C   LIG d   1       3.838  -3.170  -9.293  0.00  0.00    -0.022 C 
ATOM     10  C   LIG d   1       2.964  -1.938  -9.536  0.00  0.00    -0.001 C 
ATOM     11  H   LIG d   1       2.195  -1.877  -8.767  0.00  0.00     0.034 H 
ATOM     12  C   LIG d   1       3.821  -0.669  -9.508  0.00  0.00     0.063 C 
ATOM     13  H   LIG d   1       4.552  -0.709 -10.317  0.00  0.00     0.060 H 
ATOM     14  C   LIG d   1       4.552  -0.552  -8.172  0.00  0.00    -0.004 C 
ATOM     15  H   LIG d   1       5.150   0.360  -8.162  0.00  0.00     0.033 H 
ATOM     16  C   LIG d   1       5.468  -1.768  -8.004  0.00  0.00    -0.047 C 
ATOM     17  C   LIG d   1       4.601  -3.024  -7.972  0.00  0.00    -0.047 C 
ATOM     18  H   LIG d   1       3.535  -5.314  -9.232  0.00  0.00     0.032 H 
ATOM     19  H   LIG d   1       2.422  -4.387  -8.196  0.00  0.00     0.032 H 
ATOM     20  H   LIG d   1       6.170  -1.815  -8.837  0.00  0.00     0.027 H 
ATOM     21  H   LIG d   1       6.016  -1.685  -7.065  0.00  0.00     0.027 H 
ATOM     22  H   LIG d   1       3.888  -2.964  -7.149  0.00  0.00     0.027 H 
ATOM     23  H   LIG d   1       5.241  -3.894  -7.827  0.00  0.00     0.027 H 
ENDROOT
BRANCH  14  24
ATOM     24  C   LIG d   1       3.533  -0.514  -7.032  0.00  0.00     0.038 C 
ATOM     25  H   LIG d   1       2.866  -1.372  -7.112  0.00  0.00     0.040 H 
BRANCH  24  26
ATOM     26  C   LIG d   1       2.717   0.777  -7.120  0.00  0.00    -0.054 C 
ATOM     27  H   LIG d   1       2.733   1.148  -8.144  0.00  0.00     0.024 H 
ATOM     28  H   LIG d   1       1.688   0.577  -6.821  0.00  0.00     0.024 H 
ATOM     29  H   LIG d   1       3.149   1.526  -6.454  0.00  0.00     0.024 H 
ENDBRANCH  24  26
BRANCH  24  30
ATOM     30  C   LIG d   1       4.256  -0.563  -5.711  0.00  0.00     0.216 C 
ATOM     31  O   LIG d   1       5.194   0.178  -5.504  0.00  0.00    -0.276 OA
ATOM     32  N   LIG d   1       3.861  -1.430  -4.758  0.00  0.00    -0.312 N 
ATOM     33  H   LIG d   1       3.111  -2.024  -4.923  0.00  0.00     0.149 HD
BRANCH  32  34
ATOM     34  C   LIG d   1       4.563  -1.478  -3.473  0.00  0.00     0.023 A 
ATOM     35  C   LIG d   1       3.985  -0.654  -2.321  0.00  0.00    -0.033 A 
ATOM     36  C   LIG d   1       3.860  -2.179  -2.309  0.00  0.00    -0.033 A 
ATOM     37  H   LIG d   1       4.689  -0.201  -1.623  0.00  0.00     0.028 H 
ATOM     38  H   LIG d   1       3.082  -0.075  -2.519  0.00  0.00     0.028 H 
ATOM     39  H   LIG d   1       2.874  -2.605  -2.499  0.00  0.00     0.028 H 
ATOM     40  H   LIG d   1       4.482  -2.730  -1.604  0.00  0.00     0.028 H 
ATOM     41  H   LIG d   1       5.648  -1.567  -3.533  0.00  0.00     0.050 H 
ENDBRANCH  32  34
ENDBRANCH  24  30
ENDBRANCH  14  24
BRANCH  12  42
ATOM     42  O   LIG d   1       2.982   0.473  -9.690  0.00  0.00    -0.391 OA
ATOM     43  H   LIG d   1       3.425   1.317  -9.527  0.00  0.00     0.210 HD
ENDBRANCH  12  42
BRANCH   1  44
ATOM     44  C   LIG d   1       1.283  -0.882 -11.061  0.00  0.00    -0.057 C 
ATOM     45  H   LIG d   1       1.192  -0.355 -10.111  0.00  0.00     0.024 H 
ATOM     46  H   LIG d   1       1.617  -0.189 -11.831  0.00  0.00     0.024 H 
ATOM     47  H   LIG d   1       0.314  -1.298 -11.339  0.00  0.00     0.024 H 
ENDBRANCH   1  44
BRANCH   9  48
ATOM     48  C   LIG d   1       4.824  -3.349 -10.448  0.00  0.00    -0.059 C 
ATOM     49  H   LIG d   1       5.841  -3.385 -10.057  0.00  0.00     0.024 H 
ATOM     50  H   LIG d   1       4.603  -4.278 -10.975  0.00  0.00     0.024 H 
ATOM     51  H   LIG d   1       4.731  -2.511 -11.139  0.00  0.00     0.024 H 
ENDBRANCH   9  48
BRANCH   6  52
ATOM     52  N   LIG d   1      -0.917  -5.185 -12.965  0.00  0.00    -0.327 N 
ATOM     53  H   LIG d   1      -0.809  -5.032 -13.917  0.00  0.00     0.148 HD
BRANCH  52  54
ATOM     54  C   LIG d   1      -2.124  -5.845 -12.461  0.00  0.00    -0.001 C 
ATOM     55  H   LIG d   1      -2.986  -5.522 -13.047  0.00  0.00     0.043 H 
ATOM     56  H   LIG d   1      -2.011  -6.926 -12.549  0.00  0.00     0.043 H 
ATOM     57  H   LIG d   1      -2.274  -5.579 -11.416  0.00  0.00     0.043 H 
ENDBRANCH  52  54
ENDBRANCH   6  52
TORSDOF 9
ENDMDL
MODEL 2
REMARK VINA RESULT:      -5.1      2.404      2.822
REMARK  9 active torsions:
REMARK  status: ('A' for Active; 'I' for Inactive)
REMARK    1  A    between atoms: C_1  and  C_2 
REMARK    2  A    between atoms: C_7  and  N_9 
REMARK    3  A    between atoms: N_9  and  C_10 
REMARK    4  A    between atoms: C_12  and  C_31 
REMARK    5  A    between atoms: C_15  and  O_30 
REMARK    6  A    between atoms: C_17  and  C_21 
REMARK    7  A    between atoms: C_21  and  C_23 
REMARK    8  A    between atoms: C_21  and  C_24 
REMARK       I    between atoms: C_24  and  N_26 
REMARK    9  A    between atoms: N_26  and  C_27 
ROOT
ATOM      1  C   LIG d   1       4.335  -0.416 -10.964  0.00  0.00     0.005 C 
ATOM      2  H   LIG d   1       5.409  -0.500 -11.132  0.00  0.00     0.036 H 
ATOM      3  C   LIG d   1       3.608  -1.376 -11.895  0.00  0.00     0.057 A 
ATOM      4  C   LIG d   1       3.135  -2.558 -11.424  0.00  0.00     0.015 A 
ATOM      5  S   LIG d   1       2.390  -3.280 -12.862  0.00  0.00    -0.057 SA
ATOM      6  C   LIG d   1       2.751  -1.984 -13.963  0.00  0.00     0.158 A 
ATOM      7  N   LIG d   1       3.386  -1.131 -13.186  0.00  0.00    -0.229 NA
ATOM      8  C   LIG d   1       3.233  -3.090 -10.038  0.00  0.00    -0.014 C 
ATOM      9  C   LIG d   1       4.271  -2.263  -9.254  0.00  0.00    -0.022 C 
ATOM     10  C   LIG d   1       4.016  -0.775  -9.507  0.00  0.00    -0.001 C 
ATOM     11  H   LIG d   1       2.973  -0.543  -9.294  0.00  0.00     0.034 H 
ATOM     12  C   LIG d   1       4.925   0.075  -8.613  0.00  0.00     0.063 C 
ATOM     13  H   LIG d   1       5.967  -0.119  -8.870  0.00  0.00     0.060 H 
ATOM     14  C   LIG d   1       4.694  -0.267  -7.143  0.00  0.00    -0.004 C 
ATOM     15  H   LIG d   1       5.338   0.352  -6.519  0.00  0.00     0.033 H 
ATOM     16  C   LIG d   1       5.031  -1.744  -6.922  0.00  0.00    -0.047 C 
ATOM     17  C   LIG d   1       4.080  -2.588  -7.769  0.00  0.00    -0.047 C 
ATOM     18  H   LIG d   1       3.546  -4.134 -10.069  0.00  0.00     0.032 H 
ATOM     19  H   LIG d   1       2.262  -3.015  -9.549  0.00  0.00     0.032 H 
ATOM     20  H   LIG d   1       6.064  -1.932  -7.215  0.00  0.00     0.027 H 
ATOM     21  H   LIG d   1       4.895  -1.997  -5.870  0.00  0.00     0.027 H 
ATOM     22  H   LIG d   1       3.048  -2.383  -7.486  0.00  0.00     0.027 H 
ATOM     23  H   LIG d   1       4.295  -3.643  -7.600  0.00  0.00     0.027 H 
ENDROOT
BRANCH  14  24
ATOM     24  C   LIG d   1       3.229  -0.014  -6.782  0.00  0.00     0.038 C 
ATOM     25  H   LIG d   1       2.614  -0.827  -7.167  0.00  0.00     0.040 H 
BRANCH  24  26
ATOM     26  C   LIG d   1       2.772   1.308  -7.400  0.00  0.00    -0.054 C 
ATOM     27  H   LIG d   1       2.480   1.998  -6.609  0.00  0.00     0.024 H 
ATOM     28  H   LIG d   1       3.590   1.742  -7.976  0.00  0.00     0.024 H 
ATOM     29  H   LIG d   1       1.921   1.127  -8.058  0.00  0.00     0.024 H 
ENDBRANCH  24  26
BRANCH  24  30
ATOM     30  C   LIG d   1       3.086   0.056  -5.283  0.00  0.00     0.216 C 
ATOM     31  O   LIG d   1       2.840   1.116  -4.746  0.00  0.00    -0.276 OA
ATOM     32  N   LIG d   1       3.231  -1.058  -4.539  0.00  0.00    -0.312 N 
ATOM     33  H   LIG d   1       3.428  -1.906  -4.969  0.00  0.00     0.149 HD
BRANCH  32  34
ATOM     34  C   LIG d   1       3.091  -0.991  -3.082  0.00  0.00     0.023 A 
ATOM     35  C   LIG d   1       3.767  -2.087  -2.256  0.00  0.00    -0.033 A 
ATOM     36  C   LIG d   1       4.345  -0.669  -2.266  0.00  0.00    -0.033 A 
ATOM     37  H   LIG d   1       3.261  -2.417  -1.349  0.00  0.00     0.028 H 
ATOM     38  H   LIG d   1       4.316  -2.859  -2.796  0.00  0.00     0.028 H 
ATOM     39  H   LIG d   1       5.274  -0.508  -2.814  0.00  0.00     0.028 H 
ATOM     40  H   LIG d   1       4.219  -0.068  -1.367  0.00  0.00     0.028 H 
ATOM     41  H   LIG d   1       2.141  -0.601  -2.719  0.00  0.00     0.050 H 
ENDBRANCH  32  34
ENDBRANCH  24  30
ENDBRANCH  14  24
BRANCH  12  42
ATOM     42  O   LIG d   1       4.638   1.458  -8.829  0.00  0.00    -0.391 OA
ATOM     43  H   LIG d   1       5.364   1.952  -9.234  0.00  0.00     0.210 HD
ENDBRANCH  12  42
BRANCH   1  44
ATOM     44  C   LIG d   1       3.887   1.019 -11.246  0.00  0.00    -0.057 C 
ATOM     45  H   LIG d   1       3.061   1.008 -11.956  0.00  0.00     0.024 H 
ATOM     46  H   LIG d   1       3.562   1.487 -10.318  0.00  0.00     0.024 H 
ATOM     47  H   LIG d   1       4.720   1.584 -11.666  0.00  0.00     0.024 H 
ENDBRANCH   1  44
BRANCH   9  48
ATOM     48  C   LIG d   1       5.691  -2.631  -9.691  0.00  0.00    -0.059 C 
ATOM     49  H   LIG d   1       5.750  -3.705  -9.867  0.00  0.00     0.024 H 
ATOM     50  H   LIG d   1       5.939  -2.097 -10.609  0.00  0.00     0.024 H 
ATOM     51  H   LIG d   1       6.396  -2.353  -8.908  0.00  0.00     0.024 H 
ENDBRANCH   9  48
BRANCH   6  52
ATOM     52  N   LIG d   1       2.448  -1.877 -15.311  0.00  0.00    -0.327 N 
ATOM     53  H   LIG d   1       1.694  -2.363 -15.678  0.00  0.00     0.148 HD
BRANCH  52  54
ATOM     54  C   LIG d   1       3.268  -1.030 -16.182  0.00  0.00    -0.001 C 
ATOM     55  H   LIG d   1       2.643  -0.604 -16.967  0.00  0.00     0.043 H 
ATOM     56  H   LIG d   1       3.711  -0.226 -15.594  0.00  0.00     0.043 H 
ATOM     57  H   LIG d   1       4.059  -1.630 -16.631  0.00  0.00     0.043 H 
ENDBRANCH  52  54
ENDBRANCH   6  52
TORSDOF 9
ENDMDL
MODEL 3
REMARK VINA RESULT:      -5.1      4.594      9.031
REMARK  9 active torsions:
REMARK  status: ('A' for Active; 'I' for Inactive)
REMARK    1  A    between atoms: C_1  and  C_2 
REMARK    2  A    between atoms: C_7  and  N_9 
REMARK    3  A    between atoms: N_9  and  C_10 
REMARK    4  A    between atoms: C_12  and  C_31 
REMARK    5  A    between atoms: C_15  and  O_30 
REMARK    6  A    between atoms: C_17  and  C_21 
REMARK    7  A    between atoms: C_21  and  C_23 
REMARK    8  A    between atoms: C_21  and  C_24 
REMARK       I    between atoms: C_24  and  N_26 
REMARK    9  A    between atoms: N_26  and  C_27 
ROOT
ATOM      1  C   LIG d   1       7.008   0.383  -4.245  0.00  0.00     0.005 C 
ATOM      2  H   LIG d   1       7.506  -0.570  -4.070  0.00  0.00     0.036 H 
ATOM      3  C   LIG d   1       8.058   1.481  -4.359  0.00  0.00     0.057 A 
ATOM      4  C   LIG d   1       8.418   1.957  -5.577  0.00  0.00     0.015 A 
ATOM      5  S   LIG d   1       9.631   3.185  -5.172  0.00  0.00    -0.057 SA
ATOM      6  C   LIG d   1       9.571   2.983  -3.446  0.00  0.00     0.158 A 
ATOM      7  N   LIG d   1       8.668   2.034  -3.311  0.00  0.00    -0.229 NA
ATOM      8  C   LIG d   1       7.906   1.533  -6.909  0.00  0.00    -0.014 C 
ATOM      9  C   LIG d   1       7.140   0.204  -6.752  0.00  0.00    -0.022 C 
ATOM     10  C   LIG d   1       6.202   0.309  -5.548  0.00  0.00    -0.001 C 
ATOM     11  H   LIG d   1       5.582   1.199  -5.644  0.00  0.00     0.034 H 
ATOM     12  C   LIG d   1       5.309  -0.934  -5.466  0.00  0.00     0.063 C 
ATOM     13  H   LIG d   1       5.930  -1.816  -5.312  0.00  0.00     0.060 H 
ATOM     14  C   LIG d   1       4.508  -1.098  -6.756  0.00  0.00    -0.004 C 
ATOM     15  H   LIG d   1       3.870  -1.978  -6.680  0.00  0.00     0.033 H 
ATOM     16  C   LIG d   1       5.486  -1.272  -7.923  0.00  0.00    -0.047 C 
ATOM     17  C   LIG d   1       6.331  -0.005  -8.037  0.00  0.00    -0.047 C 
ATOM     18  H   LIG d   1       8.742   1.395  -7.594  0.00  0.00     0.032 H 
ATOM     19  H   LIG d   1       7.235   2.296  -7.301  0.00  0.00     0.032 H 
ATOM     20  H   LIG d   1       6.124  -2.136  -7.739  0.00  0.00     0.027 H 
ATOM     21  H   LIG d   1       4.928  -1.416  -8.848  0.00  0.00     0.027 H 
ATOM     22  H   LIG d   1       5.687   0.859  -8.201  0.00  0.00     0.027 H 
ATOM     23  H   LIG d   1       7.014  -0.108  -8.880  0.00  0.00     0.027 H 
ENDROOT
BRANCH  14  24
ATOM     24  C   LIG d   1       3.647   0.145  -6.987  0.00  0.00     0.038 C 
ATOM     25  H   LIG d   1       4.284   1.030  -7.010  0.00  0.00     0.040 H 
BRANCH  24  26
ATOM     26  C   LIG d   1       2.629   0.278  -5.855  0.00  0.00    -0.054 C 
ATOM     27  H   LIG d   1       2.885  -0.413  -5.053  0.00  0.00     0.024 H 
ATOM     28  H   LIG d   1       2.642   1.299  -5.473  0.00  0.00     0.024 H 
ATOM     29  H   LIG d   1       1.632   0.045  -6.232  0.00  0.00     0.024 H 
ENDBRANCH  24  26
BRANCH  24  30
ATOM     30  C   LIG d   1       2.923   0.016  -8.303  0.00  0.00     0.216 C 
ATOM     31  O   LIG d   1       2.886   0.957  -9.070  0.00  0.00    -0.276 OA
ATOM     32  N   LIG d   1       2.317  -1.142  -8.629  0.00  0.00    -0.312 N 
ATOM     33  H   LIG d   1       2.346  -1.894  -8.016  0.00  0.00     0.149 HD
BRANCH  32  34
ATOM     34  C   LIG d   1       1.613  -1.267  -9.908  0.00  0.00     0.023 A 
ATOM     35  C   LIG d   1       2.398  -1.830 -11.094  0.00  0.00    -0.033 A 
ATOM     36  C   LIG d   1       1.319  -2.679 -10.418  0.00  0.00    -0.033 A 
ATOM     37  H   LIG d   1       2.176  -1.427 -12.081  0.00  0.00     0.028 H 
ATOM     38  H   LIG d   1       3.439  -2.107 -10.923  0.00  0.00     0.028 H 
ATOM     39  H   LIG d   1       1.650  -3.516  -9.801  0.00  0.00     0.028 H 
ATOM     40  H   LIG d   1       0.388  -2.835 -10.960  0.00  0.00     0.028 H 
ATOM     41  H   LIG d   1       0.874  -0.493 -10.115  0.00  0.00     0.050 H 
ENDBRANCH  32  34
ENDBRANCH  24  30
ENDBRANCH  14  24
BRANCH  12  42
ATOM     42  O   LIG d   1       4.408  -0.795  -4.365  0.00  0.00    -0.391 OA
ATOM     43  H   LIG d   1       4.742  -0.234  -3.652  0.00  0.00     0.210 HD
ENDBRANCH  12  42
BRANCH   1  44
ATOM     44  C   LIG d   1       6.066   0.686  -3.078  0.00  0.00    -0.057 C 
ATOM     45  H   LIG d   1       5.435  -0.181  -2.887  0.00  0.00     0.024 H 
ATOM     46  H   LIG d   1       6.651   0.914  -2.188  0.00  0.00     0.024 H 
ATOM     47  H   LIG d   1       5.440   1.542  -3.331  0.00  0.00     0.024 H 
ENDBRANCH   1  44
BRANCH   9  48
ATOM     48  C   LIG d   1       8.117  -0.957  -6.556  0.00  0.00    -0.059 C 
ATOM     49  H   LIG d   1       8.957  -0.627  -5.944  0.00  0.00     0.024 H 
ATOM     50  H   LIG d   1       7.606  -1.782  -6.057  0.00  0.00     0.024 H 
ATOM     51  H   LIG d   1       8.484  -1.292  -7.526  0.00  0.00     0.024 H 
ENDBRANCH   9  48
BRANCH   6  52
ATOM     52  N   LIG d   1      10.288   3.650  -2.466  0.00  0.00    -0.327 N 
ATOM     53  H   LIG d   1      10.862   3.152  -1.863  0.00  0.00     0.148 HD
BRANCH  52  54
ATOM     54  C   LIG d   1      10.179   5.106  -2.340  0.00  0.00    -0.001 C 
ATOM     55  H   LIG d   1      11.103   5.570  -2.684  0.00  0.00     0.043 H 
ATOM     56  H   LIG d   1       9.346   5.462  -2.946  0.00  0.00     0.043 H 
ATOM     57  H   LIG d   1      10.007   5.367  -1.296  0.00  0.00     0.043 H 
ENDBRANCH  52  54
ENDBRANCH   6  52
TORSDOF 9
ENDMDL
MODEL 4
REMARK VINA RESULT:      -4.9      6.294      9.059
REMARK  9 active torsions:
REMARK  status: ('A' for Active; 'I' for Inactive)
REMARK    1  A    between atoms: C_1  and  C_2 
REMARK    2  A    between atoms: C_7  and  N_9 
REMARK    3  A    between atoms: N_9  and  C_10 
REMARK    4  A    between atoms: C_12  and  C_31 
REMARK    5  A    between atoms: C_15  and  O_30 
REMARK    6  A    between atoms: C_17  and  C_21 
REMARK    7  A    between atoms: C_21  and  C_23 
REMARK    8  A    between atoms: C_21  and  C_24 
REMARK       I    between atoms: C_24  and  N_26 
REMARK    9  A    between atoms: N_26  and  C_27 
ROOT
ATOM      1  C   LIG d   1       8.570  -6.463  -4.816  0.00  0.00     0.005 C 
ATOM      2  H   LIG d   1       9.253  -6.436  -5.664  0.00  0.00     0.036 H 
ATOM      3  C   LIG d   1       9.323  -6.952  -3.585  0.00  0.00     0.057 A 
ATOM      4  C   LIG d   1       9.742  -6.067  -2.646  0.00  0.00     0.015 A 
ATOM      5  S   LIG d   1      10.538  -7.112  -1.455  0.00  0.00    -0.057 SA
ATOM      6  C   LIG d   1      10.259  -8.620  -2.274  0.00  0.00     0.158 A 
ATOM      7  N   LIG d   1       9.607  -8.232  -3.351  0.00  0.00    -0.229 NA
ATOM      8  C   LIG d   1       9.564  -4.589  -2.642  0.00  0.00    -0.014 C 
ATOM      9  C   LIG d   1       9.133  -4.132  -4.049  0.00  0.00    -0.022 C 
ATOM     10  C   LIG d   1       8.021  -5.055  -4.554  0.00  0.00    -0.001 C 
ATOM     11  H   LIG d   1       7.225  -5.106  -3.812  0.00  0.00     0.034 H 
ATOM     12  C   LIG d   1       7.458  -4.527  -5.877  0.00  0.00     0.063 C 
ATOM     13  H   LIG d   1       8.245  -4.532  -6.632  0.00  0.00     0.060 H 
ATOM     14  C   LIG d   1       6.935  -3.103  -5.702  0.00  0.00    -0.004 C 
ATOM     15  H   LIG d   1       6.528  -2.744  -6.647  0.00  0.00     0.033 H 
ATOM     16  C   LIG d   1       8.095  -2.202  -5.268  0.00  0.00    -0.047 C 
ATOM     17  C   LIG d   1       8.611  -2.697  -3.918  0.00  0.00    -0.047 C 
ATOM     18  H   LIG d   1      10.505  -4.110  -2.374  0.00  0.00     0.032 H 
ATOM     19  H   LIG d   1       8.797  -4.316  -1.919  0.00  0.00     0.032 H 
ATOM     20  H   LIG d   1       8.889  -2.244  -6.013  0.00  0.00     0.027 H 
ATOM     21  H   LIG d   1       7.742  -1.176  -5.163  0.00  0.00     0.027 H 
ATOM     22  H   LIG d   1       7.809  -2.672  -3.180  0.00  0.00     0.027 H 
ATOM     23  H   LIG d   1       9.422  -2.048  -3.588  0.00  0.00     0.027 H 
ENDROOT
BRANCH  14  24
ATOM     24  C   LIG d   1       5.843  -3.087  -4.631  0.00  0.00     0.038 C 
ATOM     25  H   LIG d   1       6.258  -3.428  -3.682  0.00  0.00     0.040 H 
BRANCH  24  26
ATOM     26  C   LIG d   1       4.702  -4.014  -5.051  0.00  0.00    -0.054 C 
ATOM     27  H   LIG d   1       3.961  -3.447  -5.614  0.00  0.00     0.024 H 
ATOM     28  H   LIG d   1       5.097  -4.816  -5.675  0.00  0.00     0.024 H 
ATOM     29  H   LIG d   1       4.235  -4.442  -4.163  0.00  0.00     0.024 H 
ENDBRANCH  24  26
BRANCH  24  30
ATOM     30  C   LIG d   1       5.317  -1.683  -4.471  0.00  0.00     0.216 C 
ATOM     31  O   LIG d   1       4.867  -1.091  -5.431  0.00  0.00    -0.276 OA
ATOM     32  N   LIG d   1       5.345  -1.086  -3.264  0.00  0.00    -0.312 N 
ATOM     33  H   LIG d   1       5.704  -1.559  -2.497  0.00  0.00     0.149 HD
BRANCH  32  34
ATOM     34  C   LIG d   1       4.833   0.279  -3.109  0.00  0.00     0.023 A 
ATOM     35  C   LIG d   1       3.416   0.443  -2.555  0.00  0.00    -0.033 A 
ATOM     36  C   LIG d   1       4.624   0.797  -1.684  0.00  0.00    -0.033 A 
ATOM     37  H   LIG d   1       2.817   1.266  -2.943  0.00  0.00     0.028 H 
ATOM     38  H   LIG d   1       2.864  -0.464  -2.307  0.00  0.00     0.028 H 
ATOM     39  H   LIG d   1       4.867   0.123  -0.862  0.00  0.00     0.028 H 
ATOM     40  H   LIG d   1       4.819   1.853  -1.499  0.00  0.00     0.028 H 
ATOM     41  H   LIG d   1       5.166   0.994  -3.861  0.00  0.00     0.050 H 
ENDBRANCH  32  34
ENDBRANCH  24  30
ENDBRANCH  14  24
BRANCH  12  42
ATOM     42  O   LIG d   1       6.390  -5.374  -6.307  0.00  0.00    -0.391 OA
ATOM     43  H   LIG d   1       5.542  -4.918  -6.406  0.00  0.00     0.210 HD
ENDBRANCH  12  42
BRANCH   1  44
ATOM     44  C   LIG d   1       7.411  -7.413  -5.125  0.00  0.00    -0.057 C 
ATOM     45  H   LIG d   1       6.467  -6.880  -5.020  0.00  0.00     0.024 H 
ATOM     46  H   LIG d   1       7.508  -7.785  -6.144  0.00  0.00     0.024 H 
ATOM     47  H   LIG d   1       7.434  -8.252  -4.429  0.00  0.00     0.024 H 
ENDBRANCH   1  44
BRANCH   9  48
ATOM     48  C   LIG d   1      10.321  -4.170  -5.013  0.00  0.00    -0.059 C 
ATOM     49  H   LIG d   1       9.989  -3.882  -6.011  0.00  0.00     0.024 H 
ATOM     50  H   LIG d   1      11.090  -3.476  -4.670  0.00  0.00     0.024 H 
ATOM     51  H   LIG d   1      10.732  -5.179  -5.045  0.00  0.00     0.024 H 
ENDBRANCH   9  48
BRANCH   6  52
ATOM     52  N   LIG d   1      10.629  -9.900  -1.893  0.00  0.00    -0.327 N 
ATOM     53  H   LIG d   1      11.082 -10.481  -2.523  0.00  0.00     0.148 HD
BRANCH  52  54
ATOM     54  C   LIG d   1      10.333 -10.375  -0.538  0.00  0.00    -0.001 C 
ATOM     55  H   LIG d   1      10.328 -11.466  -0.529  0.00  0.00     0.043 H 
ATOM     56  H   LIG d   1      11.096 -10.010   0.150  0.00  0.00     0.043 H 
ATOM     57  H   LIG d   1       9.357 -10.005  -0.229  0.00  0.00     0.043 H 
ENDBRANCH  52  54
ENDBRANCH   6  52
TORSDOF 9
ENDMDL
MODEL 5
REMARK VINA RESULT:      -4.8      2.736      7.748
REMARK  9 active torsions:
REMARK  status: ('A' for Active; 'I' for Inactive)
REMARK    1  A    between atoms: C_1  and  C_2 
REMARK    2  A    between atoms: C_7  and  N_9 
REMARK    3  A    between atoms: N_9  and  C_10 
REMARK    4  A    between atoms: C_12  and  C_31 
REMARK    5  A    between atoms: C_15  and  O_30 
REMARK    6  A    between atoms: C_17  and  C_21 
REMARK    7  A    between atoms: C_21  and  C_23 
REMARK    8  A    between atoms: C_21  and  C_24 
REMARK       I    between atoms: C_24  and  N_26 
REMARK    9  A    between atoms: N_26  and  C_27 
ROOT
ATOM      1  C   LIG d   1       4.628  -1.578  -7.178  0.00  0.00     0.005 C 
ATOM      2  H   LIG d   1       5.605  -1.163  -7.421  0.00  0.00     0.036 H 
ATOM      3  C   LIG d   1       4.049  -0.830  -5.984  0.00  0.00     0.057 A 
ATOM      4  C   LIG d   1       3.101   0.122  -6.170  0.00  0.00     0.015 A 
ATOM      5  S   LIG d   1       2.770   0.669  -4.516  0.00  0.00    -0.057 SA
ATOM      6  C   LIG d   1       3.892  -0.388  -3.713  0.00  0.00     0.158 A 
ATOM      7  N   LIG d   1       4.415  -1.053  -4.723  0.00  0.00    -0.229 NA
ATOM      8  C   LIG d   1       2.504   0.575  -7.456  0.00  0.00    -0.014 C 
ATOM      9  C   LIG d   1       3.369   0.057  -8.621  0.00  0.00    -0.022 C 
ATOM     10  C   LIG d   1       3.691  -1.421  -8.383  0.00  0.00    -0.001 C 
ATOM     11  H   LIG d   1       2.768  -1.971  -8.203  0.00  0.00     0.034 H 
ATOM     12  C   LIG d   1       4.409  -2.007  -9.604  0.00  0.00     0.063 C 
ATOM     13  H   LIG d   1       5.359  -1.491  -9.746  0.00  0.00     0.060 H 
ATOM     14  C   LIG d   1       3.550  -1.840 -10.856  0.00  0.00    -0.004 C 
ATOM     15  H   LIG d   1       4.068  -2.271 -11.713  0.00  0.00     0.033 H 
ATOM     16  C   LIG d   1       3.315  -0.346 -11.095  0.00  0.00    -0.047 C 
ATOM     17  C   LIG d   1       2.545   0.219  -9.903  0.00  0.00    -0.047 C 
ATOM     18  H   LIG d   1       2.474   1.664  -7.480  0.00  0.00     0.032 H 
ATOM     19  H   LIG d   1       1.493   0.180  -7.548  0.00  0.00     0.032 H 
ATOM     20  H   LIG d   1       4.273   0.163 -11.201  0.00  0.00     0.027 H 
ATOM     21  H   LIG d   1       2.724  -0.210 -12.001  0.00  0.00     0.027 H 
ATOM     22  H   LIG d   1       1.597  -0.306  -9.790  0.00  0.00     0.027 H 
ATOM     23  H   LIG d   1       2.350   1.277 -10.075  0.00  0.00     0.027 H 
ENDROOT
BRANCH  14  24
ATOM     24  C   LIG d   1       2.208  -2.547 -10.655  0.00  0.00     0.038 C 
ATOM     25  H   LIG d   1       1.647  -2.043  -9.868  0.00  0.00     0.040 H 
BRANCH  24  26
ATOM     26  C   LIG d   1       2.453  -4.003 -10.256  0.00  0.00    -0.054 C 
ATOM     27  H   LIG d   1       3.447  -4.098  -9.821  0.00  0.00     0.024 H 
ATOM     28  H   LIG d   1       1.705  -4.309  -9.525  0.00  0.00     0.024 H 
ATOM     29  H   LIG d   1       2.379  -4.639 -11.139  0.00  0.00     0.024 H 
ENDBRANCH  24  26
BRANCH  24  30
ATOM     30  C   LIG d   1       1.420  -2.502 -11.939  0.00  0.00     0.216 C 
ATOM     31  O   LIG d   1       1.913  -2.917 -12.968  0.00  0.00    -0.276 OA
ATOM     32  N   LIG d   1       0.169  -2.001 -11.945  0.00  0.00    -0.312 N 
ATOM     33  H   LIG d   1      -0.224  -1.669 -11.123  0.00  0.00     0.149 HD
BRANCH  32  34
ATOM     34  C   LIG d   1      -0.597  -1.959 -13.193  0.00  0.00     0.023 A 
ATOM     35  C   LIG d   1      -2.007  -2.551 -13.177  0.00  0.00    -0.033 A 
ATOM     36  C   LIG d   1      -1.815  -1.034 -13.243  0.00  0.00    -0.033 A 
ATOM     37  H   LIG d   1      -2.352  -3.054 -14.080  0.00  0.00     0.028 H 
ATOM     38  H   LIG d   1      -2.366  -2.973 -12.238  0.00  0.00     0.028 H 
ATOM     39  H   LIG d   1      -2.046  -0.457 -12.348  0.00  0.00     0.028 H 
ATOM     40  H   LIG d   1      -2.033  -0.540 -14.190  0.00  0.00     0.028 H 
ATOM     41  H   LIG d   1      -0.014  -2.073 -14.107  0.00  0.00     0.050 H 
ENDBRANCH  32  34
ENDBRANCH  24  30
ENDBRANCH  14  24
BRANCH  12  42
ATOM     42  O   LIG d   1       4.657  -3.397  -9.382  0.00  0.00    -0.391 OA
ATOM     43  H   LIG d   1       4.230  -3.751  -8.591  0.00  0.00     0.210 HD
ENDBRANCH  12  42
BRANCH   1  44
ATOM     44  C   LIG d   1       4.775  -3.063  -6.838  0.00  0.00    -0.057 C 
ATOM     45  H   LIG d   1       3.967  -3.624  -7.305  0.00  0.00     0.024 H 
ATOM     46  H   LIG d   1       5.733  -3.427  -7.208  0.00  0.00     0.024 H 
ATOM     47  H   LIG d   1       4.730  -3.193  -5.756  0.00  0.00     0.024 H 
ENDBRANCH   1  44
BRANCH   9  48
ATOM     48  C   LIG d   1       4.665   0.863  -8.728  0.00  0.00    -0.059 C 
ATOM     49  H   LIG d   1       4.460   1.819  -9.210  0.00  0.00     0.024 H 
ATOM     50  H   LIG d   1       5.068   1.038  -7.730  0.00  0.00     0.024 H 
ATOM     51  H   LIG d   1       5.392   0.307  -9.320  0.00  0.00     0.024 H 
ENDBRANCH   9  48
BRANCH   6  52
ATOM     52  N   LIG d   1       4.166  -0.501  -2.360  0.00  0.00    -0.327 N 
ATOM     53  H   LIG d   1       4.028  -1.348  -1.906  0.00  0.00     0.148 HD
BRANCH  52  54
ATOM     54  C   LIG d   1       4.665   0.657  -1.613  0.00  0.00    -0.001 C 
ATOM     55  H   LIG d   1       5.597   0.393  -1.113  0.00  0.00     0.043 H 
ATOM     56  H   LIG d   1       4.843   1.483  -2.301  0.00  0.00     0.043 H 
ATOM     57  H   LIG d   1       3.925   0.955  -0.870  0.00  0.00     0.043 H 
ENDBRANCH  52  54
ENDBRANCH   6  52
TORSDOF 9
ENDMDL
MODEL 6
REMARK VINA RESULT:      -4.8      4.539      6.614
REMARK  9 active torsions:
REMARK  status: ('A' for Active; 'I' for Inactive)
REMARK    1  A    between atoms: C_1  and  C_2 
REMARK    2  A    between atoms: C_7  and  N_9 
REMARK    3  A    between atoms: N_9  and  C_10 
REMARK    4  A    between atoms: C_12  and  C_31 
REMARK    5  A    between atoms: C_15  and  O_30 
REMARK    6  A    between atoms: C_17  and  C_21 
REMARK    7  A    between atoms: C_21  and  C_23 
REMARK    8  A    between atoms: C_21  and  C_24 
REMARK       I    between atoms: C_24  and  N_26 
REMARK    9  A    between atoms: N_26  and  C_27 
ROOT
ATOM      1  C   LIG d   1       6.434  -4.177  -4.868  0.00  0.00     0.005 C 
ATOM      2  H   LIG d   1       6.061  -4.517  -3.903  0.00  0.00     0.036 H 
ATOM      3  C   LIG d   1       5.474  -4.629  -5.961  0.00  0.00     0.057 A 
ATOM      4  C   LIG d   1       4.589  -3.752  -6.498  0.00  0.00     0.015 A 
ATOM      5  S   LIG d   1       3.733  -4.745  -7.692  0.00  0.00    -0.057 SA
ATOM      6  C   LIG d   1       4.598  -6.224  -7.398  0.00  0.00     0.158 A 
ATOM      7  N   LIG d   1       5.441  -5.868  -6.452  0.00  0.00    -0.229 NA
ATOM      8  C   LIG d   1       4.404  -2.317  -6.151  0.00  0.00    -0.014 C 
ATOM      9  C   LIG d   1       5.129  -2.024  -4.822  0.00  0.00    -0.022 C 
ATOM     10  C   LIG d   1       6.527  -2.645  -4.871  0.00  0.00    -0.001 C 
ATOM     11  H   LIG d   1       7.043  -2.313  -5.771  0.00  0.00     0.034 H 
ATOM     12  C   LIG d   1       7.332  -2.231  -3.635  0.00  0.00     0.063 C 
ATOM     13  H   LIG d   1       6.841  -2.616  -2.740  0.00  0.00     0.060 H 
ATOM     14  C   LIG d   1       7.424  -0.709  -3.546  0.00  0.00    -0.004 C 
ATOM     15  H   LIG d   1       8.007  -0.430  -2.669  0.00  0.00     0.033 H 
ATOM     16  C   LIG d   1       6.009  -0.136  -3.426  0.00  0.00    -0.047 C 
ATOM     17  C   LIG d   1       5.232  -0.501  -4.690  0.00  0.00    -0.047 C 
ATOM     18  H   LIG d   1       3.341  -2.102  -6.041  0.00  0.00     0.032 H 
ATOM     19  H   LIG d   1       4.823  -1.693  -6.940  0.00  0.00     0.032 H 
ATOM     20  H   LIG d   1       5.518  -0.555  -2.548  0.00  0.00     0.027 H 
ATOM     21  H   LIG d   1       6.061   0.949  -3.337  0.00  0.00     0.027 H 
ATOM     22  H   LIG d   1       5.736  -0.096  -5.567  0.00  0.00     0.027 H 
ATOM     23  H   LIG d   1       4.230  -0.076  -4.626  0.00  0.00     0.027 H 
ENDROOT
BRANCH  14  24
ATOM     24  C   LIG d   1       8.095  -0.163  -4.808  0.00  0.00     0.038 C 
ATOM     25  H   LIG d   1       7.443  -0.326  -5.666  0.00  0.00     0.040 H 
BRANCH  24  26
ATOM     26  C   LIG d   1       9.425  -0.885  -5.032  0.00  0.00    -0.054 C 
ATOM     27  H   LIG d   1      10.234  -0.156  -5.056  0.00  0.00     0.024 H 
ATOM     28  H   LIG d   1       9.596  -1.591  -4.220  0.00  0.00     0.024 H 
ATOM     29  H   LIG d   1       9.391  -1.423  -5.981  0.00  0.00     0.024 H 
ENDBRANCH  24  26
BRANCH  24  30
ATOM     30  C   LIG d   1       8.346   1.314  -4.644  0.00  0.00     0.216 C 
ATOM     31  O   LIG d   1       7.815   2.107  -5.394  0.00  0.00    -0.276 OA
ATOM     32  N   LIG d   1       9.159   1.755  -3.664  0.00  0.00    -0.312 N 
ATOM     33  H   LIG d   1       9.583   1.122  -3.064  0.00  0.00     0.149 HD
BRANCH  32  34
ATOM     34  C   LIG d   1       9.402   3.191  -3.504  0.00  0.00     0.023 A 
ATOM     35  C   LIG d   1      10.584   3.615  -2.630  0.00  0.00    -0.033 A 
ATOM     36  C   LIG d   1      10.661   3.771  -4.151  0.00  0.00    -0.033 A 
ATOM     37  H   LIG d   1      10.471   4.521  -2.036  0.00  0.00     0.028 H 
ATOM     38  H   LIG d   1      11.181   2.825  -2.173  0.00  0.00     0.028 H 
ATOM     39  H   LIG d   1      11.309   3.084  -4.695  0.00  0.00     0.028 H 
ATOM     40  H   LIG d   1      10.599   4.780  -4.557  0.00  0.00     0.028 H 
ATOM     41  H   LIG d   1       8.511   3.819  -3.484  0.00  0.00     0.050 H 
ENDBRANCH  32  34
ENDBRANCH  24  30
ENDBRANCH  14  24
BRANCH  12  42
ATOM     42  O   LIG d   1       8.648  -2.781  -3.722  0.00  0.00    -0.391 OA
ATOM     43  H   LIG d   1       9.293  -2.193  -4.138  0.00  0.00     0.210 HD
ENDBRANCH  12  42
BRANCH   1  44
ATOM     44  C   LIG d   1       7.820  -4.773  -5.117  0.00  0.00    -0.057 C 
ATOM     45  H   LIG d   1       8.583  -4.046  -4.840  0.00  0.00     0.024 H 
ATOM     46  H   LIG d   1       7.941  -5.674  -4.517  0.00  0.00     0.024 H 
ATOM     47  H   LIG d   1       7.924  -5.023  -6.174  0.00  0.00     0.024 H 
ENDBRANCH   1  44
BRANCH   9  48
ATOM     48  C   LIG d   1       4.342  -2.599  -3.643  0.00  0.00    -0.059 C 
ATOM     49  H   LIG d   1       3.888  -3.546  -3.936  0.00  0.00     0.024 H 
ATOM     50  H   LIG d   1       5.016  -2.763  -2.801  0.00  0.00     0.024 H 
ATOM     51  H   LIG d   1       3.561  -1.897  -3.351  0.00  0.00     0.024 H 
ENDBRANCH   9  48
BRANCH   6  52
ATOM     52  N   LIG d   1       4.440  -7.460  -8.005  0.00  0.00    -0.327 N 
ATOM     53  H   LIG d   1       4.256  -7.513  -8.956  0.00  0.00     0.148 HD
BRANCH  52  54
ATOM     54  C   LIG d   1       4.550  -8.686  -7.210  0.00  0.00    -0.001 C 
ATOM     55  H   LIG d   1       5.136  -8.486  -6.313  0.00  0.00     0.043 H 
ATOM     56  H   LIG d   1       3.554  -9.025  -6.925  0.00  0.00     0.043 H 
ATOM     57  H   LIG d   1       5.042  -9.458  -7.801  0.00  0.00     0.043 H 
ENDBRANCH  52  54
ENDBRANCH   6  52
TORSDOF 9
ENDMDL
MODEL 7
REMARK VINA RESULT:      -4.8      6.014      8.730
REMARK  9 active torsions:
REMARK  status: ('A' for Active; 'I' for Inactive)
REMARK    1  A    between atoms: C_1  and  C_2 
REMARK    2  A    between atoms: C_7  and  N_9 
REMARK    3  A    between atoms: N_9  and  C_10 
REMARK    4  A    between atoms: C_12  and  C_31 
REMARK    5  A    between atoms: C_15  and  O_30 
REMARK    6  A    between atoms: C_17  and  C_21 
REMARK    7  A    between atoms: C_21  and  C_23 
REMARK    8  A    between atoms: C_21  and  C_24 
REMARK       I    between atoms: C_24  and  N_26 
REMARK    9  A    between atoms: N_26  and  C_27 
ROOT
ATOM      1  C   LIG d   1       8.992  -5.296  -5.737  0.00  0.00     0.005 C 
ATOM      2  H   LIG d   1       9.609  -4.686  -6.396  0.00  0.00     0.036 H 
ATOM      3  C   LIG d   1       9.884  -5.985  -4.713  0.00  0.00     0.057 A 
ATOM      4  C   LIG d   1       9.969  -5.502  -3.447  0.00  0.00     0.015 A 
ATOM      5  S   LIG d   1      11.101  -6.629  -2.676  0.00  0.00    -0.057 SA
ATOM      6  C   LIG d   1      11.371  -7.642  -4.063  0.00  0.00     0.158 A 
ATOM      7  N   LIG d   1      10.611  -7.070  -4.974  0.00  0.00    -0.229 NA
ATOM      8  C   LIG d   1       9.274  -4.317  -2.876  0.00  0.00    -0.014 C 
ATOM      9  C   LIG d   1       8.692  -3.473  -4.027  0.00  0.00    -0.022 C 
ATOM     10  C   LIG d   1       7.978  -4.401  -5.012  0.00  0.00    -0.001 C 
ATOM     11  H   LIG d   1       7.261  -5.022  -4.476  0.00  0.00     0.034 H 
ATOM     12  C   LIG d   1       7.247  -3.577  -6.078  0.00  0.00     0.063 C 
ATOM     13  H   LIG d   1       7.975  -3.001  -6.650  0.00  0.00     0.060 H 
ATOM     14  C   LIG d   1       6.251  -2.623  -5.422  0.00  0.00    -0.004 C 
ATOM     15  H   LIG d   1       5.732  -2.052  -6.191  0.00  0.00     0.033 H 
ATOM     16  C   LIG d   1       7.017  -1.668  -4.501  0.00  0.00    -0.047 C 
ATOM     17  C   LIG d   1       7.692  -2.491  -3.406  0.00  0.00    -0.047 C 
ATOM     18  H   LIG d   1       9.984  -3.717  -2.306  0.00  0.00     0.032 H 
ATOM     19  H   LIG d   1       8.468  -4.647  -2.221  0.00  0.00     0.032 H 
ATOM     20  H   LIG d   1       7.764  -1.125  -5.079  0.00  0.00     0.027 H 
ATOM     21  H   LIG d   1       6.321  -0.964  -4.045  0.00  0.00     0.027 H 
ATOM     22  H   LIG d   1       6.943  -3.048  -2.843  0.00  0.00     0.027 H 
ATOM     23  H   LIG d   1       8.220  -1.818  -2.730  0.00  0.00     0.027 H 
ENDROOT
BRANCH  14  24
ATOM     24  C   LIG d   1       5.238  -3.425  -4.602  0.00  0.00     0.038 C 
ATOM     25  H   LIG d   1       5.762  -4.006  -3.843  0.00  0.00     0.040 H 
BRANCH  24  26
ATOM     26  C   LIG d   1       4.468  -4.370  -5.526  0.00  0.00    -0.054 C 
ATOM     27  H   LIG d   1       4.109  -3.817  -6.394  0.00  0.00     0.024 H 
ATOM     28  H   LIG d   1       5.126  -5.174  -5.854  0.00  0.00     0.024 H 
ATOM     29  H   LIG d   1       3.619  -4.793  -4.988  0.00  0.00     0.024 H 
ENDBRANCH  24  26
BRANCH  24  30
ATOM     30  C   LIG d   1       4.274  -2.480  -3.932  0.00  0.00     0.216 C 
ATOM     31  O   LIG d   1       3.955  -2.659  -2.775  0.00  0.00    -0.276 OA
ATOM     32  N   LIG d   1       3.767  -1.436  -4.617  0.00  0.00    -0.312 N 
ATOM     33  H   LIG d   1       4.022  -1.293  -5.542  0.00  0.00     0.149 HD
BRANCH  32  34
ATOM     34  C   LIG d   1       2.831  -0.517  -3.964  0.00  0.00     0.023 A 
ATOM     35  C   LIG d   1       3.387   0.812  -3.450  0.00  0.00    -0.033 A 
ATOM     36  C   LIG d   1       2.496   0.786  -4.694  0.00  0.00    -0.033 A 
ATOM     37  H   LIG d   1       2.960   1.215  -2.533  0.00  0.00     0.028 H 
ATOM     38  H   LIG d   1       4.451   1.002  -3.596  0.00  0.00     0.028 H 
ATOM     39  H   LIG d   1       2.973   0.959  -5.659  0.00  0.00     0.028 H 
ATOM     40  H   LIG d   1       1.482   1.172  -4.595  0.00  0.00     0.028 H 
ATOM     41  H   LIG d   1       2.037  -0.988  -3.385  0.00  0.00     0.050 H 
ENDBRANCH  32  34
ENDBRANCH  24  30
ENDBRANCH  14  24
BRANCH  12  42
ATOM     42  O   LIG d   1       6.549  -4.458  -6.959  0.00  0.00    -0.391 OA
ATOM     43  H   LIG d   1       5.644  -4.655  -6.682  0.00  0.00     0.210 HD
ENDBRANCH  12  42
BRANCH   1  44
ATOM     44  C   LIG d   1       8.247  -6.345  -6.564  0.00  0.00    -0.057 C 
ATOM     45  H   LIG d   1       7.751  -7.049  -5.896  0.00  0.00     0.024 H 
ATOM     46  H   LIG d   1       7.504  -5.854  -7.190  0.00  0.00     0.024 H 
ATOM     47  H   LIG d   1       8.957  -6.882  -7.194  0.00  0.00     0.024 H 
ENDBRANCH   1  44
BRANCH   9  48
ATOM     48  C   LIG d   1       9.803  -2.703  -4.744  0.00  0.00    -0.059 C 
ATOM     49  H   LIG d   1      10.771  -3.007  -4.345  0.00  0.00     0.024 H 
ATOM     50  H   LIG d   1       9.764  -2.919  -5.812  0.00  0.00     0.024 H 
ATOM     51  H   LIG d   1       9.665  -1.634  -4.585  0.00  0.00     0.024 H 
ENDBRANCH   9  48
BRANCH   6  52
ATOM     52  N   LIG d   1      12.179  -8.761  -4.180  0.00  0.00    -0.327 N 
ATOM     53  H   LIG d   1      12.807  -8.832  -4.915  0.00  0.00     0.148 HD
BRANCH  52  54
ATOM     54  C   LIG d   1      12.083  -9.840  -3.192  0.00  0.00    -0.001 C 
ATOM     55  H   LIG d   1      12.998 -10.433  -3.212  0.00  0.00     0.043 H 
ATOM     56  H   LIG d   1      11.949  -9.413  -2.198  0.00  0.00     0.043 H 
ATOM     57  H   LIG d   1      11.232 -10.477  -3.432  0.00  0.00     0.043 H 
ENDBRANCH  52  54
ENDBRANCH   6  52
TORSDOF 9
ENDMDL
MODEL 8
REMARK VINA RESULT:      -4.8      7.495      9.823
REMARK  9 active torsions:
REMARK  status: ('A' for Active; 'I' for Inactive)
REMARK    1  A    between atoms: C_1  and  C_2 
REMARK    2  A    between atoms: C_7  and  N_9 
REMARK    3  A    between atoms: N_9  and  C_10 
REMARK    4  A    between atoms: C_12  and  C_31 
REMARK    5  A    between atoms: C_15  and  O_30 
REMARK    6  A    between atoms: C_17  and  C_21 
REMARK    7  A    between atoms: C_21  and  C_23 
REMARK    8  A    between atoms: C_21  and  C_24 
REMARK       I    between atoms: C_24  and  N_26 
REMARK    9  A    between atoms: N_26  and  C_27 
ROOT
ATOM      1  C   LIG d   1      10.805   3.737  -7.516  0.00  0.00     0.005 C 
ATOM      2  H   LIG d   1      11.497   3.053  -8.005  0.00  0.00     0.036 H 
ATOM      3  C   LIG d   1      10.255   4.713  -8.546  0.00  0.00     0.057 A 
ATOM      4  C   LIG d   1       9.012   4.535  -9.061  0.00  0.00     0.015 A 
ATOM      5  S   LIG d   1       8.854   5.902 -10.180  0.00  0.00    -0.057 SA
ATOM      6  C   LIG d   1      10.420   6.599  -9.886  0.00  0.00     0.158 A 
ATOM      7  N   LIG d   1      10.927   5.774  -8.994  0.00  0.00    -0.229 NA
ATOM      8  C   LIG d   1       8.043   3.450  -8.747  0.00  0.00    -0.014 C 
ATOM      9  C   LIG d   1       8.778   2.322  -7.996  0.00  0.00    -0.022 C 
ATOM     10  C   LIG d   1       9.648   2.939  -6.899  0.00  0.00    -0.001 C 
ATOM     11  H   LIG d   1       9.041   3.598  -6.279  0.00  0.00     0.034 H 
ATOM     12  C   LIG d   1      10.261   1.836  -6.029  0.00  0.00     0.063 C 
ATOM     13  H   LIG d   1      10.913   1.214  -6.643  0.00  0.00     0.060 H 
ATOM     14  C   LIG d   1       9.163   0.969  -5.419  0.00  0.00    -0.004 C 
ATOM     15  H   LIG d   1       9.612   0.196  -4.796  0.00  0.00     0.033 H 
ATOM     16  C   LIG d   1       8.365   0.315  -6.551  0.00  0.00    -0.047 C 
ATOM     17  C   LIG d   1       7.707   1.419  -7.377  0.00  0.00    -0.047 C 
ATOM     18  H   LIG d   1       7.621   3.059  -9.672  0.00  0.00     0.032 H 
ATOM     19  H   LIG d   1       7.244   3.845  -8.120  0.00  0.00     0.032 H 
ATOM     20  H   LIG d   1       9.034  -0.275  -7.177  0.00  0.00     0.027 H 
ATOM     21  H   LIG d   1       7.593  -0.328  -6.130  0.00  0.00     0.027 H 
ATOM     22  H   LIG d   1       7.053   2.018  -6.743  0.00  0.00     0.027 H 
ATOM     23  H   LIG d   1       7.115   0.964  -8.171  0.00  0.00     0.027 H 
ENDROOT
BRANCH  14  24
ATOM     24  C   LIG d   1       8.234   1.840  -4.571  0.00  0.00     0.038 C 
ATOM     25  H   LIG d   1       7.741   2.574  -5.209  0.00  0.00     0.040 H 
BRANCH  24  26
ATOM     26  C   LIG d   1       9.049   2.562  -3.498  0.00  0.00    -0.054 C 
ATOM     27  H   LIG d   1       8.794   3.621  -3.498  0.00  0.00     0.024 H 
ATOM     28  H   LIG d   1       8.824   2.134  -2.521  0.00  0.00     0.024 H 
ATOM     29  H   LIG d   1      10.113   2.444  -3.709  0.00  0.00     0.024 H 
ENDBRANCH  24  26
BRANCH  24  30
ATOM     30  C   LIG d   1       7.193   0.971  -3.913  0.00  0.00     0.216 C 
ATOM     31  O   LIG d   1       7.471  -0.164  -3.582  0.00  0.00    -0.276 OA
ATOM     32  N   LIG d   1       5.955   1.453  -3.690  0.00  0.00    -0.312 N 
ATOM     33  H   LIG d   1       5.733   2.360  -3.954  0.00  0.00     0.149 HD
BRANCH  32  34
ATOM     34  C   LIG d   1       4.944   0.608  -3.049  0.00  0.00     0.023 A 
ATOM     35  C   LIG d   1       4.666   0.842  -1.563  0.00  0.00    -0.033 A 
ATOM     36  C   LIG d   1       3.639   1.277  -2.611  0.00  0.00    -0.033 A 
ATOM     37  H   LIG d   1       4.425  -0.028  -0.952  0.00  0.00     0.028 H 
ATOM     38  H   LIG d   1       5.237   1.625  -1.061  0.00  0.00     0.028 H 
ATOM     39  H   LIG d   1       3.533   2.345  -2.799  0.00  0.00     0.028 H 
ATOM     40  H   LIG d   1       2.723   0.692  -2.690  0.00  0.00     0.028 H 
ATOM     41  H   LIG d   1       4.886  -0.416  -3.416  0.00  0.00     0.050 H 
ENDBRANCH  32  34
ENDBRANCH  24  30
ENDBRANCH  14  24
BRANCH  12  42
ATOM     42  O   LIG d   1      11.030   2.433  -4.983  0.00  0.00    -0.391 OA
ATOM     43  H   LIG d   1      11.883   2.785  -5.273  0.00  0.00     0.210 HD
ENDBRANCH  12  42
BRANCH   1  44
ATOM     44  C   LIG d   1      11.540   4.504  -6.415  0.00  0.00    -0.057 C 
ATOM     45  H   LIG d   1      11.300   5.564  -6.490  0.00  0.00     0.024 H 
ATOM     46  H   LIG d   1      11.229   4.129  -5.441  0.00  0.00     0.024 H 
ATOM     47  H   LIG d   1      12.615   4.366  -6.532  0.00  0.00     0.024 H 
ENDBRANCH   1  44
BRANCH   9  48
ATOM     48  C   LIG d   1       9.648   1.514  -8.961  0.00  0.00    -0.059 C 
ATOM     49  H   LIG d   1      10.273   0.823  -8.395  0.00  0.00     0.024 H 
ATOM     50  H   LIG d   1       9.010   0.953  -9.644  0.00  0.00     0.024 H 
ATOM     51  H   LIG d   1      10.283   2.192  -9.533  0.00  0.00     0.024 H 
ENDBRANCH   9  48
BRANCH   6  52
ATOM     52  N   LIG d   1      10.987   7.732 -10.447  0.00  0.00    -0.327 N 
ATOM     53  H   LIG d   1      11.730   8.172 -10.004  0.00  0.00     0.148 HD
BRANCH  52  54
ATOM     54  C   LIG d   1      10.464   8.267 -11.707  0.00  0.00    -0.001 C 
ATOM     55  H   LIG d   1      10.631   7.544 -12.505  0.00  0.00     0.043 H 
ATOM     56  H   LIG d   1       9.396   8.457 -11.606  0.00  0.00     0.043 H 
ATOM     57  H   LIG d   1      10.978   9.198 -11.946  0.00  0.00     0.043 H 
ENDBRANCH  52  54
ENDBRANCH   6  52
TORSDOF 9
ENDMDL
MODEL 9
REMARK VINA RESULT:      -4.7      7.896     10.933
REMARK  9 active torsions:
REMARK  status: ('A' for Active; 'I' for Inactive)
REMARK    1  A    between atoms: C_1  and  C_2 
REMARK    2  A    between atoms: C_7  and  N_9 
REMARK    3  A    between atoms: N_9  and  C_10 
REMARK    4  A    between atoms: C_12  and  C_31 
REMARK    5  A    between atoms: C_15  and  O_30 
REMARK    6  A    between atoms: C_17  and  C_21 
REMARK    7  A    between atoms: C_21  and  C_23 
REMARK    8  A    between atoms: C_21  and  C_24 
REMARK       I    between atoms: C_24  and  N_26 
REMARK    9  A    between atoms: N_26  and  C_27 
ROOT
ATOM      1  C   LIG d   1      10.045   5.504  -5.535  0.00  0.00     0.005 C 
ATOM      2  H   LIG d   1      11.097   5.594  -5.265  0.00  0.00     0.036 H 
ATOM      3  C   LIG d   1       9.778   6.333  -6.784  0.00  0.00     0.057 A 
ATOM      4  C   LIG d   1       9.677   5.729  -7.995  0.00  0.00     0.015 A 
ATOM      5  S   LIG d   1       9.368   7.093  -9.085  0.00  0.00    -0.057 SA
ATOM      6  C   LIG d   1       9.393   8.342  -7.876  0.00  0.00     0.158 A 
ATOM      7  N   LIG d   1       9.625   7.657  -6.776  0.00  0.00    -0.229 NA
ATOM      8  C   LIG d   1       9.800   4.278  -8.303  0.00  0.00    -0.014 C 
ATOM      9  C   LIG d   1      10.418   3.558  -7.088  0.00  0.00    -0.022 C 
ATOM     10  C   LIG d   1       9.712   4.033  -5.816  0.00  0.00    -0.001 C 
ATOM     11  H   LIG d   1       8.635   3.919  -5.932  0.00  0.00     0.034 H 
ATOM     12  C   LIG d   1      10.190   3.215  -4.611  0.00  0.00     0.063 C 
ATOM     13  H   LIG d   1      11.258   3.378  -4.465  0.00  0.00     0.060 H 
ATOM     14  C   LIG d   1       9.932   1.728  -4.844  0.00  0.00    -0.004 C 
ATOM     15  H   LIG d   1      10.267   1.160  -3.976  0.00  0.00     0.033 H 
ATOM     16  C   LIG d   1      10.714   1.281  -6.083  0.00  0.00    -0.047 C 
ATOM     17  C   LIG d   1      10.191   2.056  -7.290  0.00  0.00    -0.047 C 
ATOM     18  H   LIG d   1      10.442   4.143  -9.173  0.00  0.00     0.032 H 
ATOM     19  H   LIG d   1       8.813   3.864  -8.509  0.00  0.00     0.032 H 
ATOM     20  H   LIG d   1      11.776   1.481  -5.937  0.00  0.00     0.027 H 
ATOM     21  H   LIG d   1      10.561   0.214  -6.246  0.00  0.00     0.027 H 
ATOM     22  H   LIG d   1       9.125   1.868  -7.420  0.00  0.00     0.027 H 
ATOM     23  H   LIG d   1      10.724   1.727  -8.182  0.00  0.00     0.027 H 
ENDROOT
BRANCH  14  24
ATOM     24  C   LIG d   1       8.437   1.495  -5.068  0.00  0.00     0.038 C 
ATOM     25  H   LIG d   1       8.091   2.122  -5.890  0.00  0.00     0.040 H 
BRANCH  24  26
ATOM     26  C   LIG d   1       7.669   1.852  -3.795  0.00  0.00    -0.054 C 
ATOM     27  H   LIG d   1       8.330   1.762  -2.934  0.00  0.00     0.024 H 
ATOM     28  H   LIG d   1       7.303   2.877  -3.867  0.00  0.00     0.024 H 
ATOM     29  H   LIG d   1       6.823   1.173  -3.678  0.00  0.00     0.024 H 
ENDBRANCH  24  26
BRANCH  24  30
ATOM     30  C   LIG d   1       8.200   0.047  -5.409  0.00  0.00     0.216 C 
ATOM     31  O   LIG d   1       7.689  -0.251  -6.469  0.00  0.00    -0.276 OA
ATOM     32  N   LIG d   1       8.555  -0.918  -4.538  0.00  0.00    -0.312 N 
ATOM     33  H   LIG d   1       8.963  -0.680  -3.690  0.00  0.00     0.149 HD
BRANCH  32  34
ATOM     34  C   LIG d   1       8.325  -2.327  -4.870  0.00  0.00     0.023 A 
ATOM     35  C   LIG d   1       8.442  -3.348  -3.738  0.00  0.00    -0.033 A 
ATOM     36  C   LIG d   1       7.066  -2.989  -4.306  0.00  0.00    -0.033 A 
ATOM     37  H   LIG d   1       8.847  -4.329  -3.984  0.00  0.00     0.028 H 
ATOM     38  H   LIG d   1       8.690  -2.973  -2.744  0.00  0.00     0.028 H 
ATOM     39  H   LIG d   1       6.410  -2.378  -3.687  0.00  0.00     0.028 H 
ATOM     40  H   LIG d   1       6.568  -3.734  -4.926  0.00  0.00     0.028 H 
ATOM     41  H   LIG d   1       8.654  -2.635  -5.862  0.00  0.00     0.050 H 
ENDBRANCH  32  34
ENDBRANCH  24  30
ENDBRANCH  14  24
BRANCH  12  42
ATOM     42  O   LIG d   1       9.485   3.640  -3.443  0.00  0.00    -0.391 OA
ATOM     43  H   LIG d   1       9.060   2.921  -2.957  0.00  0.00     0.210 HD
ENDBRANCH  12  42
BRANCH   1  44
ATOM     44  C   LIG d   1       9.179   6.012  -4.381  0.00  0.00    -0.057 C 
ATOM     45  H   LIG d   1       9.367   7.075  -4.227  0.00  0.00     0.024 H 
ATOM     46  H   LIG d   1       8.128   5.860  -4.621  0.00  0.00     0.024 H 
ATOM     47  H   LIG d   1       9.428   5.464  -3.471  0.00  0.00     0.024 H 
ENDBRANCH   1  44
BRANCH   9  48
ATOM     48  C   LIG d   1      11.917   3.852  -6.996  0.00  0.00    -0.059 C 
ATOM     49  H   LIG d   1      12.092   4.612  -6.235  0.00  0.00     0.024 H 
ATOM     50  H   LIG d   1      12.450   2.939  -6.729  0.00  0.00     0.024 H 
ATOM     51  H   LIG d   1      12.276   4.213  -7.959  0.00  0.00     0.024 H 
ENDBRANCH   9  48
BRANCH   6  52
ATOM     52  N   LIG d   1       9.214   9.708  -8.031  0.00  0.00    -0.327 N 
ATOM     53  H   LIG d   1       8.529  10.042  -8.631  0.00  0.00     0.148 HD
BRANCH  52  54
ATOM     54  C   LIG d   1      10.061  10.647  -7.291  0.00  0.00    -0.001 C 
ATOM     55  H   LIG d   1      11.044  10.202  -7.133  0.00  0.00     0.043 H 
ATOM     56  H   LIG d   1      10.167  11.569  -7.862  0.00  0.00     0.043 H 
ATOM     57  H   LIG d   1       9.603  10.866  -6.327  0.00  0.00     0.043 H 
ENDBRANCH  52  54
ENDBRANCH   6  52
TORSDOF 9
ENDMDL
MODEL 10
REMARK VINA RESULT:      -4.7      3.526      7.856
REMARK  9 active torsions:
REMARK  status: ('A' for Active; 'I' for Inactive)
REMARK    1  A    between atoms: C_1  and  C_2 
REMARK    2  A    between atoms: C_7  and  N_9 
REMARK    3  A    between atoms: N_9  and  C_10 
REMARK    4  A    between atoms: C_12  and  C_31 
REMARK    5  A    between atoms: C_15  and  O_30 
REMARK    6  A    between atoms: C_17  and  C_21 
REMARK    7  A    between atoms: C_21  and  C_23 
REMARK    8  A    between atoms: C_21  and  C_24 
REMARK       I    between atoms: C_24  and  N_26 
REMARK    9  A    between atoms: N_26  and  C_27 
ROOT
ATOM      1  C   LIG d   1       3.624  -0.540  -6.992  0.00  0.00     0.005 C 
ATOM      2  H   LIG d   1       2.878  -1.293  -6.742  0.00  0.00     0.036 H 
ATOM      3  C   LIG d   1       4.717  -0.548  -5.931  0.00  0.00     0.057 A 
ATOM      4  C   LIG d   1       5.903  -1.158  -6.179  0.00  0.00     0.015 A 
ATOM      5  S   LIG d   1       6.801  -0.889  -4.674  0.00  0.00    -0.057 SA
ATOM      6  C   LIG d   1       5.560   0.000  -3.842  0.00  0.00     0.158 A 
ATOM      7  N   LIG d   1       4.593   0.025  -4.735  0.00  0.00    -0.229 NA
ATOM      8  C   LIG d   1       6.321  -1.871  -7.417  0.00  0.00    -0.014 C 
ATOM      9  C   LIG d   1       5.076  -2.138  -8.286  0.00  0.00    -0.022 C 
ATOM     10  C   LIG d   1       4.237  -0.860  -8.361  0.00  0.00    -0.001 C 
ATOM     11  H   LIG d   1       4.865  -0.030  -8.683  0.00  0.00     0.034 H 
ATOM     12  C   LIG d   1       3.082  -1.045  -9.351  0.00  0.00     0.063 C 
ATOM     13  H   LIG d   1       2.425  -1.839  -8.994  0.00  0.00     0.060 H 
ATOM     14  C   LIG d   1       3.620  -1.416 -10.732  0.00  0.00    -0.004 C 
ATOM     15  H   LIG d   1       2.789  -1.534 -11.427  0.00  0.00     0.033 H 
ATOM     16  C   LIG d   1       4.389  -2.736 -10.622  0.00  0.00    -0.047 C 
ATOM     17  C   LIG d   1       5.574  -2.527  -9.682  0.00  0.00    -0.047 C 
ATOM     18  H   LIG d   1       6.791  -2.817  -7.152  0.00  0.00     0.032 H 
ATOM     19  H   LIG d   1       7.027  -1.254  -7.972  0.00  0.00     0.032 H 
ATOM     20  H   LIG d   1       3.730  -3.511 -10.232  0.00  0.00     0.027 H 
ATOM     21  H   LIG d   1       4.757  -3.026 -11.606  0.00  0.00     0.027 H 
ATOM     22  H   LIG d   1       6.220  -1.737 -10.066  0.00  0.00     0.027 H 
ATOM     23  H   LIG d   1       6.143  -3.454  -9.616  0.00  0.00     0.027 H 
ENDROOT
BRANCH  14  24
ATOM     24  C   LIG d   1       4.557  -0.314 -11.229  0.00  0.00     0.038 C 
ATOM     25  H   LIG d   1       5.442  -0.275 -10.594  0.00  0.00     0.040 H 
BRANCH  24  26
ATOM     26  C   LIG d   1       3.834   1.032 -11.179  0.00  0.00    -0.054 C 
ATOM     27  H   LIG d   1       2.829   0.921 -11.585  0.00  0.00     0.024 H 
ATOM     28  H   LIG d   1       3.773   1.373 -10.145  0.00  0.00     0.024 H 
ATOM     29  H   LIG d   1       4.386   1.764 -11.770  0.00  0.00     0.024 H 
ENDBRANCH  24  26
BRANCH  24  30
ATOM     30  C   LIG d   1       4.971  -0.610 -12.648  0.00  0.00     0.216 C 
ATOM     31  O   LIG d   1       6.143  -0.776 -12.916  0.00  0.00    -0.276 OA
ATOM     32  N   LIG d   1       4.040  -0.690 -13.619  0.00  0.00    -0.312 N 
ATOM     33  H   LIG d   1       3.103  -0.557 -13.405  0.00  0.00     0.149 HD
BRANCH  32  34
ATOM     34  C   LIG d   1       4.443  -0.979 -14.998  0.00  0.00     0.023 A 
ATOM     35  C   LIG d   1       3.356  -0.944 -16.074  0.00  0.00    -0.033 A 
ATOM     36  C   LIG d   1       4.398   0.174 -16.003  0.00  0.00    -0.033 A 
ATOM     37  H   LIG d   1       3.436  -1.656 -16.894  0.00  0.00     0.028 H 
ATOM     38  H   LIG d   1       2.340  -0.707 -15.755  0.00  0.00     0.028 H 
ATOM     39  H   LIG d   1       4.069   1.148 -15.638  0.00  0.00     0.028 H 
ATOM     40  H   LIG d   1       5.165   0.197 -16.777  0.00  0.00     0.028 H 
ATOM     41  H   LIG d   1       5.239  -1.714 -15.111  0.00  0.00     0.050 H 
ENDBRANCH  32  34
ENDBRANCH  24  30
ENDBRANCH  14  24
BRANCH  12  42
ATOM     42  O   LIG d   1       2.340   0.173  -9.443  0.00  0.00    -0.391 OA
ATOM     43  H   LIG d   1       1.946   0.328 -10.312  0.00  0.00     0.210 HD
ENDBRANCH  12  42
BRANCH   1  44
ATOM     44  C   LIG d   1       2.959   0.838  -7.040  0.00  0.00    -0.057 C 
ATOM     45  H   LIG d   1       2.429   0.952  -7.985  0.00  0.00     0.024 H 
ATOM     46  H   LIG d   1       2.256   0.931  -6.214  0.00  0.00     0.024 H 
ATOM     47  H   LIG d   1       3.723   1.612  -6.957  0.00  0.00     0.024 H 
ENDBRANCH   1  44
BRANCH   9  48
ATOM     48  C   LIG d   1       4.242  -3.276  -7.693  0.00  0.00    -0.059 C 
ATOM     49  H   LIG d   1       3.200  -2.966  -7.624  0.00  0.00     0.024 H 
ATOM     50  H   LIG d   1       4.319  -4.155  -8.334  0.00  0.00     0.024 H 
ATOM     51  H   LIG d   1       4.615  -3.520  -6.699  0.00  0.00     0.024 H 
ENDBRANCH   9  48
BRANCH   6  52
ATOM     52  N   LIG d   1       5.583   0.542  -2.567  0.00  0.00    -0.327 N 
ATOM     53  H   LIG d   1       6.428   0.658  -2.105  0.00  0.00     0.148 HD
BRANCH  52  54
ATOM     54  C   LIG d   1       4.331   0.940  -1.916  0.00  0.00    -0.001 C 
ATOM     55  H   LIG d   1       3.802   1.651  -2.551  0.00  0.00     0.043 H 
ATOM     56  H   LIG d   1       3.708   0.060  -1.759  0.00  0.00     0.043 H 
ATOM     57  H   LIG d   1       4.553   1.404  -0.956  0.00  0.00     0.043 H 
ENDBRANCH  52  54
ENDBRANCH   6  52
TORSDOF 9
ENDMDL
