MODEL 1
REMARK VINA RESULT:      -4.9      0.000      0.000
REMARK  10 active torsions:
REMARK  status: ('A' for Active; 'I' for Inactive)
REMARK    1  A    between atoms: C_1  and  N_2 
REMARK    2  A    between atoms: N_6  and  C_21 
REMARK    3  A    between atoms: N_9  and  C_17 
REMARK    4  A    between atoms: N_13  and  C_16 
REMARK    5  A    between atoms: C_17  and  C_18 
REMARK    6  A    between atoms: C_18  and  C_19 
REMARK    7  A    between atoms: C_19  and  N_20 
REMARK    8  A    between atoms: C_21  and  C_22 
REMARK    9  A    between atoms: C_22  and  C_23 
REMARK   10  A    between atoms: C_23  and  N_24 
ROOT
ATOM      1  N   LIG d   1       9.478   0.755  -5.225  0.00  0.00     0.237 N 
ATOM      2  C   LIG d   1       8.585  -0.346  -4.878  0.00  0.00    -0.031 C 
ATOM      3  C   LIG d   1       7.331   0.105  -4.137  0.00  0.00     0.000 C 
ATOM      4  C   LIG d   1       6.410  -1.107  -3.938  0.00  0.00     0.004 C 
ATOM      5  N   LIG d   1       5.016  -0.684  -4.297  0.00  0.00    -0.301 N 
ATOM      6  C   LIG d   1       4.662  -1.505  -5.503  0.00  0.00     0.012 C 
ATOM      7  C   LIG d   1       3.808  -0.642  -6.429  0.00  0.00     0.012 C 
ATOM      8  N   LIG d   1       4.340  -0.759  -7.812  0.00  0.00    -0.301 N 
ATOM      9  C   LIG d   1       4.521   0.614  -8.350  0.00  0.00     0.004 C 
ATOM     10  C   LIG d   1       5.819   0.655  -9.156  0.00  0.00     0.000 C 
ATOM     11  C   LIG d   1       6.597   1.927  -8.816  0.00  0.00    -0.031 C 
ATOM     12  N   LIG d   1       7.999   1.594  -8.532  0.00  0.00     0.237 N 
ATOM     13  C   LIG d   1       8.275   1.827  -7.104  0.00  0.00     0.009 C 
ATOM     14  C   LIG d   1       9.471   0.983  -6.674  0.00  0.00     0.009 C 
ATOM     15  H   LIG d   1       8.286  -0.870  -5.793  0.00  0.00     0.082 H 
ATOM     16  H   LIG d   1       9.128  -1.065  -4.251  0.00  0.00     0.082 H 
ATOM     17  H   LIG d   1       7.584   0.499  -3.153  0.00  0.00     0.033 H 
ATOM     18  H   LIG d   1       6.792   0.852  -4.718  0.00  0.00     0.033 H 
ATOM     19  H   LIG d   1       6.710  -1.916  -4.590  0.00  0.00     0.043 H 
ATOM     20  H   LIG d   1       6.417  -1.410  -2.897  0.00  0.00     0.043 H 
ATOM     21  H   LIG d   1       5.581  -1.794  -6.001  0.00  0.00     0.044 H 
ATOM     22  H   LIG d   1       4.105  -2.372  -5.168  0.00  0.00     0.044 H 
ATOM     23  H   LIG d   1       2.780  -0.993  -6.421  0.00  0.00     0.044 H 
ATOM     24  H   LIG d   1       3.854   0.396  -6.116  0.00  0.00     0.044 H 
ATOM     25  H   LIG d   1       3.678   0.848  -8.995  0.00  0.00     0.043 H 
ATOM     26  H   LIG d   1       4.572   1.318  -7.526  0.00  0.00     0.043 H 
ATOM     27  H   LIG d   1       6.423  -0.221  -8.916  0.00  0.00     0.033 H 
ATOM     28  H   LIG d   1       5.584   0.649 -10.222  0.00  0.00     0.033 H 
ATOM     29  H   LIG d   1       6.555   2.614  -9.663  0.00  0.00     0.082 H 
ATOM     30  H   LIG d   1       6.155   2.405  -7.943  0.00  0.00     0.082 H 
ATOM     31  H   LIG d   1       8.497   2.886  -6.967  0.00  0.00     0.087 H 
ATOM     32  H   LIG d   1       7.394   1.554  -6.529  0.00  0.00     0.087 H 
ATOM     33  H   LIG d   1      10.397   1.489  -6.960  0.00  0.00     0.087 H 
ATOM     34  H   LIG d   1       9.435   0.015  -7.185  0.00  0.00     0.087 H 
ATOM     35  H   LIG d   1      10.430   0.472  -4.969  0.00  0.00     0.203 HD
ATOM     36  H   LIG d   1       8.173   0.627  -8.754  0.00  0.00     0.203 HD
ENDROOT
BRANCH   5  37
ATOM     37  C   LIG d   1       4.159  -1.246  -3.195  0.00  0.00     0.004 C 
ATOM     38  H   LIG d   1       3.656  -2.145  -3.549  0.00  0.00     0.043 H 
ATOM     39  H   LIG d   1       4.785  -1.493  -2.338  0.00  0.00     0.043 H 
BRANCH  37  40
ATOM     40  C   LIG d   1       3.115  -0.206  -2.782  0.00  0.00     0.000 C 
ATOM     41  H   LIG d   1       2.462   0.010  -3.627  0.00  0.00     0.033 H 
ATOM     42  H   LIG d   1       2.522  -0.596  -1.955  0.00  0.00     0.033 H 
BRANCH  40  43
ATOM     43  C   LIG d   1       3.821   1.078  -2.342  0.00  0.00    -0.034 C 
ATOM     44  H   LIG d   1       3.433   1.393  -1.373  0.00  0.00     0.081 H 
ATOM     45  H   LIG d   1       4.893   0.894  -2.262  0.00  0.00     0.081 H 
BRANCH  43  46
ATOM     46  N   LIG d   1       3.579   2.135  -3.333  0.00  0.00     0.219 N 
ATOM     47  H   LIG d   1       4.452   2.582  -3.569  0.00  0.00     0.199 HD
ATOM     48  H   LIG d   1       3.173   1.730  -4.163  0.00  0.00     0.199 HD
ATOM     49  H   LIG d   1       2.945   2.818  -2.947  0.00  0.00     0.199 HD
ENDBRANCH  43  46
ENDBRANCH  40  43
ENDBRANCH  37  40
ENDBRANCH   5  37
BRANCH   8  50
ATOM     50  C   LIG d   1       3.289  -1.421  -8.632  0.00  0.00     0.004 C 
ATOM     51  H   LIG d   1       3.714  -1.729  -9.588  0.00  0.00     0.043 H 
ATOM     52  H   LIG d   1       2.914  -2.298  -8.103  0.00  0.00     0.043 H 
BRANCH  50  53
ATOM     53  C   LIG d   1       2.139  -0.441  -8.877  0.00  0.00     0.000 C 
ATOM     54  H   LIG d   1       1.402  -0.541  -8.079  0.00  0.00     0.033 H 
ATOM     55  H   LIG d   1       2.526   0.577  -8.889  0.00  0.00     0.033 H 
BRANCH  53  56
ATOM     56  C   LIG d   1       1.481  -0.752 -10.223  0.00  0.00    -0.034 C 
ATOM     57  H   LIG d   1       0.640  -0.079 -10.380  0.00  0.00     0.081 H 
ATOM     58  H   LIG d   1       2.210  -0.617 -11.023  0.00  0.00     0.081 H 
BRANCH  56  59
ATOM     59  N   LIG d   1       1.005  -2.142 -10.224  0.00  0.00     0.219 N 
ATOM     60  H   LIG d   1       0.144  -2.201 -10.749  0.00  0.00     0.199 HD
ATOM     61  H   LIG d   1       1.700  -2.736 -10.651  0.00  0.00     0.199 HD
ATOM     62  H   LIG d   1       0.841  -2.443  -9.276  0.00  0.00     0.199 HD
ENDBRANCH  56  59
ENDBRANCH  53  56
ENDBRANCH  50  53
ENDBRANCH   8  50
BRANCH   1  63
ATOM     63  C   LIG d   1       9.177   1.987  -4.498  0.00  0.00    -0.043 C 
ATOM     64  H   LIG d   1       8.332   2.489  -4.969  0.00  0.00     0.078 H 
ATOM     65  H   LIG d   1       8.927   1.747  -3.465  0.00  0.00     0.078 H 
ATOM     66  H   LIG d   1      10.047   2.643  -4.519  0.00  0.00     0.078 H 
ENDBRANCH   1  63
BRANCH  12  67
ATOM     67  C   LIG d   1       8.875   2.450  -9.342  0.00  0.00    -0.043 C 
ATOM     68  H   LIG d   1       9.064   1.973 -10.303  0.00  0.00     0.078 H 
ATOM     69  H   LIG d   1       8.392   3.414  -9.504  0.00  0.00     0.078 H 
ATOM     70  H   LIG d   1       9.820   2.601  -8.819  0.00  0.00     0.078 H 
ENDBRANCH  12  67
TORSDOF 10
ENDMDL
MODEL 2
REMARK VINA RESULT:      -4.8      2.341      5.102
REMARK  10 active torsions:
REMARK  status: ('A' for Active; 'I' for Inactive)
REMARK    1  A    between atoms: C_1  and  N_2 
REMARK    2  A    between atoms: N_6  and  C_21 
REMARK    3  A    between atoms: N_9  and  C_17 
REMARK    4  A    between atoms: N_13  and  C_16 
REMARK    5  A    between atoms: C_17  and  C_18 
REMARK    6  A    between atoms: C_18  and  C_19 
REMARK    7  A    between atoms: C_19  and  N_20 
REMARK    8  A    between atoms: C_21  and  C_22 
REMARK    9  A    between atoms: C_22  and  C_23 
REMARK   10  A    between atoms: C_23  and  N_24 
ROOT
ATOM      1  N   LIG d   1       7.871   0.632  -8.586  0.00  0.00     0.237 N 
ATOM      2  C   LIG d   1       6.735  -0.278  -8.463  0.00  0.00    -0.031 C 
ATOM      3  C   LIG d   1       7.128  -1.672  -7.989  0.00  0.00     0.000 C 
ATOM      4  C   LIG d   1       5.853  -2.499  -7.772  0.00  0.00     0.004 C 
ATOM      5  N   LIG d   1       5.992  -3.214  -6.461  0.00  0.00    -0.301 N 
ATOM      6  C   LIG d   1       4.916  -2.634  -5.589  0.00  0.00     0.012 C 
ATOM      7  C   LIG d   1       5.454  -2.553  -4.163  0.00  0.00     0.012 C 
ATOM      8  N   LIG d   1       5.158  -1.201  -3.620  0.00  0.00    -0.301 N 
ATOM      9  C   LIG d   1       6.417  -0.651  -3.055  0.00  0.00     0.004 C 
ATOM     10  C   LIG d   1       6.495   0.837  -3.398  0.00  0.00     0.000 C 
ATOM     11  C   LIG d   1       7.909   1.183  -3.868  0.00  0.00    -0.031 C 
ATOM     12  N   LIG d   1       7.845   1.959  -5.112  0.00  0.00     0.237 N 
ATOM     13  C   LIG d   1       8.381   1.149  -6.220  0.00  0.00     0.009 C 
ATOM     14  C   LIG d   1       7.818   1.661  -7.542  0.00  0.00     0.009 C 
ATOM     15  H   LIG d   1       6.010   0.144  -7.757  0.00  0.00     0.082 H 
ATOM     16  H   LIG d   1       6.234  -0.361  -9.436  0.00  0.00     0.082 H 
ATOM     17  H   LIG d   1       7.733  -2.180  -8.740  0.00  0.00     0.033 H 
ATOM     18  H   LIG d   1       7.665  -1.617  -7.043  0.00  0.00     0.033 H 
ATOM     19  H   LIG d   1       4.989  -1.851  -7.729  0.00  0.00     0.043 H 
ATOM     20  H   LIG d   1       5.755  -3.242  -8.556  0.00  0.00     0.043 H 
ATOM     21  H   LIG d   1       4.676  -1.643  -5.957  0.00  0.00     0.044 H 
ATOM     22  H   LIG d   1       4.055  -3.291  -5.635  0.00  0.00     0.044 H 
ATOM     23  H   LIG d   1       4.963  -3.294  -3.538  0.00  0.00     0.044 H 
ATOM     24  H   LIG d   1       6.527  -2.711  -4.162  0.00  0.00     0.044 H 
ATOM     25  H   LIG d   1       6.399  -0.780  -1.976  0.00  0.00     0.043 H 
ATOM     26  H   LIG d   1       7.263  -1.177  -3.484  0.00  0.00     0.043 H 
ATOM     27  H   LIG d   1       5.779   1.065  -4.187  0.00  0.00     0.033 H 
ATOM     28  H   LIG d   1       6.254   1.426  -2.511  0.00  0.00     0.033 H 
ATOM     29  H   LIG d   1       8.411   1.775  -3.100  0.00  0.00     0.082 H 
ATOM     30  H   LIG d   1       8.473   0.267  -4.041  0.00  0.00     0.082 H 
ATOM     31  H   LIG d   1       9.467   1.241  -6.217  0.00  0.00     0.087 H 
ATOM     32  H   LIG d   1       8.095   0.112  -6.064  0.00  0.00     0.087 H 
ATOM     33  H   LIG d   1       8.392   2.532  -7.871  0.00  0.00     0.087 H 
ATOM     34  H   LIG d   1       6.777   1.968  -7.399  0.00  0.00     0.087 H 
ATOM     35  H   LIG d   1       7.784   1.112  -9.488  0.00  0.00     0.203 HD
ATOM     36  H   LIG d   1       6.890   2.210  -5.311  0.00  0.00     0.203 HD
ENDROOT
BRANCH   5  37
ATOM     37  C   LIG d   1       5.527  -4.617  -6.747  0.00  0.00     0.004 C 
ATOM     38  H   LIG d   1       5.980  -4.967  -7.675  0.00  0.00     0.043 H 
ATOM     39  H   LIG d   1       5.824  -5.271  -5.928  0.00  0.00     0.043 H 
BRANCH  37  40
ATOM     40  C   LIG d   1       4.004  -4.631  -6.886  0.00  0.00     0.000 C 
ATOM     41  H   LIG d   1       3.565  -5.127  -6.021  0.00  0.00     0.033 H 
ATOM     42  H   LIG d   1       3.635  -3.606  -6.943  0.00  0.00     0.033 H 
BRANCH  40  43
ATOM     43  C   LIG d   1       3.614  -5.384  -8.160  0.00  0.00    -0.034 C 
ATOM     44  H   LIG d   1       4.515  -5.664  -8.706  0.00  0.00     0.081 H 
ATOM     45  H   LIG d   1       3.057  -6.283  -7.893  0.00  0.00     0.081 H 
BRANCH  43  46
ATOM     46  N   LIG d   1       2.778  -4.521  -9.003  0.00  0.00     0.219 N 
ATOM     47  H   LIG d   1       3.347  -3.793  -9.408  0.00  0.00     0.199 HD
ATOM     48  H   LIG d   1       2.362  -5.071  -9.740  0.00  0.00     0.199 HD
ATOM     49  H   LIG d   1       2.050  -4.106  -8.441  0.00  0.00     0.199 HD
ENDBRANCH  43  46
ENDBRANCH  40  43
ENDBRANCH  37  40
ENDBRANCH   5  37
BRANCH   8  50
ATOM     50  C   LIG d   1       4.207  -1.381  -2.489  0.00  0.00     0.004 C 
ATOM     51  H   LIG d   1       4.206  -2.425  -2.177  0.00  0.00     0.043 H 
ATOM     52  H   LIG d   1       4.514  -0.753  -1.652  0.00  0.00     0.043 H 
BRANCH  50  53
ATOM     53  C   LIG d   1       2.799  -0.982  -2.938  0.00  0.00     0.000 C 
ATOM     54  H   LIG d   1       2.328  -1.824  -3.445  0.00  0.00     0.033 H 
ATOM     55  H   LIG d   1       2.206  -0.704  -2.067  0.00  0.00     0.033 H 
BRANCH  53  56
ATOM     56  C   LIG d   1       2.887   0.208  -3.896  0.00  0.00    -0.034 C 
ATOM     57  H   LIG d   1       2.492   1.097  -3.407  0.00  0.00     0.081 H 
ATOM     58  H   LIG d   1       3.928   0.376  -4.172  0.00  0.00     0.081 H 
BRANCH  56  59
ATOM     59  N   LIG d   1       2.101  -0.078  -5.104  0.00  0.00     0.219 N 
ATOM     60  H   LIG d   1       1.539   0.727  -5.337  0.00  0.00     0.199 HD
ATOM     61  H   LIG d   1       2.725  -0.287  -5.869  0.00  0.00     0.199 HD
ATOM     62  H   LIG d   1       1.500  -0.870  -4.934  0.00  0.00     0.199 HD
ENDBRANCH  56  59
ENDBRANCH  53  56
ENDBRANCH  50  53
ENDBRANCH   8  50
BRANCH   1  63
ATOM     63  C   LIG d   1       9.159  -0.058  -8.580  0.00  0.00    -0.043 C 
ATOM     64  H   LIG d   1       9.805   0.387  -7.822  0.00  0.00     0.078 H 
ATOM     65  H   LIG d   1       9.005  -1.113  -8.353  0.00  0.00     0.078 H 
ATOM     66  H   LIG d   1       9.627   0.039  -9.559  0.00  0.00     0.078 H 
ENDBRANCH   1  63
BRANCH  12  67
ATOM     67  C   LIG d   1       8.653   3.177  -4.967  0.00  0.00    -0.043 C 
ATOM     68  H   LIG d   1       9.304   3.081  -4.099  0.00  0.00     0.078 H 
ATOM     69  H   LIG d   1       9.260   3.319  -5.862  0.00  0.00     0.078 H 
ATOM     70  H   LIG d   1       7.994   4.036  -4.834  0.00  0.00     0.078 H 
ENDBRANCH  12  67
TORSDOF 10
ENDMDL
MODEL 3
REMARK VINA RESULT:      -4.7      9.658     13.210
REMARK  10 active torsions:
REMARK  status: ('A' for Active; 'I' for Inactive)
REMARK    1  A    between atoms: C_1  and  N_2 
REMARK    2  A    between atoms: N_6  and  C_21 
REMARK    3  A    between atoms: N_9  and  C_17 
REMARK    4  A    between atoms: N_13  and  C_16 
REMARK    5  A    between atoms: C_17  and  C_18 
REMARK    6  A    between atoms: C_18  and  C_19 
REMARK    7  A    between atoms: C_19  and  N_20 
REMARK    8  A    between atoms: C_21  and  C_22 
REMARK    9  A    between atoms: C_22  and  C_23 
REMARK   10  A    between atoms: C_23  and  N_24 
ROOT
ATOM      1  N   LIG d   1       9.781  14.564  -3.634  0.00  0.00     0.237 N 
ATOM      2  C   LIG d   1       9.325  13.382  -4.359  0.00  0.00    -0.031 C 
ATOM      3  C   LIG d   1      10.466  12.522  -4.889  0.00  0.00     0.000 C 
ATOM      4  C   LIG d   1       9.878  11.250  -5.516  0.00  0.00     0.004 C 
ATOM      5  N   LIG d   1      10.691  10.086  -5.033  0.00  0.00    -0.301 N 
ATOM      6  C   LIG d   1       9.740   9.268  -4.207  0.00  0.00     0.012 C 
ATOM      7  C   LIG d   1      10.519   8.678  -3.033  0.00  0.00     0.012 C 
ATOM      8  N   LIG d   1       9.745   8.911  -1.786  0.00  0.00    -0.301 N 
ATOM      9  C   LIG d   1      10.661   9.517  -0.786  0.00  0.00     0.004 C 
ATOM     10  C   LIG d   1       9.898  10.595  -0.016  0.00  0.00     0.000 C 
ATOM     11  C   LIG d   1      10.773  11.841   0.130  0.00  0.00    -0.031 C 
ATOM     12  N   LIG d   1      10.009  13.035  -0.252  0.00  0.00     0.237 N 
ATOM     13  C   LIG d   1      10.565  13.592  -1.497  0.00  0.00     0.009 C 
ATOM     14  C   LIG d   1       9.499  14.426  -2.201  0.00  0.00     0.009 C 
ATOM     15  H   LIG d   1       8.700  12.771  -3.697  0.00  0.00     0.082 H 
ATOM     16  H   LIG d   1       8.697  13.698  -5.203  0.00  0.00     0.082 H 
ATOM     17  H   LIG d   1      11.022  13.051  -5.663  0.00  0.00     0.033 H 
ATOM     18  H   LIG d   1      11.130  12.227  -4.078  0.00  0.00     0.033 H 
ATOM     19  H   LIG d   1       8.853  11.117  -5.202  0.00  0.00     0.043 H 
ATOM     20  H   LIG d   1       9.961  11.297  -6.597  0.00  0.00     0.043 H 
ATOM     21  H   LIG d   1       8.954   9.920  -3.845  0.00  0.00     0.044 H 
ATOM     22  H   LIG d   1       9.342   8.480  -4.835  0.00  0.00     0.044 H 
ATOM     23  H   LIG d   1      10.644   7.607  -3.171  0.00  0.00     0.044 H 
ATOM     24  H   LIG d   1      11.486   9.162  -2.949  0.00  0.00     0.044 H 
ATOM     25  H   LIG d   1      10.993   8.740  -0.102  0.00  0.00     0.043 H 
ATOM     26  H   LIG d   1      11.511   9.956  -1.298  0.00  0.00     0.043 H 
ATOM     27  H   LIG d   1       8.985  10.848  -0.556  0.00  0.00     0.033 H 
ATOM     28  H   LIG d   1       9.637  10.218   0.974  0.00  0.00     0.033 H 
ATOM     29  H   LIG d   1      11.095  11.937   1.168  0.00  0.00     0.082 H 
ATOM     30  H   LIG d   1      11.649  11.751  -0.511  0.00  0.00     0.082 H 
ATOM     31  H   LIG d   1      11.420  14.218  -1.241  0.00  0.00     0.087 H 
ATOM     32  H   LIG d   1      10.884  12.770  -2.135  0.00  0.00     0.087 H 
ATOM     33  H   LIG d   1       9.455  15.420  -1.748  0.00  0.00     0.087 H 
ATOM     34  H   LIG d   1       8.522  13.947  -2.076  0.00  0.00     0.087 H 
ATOM     35  H   LIG d   1       9.234  15.363  -3.973  0.00  0.00     0.203 HD
ATOM     36  H   LIG d   1       9.042  12.792  -0.395  0.00  0.00     0.203 HD
ENDROOT
BRANCH   5  37
ATOM     37  C   LIG d   1      10.928   9.256  -6.265  0.00  0.00     0.004 C 
ATOM     38  H   LIG d   1      11.208   9.906  -7.093  0.00  0.00     0.043 H 
ATOM     39  H   LIG d   1      11.732   8.545  -6.074  0.00  0.00     0.043 H 
BRANCH  37  40
ATOM     40  C   LIG d   1       9.649   8.496  -6.621  0.00  0.00     0.000 C 
ATOM     41  H   LIG d   1       9.665   7.514  -6.148  0.00  0.00     0.033 H 
ATOM     42  H   LIG d   1       8.783   9.056  -6.267  0.00  0.00     0.033 H 
BRANCH  40  43
ATOM     43  C   LIG d   1       9.561   8.328  -8.140  0.00  0.00    -0.034 C 
ATOM     44  H   LIG d   1      10.474   8.707  -8.600  0.00  0.00     0.081 H 
ATOM     45  H   LIG d   1       9.443   7.272  -8.381  0.00  0.00     0.081 H 
BRANCH  43  46
ATOM     46  N   LIG d   1       8.408   9.080  -8.650  0.00  0.00     0.219 N 
ATOM     47  H   LIG d   1       8.584  10.069  -8.561  0.00  0.00     0.199 HD
ATOM     48  H   LIG d   1       8.260   8.851  -9.621  0.00  0.00     0.199 HD
ATOM     49  H   LIG d   1       7.586   8.836  -8.117  0.00  0.00     0.199 HD
ENDBRANCH  43  46
ENDBRANCH  40  43
ENDBRANCH  37  40
ENDBRANCH   5  37
BRANCH   8  50
ATOM     50  C   LIG d   1       9.342   7.576  -1.264  0.00  0.00     0.004 C 
ATOM     51  H   LIG d   1       9.297   7.609  -0.175  0.00  0.00     0.043 H 
ATOM     52  H   LIG d   1       8.361   7.312  -1.660  0.00  0.00     0.043 H 
BRANCH  50  53
ATOM     53  C   LIG d   1      10.367   6.526  -1.700  0.00  0.00     0.000 C 
ATOM     54  H   LIG d   1       9.889   5.807  -2.366  0.00  0.00     0.033 H 
ATOM     55  H   LIG d   1      11.188   7.016  -2.223  0.00  0.00     0.033 H 
BRANCH  53  56
ATOM     56  C   LIG d   1      10.909   5.799  -0.468  0.00  0.00    -0.034 C 
ATOM     57  H   LIG d   1      11.775   6.335  -0.082  0.00  0.00     0.081 H 
ATOM     58  H   LIG d   1      10.135   5.758   0.299  0.00  0.00     0.081 H 
BRANCH  56  59
ATOM     59  N   LIG d   1      11.302   4.433  -0.839  0.00  0.00     0.219 N 
ATOM     60  H   LIG d   1      10.893   4.197  -1.731  0.00  0.00     0.199 HD
ATOM     61  H   LIG d   1      12.307   4.378  -0.905  0.00  0.00     0.199 HD
ATOM     62  H   LIG d   1      10.974   3.786  -0.138  0.00  0.00     0.199 HD
ENDBRANCH  56  59
ENDBRANCH  53  56
ENDBRANCH  50  53
ENDBRANCH   8  50
BRANCH   1  63
ATOM     63  C   LIG d   1      11.191  14.868  -3.866  0.00  0.00    -0.043 C 
ATOM     64  H   LIG d   1      11.662  14.033  -4.384  0.00  0.00     0.078 H 
ATOM     65  H   LIG d   1      11.273  15.768  -4.476  0.00  0.00     0.078 H 
ATOM     66  H   LIG d   1      11.689  15.031  -2.910  0.00  0.00     0.078 H 
ENDBRANCH   1  63
BRANCH  12  67
ATOM     67  C   LIG d   1      10.111  14.039   0.816  0.00  0.00    -0.043 C 
ATOM     68  H   LIG d   1      11.059  13.918   1.340  0.00  0.00     0.078 H 
ATOM     69  H   LIG d   1      10.061  15.038   0.382  0.00  0.00     0.078 H 
ATOM     70  H   LIG d   1       9.288  13.906   1.519  0.00  0.00     0.078 H 
ENDBRANCH  12  67
TORSDOF 10
ENDMDL
MODEL 4
REMARK VINA RESULT:      -4.5      1.446      5.626
REMARK  10 active torsions:
REMARK  status: ('A' for Active; 'I' for Inactive)
REMARK    1  A    between atoms: C_1  and  N_2 
REMARK    2  A    between atoms: N_6  and  C_21 
REMARK    3  A    between atoms: N_9  and  C_17 
REMARK    4  A    between atoms: N_13  and  C_16 
REMARK    5  A    between atoms: C_17  and  C_18 
REMARK    6  A    between atoms: C_18  and  C_19 
REMARK    7  A    between atoms: C_19  and  N_20 
REMARK    8  A    between atoms: C_21  and  C_22 
REMARK    9  A    between atoms: C_22  and  C_23 
REMARK   10  A    between atoms: C_23  and  N_24 
ROOT
ATOM      1  N   LIG d   1       8.946   0.445  -8.185  0.00  0.00     0.237 N 
ATOM      2  C   LIG d   1       7.572   0.877  -7.948  0.00  0.00    -0.031 C 
ATOM      3  C   LIG d   1       6.531  -0.108  -8.465  0.00  0.00     0.000 C 
ATOM      4  C   LIG d   1       5.137   0.380  -8.049  0.00  0.00     0.004 C 
ATOM      5  N   LIG d   1       4.381  -0.800  -7.514  0.00  0.00    -0.301 N 
ATOM      6  C   LIG d   1       4.148  -0.484  -6.065  0.00  0.00     0.012 C 
ATOM      7  C   LIG d   1       4.246  -1.787  -5.274  0.00  0.00     0.012 C 
ATOM      8  N   LIG d   1       5.122  -1.563  -4.095  0.00  0.00    -0.301 N 
ATOM      9  C   LIG d   1       6.140  -2.644  -4.070  0.00  0.00     0.004 C 
ATOM     10  C   LIG d   1       7.482  -2.041  -3.655  0.00  0.00     0.000 C 
ATOM     11  C   LIG d   1       8.593  -2.592  -4.550  0.00  0.00    -0.031 C 
ATOM     12  N   LIG d   1       9.426  -1.490  -5.046  0.00  0.00     0.237 N 
ATOM     13  C   LIG d   1       9.226  -1.344  -6.499  0.00  0.00     0.009 C 
ATOM     14  C   LIG d   1       9.592   0.075  -6.921  0.00  0.00     0.009 C 
ATOM     15  H   LIG d   1       7.420   1.020  -6.871  0.00  0.00     0.082 H 
ATOM     16  H   LIG d   1       7.412   1.849  -8.432  0.00  0.00     0.082 H 
ATOM     17  H   LIG d   1       6.557  -0.163  -9.553  0.00  0.00     0.033 H 
ATOM     18  H   LIG d   1       6.691  -1.095  -8.032  0.00  0.00     0.033 H 
ATOM     19  H   LIG d   1       5.217   1.126  -7.273  0.00  0.00     0.043 H 
ATOM     20  H   LIG d   1       4.604   0.760  -8.914  0.00  0.00     0.043 H 
ATOM     21  H   LIG d   1       4.914   0.210  -5.739  0.00  0.00     0.044 H 
ATOM     22  H   LIG d   1       3.158  -0.054  -5.969  0.00  0.00     0.044 H 
ATOM     23  H   LIG d   1       3.261  -2.084  -4.924  0.00  0.00     0.044 H 
ATOM     24  H   LIG d   1       4.675  -2.566  -5.895  0.00  0.00     0.044 H 
ATOM     25  H   LIG d   1       5.833  -3.394  -3.345  0.00  0.00     0.043 H 
ATOM     26  H   LIG d   1       6.219  -3.085  -5.058  0.00  0.00     0.043 H 
ATOM     27  H   LIG d   1       7.437  -0.956  -3.750  0.00  0.00     0.033 H 
ATOM     28  H   LIG d   1       7.691  -2.303  -2.616  0.00  0.00     0.033 H 
ATOM     29  H   LIG d   1       9.214  -3.281  -3.974  0.00  0.00     0.082 H 
ATOM     30  H   LIG d   1       8.155  -3.124  -5.394  0.00  0.00     0.082 H 
ATOM     31  H   LIG d   1       9.871  -2.063  -7.007  0.00  0.00     0.087 H 
ATOM     32  H   LIG d   1       8.184  -1.551  -6.730  0.00  0.00     0.087 H 
ATOM     33  H   LIG d   1      10.677   0.153  -7.040  0.00  0.00     0.087 H 
ATOM     34  H   LIG d   1       9.279   0.778  -6.143  0.00  0.00     0.087 H 
ATOM     35  H   LIG d   1       9.460   1.248  -8.563  0.00  0.00     0.203 HD
ATOM     36  H   LIG d   1       9.171  -0.632  -4.585  0.00  0.00     0.203 HD
ENDROOT
BRANCH   5  37
ATOM     37  C   LIG d   1       3.020  -0.693  -8.145  0.00  0.00     0.004 C 
ATOM     38  H   LIG d   1       2.255  -0.725  -7.369  0.00  0.00     0.043 H 
ATOM     39  H   LIG d   1       2.945   0.249  -8.689  0.00  0.00     0.043 H 
BRANCH  37  40
ATOM     40  C   LIG d   1       2.813  -1.859  -9.114  0.00  0.00     0.000 C 
ATOM     41  H   LIG d   1       3.696  -1.969  -9.743  0.00  0.00     0.033 H 
ATOM     42  H   LIG d   1       2.654  -2.777  -8.548  0.00  0.00     0.033 H 
BRANCH  40  43
ATOM     43  C   LIG d   1       1.592  -1.582  -9.993  0.00  0.00    -0.034 C 
ATOM     44  H   LIG d   1       0.963  -0.832  -9.514  0.00  0.00     0.081 H 
ATOM     45  H   LIG d   1       1.920  -1.215 -10.965  0.00  0.00     0.081 H 
BRANCH  43  46
ATOM     46  N   LIG d   1       0.825  -2.822 -10.171  0.00  0.00     0.219 N 
ATOM     47  H   LIG d   1       1.031  -3.218 -11.076  0.00  0.00     0.199 HD
ATOM     48  H   LIG d   1       1.080  -3.481  -9.450  0.00  0.00     0.199 HD
ATOM     49  H   LIG d   1      -0.161  -2.619 -10.108  0.00  0.00     0.199 HD
ENDBRANCH  43  46
ENDBRANCH  40  43
ENDBRANCH  37  40
ENDBRANCH   5  37
BRANCH   8  50
ATOM     50  C   LIG d   1       4.275  -1.723  -2.881  0.00  0.00     0.004 C 
ATOM     51  H   LIG d   1       3.234  -1.850  -3.179  0.00  0.00     0.043 H 
ATOM     52  H   LIG d   1       4.602  -2.602  -2.324  0.00  0.00     0.043 H 
BRANCH  50  53
ATOM     53  C   LIG d   1       4.406  -0.480  -1.999  0.00  0.00     0.000 C 
ATOM     54  H   LIG d   1       4.146  -0.736  -0.971  0.00  0.00     0.033 H 
ATOM     55  H   LIG d   1       5.432  -0.116  -2.034  0.00  0.00     0.033 H 
BRANCH  53  56
ATOM     56  C   LIG d   1       3.461   0.610  -2.509  0.00  0.00    -0.034 C 
ATOM     57  H   LIG d   1       2.799   0.191  -3.266  0.00  0.00     0.081 H 
ATOM     58  H   LIG d   1       2.867   0.993  -1.679  0.00  0.00     0.081 H 
BRANCH  56  59
ATOM     59  N   LIG d   1       4.247   1.704  -3.095  0.00  0.00     0.219 N 
ATOM     60  H   LIG d   1       5.017   1.929  -2.483  0.00  0.00     0.199 HD
ATOM     61  H   LIG d   1       4.604   1.417  -3.994  0.00  0.00     0.199 HD
ATOM     62  H   LIG d   1       3.660   2.516  -3.208  0.00  0.00     0.199 HD
ENDBRANCH  56  59
ENDBRANCH  53  56
ENDBRANCH  50  53
ENDBRANCH   8  50
BRANCH   1  63
ATOM     63  C   LIG d   1       9.044  -0.637  -9.163  0.00  0.00    -0.043 C 
ATOM     64  H   LIG d   1       9.920  -1.247  -8.943  0.00  0.00     0.078 H 
ATOM     65  H   LIG d   1       8.148  -1.256  -9.110  0.00  0.00     0.078 H 
ATOM     66  H   LIG d   1       9.136  -0.215 -10.163  0.00  0.00     0.078 H 
ENDBRANCH   1  63
BRANCH  12  67
ATOM     67  C   LIG d   1      10.839  -1.791  -4.779  0.00  0.00    -0.043 C 
ATOM     68  H   LIG d   1      10.911  -2.494  -3.950  0.00  0.00     0.078 H 
ATOM     69  H   LIG d   1      11.292  -2.229  -5.669  0.00  0.00     0.078 H 
ATOM     70  H   LIG d   1      11.363  -0.870  -4.520  0.00  0.00     0.078 H 
ENDBRANCH  12  67
TORSDOF 10
ENDMDL
MODEL 5
REMARK VINA RESULT:      -4.5      3.644      5.855
REMARK  10 active torsions:
REMARK  status: ('A' for Active; 'I' for Inactive)
REMARK    1  A    between atoms: C_1  and  N_2 
REMARK    2  A    between atoms: N_6  and  C_21 
REMARK    3  A    between atoms: N_9  and  C_17 
REMARK    4  A    between atoms: N_13  and  C_16 
REMARK    5  A    between atoms: C_17  and  C_18 
REMARK    6  A    between atoms: C_18  and  C_19 
REMARK    7  A    between atoms: C_19  and  N_20 
REMARK    8  A    between atoms: C_21  and  C_22 
REMARK    9  A    between atoms: C_22  and  C_23 
REMARK   10  A    between atoms: C_23  and  N_24 
ROOT
ATOM      1  N   LIG d   1      12.282  -0.199  -5.634  0.00  0.00     0.237 N 
ATOM      2  C   LIG d   1      11.540  -1.439  -5.842  0.00  0.00    -0.031 C 
ATOM      3  C   LIG d   1      11.336  -2.242  -4.562  0.00  0.00     0.000 C 
ATOM      4  C   LIG d   1      10.441  -3.449  -4.872  0.00  0.00     0.004 C 
ATOM      5  N   LIG d   1       9.409  -3.542  -3.787  0.00  0.00    -0.301 N 
ATOM      6  C   LIG d   1       8.100  -3.288  -4.476  0.00  0.00     0.012 C 
ATOM      7  C   LIG d   1       7.205  -2.503  -3.521  0.00  0.00     0.012 C 
ATOM      8  N   LIG d   1       6.612  -1.357  -4.259  0.00  0.00    -0.301 N 
ATOM      9  C   LIG d   1       6.841  -0.128  -3.457  0.00  0.00     0.004 C 
ATOM     10  C   LIG d   1       7.196   1.016  -4.407  0.00  0.00     0.000 C 
ATOM     11  C   LIG d   1       8.371   1.812  -3.838  0.00  0.00    -0.031 C 
ATOM     12  N   LIG d   1       9.389   2.011  -4.877  0.00  0.00     0.237 N 
ATOM     13  C   LIG d   1      10.594   1.238  -4.533  0.00  0.00     0.009 C 
ATOM     14  C   LIG d   1      11.398   0.960  -5.799  0.00  0.00     0.009 C 
ATOM     15  H   LIG d   1      10.559  -1.205  -6.272  0.00  0.00     0.082 H 
ATOM     16  H   LIG d   1      12.076  -2.062  -6.570  0.00  0.00     0.082 H 
ATOM     17  H   LIG d   1      12.287  -2.618  -4.186  0.00  0.00     0.033 H 
ATOM     18  H   LIG d   1      10.842  -1.635  -3.805  0.00  0.00     0.033 H 
ATOM     19  H   LIG d   1       9.941  -3.312  -5.820  0.00  0.00     0.043 H 
ATOM     20  H   LIG d   1      11.029  -4.360  -4.860  0.00  0.00     0.043 H 
ATOM     21  H   LIG d   1       8.292  -2.709  -5.372  0.00  0.00     0.044 H 
ATOM     22  H   LIG d   1       7.654  -4.247  -4.714  0.00  0.00     0.044 H 
ATOM     23  H   LIG d   1       6.400  -3.137  -3.158  0.00  0.00     0.044 H 
ATOM     24  H   LIG d   1       7.791  -2.126  -2.689  0.00  0.00     0.044 H 
ATOM     25  H   LIG d   1       5.927   0.110  -2.918  0.00  0.00     0.043 H 
ATOM     26  H   LIG d   1       7.655  -0.301  -2.761  0.00  0.00     0.043 H 
ATOM     27  H   LIG d   1       7.466   0.607  -5.381  0.00  0.00     0.033 H 
ATOM     28  H   LIG d   1       6.333   1.674  -4.519  0.00  0.00     0.033 H 
ATOM     29  H   LIG d   1       8.016   2.784  -3.492  0.00  0.00     0.082 H 
ATOM     30  H   LIG d   1       8.810   1.270  -3.000  0.00  0.00     0.082 H 
ATOM     31  H   LIG d   1      11.190   1.826  -3.834  0.00  0.00     0.087 H 
ATOM     32  H   LIG d   1      10.289   0.304  -4.066  0.00  0.00     0.087 H 
ATOM     33  H   LIG d   1      12.003   1.837  -6.048  0.00  0.00     0.087 H 
ATOM     34  H   LIG d   1      10.712   0.768  -6.630  0.00  0.00     0.087 H 
ATOM     35  H   LIG d   1      12.996  -0.141  -6.368  0.00  0.00     0.203 HD
ATOM     36  H   LIG d   1       9.034   1.701  -5.768  0.00  0.00     0.203 HD
ENDROOT
BRANCH   5  37
ATOM     37  C   LIG d   1       9.369  -5.003  -3.430  0.00  0.00     0.004 C 
ATOM     38  H   LIG d   1       8.359  -5.385  -3.574  0.00  0.00     0.043 H 
ATOM     39  H   LIG d   1      10.060  -5.551  -4.070  0.00  0.00     0.043 H 
BRANCH  37  40
ATOM     40  C   LIG d   1       9.779  -5.181  -1.966  0.00  0.00     0.000 C 
ATOM     41  H   LIG d   1      10.563  -4.466  -1.718  0.00  0.00     0.033 H 
ATOM     42  H   LIG d   1       8.915  -5.009  -1.324  0.00  0.00     0.033 H 
BRANCH  40  43
ATOM     43  C   LIG d   1      10.299  -6.604  -1.752  0.00  0.00    -0.034 C 
ATOM     44  H   LIG d   1       9.587  -7.317  -2.165  0.00  0.00     0.081 H 
ATOM     45  H   LIG d   1      11.260  -6.718  -2.254  0.00  0.00     0.081 H 
BRANCH  43  46
ATOM     46  N   LIG d   1      10.465  -6.853  -0.314  0.00  0.00     0.219 N 
ATOM     47  H   LIG d   1       9.966  -7.693  -0.059  0.00  0.00     0.199 HD
ATOM     48  H   LIG d   1      11.445  -6.968  -0.103  0.00  0.00     0.199 HD
ATOM     49  H   LIG d   1      10.097  -6.072   0.207  0.00  0.00     0.199 HD
ENDBRANCH  43  46
ENDBRANCH  40  43
ENDBRANCH  37  40
ENDBRANCH   5  37
BRANCH   8  50
ATOM     50  C   LIG d   1       5.141  -1.584  -4.313  0.00  0.00     0.004 C 
ATOM     51  H   LIG d   1       4.646  -0.677  -4.662  0.00  0.00     0.043 H 
ATOM     52  H   LIG d   1       4.925  -2.402  -5.001  0.00  0.00     0.043 H 
BRANCH  50  53
ATOM     53  C   LIG d   1       4.628  -1.941  -2.917  0.00  0.00     0.000 C 
ATOM     54  H   LIG d   1       4.601  -3.025  -2.807  0.00  0.00     0.033 H 
ATOM     55  H   LIG d   1       5.293  -1.516  -2.166  0.00  0.00     0.033 H 
BRANCH  53  56
ATOM     56  C   LIG d   1       3.219  -1.373  -2.731  0.00  0.00    -0.034 C 
ATOM     57  H   LIG d   1       2.556  -2.159  -2.370  0.00  0.00     0.081 H 
ATOM     58  H   LIG d   1       3.248  -0.560  -2.005  0.00  0.00     0.081 H 
BRANCH  56  59
ATOM     59  N   LIG d   1       2.723  -0.864  -4.016  0.00  0.00     0.219 N 
ATOM     60  H   LIG d   1       3.405  -1.050  -4.737  0.00  0.00     0.199 HD
ATOM     61  H   LIG d   1       1.855  -1.324  -4.248  0.00  0.00     0.199 HD
ATOM     62  H   LIG d   1       2.570   0.130  -3.948  0.00  0.00     0.199 HD
ENDBRANCH  56  59
ENDBRANCH  53  56
ENDBRANCH  50  53
ENDBRANCH   8  50
BRANCH   1  63
ATOM     63  C   LIG d   1      12.973  -0.155  -4.347  0.00  0.00    -0.043 C 
ATOM     64  H   LIG d   1      12.352   0.369  -3.620  0.00  0.00     0.078 H 
ATOM     65  H   LIG d   1      13.160  -1.171  -4.000  0.00  0.00     0.078 H 
ATOM     66  H   LIG d   1      13.920   0.371  -4.462  0.00  0.00     0.078 H 
ENDBRANCH   1  63
BRANCH  12  67
ATOM     67  C   LIG d   1       9.732   3.437  -4.954  0.00  0.00    -0.043 C 
ATOM     68  H   LIG d   1      10.118   3.770  -3.991  0.00  0.00     0.078 H 
ATOM     69  H   LIG d   1      10.492   3.587  -5.721  0.00  0.00     0.078 H 
ATOM     70  H   LIG d   1       8.841   4.012  -5.207  0.00  0.00     0.078 H 
ENDBRANCH  12  67
TORSDOF 10
ENDMDL
MODEL 6
REMARK VINA RESULT:      -4.5      3.496      6.301
REMARK  10 active torsions:
REMARK  status: ('A' for Active; 'I' for Inactive)
REMARK    1  A    between atoms: C_1  and  N_2 
REMARK    2  A    between atoms: N_6  and  C_21 
REMARK    3  A    between atoms: N_9  and  C_17 
REMARK    4  A    between atoms: N_13  and  C_16 
REMARK    5  A    between atoms: C_17  and  C_18 
REMARK    6  A    between atoms: C_18  and  C_19 
REMARK    7  A    between atoms: C_19  and  N_20 
REMARK    8  A    between atoms: C_21  and  C_22 
REMARK    9  A    between atoms: C_22  and  C_23 
REMARK   10  A    between atoms: C_23  and  N_24 
ROOT
ATOM      1  N   LIG d   1       9.611   2.589  -4.233  0.00  0.00     0.237 N 
ATOM      2  C   LIG d   1       8.575   1.801  -3.572  0.00  0.00    -0.031 C 
ATOM      3  C   LIG d   1       7.566   1.196  -4.540  0.00  0.00     0.000 C 
ATOM      4  C   LIG d   1       6.607   0.291  -3.756  0.00  0.00     0.004 C 
ATOM      5  N   LIG d   1       6.455  -0.988  -4.525  0.00  0.00    -0.301 N 
ATOM      6  C   LIG d   1       7.050  -2.044  -3.639  0.00  0.00     0.012 C 
ATOM      7  C   LIG d   1       7.752  -3.068  -4.528  0.00  0.00     0.012 C 
ATOM      8  N   LIG d   1       9.105  -3.332  -3.973  0.00  0.00    -0.301 N 
ATOM      9  C   LIG d   1      10.088  -3.192  -5.078  0.00  0.00     0.004 C 
ATOM     10  C   LIG d   1      11.334  -2.490  -4.535  0.00  0.00     0.000 C 
ATOM     11  C   LIG d   1      11.798  -1.424  -5.529  0.00  0.00    -0.031 C 
ATOM     12  N   LIG d   1      12.045  -0.160  -4.826  0.00  0.00     0.237 N 
ATOM     13  C   LIG d   1      11.036   0.832  -5.237  0.00  0.00     0.009 C 
ATOM     14  C   LIG d   1      10.905   1.900  -4.156  0.00  0.00     0.009 C 
ATOM     15  H   LIG d   1       9.046   0.993  -3.000  0.00  0.00     0.082 H 
ATOM     16  H   LIG d   1       8.040   2.440  -2.856  0.00  0.00     0.082 H 
ATOM     17  H   LIG d   1       6.975   1.975  -5.020  0.00  0.00     0.033 H 
ATOM     18  H   LIG d   1       8.073   0.589  -5.289  0.00  0.00     0.033 H 
ATOM     19  H   LIG d   1       7.016   0.067  -2.781  0.00  0.00     0.043 H 
ATOM     20  H   LIG d   1       5.632   0.760  -3.681  0.00  0.00     0.043 H 
ATOM     21  H   LIG d   1       7.765  -1.571  -2.976  0.00  0.00     0.044 H 
ATOM     22  H   LIG d   1       6.245  -2.510  -3.084  0.00  0.00     0.044 H 
ATOM     23  H   LIG d   1       7.192  -4.000  -4.537  0.00  0.00     0.044 H 
ATOM     24  H   LIG d   1       7.850  -2.679  -5.536  0.00  0.00     0.044 H 
ATOM     25  H   LIG d   1      10.351  -4.183  -5.437  0.00  0.00     0.043 H 
ATOM     26  H   LIG d   1       9.648  -2.605  -5.876  0.00  0.00     0.043 H 
ATOM     27  H   LIG d   1      11.099  -2.023  -3.578  0.00  0.00     0.033 H 
ATOM     28  H   LIG d   1      12.129  -3.223  -4.393  0.00  0.00     0.033 H 
ATOM     29  H   LIG d   1      12.720  -1.755  -6.010  0.00  0.00     0.082 H 
ATOM     30  H   LIG d   1      11.032  -1.272  -6.289  0.00  0.00     0.082 H 
ATOM     31  H   LIG d   1      11.365   1.286  -6.173  0.00  0.00     0.087 H 
ATOM     32  H   LIG d   1      10.086   0.323  -5.384  0.00  0.00     0.087 H 
ATOM     33  H   LIG d   1      11.707   2.635  -4.269  0.00  0.00     0.087 H 
ATOM     34  H   LIG d   1      11.000   1.433  -3.171  0.00  0.00     0.087 H 
ATOM     35  H   LIG d   1       9.707   3.469  -3.715  0.00  0.00     0.203 HD
ATOM     36  H   LIG d   1      11.987  -0.304  -3.830  0.00  0.00     0.203 HD
ENDROOT
BRANCH   5  37
ATOM     37  C   LIG d   1       4.977  -1.267  -4.502  0.00  0.00     0.004 C 
ATOM     38  H   LIG d   1       4.436  -0.390  -4.855  0.00  0.00     0.043 H 
ATOM     39  H   LIG d   1       4.758  -2.115  -5.152  0.00  0.00     0.043 H 
BRANCH  37  40
ATOM     40  C   LIG d   1       4.543  -1.595  -3.072  0.00  0.00     0.000 C 
ATOM     41  H   LIG d   1       4.547  -2.675  -2.929  0.00  0.00     0.033 H 
ATOM     42  H   LIG d   1       5.235  -1.132  -2.367  0.00  0.00     0.033 H 
BRANCH  40  43
ATOM     43  C   LIG d   1       3.132  -1.054  -2.831  0.00  0.00    -0.034 C 
ATOM     44  H   LIG d   1       2.550  -1.791  -2.278  0.00  0.00     0.081 H 
ATOM     45  H   LIG d   1       3.191  -0.131  -2.255  0.00  0.00     0.081 H 
BRANCH  43  46
ATOM     46  N   LIG d   1       2.483  -0.785  -4.121  0.00  0.00     0.219 N 
ATOM     47  H   LIG d   1       1.913   0.044  -4.045  0.00  0.00     0.199 HD
ATOM     48  H   LIG d   1       3.188  -0.644  -4.829  0.00  0.00     0.199 HD
ATOM     49  H   LIG d   1       1.903  -1.571  -4.375  0.00  0.00     0.199 HD
ENDBRANCH  43  46
ENDBRANCH  40  43
ENDBRANCH  37  40
ENDBRANCH   5  37
BRANCH   8  50
ATOM     50  C   LIG d   1       9.130  -4.755  -3.536  0.00  0.00     0.004 C 
ATOM     51  H   LIG d   1       8.111  -5.137  -3.482  0.00  0.00     0.043 H 
ATOM     52  H   LIG d   1       9.701  -5.345  -4.253  0.00  0.00     0.043 H 
BRANCH  50  53
ATOM     53  C   LIG d   1       9.785  -4.854  -2.156  0.00  0.00     0.000 C 
ATOM     54  H   LIG d   1      10.699  -4.260  -2.145  0.00  0.00     0.033 H 
ATOM     55  H   LIG d   1       9.097  -4.478  -1.400  0.00  0.00     0.033 H 
BRANCH  53  56
ATOM     56  C   LIG d   1      10.122  -6.316  -1.856  0.00  0.00    -0.034 C 
ATOM     57  H   LIG d   1       9.340  -6.959  -2.258  0.00  0.00     0.081 H 
ATOM     58  H   LIG d   1      11.077  -6.571  -2.317  0.00  0.00     0.081 H 
BRANCH  56  59
ATOM     59  N   LIG d   1      10.215  -6.508  -0.402  0.00  0.00     0.219 N 
ATOM     60  H   LIG d   1      10.815  -5.798  -0.008  0.00  0.00     0.199 HD
ATOM     61  H   LIG d   1       9.295  -6.436   0.006  0.00  0.00     0.199 HD
ATOM     62  H   LIG d   1      10.600  -7.419  -0.207  0.00  0.00     0.199 HD
ENDBRANCH  56  59
ENDBRANCH  53  56
ENDBRANCH  50  53
ENDBRANCH   8  50
BRANCH   1  63
ATOM     63  C   LIG d   1       9.277   2.928  -5.614  0.00  0.00    -0.043 C 
ATOM     64  H   LIG d   1       8.197   2.869  -5.752  0.00  0.00     0.078 H 
ATOM     65  H   LIG d   1       9.616   3.941  -5.832  0.00  0.00     0.078 H 
ATOM     66  H   LIG d   1       9.768   2.227  -6.289  0.00  0.00     0.078 H 
ENDBRANCH   1  63
BRANCH  12  67
ATOM     67  C   LIG d   1      13.383   0.336  -5.174  0.00  0.00    -0.043 C 
ATOM     68  H   LIG d   1      13.934   0.568  -4.263  0.00  0.00     0.078 H 
ATOM     69  H   LIG d   1      13.918  -0.428  -5.738  0.00  0.00     0.078 H 
ATOM     70  H   LIG d   1      13.290   1.237  -5.781  0.00  0.00     0.078 H 
ENDBRANCH  12  67
TORSDOF 10
ENDMDL
MODEL 7
REMARK VINA RESULT:      -4.4      2.097      5.493
REMARK  10 active torsions:
REMARK  status: ('A' for Active; 'I' for Inactive)
REMARK    1  A    between atoms: C_1  and  N_2 
REMARK    2  A    between atoms: N_6  and  C_21 
REMARK    3  A    between atoms: N_9  and  C_17 
REMARK    4  A    between atoms: N_13  and  C_16 
REMARK    5  A    between atoms: C_17  and  C_18 
REMARK    6  A    between atoms: C_18  and  C_19 
REMARK    7  A    between atoms: C_19  and  N_20 
REMARK    8  A    between atoms: C_21  and  C_22 
REMARK    9  A    between atoms: C_22  and  C_23 
REMARK   10  A    between atoms: C_23  and  N_24 
ROOT
ATOM      1  N   LIG d   1       2.720   0.750  -9.667  0.00  0.00     0.237 N 
ATOM      2  C   LIG d   1       3.052   1.064  -8.280  0.00  0.00    -0.031 C 
ATOM      3  C   LIG d   1       2.763  -0.080  -7.317  0.00  0.00     0.000 C 
ATOM      4  C   LIG d   1       3.265   0.309  -5.920  0.00  0.00     0.004 C 
ATOM      5  N   LIG d   1       4.008  -0.867  -5.358  0.00  0.00    -0.301 N 
ATOM      6  C   LIG d   1       5.429  -0.399  -5.226  0.00  0.00     0.012 C 
ATOM      7  C   LIG d   1       6.348  -1.575  -5.546  0.00  0.00     0.012 C 
ATOM      8  N   LIG d   1       7.394  -1.117  -6.497  0.00  0.00    -0.301 N 
ATOM      9  C   LIG d   1       7.434  -2.076  -7.630  0.00  0.00     0.004 C 
ATOM     10  C   LIG d   1       7.633  -1.291  -8.927  0.00  0.00     0.000 C 
ATOM     11  C   LIG d   1       6.694  -1.831 -10.006  0.00  0.00    -0.031 C 
ATOM     12  N   LIG d   1       5.990  -0.719 -10.656  0.00  0.00     0.237 N 
ATOM     13  C   LIG d   1       4.560  -0.777 -10.307  0.00  0.00     0.009 C 
ATOM     14  C   LIG d   1       3.942   0.609 -10.466  0.00  0.00     0.009 C 
ATOM     15  H   LIG d   1       4.115   1.323  -8.214  0.00  0.00     0.082 H 
ATOM     16  H   LIG d   1       2.479   1.946  -7.965  0.00  0.00     0.082 H 
ATOM     17  H   LIG d   1       1.691  -0.267  -7.247  0.00  0.00     0.033 H 
ATOM     18  H   LIG d   1       3.286  -0.983  -7.628  0.00  0.00     0.033 H 
ATOM     19  H   LIG d   1       3.940   1.151  -5.985  0.00  0.00     0.043 H 
ATOM     20  H   LIG d   1       2.424   0.522  -5.269  0.00  0.00     0.043 H 
ATOM     21  H   LIG d   1       5.591   0.407  -5.934  0.00  0.00     0.044 H 
ATOM     22  H   LIG d   1       5.579  -0.064  -4.207  0.00  0.00     0.044 H 
ATOM     23  H   LIG d   1       6.832  -1.927  -4.639  0.00  0.00     0.044 H 
ATOM     24  H   LIG d   1       5.778  -2.377  -6.003  0.00  0.00     0.044 H 
ATOM     25  H   LIG d   1       8.268  -2.757  -7.480  0.00  0.00     0.043 H 
ATOM     26  H   LIG d   1       6.500  -2.626  -7.668  0.00  0.00     0.043 H 
ATOM     27  H   LIG d   1       7.421  -0.236  -8.748  0.00  0.00     0.033 H 
ATOM     28  H   LIG d   1       8.667  -1.398  -9.260  0.00  0.00     0.033 H 
ATOM     29  H   LIG d   1       7.275  -2.375 -10.752  0.00  0.00     0.082 H 
ATOM     30  H   LIG d   1       5.967  -2.506  -9.555  0.00  0.00     0.082 H 
ATOM     31  H   LIG d   1       4.071  -1.483 -10.980  0.00  0.00     0.087 H 
ATOM     32  H   LIG d   1       4.465  -1.118  -9.279  0.00  0.00     0.087 H 
ATOM     33  H   LIG d   1       3.702   0.783 -11.519  0.00  0.00     0.087 H 
ATOM     34  H   LIG d   1       4.665   1.367 -10.147  0.00  0.00     0.087 H 
ATOM     35  H   LIG d   1       2.201   1.548 -10.048  0.00  0.00     0.203 HD
ATOM     36  H   LIG d   1       6.376   0.159 -10.348  0.00  0.00     0.203 HD
ENDROOT
BRANCH   5  37
ATOM     37  C   LIG d   1       3.517  -0.980  -3.941  0.00  0.00     0.004 C 
ATOM     38  H   LIG d   1       2.669  -1.663  -3.903  0.00  0.00     0.043 H 
ATOM     39  H   LIG d   1       4.319  -1.361  -3.308  0.00  0.00     0.043 H 
BRANCH  37  40
ATOM     40  C   LIG d   1       3.084   0.399  -3.440  0.00  0.00     0.000 C 
ATOM     41  H   LIG d   1       3.291   1.146  -4.207  0.00  0.00     0.033 H 
ATOM     42  H   LIG d   1       2.015   0.388  -3.223  0.00  0.00     0.033 H 
BRANCH  40  43
ATOM     43  C   LIG d   1       3.859   0.747  -2.167  0.00  0.00    -0.034 C 
ATOM     44  H   LIG d   1       4.630   1.481  -2.400  0.00  0.00     0.081 H 
ATOM     45  H   LIG d   1       3.174   1.161  -1.428  0.00  0.00     0.081 H 
BRANCH  43  46
ATOM     46  N   LIG d   1       4.485  -0.467  -1.629  0.00  0.00     0.219 N 
ATOM     47  H   LIG d   1       4.328  -1.237  -2.262  0.00  0.00     0.199 HD
ATOM     48  H   LIG d   1       5.478  -0.317  -1.524  0.00  0.00     0.199 HD
ATOM     49  H   LIG d   1       4.081  -0.684  -0.729  0.00  0.00     0.199 HD
ENDBRANCH  43  46
ENDBRANCH  40  43
ENDBRANCH  37  40
ENDBRANCH   5  37
BRANCH   8  50
ATOM     50  C   LIG d   1       8.701  -1.211  -5.790  0.00  0.00     0.004 C 
ATOM     51  H   LIG d   1       8.528  -1.356  -4.723  0.00  0.00     0.043 H 
ATOM     52  H   LIG d   1       9.266  -2.058  -6.183  0.00  0.00     0.043 H 
BRANCH  50  53
ATOM     53  C   LIG d   1       9.495   0.078  -6.008  0.00  0.00     0.000 C 
ATOM     54  H   LIG d   1      10.488  -0.029  -5.573  0.00  0.00     0.033 H 
ATOM     55  H   LIG d   1       9.585   0.273  -7.077  0.00  0.00     0.033 H 
BRANCH  53  56
ATOM     56  C   LIG d   1       8.767   1.245  -5.337  0.00  0.00    -0.034 C 
ATOM     57  H   LIG d   1       9.317   2.168  -5.518  0.00  0.00     0.081 H 
ATOM     58  H   LIG d   1       7.762   1.333  -5.752  0.00  0.00     0.081 H 
BRANCH  56  59
ATOM     59  N   LIG d   1       8.679   1.001  -3.891  0.00  0.00     0.219 N 
ATOM     60  H   LIG d   1       9.361   1.571  -3.413  0.00  0.00     0.199 HD
ATOM     61  H   LIG d   1       7.754   1.237  -3.566  0.00  0.00     0.199 HD
ATOM     62  H   LIG d   1       8.865   0.028  -3.703  0.00  0.00     0.199 HD
ENDBRANCH  56  59
ENDBRANCH  53  56
ENDBRANCH  50  53
ENDBRANCH   8  50
BRANCH   1  63
ATOM     63  C   LIG d   1       1.867  -0.430  -9.798  0.00  0.00    -0.043 C 
ATOM     64  H   LIG d   1       2.349  -1.281  -9.317  0.00  0.00     0.078 H 
ATOM     65  H   LIG d   1       0.907  -0.238  -9.319  0.00  0.00     0.078 H 
ATOM     66  H   LIG d   1       1.711  -0.649 -10.854  0.00  0.00     0.078 H 
ENDBRANCH   1  63
BRANCH  12  67
ATOM     67  C   LIG d   1       6.139  -0.837 -12.113  0.00  0.00    -0.043 C 
ATOM     68  H   LIG d   1       6.657   0.041 -12.498  0.00  0.00     0.078 H 
ATOM     69  H   LIG d   1       6.715  -1.731 -12.349  0.00  0.00     0.078 H 
ATOM     70  H   LIG d   1       5.153  -0.908 -12.574  0.00  0.00     0.078 H 
ENDBRANCH  12  67
TORSDOF 10
ENDMDL
MODEL 8
REMARK VINA RESULT:      -4.3      7.607     11.310
REMARK  10 active torsions:
REMARK  status: ('A' for Active; 'I' for Inactive)
REMARK    1  A    between atoms: C_1  and  N_2 
REMARK    2  A    between atoms: N_6  and  C_21 
REMARK    3  A    between atoms: N_9  and  C_17 
REMARK    4  A    between atoms: N_13  and  C_16 
REMARK    5  A    between atoms: C_17  and  C_18 
REMARK    6  A    between atoms: C_18  and  C_19 
REMARK    7  A    between atoms: C_19  and  N_20 
REMARK    8  A    between atoms: C_21  and  C_22 
REMARK    9  A    between atoms: C_22  and  C_23 
REMARK   10  A    between atoms: C_23  and  N_24 
ROOT
ATOM      1  N   LIG d   1       9.619   9.638  -7.951  0.00  0.00     0.237 N 
ATOM      2  C   LIG d   1       9.197   8.568  -7.051  0.00  0.00    -0.031 C 
ATOM      3  C   LIG d   1      10.233   7.460  -6.905  0.00  0.00     0.000 C 
ATOM      4  C   LIG d   1       9.746   6.462  -5.845  0.00  0.00     0.004 C 
ATOM      5  N   LIG d   1      10.903   6.154  -4.942  0.00  0.00    -0.301 N 
ATOM      6  C   LIG d   1      10.500   6.693  -3.600  0.00  0.00     0.012 C 
ATOM      7  C   LIG d   1      11.747   7.251  -2.919  0.00  0.00     0.012 C 
ATOM      8  N   LIG d   1      11.432   8.601  -2.382  0.00  0.00    -0.301 N 
ATOM      9  C   LIG d   1      12.491   9.535  -2.843  0.00  0.00     0.004 C 
ATOM     10  C   LIG d   1      11.838  10.866  -3.216  0.00  0.00     0.000 C 
ATOM     11  C   LIG d   1      12.424  11.376  -4.534  0.00  0.00    -0.031 C 
ATOM     12  N   LIG d   1      11.340  11.774  -5.441  0.00  0.00     0.237 N 
ATOM     13  C   LIG d   1      11.291  10.841  -6.581  0.00  0.00     0.009 C 
ATOM     14  C   LIG d   1       9.895  10.864  -7.195  0.00  0.00     0.009 C 
ATOM     15  H   LIG d   1       8.990   8.991  -6.061  0.00  0.00     0.082 H 
ATOM     16  H   LIG d   1       8.261   8.132  -7.424  0.00  0.00     0.082 H 
ATOM     17  H   LIG d   1      10.356   6.919  -7.843  0.00  0.00     0.033 H 
ATOM     18  H   LIG d   1      11.187   7.870  -6.575  0.00  0.00     0.033 H 
ATOM     19  H   LIG d   1       8.950   6.898  -5.258  0.00  0.00     0.043 H 
ATOM     20  H   LIG d   1       9.431   5.540  -6.321  0.00  0.00     0.043 H 
ATOM     21  H   LIG d   1       9.772   7.482  -3.753  0.00  0.00     0.044 H 
ATOM     22  H   LIG d   1      10.083   5.878  -3.022  0.00  0.00     0.044 H 
ATOM     23  H   LIG d   1      12.040   6.608  -2.094  0.00  0.00     0.044 H 
ATOM     24  H   LIG d   1      12.557   7.333  -3.637  0.00  0.00     0.044 H 
ATOM     25  H   LIG d   1      13.199   9.686  -2.032  0.00  0.00     0.043 H 
ATOM     26  H   LIG d   1      12.992   9.111  -3.707  0.00  0.00     0.043 H 
ATOM     27  H   LIG d   1      10.762  10.724  -3.323  0.00  0.00     0.033 H 
ATOM     28  H   LIG d   1      12.029  11.597  -2.429  0.00  0.00     0.033 H 
ATOM     29  H   LIG d   1      13.063  12.238  -4.337  0.00  0.00     0.082 H 
ATOM     30  H   LIG d   1      13.016  10.589  -5.001  0.00  0.00     0.082 H 
ATOM     31  H   LIG d   1      12.028  11.162  -7.317  0.00  0.00     0.087 H 
ATOM     32  H   LIG d   1      11.532   9.842  -6.225  0.00  0.00     0.087 H 
ATOM     33  H   LIG d   1       9.804  11.724  -7.865  0.00  0.00     0.087 H 
ATOM     34  H   LIG d   1       9.150  10.967  -6.400  0.00  0.00     0.087 H 
ATOM     35  H   LIG d   1       8.832   9.840  -8.577  0.00  0.00     0.203 HD
ATOM     36  H   LIG d   1      10.460  11.754  -4.953  0.00  0.00     0.203 HD
ENDROOT
BRANCH   5  37
ATOM     37  C   LIG d   1      10.861   4.660  -4.775  0.00  0.00     0.004 C 
ATOM     38  H   LIG d   1      10.793   4.186  -5.754  0.00  0.00     0.043 H 
ATOM     39  H   LIG d   1      11.769   4.326  -4.271  0.00  0.00     0.043 H 
BRANCH  37  40
ATOM     40  C   LIG d   1       9.642   4.275  -3.935  0.00  0.00     0.000 C 
ATOM     41  H   LIG d   1       9.397   5.090  -3.254  0.00  0.00     0.033 H 
ATOM     42  H   LIG d   1       8.793   4.085  -4.593  0.00  0.00     0.033 H 
BRANCH  40  43
ATOM     43  C   LIG d   1       9.955   3.013  -3.128  0.00  0.00    -0.034 C 
ATOM     44  H   LIG d   1       9.042   2.647  -2.658  0.00  0.00     0.081 H 
ATOM     45  H   LIG d   1      10.353   2.247  -3.794  0.00  0.00     0.081 H 
BRANCH  43  46
ATOM     46  N   LIG d   1      10.948   3.327  -2.093  0.00  0.00     0.219 N 
ATOM     47  H   LIG d   1      11.767   2.754  -2.228  0.00  0.00     0.199 HD
ATOM     48  H   LIG d   1      11.205   4.300  -2.158  0.00  0.00     0.199 HD
ATOM     49  H   LIG d   1      10.554   3.142  -1.183  0.00  0.00     0.199 HD
ENDBRANCH  43  46
ENDBRANCH  40  43
ENDBRANCH  37  40
ENDBRANCH   5  37
BRANCH   8  50
ATOM     50  C   LIG d   1      11.531   8.517  -0.899  0.00  0.00     0.004 C 
ATOM     51  H   LIG d   1      12.013   7.580  -0.619  0.00  0.00     0.043 H 
ATOM     52  H   LIG d   1      12.122   9.354  -0.526  0.00  0.00     0.043 H 
BRANCH  50  53
ATOM     53  C   LIG d   1      10.129   8.571  -0.290  0.00  0.00     0.000 C 
ATOM     54  H   LIG d   1       9.465   7.910  -0.848  0.00  0.00     0.033 H 
ATOM     55  H   LIG d   1      10.172   8.248   0.750  0.00  0.00     0.033 H 
BRANCH  53  56
ATOM     56  C   LIG d   1       9.598  10.004  -0.357  0.00  0.00    -0.034 C 
ATOM     57  H   LIG d   1       9.361  10.351   0.648  0.00  0.00     0.081 H 
ATOM     58  H   LIG d   1      10.356  10.652  -0.797  0.00  0.00     0.081 H 
BRANCH  56  59
ATOM     59  N   LIG d   1       8.385  10.038  -1.186  0.00  0.00     0.219 N 
ATOM     60  H   LIG d   1       8.383  10.880  -1.743  0.00  0.00     0.199 HD
ATOM     61  H   LIG d   1       8.370   9.232  -1.793  0.00  0.00     0.199 HD
ATOM     62  H   LIG d   1       7.571  10.027  -0.591  0.00  0.00     0.199 HD
ENDBRANCH  56  59
ENDBRANCH  53  56
ENDBRANCH  50  53
ENDBRANCH   8  50
BRANCH   1  63
ATOM     63  C   LIG d   1      10.758   9.266  -8.786  0.00  0.00    -0.043 C 
ATOM     64  H   LIG d   1      10.911   8.188  -8.733  0.00  0.00     0.078 H 
ATOM     65  H   LIG d   1      10.562   9.555  -9.819  0.00  0.00     0.078 H 
ATOM     66  H   LIG d   1      11.652   9.778  -8.429  0.00  0.00     0.078 H 
ENDBRANCH   1  63
BRANCH  12  67
ATOM     67  C   LIG d   1      11.597  13.132  -5.937  0.00  0.00    -0.043 C 
ATOM     68  H   LIG d   1      11.332  13.191  -6.992  0.00  0.00     0.078 H 
ATOM     69  H   LIG d   1      10.996  13.845  -5.371  0.00  0.00     0.078 H 
ATOM     70  H   LIG d   1      12.654  13.370  -5.814  0.00  0.00     0.078 H 
ENDBRANCH  12  67
TORSDOF 10
ENDMDL
MODEL 9
REMARK VINA RESULT:      -4.3      2.560      3.121
REMARK  10 active torsions:
REMARK  status: ('A' for Active; 'I' for Inactive)
REMARK    1  A    between atoms: C_1  and  N_2 
REMARK    2  A    between atoms: N_6  and  C_21 
REMARK    3  A    between atoms: N_9  and  C_17 
REMARK    4  A    between atoms: N_13  and  C_16 
REMARK    5  A    between atoms: C_17  and  C_18 
REMARK    6  A    between atoms: C_18  and  C_19 
REMARK    7  A    between atoms: C_19  and  N_20 
REMARK    8  A    between atoms: C_21  and  C_22 
REMARK    9  A    between atoms: C_22  and  C_23 
REMARK   10  A    between atoms: C_23  and  N_24 
ROOT
ATOM      1  N   LIG d   1       8.786  -4.162  -5.173  0.00  0.00     0.237 N 
ATOM      2  C   LIG d   1       7.343  -4.076  -4.971  0.00  0.00    -0.031 C 
ATOM      3  C   LIG d   1       6.915  -2.836  -4.195  0.00  0.00     0.000 C 
ATOM      4  C   LIG d   1       5.382  -2.781  -4.155  0.00  0.00     0.004 C 
ATOM      5  N   LIG d   1       4.968  -1.375  -4.473  0.00  0.00    -0.301 N 
ATOM      6  C   LIG d   1       4.226  -1.476  -5.774  0.00  0.00     0.012 C 
ATOM      7  C   LIG d   1       4.538  -0.228  -6.596  0.00  0.00     0.012 C 
ATOM      8  N   LIG d   1       4.894  -0.647  -7.978  0.00  0.00    -0.301 N 
ATOM      9  C   LIG d   1       6.172   0.018  -8.342  0.00  0.00     0.004 C 
ATOM     10  C   LIG d   1       7.031  -0.975  -9.124  0.00  0.00     0.000 C 
ATOM     11  C   LIG d   1       8.475  -0.913  -8.624  0.00  0.00    -0.031 C 
ATOM     12  N   LIG d   1       8.974  -2.269  -8.368  0.00  0.00     0.237 N 
ATOM     13  C   LIG d   1       9.170  -2.452  -6.919  0.00  0.00     0.009 C 
ATOM     14  C   LIG d   1       9.121  -3.939  -6.584  0.00  0.00     0.009 C 
ATOM     15  H   LIG d   1       6.842  -4.072  -5.947  0.00  0.00     0.082 H 
ATOM     16  H   LIG d   1       7.001  -4.968  -4.431  0.00  0.00     0.082 H 
ATOM     17  H   LIG d   1       7.276  -2.880  -3.167  0.00  0.00     0.033 H 
ATOM     18  H   LIG d   1       7.277  -1.934  -4.686  0.00  0.00     0.033 H 
ATOM     19  H   LIG d   1       4.963  -3.446  -4.896  0.00  0.00     0.043 H 
ATOM     20  H   LIG d   1       5.028  -3.022  -3.158  0.00  0.00     0.043 H 
ATOM     21  H   LIG d   1       4.567  -2.363  -6.294  0.00  0.00     0.044 H 
ATOM     22  H   LIG d   1       3.166  -1.531  -5.553  0.00  0.00     0.044 H 
ATOM     23  H   LIG d   1       3.664   0.416  -6.642  0.00  0.00     0.044 H 
ATOM     24  H   LIG d   1       5.376   0.305  -6.159  0.00  0.00     0.044 H 
ATOM     25  H   LIG d   1       5.949   0.882  -8.963  0.00  0.00     0.043 H 
ATOM     26  H   LIG d   1       6.686   0.325  -7.438  0.00  0.00     0.043 H 
ATOM     27  H   LIG d   1       6.638  -1.983  -8.986  0.00  0.00     0.033 H 
ATOM     28  H   LIG d   1       7.005  -0.720 -10.185  0.00  0.00     0.033 H 
ATOM     29  H   LIG d   1       9.100  -0.436  -9.380  0.00  0.00     0.082 H 
ATOM     30  H   LIG d   1       8.519  -0.331  -7.703  0.00  0.00     0.082 H 
ATOM     31  H   LIG d   1      10.144  -2.041  -6.652  0.00  0.00     0.087 H 
ATOM     32  H   LIG d   1       8.384  -1.918  -6.391  0.00  0.00     0.087 H 
ATOM     33  H   LIG d   1      10.092  -4.394  -6.796  0.00  0.00     0.087 H 
ATOM     34  H   LIG d   1       8.367  -4.427  -7.209  0.00  0.00     0.087 H 
ATOM     35  H   LIG d   1       9.072  -5.120  -4.943  0.00  0.00     0.203 HD
ATOM     36  H   LIG d   1       8.310  -2.948  -8.705  0.00  0.00     0.203 HD
ENDROOT
BRANCH   5  37
ATOM     37  C   LIG d   1       3.905  -1.057  -3.457  0.00  0.00     0.004 C 
ATOM     38  H   LIG d   1       3.264  -0.261  -3.838  0.00  0.00     0.043 H 
ATOM     39  H   LIG d   1       3.305  -1.948  -3.270  0.00  0.00     0.043 H 
BRANCH  37  40
ATOM     40  C   LIG d   1       4.564  -0.602  -2.154  0.00  0.00     0.000 C 
ATOM     41  H   LIG d   1       4.178  -1.195  -1.325  0.00  0.00     0.033 H 
ATOM     42  H   LIG d   1       5.644  -0.739  -2.226  0.00  0.00     0.033 H 
BRANCH  40  43
ATOM     43  C   LIG d   1       4.252   0.877  -1.913  0.00  0.00    -0.034 C 
ATOM     44  H   LIG d   1       3.178   1.005  -1.787  0.00  0.00     0.081 H 
ATOM     45  H   LIG d   1       4.767   1.214  -1.013  0.00  0.00     0.081 H 
BRANCH  43  46
ATOM     46  N   LIG d   1       4.709   1.667  -3.063  0.00  0.00     0.219 N 
ATOM     47  H   LIG d   1       4.335   2.602  -2.999  0.00  0.00     0.199 HD
ATOM     48  H   LIG d   1       5.717   1.708  -3.065  0.00  0.00     0.199 HD
ATOM     49  H   LIG d   1       4.388   1.235  -3.917  0.00  0.00     0.199 HD
ENDBRANCH  43  46
ENDBRANCH  40  43
ENDBRANCH  37  40
ENDBRANCH   5  37
BRANCH   8  50
ATOM     50  C   LIG d   1       3.841  -0.109  -8.883  0.00  0.00     0.004 C 
ATOM     51  H   LIG d   1       4.213  -0.101  -9.908  0.00  0.00     0.043 H 
ATOM     52  H   LIG d   1       2.954  -0.741  -8.825  0.00  0.00     0.043 H 
BRANCH  50  53
ATOM     53  C   LIG d   1       3.482   1.316  -8.460  0.00  0.00     0.000 C 
ATOM     54  H   LIG d   1       2.470   1.330  -8.053  0.00  0.00     0.033 H 
ATOM     55  H   LIG d   1       4.184   1.657  -7.700  0.00  0.00     0.033 H 
BRANCH  53  56
ATOM     56  C   LIG d   1       3.556   2.244  -9.675  0.00  0.00    -0.034 C 
ATOM     57  H   LIG d   1       2.598   2.745  -9.808  0.00  0.00     0.081 H 
ATOM     58  H   LIG d   1       4.337   2.987  -9.517  0.00  0.00     0.081 H 
BRANCH  56  59
ATOM     59  N   LIG d   1       3.867   1.454 -10.874  0.00  0.00     0.219 N 
ATOM     60  H   LIG d   1       4.284   2.053 -11.571  0.00  0.00     0.199 HD
ATOM     61  H   LIG d   1       4.512   0.717 -10.634  0.00  0.00     0.199 HD
ATOM     62  H   LIG d   1       3.018   1.052 -11.242  0.00  0.00     0.199 HD
ENDBRANCH  56  59
ENDBRANCH  53  56
ENDBRANCH  50  53
ENDBRANCH   8  50
BRANCH   1  63
ATOM     63  C   LIG d   1       9.540  -3.261  -4.304  0.00  0.00    -0.043 C 
ATOM     64  H   LIG d   1      10.483  -2.999  -4.784  0.00  0.00     0.078 H 
ATOM     65  H   LIG d   1       8.959  -2.355  -4.128  0.00  0.00     0.078 H 
ATOM     66  H   LIG d   1       9.739  -3.755  -3.354  0.00  0.00     0.078 H 
ENDBRANCH   1  63
BRANCH  12  67
ATOM     67  C   LIG d   1      10.257  -2.453  -9.058  0.00  0.00    -0.043 C 
ATOM     68  H   LIG d   1      10.874  -3.157  -8.500  0.00  0.00     0.078 H 
ATOM     69  H   LIG d   1      10.078  -2.842 -10.061  0.00  0.00     0.078 H 
ATOM     70  H   LIG d   1      10.773  -1.494  -9.127  0.00  0.00     0.078 H 
ENDBRANCH  12  67
TORSDOF 10
ENDMDL
MODEL 10
REMARK VINA RESULT:      -4.3      7.039      9.871
REMARK  10 active torsions:
REMARK  status: ('A' for Active; 'I' for Inactive)
REMARK    1  A    between atoms: C_1  and  N_2 
REMARK    2  A    between atoms: N_6  and  C_21 
REMARK    3  A    between atoms: N_9  and  C_17 
REMARK    4  A    between atoms: N_13  and  C_16 
REMARK    5  A    between atoms: C_17  and  C_18 
REMARK    6  A    between atoms: C_18  and  C_19 
REMARK    7  A    between atoms: C_19  and  N_20 
REMARK    8  A    between atoms: C_21  and  C_22 
REMARK    9  A    between atoms: C_22  and  C_23 
REMARK   10  A    between atoms: C_23  and  N_24 
ROOT
ATOM      1  N   LIG d   1      10.585   9.897  -0.649  0.00  0.00     0.237 N 
ATOM      2  C   LIG d   1      11.063   8.616  -1.159  0.00  0.00    -0.031 C 
ATOM      3  C   LIG d   1       9.942   7.622  -1.438  0.00  0.00     0.000 C 
ATOM      4  C   LIG d   1      10.542   6.367  -2.087  0.00  0.00     0.004 C 
ATOM      5  N   LIG d   1       9.670   5.994  -3.250  0.00  0.00    -0.301 N 
ATOM      6  C   LIG d   1      10.541   6.175  -4.459  0.00  0.00     0.012 C 
ATOM      7  C   LIG d   1       9.669   6.700  -5.597  0.00  0.00     0.012 C 
ATOM      8  N   LIG d   1      10.358   7.854  -6.231  0.00  0.00    -0.301 N 
ATOM      9  C   LIG d   1       9.389   8.977  -6.313  0.00  0.00     0.004 C 
ATOM     10  C   LIG d   1      10.121  10.278  -5.987  0.00  0.00     0.000 C 
ATOM     11  C   LIG d   1       9.268  11.128  -5.044  0.00  0.00    -0.031 C 
ATOM     12  N   LIG d   1      10.084  11.597  -3.918  0.00  0.00     0.237 N 
ATOM     13  C   LIG d   1       9.630  10.941  -2.680  0.00  0.00     0.009 C 
ATOM     14  C   LIG d   1      10.763  10.948  -1.657  0.00  0.00     0.009 C 
ATOM     15  H   LIG d   1      11.626   8.784  -2.085  0.00  0.00     0.082 H 
ATOM     16  H   LIG d   1      11.755   8.174  -0.431  0.00  0.00     0.082 H 
ATOM     17  H   LIG d   1       9.454   7.319  -0.512  0.00  0.00     0.033 H 
ATOM     18  H   LIG d   1       9.216   8.049  -2.128  0.00  0.00     0.033 H 
ATOM     19  H   LIG d   1      11.539   6.573  -2.449  0.00  0.00     0.043 H 
ATOM     20  H   LIG d   1      10.536   5.545  -1.380  0.00  0.00     0.043 H 
ATOM     21  H   LIG d   1      11.316   6.894  -4.218  0.00  0.00     0.044 H 
ATOM     22  H   LIG d   1      10.964   5.211  -4.717  0.00  0.00     0.044 H 
ATOM     23  H   LIG d   1       9.528   5.925  -6.346  0.00  0.00     0.044 H 
ATOM     24  H   LIG d   1       8.710   7.026  -5.209  0.00  0.00     0.044 H 
ATOM     25  H   LIG d   1       8.991   9.020  -7.323  0.00  0.00     0.043 H 
ATOM     26  H   LIG d   1       8.588   8.812  -5.600  0.00  0.00     0.043 H 
ATOM     27  H   LIG d   1      11.075  10.048  -5.512  0.00  0.00     0.033 H 
ATOM     28  H   LIG d   1      10.303  10.833  -6.909  0.00  0.00     0.033 H 
ATOM     29  H   LIG d   1       8.875  11.989  -5.588  0.00  0.00     0.082 H 
ATOM     30  H   LIG d   1       8.437  10.533  -4.665  0.00  0.00     0.082 H 
ATOM     31  H   LIG d   1       8.775  11.496  -2.293  0.00  0.00     0.087 H 
ATOM     32  H   LIG d   1       9.337   9.921  -2.913  0.00  0.00     0.087 H 
ATOM     33  H   LIG d   1      10.797  11.920  -1.157  0.00  0.00     0.087 H 
ATOM     34  H   LIG d   1      11.716  10.790  -2.171  0.00  0.00     0.087 H 
ATOM     35  H   LIG d   1      11.173  10.148   0.153  0.00  0.00     0.203 HD
ATOM     36  H   LIG d   1      11.053  11.375  -4.081  0.00  0.00     0.203 HD
ENDROOT
BRANCH   5  37
ATOM     37  C   LIG d   1       9.501   4.504  -3.129  0.00  0.00     0.004 C 
ATOM     38  H   LIG d   1       8.654   4.286  -2.478  0.00  0.00     0.043 H 
ATOM     39  H   LIG d   1       9.320   4.078  -4.116  0.00  0.00     0.043 H 
BRANCH  37  40
ATOM     40  C   LIG d   1      10.771   3.893  -2.535  0.00  0.00     0.000 C 
ATOM     41  H   LIG d   1      11.627   4.522  -2.781  0.00  0.00     0.033 H 
ATOM     42  H   LIG d   1      10.670   3.826  -1.451  0.00  0.00     0.033 H 
BRANCH  40  43
ATOM     43  C   LIG d   1      10.984   2.493  -3.115  0.00  0.00    -0.034 C 
ATOM     44  H   LIG d   1      11.634   2.556  -3.987  0.00  0.00     0.081 H 
ATOM     45  H   LIG d   1      11.446   1.855  -2.361  0.00  0.00     0.081 H 
BRANCH  43  46
ATOM     46  N   LIG d   1       9.688   1.925  -3.509  0.00  0.00     0.219 N 
ATOM     47  H   LIG d   1       9.745   0.917  -3.499  0.00  0.00     0.199 HD
ATOM     48  H   LIG d   1       8.977   2.227  -2.861  0.00  0.00     0.199 HD
ATOM     49  H   LIG d   1       9.453   2.238  -4.439  0.00  0.00     0.199 HD
ENDBRANCH  43  46
ENDBRANCH  40  43
ENDBRANCH  37  40
ENDBRANCH   5  37
BRANCH   8  50
ATOM     50  C   LIG d   1      10.692   7.455  -7.625  0.00  0.00     0.004 C 
ATOM     51  H   LIG d   1      11.408   8.161  -8.044  0.00  0.00     0.043 H 
ATOM     52  H   LIG d   1      11.128   6.455  -7.622  0.00  0.00     0.043 H 
BRANCH  50  53
ATOM     53  C   LIG d   1       9.419   7.454  -8.475  0.00  0.00     0.000 C 
ATOM     54  H   LIG d   1       8.547   7.503  -7.822  0.00  0.00     0.033 H 
ATOM     55  H   LIG d   1       9.426   8.317  -9.139  0.00  0.00     0.033 H 
BRANCH  53  56
ATOM     56  C   LIG d   1       9.362   6.171  -9.307  0.00  0.00    -0.034 C 
ATOM     57  H   LIG d   1      10.345   5.971  -9.734  0.00  0.00     0.081 H 
ATOM     58  H   LIG d   1       9.067   5.337  -8.670  0.00  0.00     0.081 H 
BRANCH  56  59
ATOM     59  N   LIG d   1       8.381   6.332 -10.388  0.00  0.00     0.219 N 
ATOM     60  H   LIG d   1       8.483   5.577 -11.050  0.00  0.00     0.199 HD
ATOM     61  H   LIG d   1       7.449   6.318 -10.001  0.00  0.00     0.199 HD
ATOM     62  H   LIG d   1       8.538   7.212 -10.856  0.00  0.00     0.199 HD
ENDBRANCH  56  59
ENDBRANCH  53  56
ENDBRANCH  50  53
ENDBRANCH   8  50
BRANCH   1  63
ATOM     63  C   LIG d   1       9.202   9.847  -0.180  0.00  0.00    -0.043 C 
ATOM     64  H   LIG d   1       8.770  10.847  -0.217  0.00  0.00     0.078 H 
ATOM     65  H   LIG d   1       8.626   9.178  -0.820  0.00  0.00     0.078 H 
ATOM     66  H   LIG d   1       9.180   9.478   0.845  0.00  0.00     0.078 H 
ENDBRANCH   1  63
BRANCH  12  67
ATOM     67  C   LIG d   1       9.931  13.052  -3.781  0.00  0.00    -0.043 C 
ATOM     68  H   LIG d   1      10.914  13.522  -3.768  0.00  0.00     0.078 H 
ATOM     69  H   LIG d   1       9.355  13.438  -4.622  0.00  0.00     0.078 H 
ATOM     70  H   LIG d   1       9.410  13.276  -2.850  0.00  0.00     0.078 H 
ENDBRANCH  12  67
TORSDOF 10
ENDMDL
