MODEL 1
REMARK VINA RESULT:      -6.8      0.000      0.000
REMARK  9 active torsions:
REMARK  status: ('A' for Active; 'I' for Inactive)
REMARK    1  A    between atoms: C_1  and  N_2 
REMARK    2  A    between atoms: C_10  and  C_13 
REMARK    3  A    between atoms: C_13  and  C_15 
REMARK    4  A    between atoms: C_15  and  C_16 
REMARK    5  A    between atoms: C_16  and  C_18 
REMARK    6  A    between atoms: C_16  and  N_29 
REMARK    7  A    between atoms: C_27  and  O_28 
REMARK    8  A    between atoms: N_29  and  C_30 
REMARK    9  A    between atoms: N_29  and  C_36 
ROOT
ATOM      1  C   LIG d   1       5.734  -1.731  -6.007  0.00  0.00     0.065 C 
ATOM      2  H   LIG d   1       6.289  -1.234  -6.802  0.00  0.00     0.056 H 
ENDROOT
BRANCH   1   3
ATOM      3  C   LIG d   1       4.330  -1.130  -5.912  0.00  0.00     0.034 C 
ATOM      4  H   LIG d   1       4.226  -0.598  -4.966  0.00  0.00     0.037 H 
ATOM      5  H   LIG d   1       3.589  -1.927  -5.963  0.00  0.00     0.037 H 
BRANCH   3   6
ATOM      6  C   LIG d   1       4.117  -0.170  -7.054  0.00  0.00     0.170 C 
ATOM      7  O   LIG d   1       3.322   0.740  -6.942  0.00  0.00    -0.292 OA
BRANCH   6   8
ATOM      8  C   LIG d   1       4.844  -0.331  -8.257  0.00  0.00     0.073 A 
ATOM      9  C   LIG d   1       4.390  -1.276  -9.287  0.00  0.00     0.199 A 
ATOM     10  C   LIG d   1       5.203  -1.385 -10.513  0.00  0.00     0.046 A 
ATOM     11  O   LIG d   1       3.381  -1.943  -9.133  0.00  0.00    -0.286 OA
ATOM     12  C   LIG d   1       6.354  -0.592 -10.635  0.00  0.00     0.052 A 
ATOM     13  C   LIG d   1       4.841  -2.258 -11.539  0.00  0.00    -0.049 A 
ATOM     14  N   LIG d   1       6.718   0.274  -9.623  0.00  0.00    -0.356 N 
ATOM     15  C   LIG d   1       7.127  -0.689 -11.789  0.00  0.00    -0.037 A 
ATOM     16  C   LIG d   1       6.012   0.403  -8.487  0.00  0.00    -0.022 A 
ATOM     17  O   LIG d   1       6.438   1.267  -7.547  0.00  0.00    -0.861 OA
ATOM     18  C   LIG d   1       6.758  -1.556 -12.795  0.00  0.00    -0.060 A 
ATOM     19  H   LIG d   1       8.015  -0.084 -11.898  0.00  0.00     0.064 H 
ATOM     20  C   LIG d   1       5.618  -2.339 -12.673  0.00  0.00    -0.061 A 
ATOM     21  H   LIG d   1       7.361  -1.627 -13.688  0.00  0.00     0.062 H 
ATOM     22  H   LIG d   1       5.342  -3.014 -13.469  0.00  0.00     0.062 H 
ATOM     23  H   LIG d   1       3.954  -2.868 -11.445  0.00  0.00     0.062 H 
BRANCH  14  24
ATOM     24  C   LIG d   1       7.928   1.083  -9.793  0.00  0.00     0.011 C 
ATOM     25  H   LIG d   1       8.568   0.627 -10.547  0.00  0.00     0.045 H 
ATOM     26  H   LIG d   1       7.652   2.088 -10.110  0.00  0.00     0.045 H 
ATOM     27  H   LIG d   1       8.466   1.135  -8.845  0.00  0.00     0.045 H 
ENDBRANCH  14  24
ENDBRANCH   6   8
ENDBRANCH   3   6
ENDBRANCH   1   3
BRANCH   1  28
ATOM     28  C   LIG d   1       5.630  -3.204  -6.311  0.00  0.00     0.023 A 
ATOM     29  C   LIG d   1       4.771  -3.993  -5.600  0.00  0.00     0.122 A 
ATOM     30  C   LIG d   1       4.660  -5.359  -5.875  0.00  0.00    -0.019 A 
ATOM     31  C   LIG d   1       5.412  -5.941  -6.847  0.00  0.00    -0.051 A 
ATOM     32  H   LIG d   1       3.970  -5.962  -5.303  0.00  0.00     0.065 H 
ATOM     33  C   LIG d   1       6.310  -5.160  -7.594  0.00  0.00    -0.017 A 
ATOM     34  H   LIG d   1       5.317  -6.999  -7.045  0.00  0.00     0.062 H 
ATOM     35  C   LIG d   1       6.421  -3.773  -7.322  0.00  0.00    -0.009 A 
ATOM     36  C   LIG d   1       7.102  -5.729  -8.607  0.00  0.00    -0.054 A 
ATOM     37  C   LIG d   1       7.320  -2.994  -8.070  0.00  0.00    -0.054 A 
ATOM     38  C   LIG d   1       8.072  -3.580  -9.043  0.00  0.00    -0.061 A 
ATOM     39  H   LIG d   1       7.415  -1.937  -7.874  0.00  0.00     0.062 H 
ATOM     40  C   LIG d   1       7.962  -4.943  -9.310  0.00  0.00    -0.061 A 
ATOM     41  H   LIG d   1       8.763  -2.979  -9.615  0.00  0.00     0.062 H 
ATOM     42  H   LIG d   1       8.570  -5.383 -10.088  0.00  0.00     0.062 H 
ATOM     43  H   LIG d   1       7.028  -6.783  -8.825  0.00  0.00     0.062 H 
BRANCH  29  44
ATOM     44  O   LIG d   1       4.011  -3.441  -4.618  0.00  0.00    -0.506 OA
ATOM     45  H   LIG d   1       4.296  -3.674  -3.723  0.00  0.00     0.292 HD
ENDBRANCH  29  44
ENDBRANCH   1  28
BRANCH   1  46
ATOM     46  N   LIG d   1       6.433  -1.544  -4.733  0.00  0.00    -0.292 N 
BRANCH  46  47
ATOM     47  C   LIG d   1       7.694  -2.112  -4.538  0.00  0.00     0.035 A 
ATOM     48  C   LIG d   1       7.837  -3.228  -3.722  0.00  0.00    -0.040 A 
ATOM     49  C   LIG d   1       9.085  -3.791  -3.536  0.00  0.00    -0.060 A 
ATOM     50  H   LIG d   1       6.973  -3.657  -3.237  0.00  0.00     0.064 H 
ATOM     51  C   LIG d   1      10.193  -3.239  -4.153  0.00  0.00    -0.062 A 
ATOM     52  H   LIG d   1       9.195  -4.660  -2.905  0.00  0.00     0.062 H 
ATOM     53  C   LIG d   1      10.055  -2.126  -4.961  0.00  0.00    -0.060 A 
ATOM     54  H   LIG d   1      11.167  -3.679  -4.002  0.00  0.00     0.062 H 
ATOM     55  C   LIG d   1       8.810  -1.561  -5.156  0.00  0.00    -0.040 A 
ATOM     56  H   LIG d   1      10.922  -1.697  -5.442  0.00  0.00     0.062 H 
ATOM     57  H   LIG d   1       8.703  -0.692  -5.788  0.00  0.00     0.064 H 
ENDBRANCH  46  47
BRANCH  46  58
ATOM     58  C   LIG d   1       5.838  -0.797  -3.713  0.00  0.00     0.035 A 
ATOM     59  C   LIG d   1       6.023   0.579  -3.661  0.00  0.00    -0.040 A 
ATOM     60  C   LIG d   1       5.430   1.316  -2.654  0.00  0.00    -0.060 A 
ATOM     61  H   LIG d   1       6.627   1.072  -4.408  0.00  0.00     0.064 H 
ATOM     62  C   LIG d   1       4.661   0.684  -1.694  0.00  0.00    -0.062 A 
ATOM     63  H   LIG d   1       5.569   2.386  -2.615  0.00  0.00     0.062 H 
ATOM     64  C   LIG d   1       4.479  -0.686  -1.741  0.00  0.00    -0.060 A 
ATOM     65  H   LIG d   1       4.201   1.262  -0.906  0.00  0.00     0.062 H 
ATOM     66  C   LIG d   1       5.065  -1.428  -2.747  0.00  0.00    -0.040 A 
ATOM     67  H   LIG d   1       3.877  -1.176  -0.989  0.00  0.00     0.062 H 
ATOM     68  H   LIG d   1       4.922  -2.498  -2.782  0.00  0.00     0.064 H 
ENDBRANCH  46  58
ENDBRANCH   1  46
TORSDOF 9
ENDMDL
MODEL 2
REMARK VINA RESULT:      -6.8      0.015      2.957
REMARK  9 active torsions:
REMARK  status: ('A' for Active; 'I' for Inactive)
REMARK    1  A    between atoms: C_1  and  N_2 
REMARK    2  A    between atoms: C_10  and  C_13 
REMARK    3  A    between atoms: C_13  and  C_15 
REMARK    4  A    between atoms: C_15  and  C_16 
REMARK    5  A    between atoms: C_16  and  C_18 
REMARK    6  A    between atoms: C_16  and  N_29 
REMARK    7  A    between atoms: C_27  and  O_28 
REMARK    8  A    between atoms: N_29  and  C_30 
REMARK    9  A    between atoms: N_29  and  C_36 
ROOT
ATOM      1  C   LIG d   1       5.727  -1.729  -6.000  0.00  0.00     0.065 C 
ATOM      2  H   LIG d   1       6.281  -1.231  -6.795  0.00  0.00     0.056 H 
ENDROOT
BRANCH   1   3
ATOM      3  C   LIG d   1       4.323  -1.127  -5.903  0.00  0.00     0.034 C 
ATOM      4  H   LIG d   1       4.222  -0.593  -4.957  0.00  0.00     0.037 H 
ATOM      5  H   LIG d   1       3.581  -1.924  -5.951  0.00  0.00     0.037 H 
BRANCH   3   6
ATOM      6  C   LIG d   1       4.108  -0.169  -7.045  0.00  0.00     0.170 C 
ATOM      7  O   LIG d   1       3.312   0.742  -6.933  0.00  0.00    -0.292 OA
BRANCH   6   8
ATOM      8  C   LIG d   1       4.831  -0.331  -8.250  0.00  0.00     0.073 A 
ATOM      9  C   LIG d   1       4.372  -1.276  -9.279  0.00  0.00     0.199 A 
ATOM     10  C   LIG d   1       5.182  -1.387 -10.506  0.00  0.00     0.046 A 
ATOM     11  O   LIG d   1       3.363  -1.941  -9.122  0.00  0.00    -0.286 OA
ATOM     12  C   LIG d   1       6.335  -0.596 -10.632  0.00  0.00     0.052 A 
ATOM     13  C   LIG d   1       4.816  -2.260 -11.531  0.00  0.00    -0.049 A 
ATOM     14  N   LIG d   1       6.703   0.270  -9.621  0.00  0.00    -0.356 N 
ATOM     15  C   LIG d   1       7.105  -0.696 -11.788  0.00  0.00    -0.037 A 
ATOM     16  C   LIG d   1       6.000   0.400  -8.484  0.00  0.00    -0.022 A 
ATOM     17  O   LIG d   1       6.430   1.264  -7.544  0.00  0.00    -0.861 OA
ATOM     18  C   LIG d   1       6.732  -1.563 -12.792  0.00  0.00    -0.060 A 
ATOM     19  H   LIG d   1       7.994  -0.093 -11.898  0.00  0.00     0.064 H 
ATOM     20  C   LIG d   1       5.591  -2.343 -12.667  0.00  0.00    -0.061 A 
ATOM     21  H   LIG d   1       7.333  -1.635 -13.686  0.00  0.00     0.062 H 
ATOM     22  H   LIG d   1       5.311  -3.017 -13.462  0.00  0.00     0.062 H 
ATOM     23  H   LIG d   1       3.929  -2.868 -11.435  0.00  0.00     0.062 H 
BRANCH  14  24
ATOM     24  C   LIG d   1       7.914   1.075  -9.794  0.00  0.00     0.011 C 
ATOM     25  H   LIG d   1       8.235   1.462  -8.827  0.00  0.00     0.045 H 
ATOM     26  H   LIG d   1       8.705   0.458 -10.218  0.00  0.00     0.045 H 
ATOM     27  H   LIG d   1       7.704   1.909 -10.465  0.00  0.00     0.045 H 
ENDBRANCH  14  24
ENDBRANCH   6   8
ENDBRANCH   3   6
ENDBRANCH   1   3
BRANCH   1  28
ATOM     28  C   LIG d   1       5.621  -3.201  -6.306  0.00  0.00     0.023 A 
ATOM     29  C   LIG d   1       4.765  -3.991  -5.594  0.00  0.00     0.122 A 
ATOM     30  C   LIG d   1       4.653  -5.357  -5.870  0.00  0.00    -0.019 A 
ATOM     31  C   LIG d   1       5.401  -5.937  -6.846  0.00  0.00    -0.051 A 
ATOM     32  H   LIG d   1       3.965  -5.961  -5.296  0.00  0.00     0.065 H 
ATOM     33  C   LIG d   1       6.296  -5.155  -7.595  0.00  0.00    -0.017 A 
ATOM     34  H   LIG d   1       5.306  -6.995  -7.045  0.00  0.00     0.062 H 
ATOM     35  C   LIG d   1       6.409  -3.769  -7.321  0.00  0.00    -0.009 A 
ATOM     36  C   LIG d   1       7.084  -5.722  -8.612  0.00  0.00    -0.054 A 
ATOM     37  C   LIG d   1       7.305  -2.988  -8.072  0.00  0.00    -0.054 A 
ATOM     38  C   LIG d   1       8.052  -3.572  -9.048  0.00  0.00    -0.061 A 
ATOM     39  H   LIG d   1       7.400  -1.931  -7.875  0.00  0.00     0.062 H 
ATOM     40  C   LIG d   1       7.942  -4.935  -9.318  0.00  0.00    -0.061 A 
ATOM     41  H   LIG d   1       8.741  -2.970  -9.623  0.00  0.00     0.062 H 
ATOM     42  H   LIG d   1       8.546  -5.374 -10.099  0.00  0.00     0.062 H 
ATOM     43  H   LIG d   1       7.009  -6.776  -8.832  0.00  0.00     0.062 H 
BRANCH  29  44
ATOM     44  O   LIG d   1       4.009  -3.441  -4.608  0.00  0.00    -0.506 OA
ATOM     45  H   LIG d   1       3.389  -4.060  -4.197  0.00  0.00     0.292 HD
ENDBRANCH  29  44
ENDBRANCH   1  28
BRANCH   1  46
ATOM     46  N   LIG d   1       6.427  -1.544  -4.727  0.00  0.00    -0.292 N 
BRANCH  46  47
ATOM     47  C   LIG d   1       5.834  -0.799  -3.706  0.00  0.00     0.035 A 
ATOM     48  C   LIG d   1       6.021   0.577  -3.649  0.00  0.00    -0.040 A 
ATOM     49  C   LIG d   1       5.429   1.313  -2.641  0.00  0.00    -0.060 A 
ATOM     50  H   LIG d   1       6.626   1.072  -4.395  0.00  0.00     0.064 H 
ATOM     51  C   LIG d   1       4.658   0.680  -1.683  0.00  0.00    -0.062 A 
ATOM     52  H   LIG d   1       5.571   2.383  -2.599  0.00  0.00     0.062 H 
ATOM     53  C   LIG d   1       4.474  -0.690  -1.733  0.00  0.00    -0.060 A 
ATOM     54  H   LIG d   1       4.200   1.257  -0.894  0.00  0.00     0.062 H 
ATOM     55  C   LIG d   1       5.059  -1.430  -2.741  0.00  0.00    -0.040 A 
ATOM     56  H   LIG d   1       3.872  -1.181  -0.983  0.00  0.00     0.062 H 
ATOM     57  H   LIG d   1       4.914  -2.500  -2.780  0.00  0.00     0.064 H 
ENDBRANCH  46  47
BRANCH  46  58
ATOM     58  C   LIG d   1       7.688  -2.115  -4.534  0.00  0.00     0.035 A 
ATOM     59  C   LIG d   1       7.830  -3.233  -3.722  0.00  0.00    -0.040 A 
ATOM     60  C   LIG d   1       9.076  -3.797  -3.537  0.00  0.00    -0.060 A 
ATOM     61  H   LIG d   1       6.965  -3.662  -3.238  0.00  0.00     0.064 H 
ATOM     62  C   LIG d   1      10.185  -3.244  -4.152  0.00  0.00    -0.062 A 
ATOM     63  H   LIG d   1       9.187  -4.668  -2.909  0.00  0.00     0.062 H 
ATOM     64  C   LIG d   1      10.049  -2.128  -4.957  0.00  0.00    -0.060 A 
ATOM     65  H   LIG d   1      11.160  -3.686  -4.003  0.00  0.00     0.062 H 
ATOM     66  C   LIG d   1       8.804  -1.562  -5.150  0.00  0.00    -0.040 A 
ATOM     67  H   LIG d   1      10.917  -1.699  -5.436  0.00  0.00     0.062 H 
ATOM     68  H   LIG d   1       8.699  -0.690  -5.780  0.00  0.00     0.064 H 
ENDBRANCH  46  58
ENDBRANCH   1  46
TORSDOF 9
ENDMDL
MODEL 3
REMARK VINA RESULT:      -6.7      1.498      3.501
REMARK  9 active torsions:
REMARK  status: ('A' for Active; 'I' for Inactive)
REMARK    1  A    between atoms: C_1  and  N_2 
REMARK    2  A    between atoms: C_10  and  C_13 
REMARK    3  A    between atoms: C_13  and  C_15 
REMARK    4  A    between atoms: C_15  and  C_16 
REMARK    5  A    between atoms: C_16  and  C_18 
REMARK    6  A    between atoms: C_16  and  N_29 
REMARK    7  A    between atoms: C_27  and  O_28 
REMARK    8  A    between atoms: N_29  and  C_30 
REMARK    9  A    between atoms: N_29  and  C_36 
ROOT
ATOM      1  C   LIG d   1       6.215  -2.160  -6.019  0.00  0.00     0.065 C 
ATOM      2  H   LIG d   1       6.905  -1.850  -6.805  0.00  0.00     0.056 H 
ENDROOT
BRANCH   1   3
ATOM      3  C   LIG d   1       4.908  -1.376  -6.150  0.00  0.00     0.034 C 
ATOM      4  H   LIG d   1       4.716  -0.832  -5.225  0.00  0.00     0.037 H 
ATOM      5  H   LIG d   1       4.087  -2.067  -6.341  0.00  0.00     0.037 H 
BRANCH   3   6
ATOM      6  C   LIG d   1       5.019  -0.401  -7.293  0.00  0.00     0.170 C 
ATOM      7  O   LIG d   1       5.548   0.679  -7.120  0.00  0.00    -0.292 OA
BRANCH   6   8
ATOM      8  C   LIG d   1       4.508  -0.742  -8.567  0.00  0.00     0.073 A 
ATOM      9  C   LIG d   1       3.072  -0.622  -8.855  0.00  0.00     0.199 A 
ATOM     10  C   LIG d   1       2.618  -0.998 -10.208  0.00  0.00     0.046 A 
ATOM     11  O   LIG d   1       2.287  -0.227  -8.010  0.00  0.00    -0.286 OA
ATOM     12  C   LIG d   1       3.567  -1.446 -11.140  0.00  0.00     0.052 A 
ATOM     13  C   LIG d   1       1.272  -0.912 -10.563  0.00  0.00    -0.049 A 
ATOM     14  N   LIG d   1       4.901  -1.533 -10.795  0.00  0.00    -0.356 N 
ATOM     15  C   LIG d   1       3.146  -1.802 -12.419  0.00  0.00    -0.037 A 
ATOM     16  C   LIG d   1       5.359  -1.207  -9.575  0.00  0.00    -0.022 A 
ATOM     17  O   LIG d   1       6.675  -1.325  -9.317  0.00  0.00    -0.861 OA
ATOM     18  C   LIG d   1       1.813  -1.713 -12.756  0.00  0.00    -0.060 A 
ATOM     19  H   LIG d   1       3.865  -2.148 -13.147  0.00  0.00     0.064 H 
ATOM     20  C   LIG d   1       0.877  -1.270 -11.833  0.00  0.00    -0.061 A 
ATOM     21  H   LIG d   1       1.493  -1.992 -13.749  0.00  0.00     0.062 H 
ATOM     22  H   LIG d   1      -0.164  -1.205 -12.112  0.00  0.00     0.062 H 
ATOM     23  H   LIG d   1       0.542  -0.567  -9.845  0.00  0.00     0.062 H 
BRANCH  14  24
ATOM     24  C   LIG d   1       5.856  -2.006 -11.800  0.00  0.00     0.011 C 
ATOM     25  H   LIG d   1       5.868  -1.317 -12.644  0.00  0.00     0.045 H 
ATOM     26  H   LIG d   1       6.851  -2.059 -11.359  0.00  0.00     0.045 H 
ATOM     27  H   LIG d   1       5.559  -2.997 -12.146  0.00  0.00     0.045 H 
ENDBRANCH  14  24
ENDBRANCH   6   8
ENDBRANCH   3   6
ENDBRANCH   1   3
BRANCH   1  28
ATOM     28  C   LIG d   1       5.932  -3.634  -6.152  0.00  0.00     0.023 A 
ATOM     29  C   LIG d   1       4.814  -4.173  -5.582  0.00  0.00     0.122 A 
ATOM     30  C   LIG d   1       4.535  -5.538  -5.701  0.00  0.00    -0.019 A 
ATOM     31  C   LIG d   1       5.376  -6.367  -6.376  0.00  0.00    -0.051 A 
ATOM     32  H   LIG d   1       3.642  -5.940  -5.246  0.00  0.00     0.065 H 
ATOM     33  C   LIG d   1       6.538  -5.848  -6.970  0.00  0.00    -0.017 A 
ATOM     34  H   LIG d   1       5.149  -7.421  -6.456  0.00  0.00     0.062 H 
ATOM     35  C   LIG d   1       6.821  -4.463  -6.856  0.00  0.00    -0.009 A 
ATOM     36  C   LIG d   1       7.428  -6.676  -7.676  0.00  0.00    -0.054 A 
ATOM     37  C   LIG d   1       7.984  -3.946  -7.451  0.00  0.00    -0.054 A 
ATOM     38  C   LIG d   1       8.823  -4.779  -8.126  0.00  0.00    -0.061 A 
ATOM     39  H   LIG d   1       8.212  -2.894  -7.373  0.00  0.00     0.062 H 
ATOM     40  C   LIG d   1       8.546  -6.139  -8.239  0.00  0.00    -0.061 A 
ATOM     41  H   LIG d   1       9.717  -4.379  -8.581  0.00  0.00     0.062 H 
ATOM     42  H   LIG d   1       9.228  -6.779  -8.781  0.00  0.00     0.062 H 
ATOM     43  H   LIG d   1       7.226  -7.732  -7.771  0.00  0.00     0.062 H 
BRANCH  29  44
ATOM     44  O   LIG d   1       3.959  -3.371  -4.896  0.00  0.00    -0.506 OA
ATOM     45  H   LIG d   1       3.106  -3.238  -5.334  0.00  0.00     0.292 HD
ENDBRANCH  29  44
ENDBRANCH   1  28
BRANCH   1  46
ATOM     46  N   LIG d   1       6.816  -1.894  -4.710  0.00  0.00    -0.292 N 
BRANCH  46  47
ATOM     47  C   LIG d   1       6.124  -1.130  -3.767  0.00  0.00     0.035 A 
ATOM     48  C   LIG d   1       6.294   0.249  -3.728  0.00  0.00    -0.040 A 
ATOM     49  C   LIG d   1       5.605   1.002  -2.798  0.00  0.00    -0.060 A 
ATOM     50  H   LIG d   1       6.961   0.731  -4.427  0.00  0.00     0.064 H 
ATOM     51  C   LIG d   1       4.753   0.384  -1.900  0.00  0.00    -0.062 A 
ATOM     52  H   LIG d   1       5.733   2.074  -2.770  0.00  0.00     0.062 H 
ATOM     53  C   LIG d   1       4.586  -0.988  -1.933  0.00  0.00    -0.060 A 
ATOM     54  H   LIG d   1       4.219   0.976  -1.172  0.00  0.00     0.062 H 
ATOM     55  C   LIG d   1       5.268  -1.747  -2.863  0.00  0.00    -0.040 A 
ATOM     56  H   LIG d   1       3.921  -1.467  -1.230  0.00  0.00     0.062 H 
ATOM     57  H   LIG d   1       5.136  -2.818  -2.888  0.00  0.00     0.064 H 
ENDBRANCH  46  47
BRANCH  46  58
ATOM     58  C   LIG d   1       8.080  -2.406  -4.404  0.00  0.00     0.035 A 
ATOM     59  C   LIG d   1       9.209  -1.887  -5.025  0.00  0.00    -0.040 A 
ATOM     60  C   LIG d   1      10.457  -2.392  -4.718  0.00  0.00    -0.060 A 
ATOM     61  H   LIG d   1       9.111  -1.088  -5.746  0.00  0.00     0.064 H 
ATOM     62  C   LIG d   1      10.583  -3.418  -3.800  0.00  0.00    -0.062 A 
ATOM     63  H   LIG d   1      11.336  -1.987  -5.197  0.00  0.00     0.062 H 
ATOM     64  C   LIG d   1       9.460  -3.940  -3.183  0.00  0.00    -0.060 A 
ATOM     65  H   LIG d   1      11.560  -3.813  -3.563  0.00  0.00     0.062 H 
ATOM     66  C   LIG d   1       8.210  -3.437  -3.482  0.00  0.00    -0.040 A 
ATOM     67  H   LIG d   1       9.562  -4.742  -2.466  0.00  0.00     0.062 H 
ATOM     68  H   LIG d   1       7.333  -3.845  -3.000  0.00  0.00     0.064 H 
ENDBRANCH  46  58
ENDBRANCH   1  46
TORSDOF 9
ENDMDL
MODEL 4
REMARK VINA RESULT:      -6.7      2.300      6.368
REMARK  9 active torsions:
REMARK  status: ('A' for Active; 'I' for Inactive)
REMARK    1  A    between atoms: C_1  and  N_2 
REMARK    2  A    between atoms: C_10  and  C_13 
REMARK    3  A    between atoms: C_13  and  C_15 
REMARK    4  A    between atoms: C_15  and  C_16 
REMARK    5  A    between atoms: C_16  and  C_18 
REMARK    6  A    between atoms: C_16  and  N_29 
REMARK    7  A    between atoms: C_27  and  O_28 
REMARK    8  A    between atoms: N_29  and  C_30 
REMARK    9  A    between atoms: N_29  and  C_36 
ROOT
ATOM      1  C   LIG d   1       4.912  -2.501  -6.784  0.00  0.00     0.065 C 
ATOM      2  H   LIG d   1       4.691  -3.426  -6.252  0.00  0.00     0.056 H 
ENDROOT
BRANCH   1   3
ATOM      3  C   LIG d   1       4.497  -2.644  -8.250  0.00  0.00     0.034 C 
ATOM      4  H   LIG d   1       5.360  -2.462  -8.891  0.00  0.00     0.037 H 
ATOM      5  H   LIG d   1       3.717  -1.918  -8.479  0.00  0.00     0.037 H 
BRANCH   3   6
ATOM      6  C   LIG d   1       3.976  -4.036  -8.491  0.00  0.00     0.170 C 
ATOM      7  O   LIG d   1       2.916  -4.198  -9.061  0.00  0.00    -0.292 OA
BRANCH   6   8
ATOM      8  C   LIG d   1       4.721  -5.156  -8.052  0.00  0.00     0.073 A 
ATOM      9  C   LIG d   1       4.381  -5.836  -6.793  0.00  0.00     0.199 A 
ATOM     10  C   LIG d   1       5.206  -6.996  -6.405  0.00  0.00     0.046 A 
ATOM     11  O   LIG d   1       3.454  -5.456  -6.099  0.00  0.00    -0.286 OA
ATOM     12  C   LIG d   1       6.261  -7.388  -7.244  0.00  0.00     0.052 A 
ATOM     13  C   LIG d   1       4.950  -7.697  -5.227  0.00  0.00    -0.049 A 
ATOM     14  N   LIG d   1       6.520  -6.698  -8.412  0.00  0.00    -0.356 N 
ATOM     15  C   LIG d   1       7.044  -8.481  -6.885  0.00  0.00    -0.037 A 
ATOM     16  C   LIG d   1       5.799  -5.634  -8.803  0.00  0.00    -0.022 A 
ATOM     17  O   LIG d   1       6.120  -5.013  -9.954  0.00  0.00    -0.861 OA
ATOM     18  C   LIG d   1       6.780  -9.165  -5.718  0.00  0.00    -0.060 A 
ATOM     19  H   LIG d   1       7.858  -8.795  -7.521  0.00  0.00     0.064 H 
ATOM     20  C   LIG d   1       5.736  -8.776  -4.890  0.00  0.00    -0.061 A 
ATOM     21  H   LIG d   1       7.391 -10.012  -5.444  0.00  0.00     0.062 H 
ATOM     22  H   LIG d   1       5.541  -9.321  -3.978  0.00  0.00     0.062 H 
ATOM     23  H   LIG d   1       4.138  -7.395  -4.582  0.00  0.00     0.062 H 
BRANCH  14  24
ATOM     24  C   LIG d   1       7.631  -7.142  -9.257  0.00  0.00     0.011 C 
ATOM     25  H   LIG d   1       8.567  -6.747  -8.865  0.00  0.00     0.045 H 
ATOM     26  H   LIG d   1       7.670  -8.231  -9.264  0.00  0.00     0.045 H 
ATOM     27  H   LIG d   1       7.482  -6.778 -10.275  0.00  0.00     0.045 H 
ENDBRANCH  14  24
ENDBRANCH   6   8
ENDBRANCH   3   6
ENDBRANCH   1   3
BRANCH   1  28
ATOM     28  C   LIG d   1       4.149  -1.364  -6.155  0.00  0.00     0.023 A 
ATOM     29  C   LIG d   1       3.515  -0.445  -6.940  0.00  0.00     0.122 A 
ATOM     30  C   LIG d   1       2.799   0.613  -6.371  0.00  0.00    -0.019 A 
ATOM     31  C   LIG d   1       2.726   0.761  -5.021  0.00  0.00    -0.051 A 
ATOM     32  H   LIG d   1       2.301   1.325  -7.012  0.00  0.00     0.065 H 
ATOM     33  C   LIG d   1       3.372  -0.162  -4.182  0.00  0.00    -0.017 A 
ATOM     34  H   LIG d   1       2.172   1.586  -4.596  0.00  0.00     0.062 H 
ATOM     35  C   LIG d   1       4.094  -1.239  -4.757  0.00  0.00    -0.009 A 
ATOM     36  C   LIG d   1       3.316  -0.040  -2.783  0.00  0.00    -0.054 A 
ATOM     37  C   LIG d   1       4.739  -2.162  -3.916  0.00  0.00    -0.054 A 
ATOM     38  C   LIG d   1       4.664  -2.010  -2.565  0.00  0.00    -0.061 A 
ATOM     39  H   LIG d   1       5.292  -2.987  -4.340  0.00  0.00     0.062 H 
ATOM     40  C   LIG d   1       3.954  -0.953  -2.001  0.00  0.00    -0.061 A 
ATOM     41  H   LIG d   1       5.162  -2.721  -1.922  0.00  0.00     0.062 H 
ATOM     42  H   LIG d   1       3.909  -0.856  -0.926  0.00  0.00     0.062 H 
ATOM     43  H   LIG d   1       2.770   0.775  -2.332  0.00  0.00     0.062 H 
BRANCH  29  44
ATOM     44  O   LIG d   1       3.575  -0.563  -8.293  0.00  0.00    -0.506 OA
ATOM     45  H   LIG d   1       4.178  -1.254  -8.600  0.00  0.00     0.292 HD
ENDBRANCH  29  44
ENDBRANCH   1  28
BRANCH   1  46
ATOM     46  N   LIG d   1       6.349  -2.226  -6.707  0.00  0.00    -0.292 N 
BRANCH  46  47
ATOM     47  C   LIG d   1       6.825  -0.932  -6.928  0.00  0.00     0.035 A 
ATOM     48  C   LIG d   1       6.880  -0.420  -8.219  0.00  0.00    -0.040 A 
ATOM     49  C   LIG d   1       7.346   0.862  -8.434  0.00  0.00    -0.060 A 
ATOM     50  H   LIG d   1       6.554  -1.024  -9.054  0.00  0.00     0.064 H 
ATOM     51  C   LIG d   1       7.767   1.633  -7.366  0.00  0.00    -0.062 A 
ATOM     52  H   LIG d   1       7.384   1.261  -9.437  0.00  0.00     0.062 H 
ATOM     53  C   LIG d   1       7.719   1.126  -6.081  0.00  0.00    -0.060 A 
ATOM     54  H   LIG d   1       8.135   2.634  -7.538  0.00  0.00     0.062 H 
ATOM     55  C   LIG d   1       7.250  -0.153  -5.858  0.00  0.00    -0.040 A 
ATOM     56  H   LIG d   1       8.050   1.731  -5.249  0.00  0.00     0.062 H 
ATOM     57  H   LIG d   1       7.212  -0.549  -4.854  0.00  0.00     0.064 H 
ENDBRANCH  46  47
BRANCH  46  58
ATOM     58  C   LIG d   1       7.243  -3.259  -6.413  0.00  0.00     0.035 A 
ATOM     59  C   LIG d   1       7.099  -3.991  -5.241  0.00  0.00    -0.040 A 
ATOM     60  C   LIG d   1       7.981  -5.014  -4.955  0.00  0.00    -0.060 A 
ATOM     61  H   LIG d   1       6.296  -3.761  -4.556  0.00  0.00     0.064 H 
ATOM     62  C   LIG d   1       9.013  -5.304  -5.829  0.00  0.00    -0.062 A 
ATOM     63  H   LIG d   1       7.868  -5.586  -4.046  0.00  0.00     0.062 H 
ATOM     64  C   LIG d   1       9.162  -4.575  -6.994  0.00  0.00    -0.060 A 
ATOM     65  H   LIG d   1       9.704  -6.103  -5.601  0.00  0.00     0.062 H 
ATOM     66  C   LIG d   1       8.281  -3.553  -7.289  0.00  0.00    -0.040 A 
ATOM     67  H   LIG d   1       9.969  -4.804  -7.675  0.00  0.00     0.062 H 
ATOM     68  H   LIG d   1       8.398  -2.984  -8.199  0.00  0.00     0.064 H 
ENDBRANCH  46  58
ENDBRANCH   1  46
TORSDOF 9
ENDMDL
MODEL 5
REMARK VINA RESULT:      -6.7      1.497      2.151
REMARK  9 active torsions:
REMARK  status: ('A' for Active; 'I' for Inactive)
REMARK    1  A    between atoms: C_1  and  N_2 
REMARK    2  A    between atoms: C_10  and  C_13 
REMARK    3  A    between atoms: C_13  and  C_15 
REMARK    4  A    between atoms: C_15  and  C_16 
REMARK    5  A    between atoms: C_16  and  C_18 
REMARK    6  A    between atoms: C_16  and  N_29 
REMARK    7  A    between atoms: C_27  and  O_28 
REMARK    8  A    between atoms: N_29  and  C_30 
REMARK    9  A    between atoms: N_29  and  C_36 
ROOT
ATOM      1  C   LIG d   1       6.213  -2.160  -6.026  0.00  0.00     0.065 C 
ATOM      2  H   LIG d   1       6.900  -1.848  -6.812  0.00  0.00     0.056 H 
ENDROOT
BRANCH   1   3
ATOM      3  C   LIG d   1       4.903  -1.379  -6.155  0.00  0.00     0.034 C 
ATOM      4  H   LIG d   1       4.709  -0.837  -5.229  0.00  0.00     0.037 H 
ATOM      5  H   LIG d   1       4.084  -2.072  -6.347  0.00  0.00     0.037 H 
BRANCH   3   6
ATOM      6  C   LIG d   1       5.012  -0.401  -7.296  0.00  0.00     0.170 C 
ATOM      7  O   LIG d   1       5.535   0.680  -7.121  0.00  0.00    -0.292 OA
BRANCH   6   8
ATOM      8  C   LIG d   1       4.504  -0.743  -8.571  0.00  0.00     0.073 A 
ATOM      9  C   LIG d   1       3.067  -0.626  -8.862  0.00  0.00     0.199 A 
ATOM     10  C   LIG d   1       2.617  -1.001 -10.215  0.00  0.00     0.046 A 
ATOM     11  O   LIG d   1       2.280  -0.234  -8.017  0.00  0.00    -0.286 OA
ATOM     12  C   LIG d   1       3.568  -1.446 -11.147  0.00  0.00     0.052 A 
ATOM     13  C   LIG d   1       1.271  -0.919 -10.573  0.00  0.00    -0.049 A 
ATOM     14  N   LIG d   1       4.902  -1.530 -10.800  0.00  0.00    -0.356 N 
ATOM     15  C   LIG d   1       3.151  -1.802 -12.426  0.00  0.00    -0.037 A 
ATOM     16  C   LIG d   1       5.357  -1.204  -9.578  0.00  0.00    -0.022 A 
ATOM     17  O   LIG d   1       6.673  -1.319  -9.318  0.00  0.00    -0.861 OA
ATOM     18  C   LIG d   1       1.818  -1.716 -12.766  0.00  0.00    -0.060 A 
ATOM     19  H   LIG d   1       3.872  -2.145 -13.154  0.00  0.00     0.064 H 
ATOM     20  C   LIG d   1       0.879  -1.276 -11.844  0.00  0.00    -0.061 A 
ATOM     21  H   LIG d   1       1.501  -1.994 -13.760  0.00  0.00     0.062 H 
ATOM     22  H   LIG d   1      -0.162  -1.214 -12.124  0.00  0.00     0.062 H 
ATOM     23  H   LIG d   1       0.539  -0.576  -9.856  0.00  0.00     0.062 H 
BRANCH  14  24
ATOM     24  C   LIG d   1       5.860  -1.999 -11.803  0.00  0.00     0.011 C 
ATOM     25  H   LIG d   1       5.444  -1.854 -12.799  0.00  0.00     0.045 H 
ATOM     26  H   LIG d   1       6.789  -1.436 -11.711  0.00  0.00     0.045 H 
ATOM     27  H   LIG d   1       6.061  -3.060 -11.646  0.00  0.00     0.045 H 
ENDBRANCH  14  24
ENDBRANCH   6   8
ENDBRANCH   3   6
ENDBRANCH   1   3
BRANCH   1  28
ATOM     28  C   LIG d   1       5.933  -3.635  -6.157  0.00  0.00     0.023 A 
ATOM     29  C   LIG d   1       4.818  -4.176  -5.584  0.00  0.00     0.122 A 
ATOM     30  C   LIG d   1       4.543  -5.542  -5.701  0.00  0.00    -0.019 A 
ATOM     31  C   LIG d   1       5.384  -6.369  -6.377  0.00  0.00    -0.051 A 
ATOM     32  H   LIG d   1       3.652  -5.946  -5.243  0.00  0.00     0.065 H 
ATOM     33  C   LIG d   1       6.544  -5.848  -6.975  0.00  0.00    -0.017 A 
ATOM     34  H   LIG d   1       5.160  -7.423  -6.456  0.00  0.00     0.062 H 
ATOM     35  C   LIG d   1       6.822  -4.462  -6.862  0.00  0.00    -0.009 A 
ATOM     36  C   LIG d   1       7.434  -6.673  -7.682  0.00  0.00    -0.054 A 
ATOM     37  C   LIG d   1       7.983  -3.942  -7.460  0.00  0.00    -0.054 A 
ATOM     38  C   LIG d   1       8.823  -4.773  -8.137  0.00  0.00    -0.061 A 
ATOM     39  H   LIG d   1       8.208  -2.888  -7.383  0.00  0.00     0.062 H 
ATOM     40  C   LIG d   1       8.549  -6.134  -8.248  0.00  0.00    -0.061 A 
ATOM     41  H   LIG d   1       9.714  -4.370  -8.595  0.00  0.00     0.062 H 
ATOM     42  H   LIG d   1       9.231  -6.772  -8.791  0.00  0.00     0.062 H 
ATOM     43  H   LIG d   1       7.235  -7.730  -7.776  0.00  0.00     0.062 H 
BRANCH  29  44
ATOM     44  O   LIG d   1       3.962  -3.376  -4.896  0.00  0.00    -0.506 OA
ATOM     45  H   LIG d   1       3.192  -3.092  -5.408  0.00  0.00     0.292 HD
ENDBRANCH  29  44
ENDBRANCH   1  28
BRANCH   1  46
ATOM     46  N   LIG d   1       6.814  -1.891  -4.717  0.00  0.00    -0.292 N 
BRANCH  46  47
ATOM     47  C   LIG d   1       8.079  -2.399  -4.413  0.00  0.00     0.035 A 
ATOM     48  C   LIG d   1       9.208  -1.876  -5.033  0.00  0.00    -0.040 A 
ATOM     49  C   LIG d   1      10.458  -2.377  -4.727  0.00  0.00    -0.060 A 
ATOM     50  H   LIG d   1       9.107  -1.076  -5.751  0.00  0.00     0.064 H 
ATOM     51  C   LIG d   1      10.586  -3.405  -3.810  0.00  0.00    -0.062 A 
ATOM     52  H   LIG d   1      11.335  -1.968  -5.205  0.00  0.00     0.062 H 
ATOM     53  C   LIG d   1       9.465  -3.931  -3.195  0.00  0.00    -0.060 A 
ATOM     54  H   LIG d   1      11.564  -3.797  -3.575  0.00  0.00     0.062 H 
ATOM     55  C   LIG d   1       8.213  -3.432  -3.493  0.00  0.00    -0.040 A 
ATOM     56  H   LIG d   1       9.569  -4.734  -2.480  0.00  0.00     0.062 H 
ATOM     57  H   LIG d   1       7.338  -3.843  -3.012  0.00  0.00     0.064 H 
ENDBRANCH  46  47
BRANCH  46  58
ATOM     58  C   LIG d   1       6.123  -1.125  -3.775  0.00  0.00     0.035 A 
ATOM     59  C   LIG d   1       6.293   0.253  -3.739  0.00  0.00    -0.040 A 
ATOM     60  C   LIG d   1       5.605   1.008  -2.809  0.00  0.00    -0.060 A 
ATOM     61  H   LIG d   1       6.960   0.734  -4.439  0.00  0.00     0.064 H 
ATOM     62  C   LIG d   1       4.755   0.392  -1.908  0.00  0.00    -0.062 A 
ATOM     63  H   LIG d   1       5.733   2.080  -2.783  0.00  0.00     0.062 H 
ATOM     64  C   LIG d   1       4.588  -0.980  -1.939  0.00  0.00    -0.060 A 
ATOM     65  H   LIG d   1       4.221   0.985  -1.180  0.00  0.00     0.062 H 
ATOM     66  C   LIG d   1       5.269  -1.740  -2.868  0.00  0.00    -0.040 A 
ATOM     67  H   LIG d   1       3.923  -1.458  -1.234  0.00  0.00     0.062 H 
ATOM     68  H   LIG d   1       5.137  -2.813  -2.891  0.00  0.00     0.064 H 
ENDBRANCH  46  58
ENDBRANCH   1  46
TORSDOF 9
ENDMDL
MODEL 6
REMARK VINA RESULT:      -6.7      2.299      5.962
REMARK  9 active torsions:
REMARK  status: ('A' for Active; 'I' for Inactive)
REMARK    1  A    between atoms: C_1  and  N_2 
REMARK    2  A    between atoms: C_10  and  C_13 
REMARK    3  A    between atoms: C_13  and  C_15 
REMARK    4  A    between atoms: C_15  and  C_16 
REMARK    5  A    between atoms: C_16  and  C_18 
REMARK    6  A    between atoms: C_16  and  N_29 
REMARK    7  A    between atoms: C_27  and  O_28 
REMARK    8  A    between atoms: N_29  and  C_30 
REMARK    9  A    between atoms: N_29  and  C_36 
ROOT
ATOM      1  C   LIG d   1       4.916  -2.509  -6.783  0.00  0.00     0.065 C 
ATOM      2  H   LIG d   1       4.696  -3.433  -6.249  0.00  0.00     0.056 H 
ENDROOT
BRANCH   1   3
ATOM      3  C   LIG d   1       4.499  -2.656  -8.248  0.00  0.00     0.034 C 
ATOM      4  H   LIG d   1       5.361  -2.475  -8.891  0.00  0.00     0.037 H 
ATOM      5  H   LIG d   1       3.717  -1.932  -8.478  0.00  0.00     0.037 H 
BRANCH   3   6
ATOM      6  C   LIG d   1       3.980  -4.050  -8.484  0.00  0.00     0.170 C 
ATOM      7  O   LIG d   1       2.918  -4.215  -9.051  0.00  0.00    -0.292 OA
BRANCH   6   8
ATOM      8  C   LIG d   1       4.728  -5.167  -8.046  0.00  0.00     0.073 A 
ATOM      9  C   LIG d   1       4.390  -5.848  -6.787  0.00  0.00     0.199 A 
ATOM     10  C   LIG d   1       5.218  -7.006  -6.399  0.00  0.00     0.046 A 
ATOM     11  O   LIG d   1       3.462  -5.471  -6.093  0.00  0.00    -0.286 OA
ATOM     12  C   LIG d   1       6.274  -7.395  -7.239  0.00  0.00     0.052 A 
ATOM     13  C   LIG d   1       4.964  -7.707  -5.221  0.00  0.00    -0.049 A 
ATOM     14  N   LIG d   1       6.531  -6.705  -8.407  0.00  0.00    -0.356 N 
ATOM     15  C   LIG d   1       7.060  -8.486  -6.879  0.00  0.00    -0.037 A 
ATOM     16  C   LIG d   1       5.807  -5.642  -8.797  0.00  0.00    -0.022 A 
ATOM     17  O   LIG d   1       6.126  -5.021  -9.948  0.00  0.00    -0.861 OA
ATOM     18  C   LIG d   1       6.798  -9.171  -5.712  0.00  0.00    -0.060 A 
ATOM     19  H   LIG d   1       7.876  -8.798  -7.516  0.00  0.00     0.064 H 
ATOM     20  C   LIG d   1       5.754  -8.784  -4.884  0.00  0.00    -0.061 A 
ATOM     21  H   LIG d   1       7.412 -10.016  -5.439  0.00  0.00     0.062 H 
ATOM     22  H   LIG d   1       5.560  -9.330  -3.972  0.00  0.00     0.062 H 
ATOM     23  H   LIG d   1       4.152  -7.408  -4.575  0.00  0.00     0.062 H 
BRANCH  14  24
ATOM     24  C   LIG d   1       7.643  -7.146  -9.252  0.00  0.00     0.011 C 
ATOM     25  H   LIG d   1       8.266  -6.290  -9.509  0.00  0.00     0.045 H 
ATOM     26  H   LIG d   1       8.240  -7.881  -8.714  0.00  0.00     0.045 H 
ATOM     27  H   LIG d   1       7.250  -7.595 -10.165  0.00  0.00     0.045 H 
ENDBRANCH  14  24
ENDBRANCH   6   8
ENDBRANCH   3   6
ENDBRANCH   1   3
BRANCH   1  28
ATOM     28  C   LIG d   1       4.152  -1.371  -6.156  0.00  0.00     0.023 A 
ATOM     29  C   LIG d   1       3.518  -0.453  -6.943  0.00  0.00     0.122 A 
ATOM     30  C   LIG d   1       2.802   0.605  -6.375  0.00  0.00    -0.019 A 
ATOM     31  C   LIG d   1       2.728   0.755  -5.026  0.00  0.00    -0.051 A 
ATOM     32  H   LIG d   1       2.304   1.316  -7.018  0.00  0.00     0.065 H 
ATOM     33  C   LIG d   1       3.373  -0.167  -4.185  0.00  0.00    -0.017 A 
ATOM     34  H   LIG d   1       2.173   1.580  -4.602  0.00  0.00     0.062 H 
ATOM     35  C   LIG d   1       4.096  -1.245  -4.758  0.00  0.00    -0.009 A 
ATOM     36  C   LIG d   1       3.317  -0.043  -2.786  0.00  0.00    -0.054 A 
ATOM     37  C   LIG d   1       4.741  -2.166  -3.916  0.00  0.00    -0.054 A 
ATOM     38  C   LIG d   1       4.665  -2.013  -2.565  0.00  0.00    -0.061 A 
ATOM     39  H   LIG d   1       5.295  -2.992  -4.338  0.00  0.00     0.062 H 
ATOM     40  C   LIG d   1       3.955  -0.955  -2.002  0.00  0.00    -0.061 A 
ATOM     41  H   LIG d   1       5.163  -2.723  -1.921  0.00  0.00     0.062 H 
ATOM     42  H   LIG d   1       3.909  -0.856  -0.927  0.00  0.00     0.062 H 
ATOM     43  H   LIG d   1       2.770   0.772  -2.336  0.00  0.00     0.062 H 
BRANCH  29  44
ATOM     44  O   LIG d   1       3.579  -0.573  -8.295  0.00  0.00    -0.506 OA
ATOM     45  H   LIG d   1       3.198   0.177  -8.774  0.00  0.00     0.292 HD
ENDBRANCH  29  44
ENDBRANCH   1  28
BRANCH   1  46
ATOM     46  N   LIG d   1       6.353  -2.232  -6.709  0.00  0.00    -0.292 N 
BRANCH  46  47
ATOM     47  C   LIG d   1       7.248  -3.262  -6.411  0.00  0.00     0.035 A 
ATOM     48  C   LIG d   1       7.102  -3.994  -5.239  0.00  0.00    -0.040 A 
ATOM     49  C   LIG d   1       7.984  -5.016  -4.949  0.00  0.00    -0.060 A 
ATOM     50  H   LIG d   1       6.295  -3.767  -4.557  0.00  0.00     0.064 H 
ATOM     51  C   LIG d   1       9.019  -5.304  -5.821  0.00  0.00    -0.062 A 
ATOM     52  H   LIG d   1       7.868  -5.588  -4.041  0.00  0.00     0.062 H 
ATOM     53  C   LIG d   1       9.171  -4.575  -6.985  0.00  0.00    -0.060 A 
ATOM     54  H   LIG d   1       9.710  -6.101  -5.590  0.00  0.00     0.062 H 
ATOM     55  C   LIG d   1       8.289  -3.555  -7.283  0.00  0.00    -0.040 A 
ATOM     56  H   LIG d   1       9.980  -4.802  -7.663  0.00  0.00     0.062 H 
ATOM     57  H   LIG d   1       8.407  -2.986  -8.193  0.00  0.00     0.064 H 
ENDBRANCH  46  47
BRANCH  46  58
ATOM     58  C   LIG d   1       6.827  -0.938  -6.937  0.00  0.00     0.035 A 
ATOM     59  C   LIG d   1       6.881  -0.435  -8.231  0.00  0.00    -0.040 A 
ATOM     60  C   LIG d   1       7.347   0.846  -8.453  0.00  0.00    -0.060 A 
ATOM     61  H   LIG d   1       6.557  -1.044  -9.062  0.00  0.00     0.064 H 
ATOM     62  C   LIG d   1       7.768   1.625  -7.391  0.00  0.00    -0.062 A 
ATOM     63  H   LIG d   1       7.386   1.240  -9.458  0.00  0.00     0.062 H 
ATOM     64  C   LIG d   1       7.720   1.125  -6.102  0.00  0.00    -0.060 A 
ATOM     65  H   LIG d   1       8.135   2.626  -7.568  0.00  0.00     0.062 H 
ATOM     66  C   LIG d   1       7.251  -0.153  -5.872  0.00  0.00    -0.040 A 
ATOM     67  H   LIG d   1       8.049   1.736  -5.274  0.00  0.00     0.062 H 
ATOM     68  H   LIG d   1       7.214  -0.542  -4.865  0.00  0.00     0.064 H 
ENDBRANCH  46  58
ENDBRANCH   1  46
TORSDOF 9
ENDMDL
MODEL 7
REMARK VINA RESULT:      -6.7      2.796      6.457
REMARK  9 active torsions:
REMARK  status: ('A' for Active; 'I' for Inactive)
REMARK    1  A    between atoms: C_1  and  N_2 
REMARK    2  A    between atoms: C_10  and  C_13 
REMARK    3  A    between atoms: C_13  and  C_15 
REMARK    4  A    between atoms: C_15  and  C_16 
REMARK    5  A    between atoms: C_16  and  C_18 
REMARK    6  A    between atoms: C_16  and  N_29 
REMARK    7  A    between atoms: C_27  and  O_28 
REMARK    8  A    between atoms: N_29  and  C_30 
REMARK    9  A    between atoms: N_29  and  C_36 
ROOT
ATOM      1  C   LIG d   1       5.503  -0.667  -6.997  0.00  0.00     0.065 C 
ATOM      2  H   LIG d   1       4.930   0.260  -6.981  0.00  0.00     0.056 H 
ENDROOT
BRANCH   1   3
ATOM      3  C   LIG d   1       6.842  -0.425  -7.699  0.00  0.00     0.034 C 
ATOM      4  H   LIG d   1       6.762  -0.723  -8.745  0.00  0.00     0.037 H 
ATOM      5  H   LIG d   1       7.619  -1.013  -7.212  0.00  0.00     0.037 H 
BRANCH   3   6
ATOM      6  C   LIG d   1       7.193   1.038  -7.620  0.00  0.00     0.170 C 
ATOM      7  O   LIG d   1       6.497   1.861  -8.178  0.00  0.00    -0.292 OA
BRANCH   6   8
ATOM      8  C   LIG d   1       8.335   1.452  -6.895  0.00  0.00     0.073 A 
ATOM      9  C   LIG d   1       8.231   1.813  -5.473  0.00  0.00     0.199 A 
ATOM     10  C   LIG d   1       9.467   2.235  -4.789  0.00  0.00     0.046 A 
ATOM     11  O   LIG d   1       7.164   1.766  -4.885  0.00  0.00    -0.286 OA
ATOM     12  C   LIG d   1      10.667   2.270  -5.517  0.00  0.00     0.052 A 
ATOM     13  C   LIG d   1       9.454   2.594  -3.441  0.00  0.00    -0.049 A 
ATOM     14  N   LIG d   1      10.686   1.916  -6.851  0.00  0.00    -0.356 N 
ATOM     15  C   LIG d   1      11.838   2.667  -4.877  0.00  0.00    -0.037 A 
ATOM     16  C   LIG d   1       9.585   1.531  -7.517  0.00  0.00    -0.022 A 
ATOM     17  O   LIG d   1       9.688   1.207  -8.820  0.00  0.00    -0.861 OA
ATOM     18  C   LIG d   1      11.811   3.020  -3.545  0.00  0.00    -0.060 A 
ATOM     19  H   LIG d   1      12.769   2.698  -5.425  0.00  0.00     0.064 H 
ATOM     20  C   LIG d   1      10.624   2.983  -2.827  0.00  0.00    -0.061 A 
ATOM     21  H   LIG d   1      12.723   3.326  -3.055  0.00  0.00     0.062 H 
ATOM     22  H   LIG d   1      10.619   3.262  -1.784  0.00  0.00     0.062 H 
ATOM     23  H   LIG d   1       8.531   2.566  -2.880  0.00  0.00     0.062 H 
BRANCH  14  24
ATOM     24  C   LIG d   1      11.960   1.968  -7.572  0.00  0.00     0.011 C 
ATOM     25  H   LIG d   1      12.592   2.743  -7.139  0.00  0.00     0.045 H 
ATOM     26  H   LIG d   1      12.462   1.004  -7.495  0.00  0.00     0.045 H 
ATOM     27  H   LIG d   1      11.774   2.197  -8.622  0.00  0.00     0.045 H 
ENDBRANCH  14  24
ENDBRANCH   6   8
ENDBRANCH   3   6
ENDBRANCH   1   3
BRANCH   1  28
ATOM     28  C   LIG d   1       5.753  -1.128  -5.585  0.00  0.00     0.023 A 
ATOM     29  C   LIG d   1       6.934  -1.732  -5.259  0.00  0.00     0.122 A 
ATOM     30  C   LIG d   1       7.182  -2.162  -3.951  0.00  0.00    -0.019 A 
ATOM     31  C   LIG d   1       6.251  -2.001  -2.974  0.00  0.00    -0.051 A 
ATOM     32  H   LIG d   1       8.125  -2.633  -3.716  0.00  0.00     0.065 H 
ATOM     33  C   LIG d   1       5.022  -1.388  -3.275  0.00  0.00    -0.017 A 
ATOM     34  H   LIG d   1       6.456  -2.341  -1.969  0.00  0.00     0.062 H 
ATOM     35  C   LIG d   1       4.770  -0.947  -4.599  0.00  0.00    -0.009 A 
ATOM     36  C   LIG d   1       4.038  -1.205  -2.289  0.00  0.00    -0.054 A 
ATOM     37  C   LIG d   1       3.541  -0.335  -4.898  0.00  0.00    -0.054 A 
ATOM     38  C   LIG d   1       2.611  -0.175  -3.917  0.00  0.00    -0.061 A 
ATOM     39  H   LIG d   1       3.335   0.007  -5.901  0.00  0.00     0.062 H 
ATOM     40  C   LIG d   1       2.859  -0.608  -2.616  0.00  0.00    -0.061 A 
ATOM     41  H   LIG d   1       1.667   0.295  -4.150  0.00  0.00     0.062 H 
ATOM     42  H   LIG d   1       2.104  -0.469  -1.855  0.00  0.00     0.062 H 
ATOM     43  H   LIG d   1       4.216  -1.536  -1.277  0.00  0.00     0.062 H 
BRANCH  29  44
ATOM     44  O   LIG d   1       7.881  -1.913  -6.216  0.00  0.00    -0.506 OA
ATOM     45  H   LIG d   1       8.133  -2.838  -6.350  0.00  0.00     0.292 HD
ENDBRANCH  29  44
ENDBRANCH   1  28
BRANCH   1  46
ATOM     46  N   LIG d   1       4.750  -1.694  -7.721  0.00  0.00    -0.292 N 
BRANCH  46  47
ATOM     47  C   LIG d   1       5.129  -3.035  -7.625  0.00  0.00     0.035 A 
ATOM     48  C   LIG d   1       6.107  -3.545  -8.471  0.00  0.00    -0.040 A 
ATOM     49  C   LIG d   1       6.484  -4.869  -8.370  0.00  0.00    -0.060 A 
ATOM     50  H   LIG d   1       6.576  -2.904  -9.204  0.00  0.00     0.064 H 
ATOM     51  C   LIG d   1       5.882  -5.691  -7.435  0.00  0.00    -0.062 A 
ATOM     52  H   LIG d   1       7.247  -5.265  -9.024  0.00  0.00     0.062 H 
ATOM     53  C   LIG d   1       4.905  -5.189  -6.595  0.00  0.00    -0.060 A 
ATOM     54  H   LIG d   1       6.175  -6.727  -7.361  0.00  0.00     0.062 H 
ATOM     55  C   LIG d   1       4.527  -3.864  -6.687  0.00  0.00    -0.040 A 
ATOM     56  H   LIG d   1       4.436  -5.833  -5.866  0.00  0.00     0.062 H 
ATOM     57  H   LIG d   1       3.764  -3.472  -6.031  0.00  0.00     0.064 H 
ENDBRANCH  46  47
BRANCH  46  58
ATOM     58  C   LIG d   1       3.653  -1.332  -8.507  0.00  0.00     0.035 A 
ATOM     59  C   LIG d   1       3.281   0.002  -8.611  0.00  0.00    -0.040 A 
ATOM     60  C   LIG d   1       2.199   0.357  -9.391  0.00  0.00    -0.060 A 
ATOM     61  H   LIG d   1       3.840   0.761  -8.083  0.00  0.00     0.064 H 
ATOM     62  C   LIG d   1       1.479  -0.615 -10.062  0.00  0.00    -0.062 A 
ATOM     63  H   LIG d   1       1.911   1.395  -9.476  0.00  0.00     0.062 H 
ATOM     64  C   LIG d   1       1.844  -1.945  -9.957  0.00  0.00    -0.060 A 
ATOM     65  H   LIG d   1       0.631  -0.335 -10.669  0.00  0.00     0.062 H 
ATOM     66  C   LIG d   1       2.928  -2.306  -9.182  0.00  0.00    -0.040 A 
ATOM     67  H   LIG d   1       1.280  -2.702 -10.483  0.00  0.00     0.062 H 
ATOM     68  H   LIG d   1       3.212  -3.346  -9.101  0.00  0.00     0.064 H 
ENDBRANCH  46  58
ENDBRANCH   1  46
TORSDOF 9
ENDMDL
MODEL 8
REMARK VINA RESULT:      -6.7      2.808      6.875
REMARK  9 active torsions:
REMARK  status: ('A' for Active; 'I' for Inactive)
REMARK    1  A    between atoms: C_1  and  N_2 
REMARK    2  A    between atoms: C_10  and  C_13 
REMARK    3  A    between atoms: C_13  and  C_15 
REMARK    4  A    between atoms: C_15  and  C_16 
REMARK    5  A    between atoms: C_16  and  C_18 
REMARK    6  A    between atoms: C_16  and  N_29 
REMARK    7  A    between atoms: C_27  and  O_28 
REMARK    8  A    between atoms: N_29  and  C_30 
REMARK    9  A    between atoms: N_29  and  C_36 
ROOT
ATOM      1  C   LIG d   1       5.527  -0.655  -6.987  0.00  0.00     0.065 C 
ATOM      2  H   LIG d   1       4.955   0.273  -6.966  0.00  0.00     0.056 H 
ENDROOT
BRANCH   1   3
ATOM      3  C   LIG d   1       6.866  -0.412  -7.686  0.00  0.00     0.034 C 
ATOM      4  H   LIG d   1       6.792  -0.719  -8.730  0.00  0.00     0.037 H 
ATOM      5  H   LIG d   1       7.645  -0.993  -7.192  0.00  0.00     0.037 H 
BRANCH   3   6
ATOM      6  C   LIG d   1       7.211   1.053  -7.616  0.00  0.00     0.170 C 
ATOM      7  O   LIG d   1       6.510   1.869  -8.179  0.00  0.00    -0.292 OA
BRANCH   6   8
ATOM      8  C   LIG d   1       8.352   1.477  -6.896  0.00  0.00     0.073 A 
ATOM      9  C   LIG d   1       8.249   1.835  -5.473  0.00  0.00     0.199 A 
ATOM     10  C   LIG d   1       9.484   2.268  -4.793  0.00  0.00     0.046 A 
ATOM     11  O   LIG d   1       7.186   1.776  -4.881  0.00  0.00    -0.286 OA
ATOM     12  C   LIG d   1      10.680   2.317  -5.526  0.00  0.00     0.052 A 
ATOM     13  C   LIG d   1       9.473   2.624  -3.444  0.00  0.00    -0.049 A 
ATOM     14  N   LIG d   1      10.698   1.965  -6.861  0.00  0.00    -0.356 N 
ATOM     15  C   LIG d   1      11.850   2.724  -4.890  0.00  0.00    -0.037 A 
ATOM     16  C   LIG d   1       9.598   1.570  -7.523  0.00  0.00    -0.022 A 
ATOM     17  O   LIG d   1       9.699   1.250  -8.827  0.00  0.00    -0.861 OA
ATOM     18  C   LIG d   1      11.825   3.074  -3.558  0.00  0.00    -0.060 A 
ATOM     19  H   LIG d   1      12.778   2.766  -5.442  0.00  0.00     0.064 H 
ATOM     20  C   LIG d   1      10.642   3.025  -2.835  0.00  0.00    -0.061 A 
ATOM     21  H   LIG d   1      12.736   3.389  -3.071  0.00  0.00     0.062 H 
ATOM     22  H   LIG d   1      10.638   3.301  -1.791  0.00  0.00     0.062 H 
ATOM     23  H   LIG d   1       8.553   2.586  -2.880  0.00  0.00     0.062 H 
BRANCH  14  24
ATOM     24  C   LIG d   1      11.968   2.031  -7.587  0.00  0.00     0.011 C 
ATOM     25  H   LIG d   1      12.786   1.773  -6.915  0.00  0.00     0.045 H 
ATOM     26  H   LIG d   1      11.948   1.330  -8.421  0.00  0.00     0.045 H 
ATOM     27  H   LIG d   1      12.117   3.043  -7.967  0.00  0.00     0.045 H 
ENDBRANCH  14  24
ENDBRANCH   6   8
ENDBRANCH   3   6
ENDBRANCH   1   3
BRANCH   1  28
ATOM     28  C   LIG d   1       5.774  -1.125  -5.577  0.00  0.00     0.023 A 
ATOM     29  C   LIG d   1       6.955  -1.730  -5.252  0.00  0.00     0.122 A 
ATOM     30  C   LIG d   1       7.201  -2.168  -3.947  0.00  0.00    -0.019 A 
ATOM     31  C   LIG d   1       6.267  -2.014  -2.970  0.00  0.00    -0.051 A 
ATOM     32  H   LIG d   1       8.144  -2.638  -3.713  0.00  0.00     0.065 H 
ATOM     33  C   LIG d   1       5.039  -1.402  -3.270  0.00  0.00    -0.017 A 
ATOM     34  H   LIG d   1       6.470  -2.361  -1.967  0.00  0.00     0.062 H 
ATOM     35  C   LIG d   1       4.788  -0.952  -4.592  0.00  0.00    -0.009 A 
ATOM     36  C   LIG d   1       4.051  -1.226  -2.285  0.00  0.00    -0.054 A 
ATOM     37  C   LIG d   1       3.559  -0.340  -4.890  0.00  0.00    -0.054 A 
ATOM     38  C   LIG d   1       2.626  -0.188  -3.910  0.00  0.00    -0.061 A 
ATOM     39  H   LIG d   1       3.355   0.008  -5.892  0.00  0.00     0.062 H 
ATOM     40  C   LIG d   1       2.872  -0.629  -2.612  0.00  0.00    -0.061 A 
ATOM     41  H   LIG d   1       1.682   0.282  -4.143  0.00  0.00     0.062 H 
ATOM     42  H   LIG d   1       2.116  -0.496  -1.852  0.00  0.00     0.062 H 
ATOM     43  H   LIG d   1       4.228  -1.564  -1.275  0.00  0.00     0.062 H 
BRANCH  29  44
ATOM     44  O   LIG d   1       7.905  -1.903  -6.208  0.00  0.00    -0.506 OA
ATOM     45  H   LIG d   1       7.870  -1.248  -6.920  0.00  0.00     0.292 HD
ENDBRANCH  29  44
ENDBRANCH   1  28
BRANCH   1  46
ATOM     46  N   LIG d   1       4.772  -1.676  -7.718  0.00  0.00    -0.292 N 
BRANCH  46  47
ATOM     47  C   LIG d   1       3.676  -1.307  -8.500  0.00  0.00     0.035 A 
ATOM     48  C   LIG d   1       3.315   0.031  -8.607  0.00  0.00    -0.040 A 
ATOM     49  C   LIG d   1       2.234   0.394  -9.386  0.00  0.00    -0.060 A 
ATOM     50  H   LIG d   1       3.882   0.787  -8.085  0.00  0.00     0.064 H 
ATOM     51  C   LIG d   1       1.504  -0.575 -10.052  0.00  0.00    -0.062 A 
ATOM     52  H   LIG d   1       1.956   1.433  -9.473  0.00  0.00     0.062 H 
ATOM     53  C   LIG d   1       1.857  -1.907  -9.943  0.00  0.00    -0.060 A 
ATOM     54  H   LIG d   1       0.657  -0.289 -10.657  0.00  0.00     0.062 H 
ATOM     55  C   LIG d   1       2.940  -2.276  -9.170  0.00  0.00    -0.040 A 
ATOM     56  H   LIG d   1       1.285  -2.661 -10.464  0.00  0.00     0.062 H 
ATOM     57  H   LIG d   1       3.215  -3.317  -9.087  0.00  0.00     0.064 H 
ENDBRANCH  46  47
BRANCH  46  58
ATOM     58  C   LIG d   1       5.150  -3.018  -7.632  0.00  0.00     0.035 A 
ATOM     59  C   LIG d   1       6.126  -3.522  -8.483  0.00  0.00    -0.040 A 
ATOM     60  C   LIG d   1       6.500  -4.848  -8.393  0.00  0.00    -0.060 A 
ATOM     61  H   LIG d   1       6.592  -2.877  -9.213  0.00  0.00     0.064 H 
ATOM     62  C   LIG d   1       5.899  -5.677  -7.463  0.00  0.00    -0.062 A 
ATOM     63  H   LIG d   1       7.261  -5.240  -9.052  0.00  0.00     0.062 H 
ATOM     64  C   LIG d   1       4.925  -5.179  -6.618  0.00  0.00    -0.060 A 
ATOM     65  H   LIG d   1       6.192  -6.715  -7.397  0.00  0.00     0.062 H 
ATOM     66  C   LIG d   1       4.548  -3.854  -6.699  0.00  0.00    -0.040 A 
ATOM     67  H   LIG d   1       4.457  -5.830  -5.892  0.00  0.00     0.062 H 
ATOM     68  H   LIG d   1       3.787  -3.466  -6.037  0.00  0.00     0.064 H 
ENDBRANCH  46  58
ENDBRANCH   1  46
TORSDOF 9
ENDMDL
MODEL 9
REMARK VINA RESULT:      -6.7      2.171      5.283
REMARK  9 active torsions:
REMARK  status: ('A' for Active; 'I' for Inactive)
REMARK    1  A    between atoms: C_1  and  N_2 
REMARK    2  A    between atoms: C_10  and  C_13 
REMARK    3  A    between atoms: C_13  and  C_15 
REMARK    4  A    between atoms: C_15  and  C_16 
REMARK    5  A    between atoms: C_16  and  C_18 
REMARK    6  A    between atoms: C_16  and  N_29 
REMARK    7  A    between atoms: C_27  and  O_28 
REMARK    8  A    between atoms: N_29  and  C_30 
REMARK    9  A    between atoms: N_29  and  C_36 
ROOT
ATOM      1  C   LIG d   1       7.055  -2.953  -6.107  0.00  0.00     0.065 C 
ATOM      2  H   LIG d   1       6.038  -3.140  -6.453  0.00  0.00     0.056 H 
ENDROOT
BRANCH   1   3
ATOM      3  C   LIG d   1       7.954  -2.652  -7.308  0.00  0.00     0.034 C 
ATOM      4  H   LIG d   1       8.747  -3.398  -7.365  0.00  0.00     0.037 H 
ATOM      5  H   LIG d   1       8.396  -1.662  -7.193  0.00  0.00     0.037 H 
BRANCH   3   6
ATOM      6  C   LIG d   1       7.135  -2.692  -8.572  0.00  0.00     0.170 C 
ATOM      7  O   LIG d   1       7.381  -3.516  -9.429  0.00  0.00    -0.292 OA
BRANCH   6   8
ATOM      8  C   LIG d   1       6.079  -1.770  -8.760  0.00  0.00     0.073 A 
ATOM      9  C   LIG d   1       6.345  -0.325  -8.802  0.00  0.00     0.199 A 
ATOM     10  C   LIG d   1       5.190   0.571  -9.002  0.00  0.00     0.046 A 
ATOM     11  O   LIG d   1       7.475   0.115  -8.678  0.00  0.00    -0.286 OA
ATOM     12  C   LIG d   1       3.912   0.009  -9.140  0.00  0.00     0.052 A 
ATOM     13  C   LIG d   1       5.357   1.955  -9.055  0.00  0.00    -0.049 A 
ATOM     14  N   LIG d   1       3.740  -1.360  -9.088  0.00  0.00    -0.356 N 
ATOM     15  C   LIG d   1       2.817   0.848  -9.328  0.00  0.00    -0.037 A 
ATOM     16  C   LIG d   1       4.761  -2.215  -8.903  0.00  0.00    -0.022 A 
ATOM     17  O   LIG d   1       4.508  -3.536  -8.859  0.00  0.00    -0.861 OA
ATOM     18  C   LIG d   1       2.995   2.214  -9.378  0.00  0.00    -0.060 A 
ATOM     19  H   LIG d   1       1.827   0.429  -9.436  0.00  0.00     0.064 H 
ATOM     20  C   LIG d   1       4.260   2.768  -9.242  0.00  0.00    -0.061 A 
ATOM     21  H   LIG d   1       2.142   2.859  -9.524  0.00  0.00     0.062 H 
ATOM     22  H   LIG d   1       4.385   3.840  -9.284  0.00  0.00     0.062 H 
ATOM     23  H   LIG d   1       6.341   2.388  -8.949  0.00  0.00     0.062 H 
BRANCH  14  24
ATOM     24  C   LIG d   1       2.388  -1.904  -9.236  0.00  0.00     0.011 C 
ATOM     25  H   LIG d   1       2.342  -2.528 -10.128  0.00  0.00     0.045 H 
ATOM     26  H   LIG d   1       2.140  -2.503  -8.360  0.00  0.00     0.045 H 
ATOM     27  H   LIG d   1       1.675  -1.085  -9.330  0.00  0.00     0.045 H 
ENDBRANCH  14  24
ENDBRANCH   6   8
ENDBRANCH   3   6
ENDBRANCH   1   3
BRANCH   1  28
ATOM     28  C   LIG d   1       7.058  -1.773  -5.169  0.00  0.00     0.023 A 
ATOM     29  C   LIG d   1       8.028  -0.817  -5.272  0.00  0.00     0.122 A 
ATOM     30  C   LIG d   1       8.041   0.285  -4.412  0.00  0.00    -0.019 A 
ATOM     31  C   LIG d   1       7.097   0.429  -3.444  0.00  0.00    -0.051 A 
ATOM     32  H   LIG d   1       8.815   1.032  -4.515  0.00  0.00     0.065 H 
ATOM     33  C   LIG d   1       6.088  -0.539  -3.306  0.00  0.00    -0.017 A 
ATOM     34  H   LIG d   1       7.123   1.284  -2.784  0.00  0.00     0.062 H 
ATOM     35  C   LIG d   1       6.069  -1.656  -4.180  0.00  0.00    -0.009 A 
ATOM     36  C   LIG d   1       5.096  -0.422  -2.317  0.00  0.00    -0.054 A 
ATOM     37  C   LIG d   1       5.058  -2.623  -4.040  0.00  0.00    -0.054 A 
ATOM     38  C   LIG d   1       4.115  -2.476  -3.069  0.00  0.00    -0.061 A 
ATOM     39  H   LIG d   1       5.031  -3.478  -4.699  0.00  0.00     0.062 H 
ATOM     40  C   LIG d   1       4.133  -1.379  -2.211  0.00  0.00    -0.061 A 
ATOM     41  H   LIG d   1       3.340  -3.222  -2.964  0.00  0.00     0.062 H 
ATOM     42  H   LIG d   1       3.372  -1.286  -1.450  0.00  0.00     0.062 H 
ATOM     43  H   LIG d   1       5.098   0.422  -1.644  0.00  0.00     0.062 H 
BRANCH  29  44
ATOM     44  O   LIG d   1       8.989  -0.936  -6.225  0.00  0.00    -0.506 OA
ATOM     45  H   LIG d   1       9.842  -0.555  -5.974  0.00  0.00     0.292 HD
ENDBRANCH  29  44
ENDBRANCH   1  28
BRANCH   1  46
ATOM     46  N   LIG d   1       7.557  -4.136  -5.405  0.00  0.00    -0.292 N 
BRANCH  46  47
ATOM     47  C   LIG d   1       8.752  -4.067  -4.686  0.00  0.00     0.035 A 
ATOM     48  C   LIG d   1       8.726  -3.947  -3.302  0.00  0.00    -0.040 A 
ATOM     49  C   LIG d   1       9.909  -3.884  -2.592  0.00  0.00    -0.060 A 
ATOM     50  H   LIG d   1       7.781  -3.909  -2.780  0.00  0.00     0.064 H 
ATOM     51  C   LIG d   1      11.120  -3.929  -3.260  0.00  0.00    -0.062 A 
ATOM     52  H   LIG d   1       9.890  -3.795  -1.516  0.00  0.00     0.062 H 
ATOM     53  C   LIG d   1      11.150  -4.043  -4.637  0.00  0.00    -0.060 A 
ATOM     54  H   LIG d   1      12.044  -3.875  -2.703  0.00  0.00     0.062 H 
ATOM     55  C   LIG d   1       9.971  -4.111  -5.352  0.00  0.00    -0.040 A 
ATOM     56  H   LIG d   1      12.097  -4.078  -5.155  0.00  0.00     0.062 H 
ATOM     57  H   LIG d   1       9.995  -4.201  -6.428  0.00  0.00     0.064 H 
ENDBRANCH  46  47
BRANCH  46  58
ATOM     58  C   LIG d   1       6.840  -5.334  -5.454  0.00  0.00     0.035 A 
ATOM     59  C   LIG d   1       7.476  -6.539  -5.182  0.00  0.00    -0.040 A 
ATOM     60  C   LIG d   1       6.763  -7.720  -5.227  0.00  0.00    -0.060 A 
ATOM     61  H   LIG d   1       8.527  -6.550  -4.932  0.00  0.00     0.064 H 
ATOM     62  C   LIG d   1       5.419  -7.707  -5.552  0.00  0.00    -0.062 A 
ATOM     63  H   LIG d   1       7.256  -8.657  -5.011  0.00  0.00     0.062 H 
ATOM     64  C   LIG d   1       4.784  -6.511  -5.829  0.00  0.00    -0.060 A 
ATOM     65  H   LIG d   1       4.865  -8.634  -5.590  0.00  0.00     0.062 H 
ATOM     66  C   LIG d   1       5.489  -5.325  -5.781  0.00  0.00    -0.040 A 
ATOM     67  H   LIG d   1       3.733  -6.504  -6.082  0.00  0.00     0.062 H 
ATOM     68  H   LIG d   1       4.991  -4.390  -5.997  0.00  0.00     0.064 H 
ENDBRANCH  46  58
ENDBRANCH   1  46
TORSDOF 9
ENDMDL
