MODEL 1
REMARK VINA RESULT:      -7.6      0.000      0.000
REMARK  6 active torsions:
REMARK  status: ('A' for Active; 'I' for Inactive)
REMARK    1  A    between atoms: C_1  and  O_2 
REMARK    2  A    between atoms: O_2  and  C_3 
REMARK    3  A    between atoms: C_6  and  N_9 
REMARK       I    between atoms: N_9  and  C_10 
REMARK    4  A    between atoms: C_10  and  C_12 
REMARK    5  A    between atoms: C_12  and  C_13 
REMARK    6  A    between atoms: C_13  and  C_14 
REMARK       I    between atoms: C_14  and  N_16 
ROOT
ATOM      1  C   LIG d   1       8.724  -4.433  -3.687  0.00  0.00     0.216 C 
ATOM      2  O   LIG d   1       9.348  -3.985  -2.748  0.00  0.00    -0.276 OA
ATOM      3  N   LIG d   1       7.794  -3.676  -4.302  0.00  0.00    -0.297 N 
ATOM      4  C   LIG d   1       7.022  -4.202  -5.438  0.00  0.00     0.020 C 
ATOM      5  C   LIG d   1       5.544  -4.283  -5.044  0.00  0.00     0.004 C 
ATOM      6  C   LIG d   1       5.145  -2.998  -4.357  0.00  0.00     0.023 A 
ATOM      7  C   LIG d   1       6.023  -2.121  -3.825  0.00  0.00    -0.002 A 
ATOM      8  C   LIG d   1       5.254  -1.033  -3.261  0.00  0.00     0.005 A 
ATOM      9  C   LIG d   1       5.615   0.139  -2.589  0.00  0.00    -0.052 A 
ATOM     10  C   LIG d   1       4.595   0.964  -2.185  0.00  0.00    -0.061 A 
ATOM     11  C   LIG d   1       3.264   0.661  -2.426  0.00  0.00    -0.060 A 
ATOM     12  C   LIG d   1       2.878  -0.491  -3.088  0.00  0.00    -0.038 A 
ATOM     13  C   LIG d   1       3.893  -1.348  -3.509  0.00  0.00     0.047 A 
ATOM     14  N   LIG d   1       3.866  -2.540  -4.173  0.00  0.00    -0.358 N 
ATOM     15  H   LIG d   1       3.062  -2.995  -4.470  0.00  0.00     0.166 HD
ATOM     16  C   LIG d   1       7.517  -2.301  -3.850  0.00  0.00     0.042 C 
ATOM     17  H   LIG d   1       7.135  -3.536  -6.295  0.00  0.00     0.047 H 
ATOM     18  H   LIG d   1       7.387  -5.195  -5.698  0.00  0.00     0.047 H 
ATOM     19  H   LIG d   1       4.936  -4.423  -5.938  0.00  0.00     0.034 H 
ATOM     20  H   LIG d   1       5.394  -5.122  -4.364  0.00  0.00     0.034 H 
ATOM     21  H   LIG d   1       6.650   0.384  -2.398  0.00  0.00     0.062 H 
ATOM     22  H   LIG d   1       4.837   1.878  -1.663  0.00  0.00     0.062 H 
ATOM     23  H   LIG d   1       2.504   1.347  -2.084  0.00  0.00     0.062 H 
ATOM     24  H   LIG d   1       1.837  -0.716  -3.268  0.00  0.00     0.064 H 
ATOM     25  H   LIG d   1       7.925  -2.151  -2.850  0.00  0.00     0.051 H 
ATOM     26  H   LIG d   1       7.962  -1.586  -4.543  0.00  0.00     0.051 H 
ENDROOT
BRANCH   1  27
ATOM     27  C   LIG d   1       8.991  -5.837  -4.167  0.00  0.00     0.032 C 
ATOM     28  H   LIG d   1       9.538  -5.801  -5.109  0.00  0.00     0.036 H 
ATOM     29  H   LIG d   1       8.044  -6.354  -4.317  0.00  0.00     0.036 H 
BRANCH  27  30
ATOM     30  C   LIG d   1       9.822  -6.583  -3.123  0.00  0.00     0.033 C 
ATOM     31  H   LIG d   1       9.853  -6.003  -2.201  0.00  0.00     0.036 H 
ATOM     32  H   LIG d   1      10.835  -6.724  -3.498  0.00  0.00     0.036 H 
BRANCH  30  33
ATOM     33  C   LIG d   1       9.196  -7.926  -2.848  0.00  0.00     0.218 C 
ATOM     34  N   LIG d   1       8.668  -8.189  -1.635  0.00  0.00    -0.285 N 
ATOM     35  H   LIG d   1       8.622  -7.489  -0.965  0.00  0.00     0.155 HD
ATOM     36  O   LIG d   1       9.167  -8.771  -3.718  0.00  0.00    -0.276 OA
BRANCH  34  37
ATOM     37  C   LIG d   1       8.187  -9.472  -1.344  0.00  0.00     0.034 A 
ATOM     38  C   LIG d   1       6.865  -9.796  -1.617  0.00  0.00    -0.037 A 
ATOM     39  C   LIG d   1       6.391 -11.060  -1.331  0.00  0.00    -0.018 A 
ATOM     40  H   LIG d   1       6.207  -9.059  -2.054  0.00  0.00     0.064 H 
ATOM     41  C   LIG d   1       7.236 -12.008  -0.770  0.00  0.00     0.120 A 
ATOM     42  H   LIG d   1       5.363 -11.314  -1.543  0.00  0.00     0.066 H 
ATOM     43  C   LIG d   1       8.556 -11.683  -0.492  0.00  0.00    -0.018 A 
ATOM     44  C   LIG d   1       9.033 -10.420  -0.783  0.00  0.00    -0.037 A 
ATOM     45  H   LIG d   1       9.212 -12.419  -0.052  0.00  0.00     0.066 H 
ATOM     46  H   LIG d   1      10.061 -10.168  -0.571  0.00  0.00     0.064 H 
BRANCH  41  47
ATOM     47  O   LIG d   1       6.769 -13.253  -0.488  0.00  0.00    -0.495 OA
BRANCH  47  48
ATOM     48  C   LIG d   1       7.639 -14.352  -0.770  0.00  0.00     0.079 C 
ATOM     49  H   LIG d   1       7.292 -14.870  -1.664  0.00  0.00     0.066 H 
ATOM     50  H   LIG d   1       8.651 -13.981  -0.934  0.00  0.00     0.066 H 
ATOM     51  H   LIG d   1       7.637 -15.042   0.074  0.00  0.00     0.066 H 
ENDBRANCH  47  48
ENDBRANCH  41  47
ENDBRANCH  34  37
ENDBRANCH  30  33
ENDBRANCH  27  30
ENDBRANCH   1  27
TORSDOF 6
ENDMDL
MODEL 2
REMARK VINA RESULT:      -7.4      7.432     10.235
REMARK  6 active torsions:
REMARK  status: ('A' for Active; 'I' for Inactive)
REMARK    1  A    between atoms: C_1  and  O_2 
REMARK    2  A    between atoms: O_2  and  C_3 
REMARK    3  A    between atoms: C_6  and  N_9 
REMARK       I    between atoms: N_9  and  C_10 
REMARK    4  A    between atoms: C_10  and  C_12 
REMARK    5  A    between atoms: C_12  and  C_13 
REMARK    6  A    between atoms: C_13  and  C_14 
REMARK       I    between atoms: C_14  and  N_16 
ROOT
ATOM      1  C   LIG d   1       5.335   0.488  -2.880  0.00  0.00     0.216 C 
ATOM      2  O   LIG d   1       5.001   1.529  -2.356  0.00  0.00    -0.276 OA
ATOM      3  N   LIG d   1       6.540   0.390  -3.478  0.00  0.00    -0.297 N 
ATOM      4  C   LIG d   1       6.963  -0.860  -4.126  0.00  0.00     0.020 C 
ATOM      5  C   LIG d   1       7.126  -0.615  -5.630  0.00  0.00     0.004 C 
ATOM      6  C   LIG d   1       7.892   0.670  -5.838  0.00  0.00     0.023 A 
ATOM      7  C   LIG d   1       8.039   1.625  -4.896  0.00  0.00    -0.002 A 
ATOM      8  C   LIG d   1       8.825   2.690  -5.482  0.00  0.00     0.005 A 
ATOM      9  C   LIG d   1       9.284   3.915  -4.989  0.00  0.00    -0.052 A 
ATOM     10  C   LIG d   1      10.022   4.693  -5.846  0.00  0.00    -0.061 A 
ATOM     11  C   LIG d   1      10.307   4.294  -7.142  0.00  0.00    -0.060 A 
ATOM     12  C   LIG d   1       9.866   3.087  -7.656  0.00  0.00    -0.038 A 
ATOM     13  C   LIG d   1       9.113   2.277  -6.808  0.00  0.00     0.047 A 
ATOM     14  N   LIG d   1       8.535   1.053  -6.988  0.00  0.00    -0.358 N 
ATOM     15  H   LIG d   1       8.573   0.533  -7.805  0.00  0.00     0.166 HD
ATOM     16  C   LIG d   1       7.467   1.536  -3.506  0.00  0.00     0.042 C 
ATOM     17  H   LIG d   1       7.914  -1.186  -3.704  0.00  0.00     0.047 H 
ATOM     18  H   LIG d   1       6.208  -1.629  -3.961  0.00  0.00     0.047 H 
ATOM     19  H   LIG d   1       7.675  -1.443  -6.076  0.00  0.00     0.034 H 
ATOM     20  H   LIG d   1       6.143  -0.534  -6.094  0.00  0.00     0.034 H 
ATOM     21  H   LIG d   1       9.067   4.235  -3.980  0.00  0.00     0.062 H 
ATOM     22  H   LIG d   1      10.392   5.646  -5.500  0.00  0.00     0.062 H 
ATOM     23  H   LIG d   1      10.892   4.947  -7.772  0.00  0.00     0.062 H 
ATOM     24  H   LIG d   1      10.094   2.787  -8.668  0.00  0.00     0.064 H 
ATOM     25  H   LIG d   1       6.928   2.453  -3.268  0.00  0.00     0.051 H 
ATOM     26  H   LIG d   1       8.271   1.380  -2.786  0.00  0.00     0.051 H 
ENDROOT
BRANCH   1  27
ATOM     27  C   LIG d   1       4.404  -0.697  -2.863  0.00  0.00     0.032 C 
ATOM     28  H   LIG d   1       4.382  -1.127  -1.862  0.00  0.00     0.036 H 
ATOM     29  H   LIG d   1       4.757  -1.446  -3.572  0.00  0.00     0.036 H 
BRANCH  27  30
ATOM     30  C   LIG d   1       2.997  -0.245  -3.255  0.00  0.00     0.033 C 
ATOM     31  H   LIG d   1       2.683   0.571  -2.604  0.00  0.00     0.036 H 
ATOM     32  H   LIG d   1       2.305  -1.080  -3.151  0.00  0.00     0.036 H 
BRANCH  30  33
ATOM     33  C   LIG d   1       3.002   0.230  -4.686  0.00  0.00     0.218 C 
ATOM     34  N   LIG d   1       3.367  -0.611  -5.675  0.00  0.00    -0.285 N 
ATOM     35  H   LIG d   1       3.552  -1.542  -5.475  0.00  0.00     0.155 HD
ATOM     36  O   LIG d   1       2.678   1.369  -4.947  0.00  0.00    -0.276 OA
BRANCH  34  37
ATOM     37  C   LIG d   1       3.478  -0.140  -6.989  0.00  0.00     0.034 A 
ATOM     38  C   LIG d   1       4.659   0.453  -7.416  0.00  0.00    -0.037 A 
ATOM     39  C   LIG d   1       4.768   0.916  -8.712  0.00  0.00    -0.018 A 
ATOM     40  H   LIG d   1       5.491   0.551  -6.736  0.00  0.00     0.064 H 
ATOM     41  C   LIG d   1       3.699   0.790  -9.588  0.00  0.00     0.120 A 
ATOM     42  H   LIG d   1       5.687   1.376  -9.046  0.00  0.00     0.066 H 
ATOM     43  C   LIG d   1       2.517   0.202  -9.159  0.00  0.00    -0.018 A 
ATOM     44  C   LIG d   1       2.408  -0.266  -7.865  0.00  0.00    -0.037 A 
ATOM     45  H   LIG d   1       1.684   0.108  -9.839  0.00  0.00     0.066 H 
ATOM     46  H   LIG d   1       1.490  -0.727  -7.533  0.00  0.00     0.064 H 
BRANCH  41  47
ATOM     47  O   LIG d   1       3.807   1.246 -10.864  0.00  0.00    -0.495 OA
BRANCH  47  48
ATOM     48  C   LIG d   1       4.041   0.272 -11.884  0.00  0.00     0.079 C 
ATOM     49  H   LIG d   1       3.249  -0.477 -11.859  0.00  0.00     0.066 H 
ATOM     50  H   LIG d   1       4.049   0.761 -12.858  0.00  0.00     0.066 H 
ATOM     51  H   LIG d   1       5.003  -0.210 -11.711  0.00  0.00     0.066 H 
ENDBRANCH  47  48
ENDBRANCH  41  47
ENDBRANCH  34  37
ENDBRANCH  30  33
ENDBRANCH  27  30
ENDBRANCH   1  27
TORSDOF 6
ENDMDL
MODEL 3
REMARK VINA RESULT:      -7.4      7.644     10.082
REMARK  6 active torsions:
REMARK  status: ('A' for Active; 'I' for Inactive)
REMARK    1  A    between atoms: C_1  and  O_2 
REMARK    2  A    between atoms: O_2  and  C_3 
REMARK    3  A    between atoms: C_6  and  N_9 
REMARK       I    between atoms: N_9  and  C_10 
REMARK    4  A    between atoms: C_10  and  C_12 
REMARK    5  A    between atoms: C_12  and  C_13 
REMARK    6  A    between atoms: C_13  and  C_14 
REMARK       I    between atoms: C_14  and  N_16 
ROOT
ATOM      1  C   LIG d   1       2.784   0.621  -9.126  0.00  0.00     0.216 C 
ATOM      2  O   LIG d   1       2.443   1.775  -8.979  0.00  0.00    -0.276 OA
ATOM      3  N   LIG d   1       2.852  -0.203  -8.060  0.00  0.00    -0.297 N 
ATOM      4  C   LIG d   1       3.269  -1.604  -8.214  0.00  0.00     0.020 C 
ATOM      5  C   LIG d   1       4.585  -1.821  -7.460  0.00  0.00     0.004 C 
ATOM      6  C   LIG d   1       4.480  -1.183  -6.094  0.00  0.00     0.023 A 
ATOM      7  C   LIG d   1       3.564  -0.248  -5.764  0.00  0.00    -0.002 A 
ATOM      8  C   LIG d   1       3.796   0.111  -4.381  0.00  0.00     0.005 A 
ATOM      9  C   LIG d   1       3.170   1.013  -3.515  0.00  0.00    -0.052 A 
ATOM     10  C   LIG d   1       3.667   1.096  -2.239  0.00  0.00    -0.061 A 
ATOM     11  C   LIG d   1       4.740   0.327  -1.815  0.00  0.00    -0.060 A 
ATOM     12  C   LIG d   1       5.378  -0.573  -2.650  0.00  0.00    -0.038 A 
ATOM     13  C   LIG d   1       4.895  -0.677  -3.953  0.00  0.00     0.047 A 
ATOM     14  N   LIG d   1       5.281  -1.447  -5.012  0.00  0.00    -0.358 N 
ATOM     15  H   LIG d   1       6.012  -2.084  -5.002  0.00  0.00     0.166 HD
ATOM     16  C   LIG d   1       2.516   0.279  -6.708  0.00  0.00     0.042 C 
ATOM     17  H   LIG d   1       2.500  -2.260  -7.803  0.00  0.00     0.047 H 
ATOM     18  H   LIG d   1       3.412  -1.828  -9.271  0.00  0.00     0.047 H 
ATOM     19  H   LIG d   1       4.770  -2.889  -7.349  0.00  0.00     0.034 H 
ATOM     20  H   LIG d   1       5.403  -1.363  -8.015  0.00  0.00     0.034 H 
ATOM     21  H   LIG d   1       2.333   1.616  -3.836  0.00  0.00     0.062 H 
ATOM     22  H   LIG d   1       3.209   1.782  -1.542  0.00  0.00     0.062 H 
ATOM     23  H   LIG d   1       5.089   0.435  -0.799  0.00  0.00     0.062 H 
ATOM     24  H   LIG d   1       6.214  -1.166  -2.309  0.00  0.00     0.064 H 
ATOM     25  H   LIG d   1       2.519   1.369  -6.692  0.00  0.00     0.051 H 
ATOM     26  H   LIG d   1       1.535  -0.094  -6.415  0.00  0.00     0.051 H 
ENDROOT
BRANCH   1  27
ATOM     27  C   LIG d   1       3.131   0.106 -10.499  0.00  0.00     0.032 C 
ATOM     28  H   LIG d   1       2.261   0.194 -11.150  0.00  0.00     0.036 H 
ATOM     29  H   LIG d   1       3.428  -0.940 -10.430  0.00  0.00     0.036 H 
BRANCH  27  30
ATOM     30  C   LIG d   1       4.284   0.928 -11.075  0.00  0.00     0.033 C 
ATOM     31  H   LIG d   1       3.982   1.972 -11.154  0.00  0.00     0.036 H 
ATOM     32  H   LIG d   1       4.543   0.549 -12.063  0.00  0.00     0.036 H 
BRANCH  30  33
ATOM     33  C   LIG d   1       5.481   0.821 -10.166  0.00  0.00     0.218 C 
ATOM     34  N   LIG d   1       5.727   1.787  -9.258  0.00  0.00    -0.285 N 
ATOM     35  H   LIG d   1       5.093   2.511  -9.136  0.00  0.00     0.155 HD
ATOM     36  O   LIG d   1       6.225  -0.133 -10.252  0.00  0.00    -0.276 OA
BRANCH  34  37
ATOM     37  C   LIG d   1       6.898   1.745  -8.490  0.00  0.00     0.034 A 
ATOM     38  C   LIG d   1       6.946   0.970  -7.339  0.00  0.00    -0.037 A 
ATOM     39  C   LIG d   1       8.101   0.928  -6.584  0.00  0.00    -0.018 A 
ATOM     40  H   LIG d   1       6.081   0.400  -7.036  0.00  0.00     0.064 H 
ATOM     41  C   LIG d   1       9.213   1.660  -6.973  0.00  0.00     0.120 A 
ATOM     42  H   LIG d   1       8.139   0.325  -5.688  0.00  0.00     0.066 H 
ATOM     43  C   LIG d   1       9.163   2.439  -8.121  0.00  0.00    -0.018 A 
ATOM     44  C   LIG d   1       8.011   2.478  -8.881  0.00  0.00    -0.037 A 
ATOM     45  H   LIG d   1      10.028   3.012  -8.422  0.00  0.00     0.066 H 
ATOM     46  H   LIG d   1       7.974   3.081  -9.776  0.00  0.00     0.064 H 
BRANCH  41  47
ATOM     47  O   LIG d   1      10.350   1.619  -6.229  0.00  0.00    -0.495 OA
BRANCH  47  48
ATOM     48  C   LIG d   1      10.197   1.416  -4.822  0.00  0.00     0.079 C 
ATOM     49  H   LIG d   1      10.920   0.674  -4.482  0.00  0.00     0.066 H 
ATOM     50  H   LIG d   1      10.368   2.357  -4.299  0.00  0.00     0.066 H 
ATOM     51  H   LIG d   1       9.187   1.063  -4.614  0.00  0.00     0.066 H 
ENDBRANCH  47  48
ENDBRANCH  41  47
ENDBRANCH  34  37
ENDBRANCH  30  33
ENDBRANCH  27  30
ENDBRANCH   1  27
TORSDOF 6
ENDMDL
MODEL 4
REMARK VINA RESULT:      -7.3      5.881      9.169
REMARK  6 active torsions:
REMARK  status: ('A' for Active; 'I' for Inactive)
REMARK    1  A    between atoms: C_1  and  O_2 
REMARK    2  A    between atoms: O_2  and  C_3 
REMARK    3  A    between atoms: C_6  and  N_9 
REMARK       I    between atoms: N_9  and  C_10 
REMARK    4  A    between atoms: C_10  and  C_12 
REMARK    5  A    between atoms: C_12  and  C_13 
REMARK    6  A    between atoms: C_13  and  C_14 
REMARK       I    between atoms: C_14  and  N_16 
ROOT
ATOM      1  C   LIG d   1       5.117   0.726  -2.773  0.00  0.00     0.216 C 
ATOM      2  O   LIG d   1       5.913   1.567  -3.134  0.00  0.00    -0.276 OA
ATOM      3  N   LIG d   1       5.485  -0.570  -2.716  0.00  0.00    -0.297 N 
ATOM      4  C   LIG d   1       4.535  -1.607  -2.288  0.00  0.00     0.020 C 
ATOM      5  C   LIG d   1       4.272  -2.560  -3.458  0.00  0.00     0.004 C 
ATOM      6  C   LIG d   1       5.590  -2.926  -4.100  0.00  0.00     0.023 A 
ATOM      7  C   LIG d   1       6.732  -2.225  -3.937  0.00  0.00    -0.002 A 
ATOM      8  C   LIG d   1       7.758  -2.888  -4.712  0.00  0.00     0.005 A 
ATOM      9  C   LIG d   1       9.114  -2.620  -4.922  0.00  0.00    -0.052 A 
ATOM     10  C   LIG d   1       9.799  -3.483  -5.739  0.00  0.00    -0.061 A 
ATOM     11  C   LIG d   1       9.188  -4.576  -6.333  0.00  0.00    -0.060 A 
ATOM     12  C   LIG d   1       7.849  -4.867  -6.142  0.00  0.00    -0.038 A 
ATOM     13  C   LIG d   1       7.127  -4.005  -5.318  0.00  0.00     0.047 A 
ATOM     14  N   LIG d   1       5.820  -3.997  -4.926  0.00  0.00    -0.358 N 
ATOM     15  H   LIG d   1       5.154  -4.649  -5.191  0.00  0.00     0.166 HD
ATOM     16  C   LIG d   1       6.849  -0.988  -3.087  0.00  0.00     0.042 C 
ATOM     17  H   LIG d   1       4.956  -2.164  -1.450  0.00  0.00     0.047 H 
ATOM     18  H   LIG d   1       3.599  -1.140  -1.980  0.00  0.00     0.047 H 
ATOM     19  H   LIG d   1       3.783  -3.462  -3.091  0.00  0.00     0.034 H 
ATOM     20  H   LIG d   1       3.633  -2.069  -4.191  0.00  0.00     0.034 H 
ATOM     21  H   LIG d   1       9.599  -1.770  -4.463  0.00  0.00     0.062 H 
ATOM     22  H   LIG d   1      10.848  -3.307  -5.925  0.00  0.00     0.062 H 
ATOM     23  H   LIG d   1       9.777  -5.223  -6.966  0.00  0.00     0.062 H 
ATOM     24  H   LIG d   1       7.383  -5.721  -6.612  0.00  0.00     0.064 H 
ATOM     25  H   LIG d   1       7.337  -0.195  -3.654  0.00  0.00     0.051 H 
ATOM     26  H   LIG d   1       7.426  -1.211  -2.189  0.00  0.00     0.051 H 
ENDROOT
BRANCH   1  27
ATOM     27  C   LIG d   1       3.718   1.129  -2.388  0.00  0.00     0.032 C 
ATOM     28  H   LIG d   1       3.760   1.859  -1.579  0.00  0.00     0.036 H 
ATOM     29  H   LIG d   1       3.165   0.251  -2.056  0.00  0.00     0.036 H 
BRANCH  27  30
ATOM     30  C   LIG d   1       3.015   1.748  -3.597  0.00  0.00     0.033 C 
ATOM     31  H   LIG d   1       3.609   2.580  -3.976  0.00  0.00     0.036 H 
ATOM     32  H   LIG d   1       2.031   2.110  -3.299  0.00  0.00     0.036 H 
BRANCH  30  33
ATOM     33  C   LIG d   1       2.863   0.708  -4.677  0.00  0.00     0.218 C 
ATOM     34  N   LIG d   1       3.683   0.722  -5.747  0.00  0.00    -0.285 N 
ATOM     35  H   LIG d   1       4.420   1.352  -5.784  0.00  0.00     0.155 HD
ATOM     36  O   LIG d   1       2.001  -0.140  -4.585  0.00  0.00    -0.276 OA
BRANCH  34  37
ATOM     37  C   LIG d   1       3.472  -0.174  -6.803  0.00  0.00     0.034 A 
ATOM     38  C   LIG d   1       4.214  -1.345  -6.879  0.00  0.00    -0.037 A 
ATOM     39  C   LIG d   1       4.004  -2.228  -7.919  0.00  0.00    -0.018 A 
ATOM     40  H   LIG d   1       4.953  -1.566  -6.124  0.00  0.00     0.064 H 
ATOM     41  C   LIG d   1       3.053  -1.945  -8.890  0.00  0.00     0.120 A 
ATOM     42  H   LIG d   1       4.580  -3.140  -7.979  0.00  0.00     0.066 H 
ATOM     43  C   LIG d   1       2.316  -0.771  -8.817  0.00  0.00    -0.018 A 
ATOM     44  C   LIG d   1       2.520   0.110  -7.774  0.00  0.00    -0.037 A 
ATOM     45  H   LIG d   1       1.579  -0.550  -9.574  0.00  0.00     0.066 H 
ATOM     46  H   LIG d   1       1.944   1.021  -7.715  0.00  0.00     0.064 H 
BRANCH  41  47
ATOM     47  O   LIG d   1       2.848  -2.814  -9.914  0.00  0.00    -0.495 OA
BRANCH  47  48
ATOM     48  C   LIG d   1       3.496  -4.086  -9.827  0.00  0.00     0.079 C 
ATOM     49  H   LIG d   1       4.107  -4.243 -10.716  0.00  0.00     0.066 H 
ATOM     50  H   LIG d   1       4.129  -4.110  -8.940  0.00  0.00     0.066 H 
ATOM     51  H   LIG d   1       2.744  -4.872  -9.758  0.00  0.00     0.066 H 
ENDBRANCH  47  48
ENDBRANCH  41  47
ENDBRANCH  34  37
ENDBRANCH  30  33
ENDBRANCH  27  30
ENDBRANCH   1  27
TORSDOF 6
ENDMDL
MODEL 5
REMARK VINA RESULT:      -7.3      2.699      3.143
REMARK  6 active torsions:
REMARK  status: ('A' for Active; 'I' for Inactive)
REMARK    1  A    between atoms: C_1  and  O_2 
REMARK    2  A    between atoms: O_2  and  C_3 
REMARK    3  A    between atoms: C_6  and  N_9 
REMARK       I    between atoms: N_9  and  C_10 
REMARK    4  A    between atoms: C_10  and  C_12 
REMARK    5  A    between atoms: C_12  and  C_13 
REMARK    6  A    between atoms: C_13  and  C_14 
REMARK       I    between atoms: C_14  and  N_16 
ROOT
ATOM      1  C   LIG d   1       8.585  -5.011  -4.197  0.00  0.00     0.216 C 
ATOM      2  O   LIG d   1       9.153  -4.777  -3.151  0.00  0.00    -0.276 OA
ATOM      3  N   LIG d   1       7.746  -4.098  -4.727  0.00  0.00    -0.297 N 
ATOM      4  C   LIG d   1       7.042  -4.363  -5.991  0.00  0.00     0.020 C 
ATOM      5  C   LIG d   1       5.535  -4.418  -5.722  0.00  0.00     0.004 C 
ATOM      6  C   LIG d   1       5.148  -3.253  -4.843  0.00  0.00     0.023 A 
ATOM      7  C   LIG d   1       6.024  -2.542  -4.100  0.00  0.00    -0.002 A 
ATOM      8  C   LIG d   1       5.268  -1.524  -3.402  0.00  0.00     0.005 A 
ATOM      9  C   LIG d   1       5.633  -0.516  -2.505  0.00  0.00    -0.052 A 
ATOM     10  C   LIG d   1       4.628   0.287  -2.029  0.00  0.00    -0.061 A 
ATOM     11  C   LIG d   1       3.307   0.119  -2.413  0.00  0.00    -0.060 A 
ATOM     12  C   LIG d   1       2.916  -0.870  -3.299  0.00  0.00    -0.038 A 
ATOM     13  C   LIG d   1       3.917  -1.702  -3.797  0.00  0.00     0.047 A 
ATOM     14  N   LIG d   1       3.883  -2.753  -4.667  0.00  0.00    -0.358 N 
ATOM     15  H   LIG d   1       3.084  -3.096  -5.098  0.00  0.00     0.166 HD
ATOM     16  C   LIG d   1       7.505  -2.810  -4.053  0.00  0.00     0.042 C 
ATOM     17  H   LIG d   1       7.257  -3.565  -6.702  0.00  0.00     0.047 H 
ATOM     18  H   LIG d   1       7.376  -5.316  -6.401  0.00  0.00     0.047 H 
ATOM     19  H   LIG d   1       4.994  -4.357  -6.666  0.00  0.00     0.034 H 
ATOM     20  H   LIG d   1       5.289  -5.353  -5.218  0.00  0.00     0.034 H 
ATOM     21  H   LIG d   1       6.661  -0.376  -2.200  0.00  0.00     0.062 H 
ATOM     22  H   LIG d   1       4.872   1.077  -1.334  0.00  0.00     0.062 H 
ATOM     23  H   LIG d   1       2.557   0.781  -2.007  0.00  0.00     0.062 H 
ATOM     24  H   LIG d   1       1.883  -0.993  -3.590  0.00  0.00     0.064 H 
ATOM     25  H   LIG d   1       7.838  -2.866  -3.017  0.00  0.00     0.051 H 
ATOM     26  H   LIG d   1       8.039  -2.014  -4.572  0.00  0.00     0.051 H 
ENDROOT
BRANCH   1  27
ATOM     27  C   LIG d   1       8.818  -6.321  -4.904  0.00  0.00     0.032 C 
ATOM     28  H   LIG d   1       9.843  -6.358  -5.272  0.00  0.00     0.036 H 
ATOM     29  H   LIG d   1       8.128  -6.407  -5.744  0.00  0.00     0.036 H 
BRANCH  27  30
ATOM     30  C   LIG d   1       8.584  -7.475  -3.929  0.00  0.00     0.033 C 
ATOM     31  H   LIG d   1       8.510  -7.084  -2.915  0.00  0.00     0.036 H 
ATOM     32  H   LIG d   1       9.416  -8.176  -3.989  0.00  0.00     0.036 H 
BRANCH  30  33
ATOM     33  C   LIG d   1       7.303  -8.184  -4.287  0.00  0.00     0.218 C 
ATOM     34  N   LIG d   1       6.971  -9.333  -3.664  0.00  0.00    -0.285 N 
ATOM     35  H   LIG d   1       7.516  -9.662  -2.933  0.00  0.00     0.155 HD
ATOM     36  O   LIG d   1       6.571  -7.721  -5.136  0.00  0.00    -0.276 OA
BRANCH  34  37
ATOM     37  C   LIG d   1       5.839 -10.049  -4.073  0.00  0.00     0.034 A 
ATOM     38  C   LIG d   1       5.876 -10.801  -5.239  0.00  0.00    -0.037 A 
ATOM     39  C   LIG d   1       4.760 -11.508  -5.641  0.00  0.00    -0.018 A 
ATOM     40  H   LIG d   1       6.778 -10.835  -5.831  0.00  0.00     0.064 H 
ATOM     41  C   LIG d   1       3.600 -11.466  -4.880  0.00  0.00     0.120 A 
ATOM     42  H   LIG d   1       4.789 -12.094  -6.548  0.00  0.00     0.066 H 
ATOM     43  C   LIG d   1       3.561 -10.709  -3.717  0.00  0.00    -0.018 A 
ATOM     44  C   LIG d   1       4.678 -10.007  -3.311  0.00  0.00    -0.037 A 
ATOM     45  H   LIG d   1       2.657 -10.673  -3.128  0.00  0.00     0.066 H 
ATOM     46  H   LIG d   1       4.648  -9.421  -2.404  0.00  0.00     0.064 H 
BRANCH  41  47
ATOM     47  O   LIG d   1       2.502 -12.161  -5.276  0.00  0.00    -0.495 OA
BRANCH  47  48
ATOM     48  C   LIG d   1       2.640 -12.991  -6.432  0.00  0.00     0.079 C 
ATOM     49  H   LIG d   1       3.121 -13.928  -6.151  0.00  0.00     0.066 H 
ATOM     50  H   LIG d   1       1.656 -13.198  -6.851  0.00  0.00     0.066 H 
ATOM     51  H   LIG d   1       3.251 -12.477  -7.176  0.00  0.00     0.066 H 
ENDBRANCH  47  48
ENDBRANCH  41  47
ENDBRANCH  34  37
ENDBRANCH  30  33
ENDBRANCH  27  30
ENDBRANCH   1  27
TORSDOF 6
ENDMDL
MODEL 6
REMARK VINA RESULT:      -7.1      7.131      9.738
REMARK  6 active torsions:
REMARK  status: ('A' for Active; 'I' for Inactive)
REMARK    1  A    between atoms: C_1  and  O_2 
REMARK    2  A    between atoms: O_2  and  C_3 
REMARK    3  A    between atoms: C_6  and  N_9 
REMARK       I    between atoms: N_9  and  C_10 
REMARK    4  A    between atoms: C_10  and  C_12 
REMARK    5  A    between atoms: C_12  and  C_13 
REMARK    6  A    between atoms: C_13  and  C_14 
REMARK       I    between atoms: C_14  and  N_16 
ROOT
ATOM      1  C   LIG d   1       3.477  -3.205  -8.887  0.00  0.00     0.216 C 
ATOM      2  O   LIG d   1       3.450  -4.325  -8.424  0.00  0.00    -0.276 OA
ATOM      3  N   LIG d   1       4.013  -2.193  -8.174  0.00  0.00    -0.297 N 
ATOM      4  C   LIG d   1       4.050  -0.826  -8.713  0.00  0.00     0.020 C 
ATOM      5  C   LIG d   1       3.177   0.081  -7.840  0.00  0.00     0.004 C 
ATOM      6  C   LIG d   1       3.482  -0.194  -6.386  0.00  0.00     0.023 A 
ATOM      7  C   LIG d   1       4.098  -1.309  -5.939  0.00  0.00    -0.002 A 
ATOM      8  C   LIG d   1       4.198  -1.197  -4.500  0.00  0.00     0.005 A 
ATOM      9  C   LIG d   1       4.730  -2.036  -3.516  0.00  0.00    -0.052 A 
ATOM     10  C   LIG d   1       4.651  -1.599  -2.218  0.00  0.00    -0.061 A 
ATOM     11  C   LIG d   1       4.073  -0.384  -1.884  0.00  0.00    -0.060 A 
ATOM     12  C   LIG d   1       3.539   0.466  -2.836  0.00  0.00    -0.038 A 
ATOM     13  C   LIG d   1       3.605   0.047  -4.164  0.00  0.00     0.047 A 
ATOM     14  N   LIG d   1       3.185   0.625  -5.327  0.00  0.00    -0.358 N 
ATOM     15  H   LIG d   1       2.743   1.486  -5.394  0.00  0.00     0.166 HD
ATOM     16  C   LIG d   1       4.571  -2.427  -6.830  0.00  0.00     0.042 C 
ATOM     17  H   LIG d   1       5.077  -0.460  -8.707  0.00  0.00     0.047 H 
ATOM     18  H   LIG d   1       3.670  -0.826  -9.734  0.00  0.00     0.047 H 
ATOM     19  H   LIG d   1       3.394   1.124  -8.067  0.00  0.00     0.034 H 
ATOM     20  H   LIG d   1       2.125  -0.126  -8.038  0.00  0.00     0.034 H 
ATOM     21  H   LIG d   1       5.183  -2.985  -3.767  0.00  0.00     0.062 H 
ATOM     22  H   LIG d   1       5.051  -2.220  -1.430  0.00  0.00     0.062 H 
ATOM     23  H   LIG d   1       4.038  -0.091  -0.845  0.00  0.00     0.062 H 
ATOM     24  H   LIG d   1       3.091   1.410  -2.563  0.00  0.00     0.064 H 
ATOM     25  H   LIG d   1       4.218  -3.383  -6.443  0.00  0.00     0.051 H 
ATOM     26  H   LIG d   1       5.661  -2.425  -6.876  0.00  0.00     0.051 H 
ENDROOT
BRANCH   1  27
ATOM     27  C   LIG d   1       2.913  -2.943 -10.259  0.00  0.00     0.032 C 
ATOM     28  H   LIG d   1       3.101  -3.805 -10.900  0.00  0.00     0.036 H 
ATOM     29  H   LIG d   1       3.392  -2.062 -10.686  0.00  0.00     0.036 H 
BRANCH  27  30
ATOM     30  C   LIG d   1       1.406  -2.705 -10.154  0.00  0.00     0.033 C 
ATOM     31  H   LIG d   1       1.113  -1.917 -10.848  0.00  0.00     0.036 H 
ATOM     32  H   LIG d   1       1.155  -2.406  -9.137  0.00  0.00     0.036 H 
BRANCH  30  33
ATOM     33  C   LIG d   1       0.671  -3.975 -10.501  0.00  0.00     0.218 C 
ATOM     34  N   LIG d   1      -0.641  -4.095 -10.216  0.00  0.00    -0.285 N 
ATOM     35  H   LIG d   1      -1.130  -3.337  -9.859  0.00  0.00     0.155 HD
ATOM     36  O   LIG d   1       1.262  -4.890 -11.036  0.00  0.00    -0.276 OA
BRANCH  34  37
ATOM     37  C   LIG d   1      -1.297  -5.312 -10.436  0.00  0.00     0.034 A 
ATOM     38  C   LIG d   1      -1.403  -6.240  -9.409  0.00  0.00    -0.037 A 
ATOM     39  C   LIG d   1      -2.051  -7.439  -9.626  0.00  0.00    -0.018 A 
ATOM     40  H   LIG d   1      -0.980  -6.022  -8.439  0.00  0.00     0.064 H 
ATOM     41  C   LIG d   1      -2.596  -7.719 -10.871  0.00  0.00     0.120 A 
ATOM     42  H   LIG d   1      -2.135  -8.161  -8.827  0.00  0.00     0.066 H 
ATOM     43  C   LIG d   1      -2.485  -6.794 -11.900  0.00  0.00    -0.018 A 
ATOM     44  C   LIG d   1      -1.842  -5.592 -11.683  0.00  0.00    -0.037 A 
ATOM     45  H   LIG d   1      -2.905  -7.014 -12.870  0.00  0.00     0.066 H 
ATOM     46  H   LIG d   1      -1.760  -4.871 -12.482  0.00  0.00     0.064 H 
BRANCH  41  47
ATOM     47  O   LIG d   1      -3.234  -8.900 -11.085  0.00  0.00    -0.495 OA
BRANCH  47  48
ATOM     48  C   LIG d   1      -3.015  -9.938 -10.127  0.00  0.00     0.079 C 
ATOM     49  H   LIG d   1      -3.387  -9.619  -9.154  0.00  0.00     0.066 H 
ATOM     50  H   LIG d   1      -3.542 -10.839 -10.441  0.00  0.00     0.066 H 
ATOM     51  H   LIG d   1      -1.947 -10.148 -10.057  0.00  0.00     0.066 H 
ENDBRANCH  47  48
ENDBRANCH  41  47
ENDBRANCH  34  37
ENDBRANCH  30  33
ENDBRANCH  27  30
ENDBRANCH   1  27
TORSDOF 6
ENDMDL
MODEL 7
REMARK VINA RESULT:      -7.1      6.780     10.034
REMARK  6 active torsions:
REMARK  status: ('A' for Active; 'I' for Inactive)
REMARK    1  A    between atoms: C_1  and  O_2 
REMARK    2  A    between atoms: O_2  and  C_3 
REMARK    3  A    between atoms: C_6  and  N_9 
REMARK       I    between atoms: N_9  and  C_10 
REMARK    4  A    between atoms: C_10  and  C_12 
REMARK    5  A    between atoms: C_12  and  C_13 
REMARK    6  A    between atoms: C_13  and  C_14 
REMARK       I    between atoms: C_14  and  N_16 
ROOT
ATOM      1  C   LIG d   1       9.283   0.321  -6.913  0.00  0.00     0.216 C 
ATOM      2  O   LIG d   1       8.959  -0.582  -7.655  0.00  0.00    -0.276 OA
ATOM      3  N   LIG d   1       8.915   0.294  -5.617  0.00  0.00    -0.297 N 
ATOM      4  C   LIG d   1       9.292   1.381  -4.702  0.00  0.00     0.020 C 
ATOM      5  C   LIG d   1       8.023   2.093  -4.221  0.00  0.00     0.004 C 
ATOM      6  C   LIG d   1       6.999   1.057  -3.822  0.00  0.00     0.023 A 
ATOM      7  C   LIG d   1       7.041  -0.237  -4.207  0.00  0.00    -0.002 A 
ATOM      8  C   LIG d   1       5.890  -0.895  -3.627  0.00  0.00     0.005 A 
ATOM      9  C   LIG d   1       5.419  -2.210  -3.682  0.00  0.00    -0.052 A 
ATOM     10  C   LIG d   1       4.265  -2.487  -2.993  0.00  0.00    -0.061 A 
ATOM     11  C   LIG d   1       3.587  -1.516  -2.273  0.00  0.00    -0.060 A 
ATOM     12  C   LIG d   1       4.029  -0.207  -2.202  0.00  0.00    -0.038 A 
ATOM     13  C   LIG d   1       5.199   0.103  -2.893  0.00  0.00     0.047 A 
ATOM     14  N   LIG d   1       5.897   1.267  -3.032  0.00  0.00    -0.358 N 
ATOM     15  H   LIG d   1       5.652   2.116  -2.632  0.00  0.00     0.166 HD
ATOM     16  C   LIG d   1       8.119  -0.823  -5.079  0.00  0.00     0.042 C 
ATOM     17  H   LIG d   1       9.826   0.969  -3.845  0.00  0.00     0.047 H 
ATOM     18  H   LIG d   1       9.933   2.091  -5.224  0.00  0.00     0.047 H 
ATOM     19  H   LIG d   1       8.260   2.720  -3.361  0.00  0.00     0.034 H 
ATOM     20  H   LIG d   1       7.624   2.710  -5.026  0.00  0.00     0.034 H 
ATOM     21  H   LIG d   1       5.941  -2.974  -4.240  0.00  0.00     0.062 H 
ATOM     22  H   LIG d   1       3.871  -3.492  -3.013  0.00  0.00     0.062 H 
ATOM     23  H   LIG d   1       2.683  -1.791  -1.751  0.00  0.00     0.062 H 
ATOM     24  H   LIG d   1       3.491   0.541  -1.638  0.00  0.00     0.064 H 
ATOM     25  H   LIG d   1       7.667  -1.384  -5.897  0.00  0.00     0.051 H 
ATOM     26  H   LIG d   1       8.755  -1.480  -4.485  0.00  0.00     0.051 H 
ENDROOT
BRANCH   1  27
ATOM     27  C   LIG d   1      10.098   1.473  -7.442  0.00  0.00     0.032 C 
ATOM     28  H   LIG d   1      10.567   1.185  -8.383  0.00  0.00     0.036 H 
ATOM     29  H   LIG d   1      10.870   1.734  -6.717  0.00  0.00     0.036 H 
BRANCH  27  30
ATOM     30  C   LIG d   1       9.187   2.678  -7.674  0.00  0.00     0.033 C 
ATOM     31  H   LIG d   1       9.756   3.478  -8.147  0.00  0.00     0.036 H 
ATOM     32  H   LIG d   1       8.794   3.027  -6.719  0.00  0.00     0.036 H 
BRANCH  30  33
ATOM     33  C   LIG d   1       8.044   2.279  -8.572  0.00  0.00     0.218 C 
ATOM     34  N   LIG d   1       6.867   1.897  -8.037  0.00  0.00    -0.285 N 
ATOM     35  H   LIG d   1       6.730   1.953  -7.078  0.00  0.00     0.155 HD
ATOM     36  O   LIG d   1       8.184   2.300  -9.777  0.00  0.00    -0.276 OA
BRANCH  34  37
ATOM     37  C   LIG d   1       5.843   1.420  -8.865  0.00  0.00     0.034 A 
ATOM     38  C   LIG d   1       4.847   2.282  -9.304  0.00  0.00    -0.037 A 
ATOM     39  C   LIG d   1       3.839   1.811 -10.121  0.00  0.00    -0.018 A 
ATOM     40  H   LIG d   1       4.862   3.320  -9.008  0.00  0.00     0.064 H 
ATOM     41  C   LIG d   1       3.819   0.477 -10.503  0.00  0.00     0.120 A 
ATOM     42  H   LIG d   1       3.064   2.481 -10.464  0.00  0.00     0.066 H 
ATOM     43  C   LIG d   1       4.811  -0.386 -10.059  0.00  0.00    -0.018 A 
ATOM     44  C   LIG d   1       5.824   0.085  -9.247  0.00  0.00    -0.037 A 
ATOM     45  H   LIG d   1       4.794  -1.424 -10.353  0.00  0.00     0.066 H 
ATOM     46  H   LIG d   1       6.598  -0.586  -8.905  0.00  0.00     0.064 H 
BRANCH  41  47
ATOM     47  O   LIG d   1       2.826   0.014 -11.307  0.00  0.00    -0.495 OA
BRANCH  47  48
ATOM     48  C   LIG d   1       1.862  -0.857 -10.712  0.00  0.00     0.079 C 
ATOM     49  H   LIG d   1       0.958  -0.294 -10.479  0.00  0.00     0.066 H 
ATOM     50  H   LIG d   1       1.620  -1.661 -11.407  0.00  0.00     0.066 H 
ATOM     51  H   LIG d   1       2.273  -1.281  -9.796  0.00  0.00     0.066 H 
ENDBRANCH  47  48
ENDBRANCH  41  47
ENDBRANCH  34  37
ENDBRANCH  30  33
ENDBRANCH  27  30
ENDBRANCH   1  27
TORSDOF 6
ENDMDL
MODEL 8
REMARK VINA RESULT:      -7.0      5.746      9.452
REMARK  6 active torsions:
REMARK  status: ('A' for Active; 'I' for Inactive)
REMARK    1  A    between atoms: C_1  and  O_2 
REMARK    2  A    between atoms: O_2  and  C_3 
REMARK    3  A    between atoms: C_6  and  N_9 
REMARK       I    between atoms: N_9  and  C_10 
REMARK    4  A    between atoms: C_10  and  C_12 
REMARK    5  A    between atoms: C_12  and  C_13 
REMARK    6  A    between atoms: C_13  and  C_14 
REMARK       I    between atoms: C_14  and  N_16 
ROOT
ATOM      1  C   LIG d   1       4.443  -5.169  -6.741  0.00  0.00     0.216 C 
ATOM      2  O   LIG d   1       3.348  -5.420  -6.284  0.00  0.00    -0.276 OA
ATOM      3  N   LIG d   1       5.319  -4.433  -6.028  0.00  0.00    -0.297 N 
ATOM      4  C   LIG d   1       6.650  -4.112  -6.566  0.00  0.00     0.020 C 
ATOM      5  C   LIG d   1       6.758  -2.596  -6.759  0.00  0.00     0.004 C 
ATOM      6  C   LIG d   1       6.226  -1.903  -5.527  0.00  0.00     0.023 A 
ATOM      7  C   LIG d   1       5.429  -2.494  -4.611  0.00  0.00    -0.002 A 
ATOM      8  C   LIG d   1       5.135  -1.505  -3.596  0.00  0.00     0.005 A 
ATOM      9  C   LIG d   1       4.371  -1.542  -2.426  0.00  0.00    -0.052 A 
ATOM     10  C   LIG d   1       4.312  -0.389  -1.685  0.00  0.00    -0.061 A 
ATOM     11  C   LIG d   1       4.975   0.767  -2.067  0.00  0.00    -0.060 A 
ATOM     12  C   LIG d   1       5.738   0.832  -3.220  0.00  0.00    -0.038 A 
ATOM     13  C   LIG d   1       5.815  -0.325  -3.993  0.00  0.00     0.047 A 
ATOM     14  N   LIG d   1       6.463  -0.603  -5.161  0.00  0.00    -0.358 N 
ATOM     15  H   LIG d   1       7.010   0.025  -5.659  0.00  0.00     0.166 HD
ATOM     16  C   LIG d   1       4.969  -3.925  -4.690  0.00  0.00     0.042 C 
ATOM     17  H   LIG d   1       7.416  -4.447  -5.866  0.00  0.00     0.047 H 
ATOM     18  H   LIG d   1       6.787  -4.613  -7.523  0.00  0.00     0.047 H 
ATOM     19  H   LIG d   1       7.803  -2.322  -6.909  0.00  0.00     0.034 H 
ATOM     20  H   LIG d   1       6.172  -2.297  -7.628  0.00  0.00     0.034 H 
ATOM     21  H   LIG d   1       3.851  -2.439  -2.119  0.00  0.00     0.062 H 
ATOM     22  H   LIG d   1       3.731  -0.380  -0.775  0.00  0.00     0.062 H 
ATOM     23  H   LIG d   1       4.893   1.645  -1.445  0.00  0.00     0.062 H 
ATOM     24  H   LIG d   1       6.249   1.739  -3.508  0.00  0.00     0.064 H 
ATOM     25  H   LIG d   1       3.889  -3.975  -4.546  0.00  0.00     0.051 H 
ATOM     26  H   LIG d   1       5.472  -4.516  -3.924  0.00  0.00     0.051 H 
ENDROOT
BRANCH   1  27
ATOM     27  C   LIG d   1       4.823  -5.679  -8.107  0.00  0.00     0.032 C 
ATOM     28  H   LIG d   1       5.120  -6.725  -8.034  0.00  0.00     0.036 H 
ATOM     29  H   LIG d   1       5.656  -5.092  -8.494  0.00  0.00     0.036 H 
BRANCH  27  30
ATOM     30  C   LIG d   1       3.627  -5.553  -9.050  0.00  0.00     0.033 C 
ATOM     31  H   LIG d   1       2.733  -5.933  -8.556  0.00  0.00     0.036 H 
ATOM     32  H   LIG d   1       3.815  -6.130  -9.955  0.00  0.00     0.036 H 
BRANCH  30  33
ATOM     33  C   LIG d   1       3.421  -4.104  -9.411  0.00  0.00     0.218 C 
ATOM     34  N   LIG d   1       4.481  -3.277  -9.514  0.00  0.00    -0.285 N 
ATOM     35  H   LIG d   1       5.380  -3.631  -9.433  0.00  0.00     0.155 HD
ATOM     36  O   LIG d   1       2.301  -3.682  -9.607  0.00  0.00    -0.276 OA
BRANCH  34  37
ATOM     37  C   LIG d   1       4.282  -1.909  -9.739  0.00  0.00     0.034 A 
ATOM     38  C   LIG d   1       3.968  -1.070  -8.679  0.00  0.00    -0.037 A 
ATOM     39  C   LIG d   1       3.774   0.279  -8.902  0.00  0.00    -0.018 A 
ATOM     40  H   LIG d   1       3.877  -1.471  -7.681  0.00  0.00     0.064 H 
ATOM     41  C   LIG d   1       3.892   0.796 -10.184  0.00  0.00     0.120 A 
ATOM     42  H   LIG d   1       3.530   0.934  -8.077  0.00  0.00     0.066 H 
ATOM     43  C   LIG d   1       4.201  -0.045 -11.245  0.00  0.00    -0.018 A 
ATOM     44  C   LIG d   1       4.401  -1.393 -11.023  0.00  0.00    -0.037 A 
ATOM     45  H   LIG d   1       4.288   0.357 -12.243  0.00  0.00     0.066 H 
ATOM     46  H   LIG d   1       4.645  -2.046 -11.847  0.00  0.00     0.064 H 
BRANCH  41  47
ATOM     47  O   LIG d   1       3.700   2.124 -10.403  0.00  0.00    -0.495 OA
BRANCH  47  48
ATOM     48  C   LIG d   1       3.961   3.006  -9.309  0.00  0.00     0.079 C 
ATOM     49  H   LIG d   1       3.379   3.920  -9.433  0.00  0.00     0.066 H 
ATOM     50  H   LIG d   1       3.679   2.519  -8.375  0.00  0.00     0.066 H 
ATOM     51  H   LIG d   1       5.023   3.251  -9.285  0.00  0.00     0.066 H 
ENDBRANCH  47  48
ENDBRANCH  41  47
ENDBRANCH  34  37
ENDBRANCH  30  33
ENDBRANCH  27  30
ENDBRANCH   1  27
TORSDOF 6
ENDMDL
MODEL 9
REMARK VINA RESULT:      -7.0      7.151      9.830
REMARK  6 active torsions:
REMARK  status: ('A' for Active; 'I' for Inactive)
REMARK    1  A    between atoms: C_1  and  O_2 
REMARK    2  A    between atoms: O_2  and  C_3 
REMARK    3  A    between atoms: C_6  and  N_9 
REMARK       I    between atoms: N_9  and  C_10 
REMARK    4  A    between atoms: C_10  and  C_12 
REMARK    5  A    between atoms: C_12  and  C_13 
REMARK    6  A    between atoms: C_13  and  C_14 
REMARK       I    between atoms: C_14  and  N_16 
ROOT
ATOM      1  C   LIG d   1       3.676  -4.397  -8.316  0.00  0.00     0.216 C 
ATOM      2  O   LIG d   1       3.206  -5.309  -7.669  0.00  0.00    -0.276 OA
ATOM      3  N   LIG d   1       4.410  -3.445  -7.705  0.00  0.00    -0.297 N 
ATOM      4  C   LIG d   1       4.983  -2.327  -8.469  0.00  0.00     0.020 C 
ATOM      5  C   LIG d   1       4.347  -1.017  -7.994  0.00  0.00     0.004 C 
ATOM      6  C   LIG d   1       4.325  -1.000  -6.484  0.00  0.00     0.023 A 
ATOM      7  C   LIG d   1       4.457  -2.100  -5.712  0.00  0.00    -0.002 A 
ATOM      8  C   LIG d   1       4.376  -1.669  -4.333  0.00  0.00     0.005 A 
ATOM      9  C   LIG d   1       4.444  -2.356  -3.117  0.00  0.00    -0.052 A 
ATOM     10  C   LIG d   1       4.326  -1.608  -1.973  0.00  0.00    -0.061 A 
ATOM     11  C   LIG d   1       4.148  -0.234  -2.007  0.00  0.00    -0.060 A 
ATOM     12  C   LIG d   1       4.077   0.472  -3.196  0.00  0.00    -0.038 A 
ATOM     13  C   LIG d   1       4.193  -0.263  -4.374  0.00  0.00     0.047 A 
ATOM     14  N   LIG d   1       4.168   0.106  -5.688  0.00  0.00    -0.358 N 
ATOM     15  H   LIG d   1       4.056   1.014  -6.010  0.00  0.00     0.166 HD
ATOM     16  C   LIG d   1       4.653  -3.492  -6.252  0.00  0.00     0.042 C 
ATOM     17  H   LIG d   1       6.061  -2.290  -8.306  0.00  0.00     0.047 H 
ATOM     18  H   LIG d   1       4.780  -2.469  -9.530  0.00  0.00     0.047 H 
ATOM     19  H   LIG d   1       4.934  -0.174  -8.359  0.00  0.00     0.034 H 
ATOM     20  H   LIG d   1       3.329  -0.948  -8.375  0.00  0.00     0.034 H 
ATOM     21  H   LIG d   1       4.583  -3.427  -3.080  0.00  0.00     0.062 H 
ATOM     22  H   LIG d   1       4.373  -2.104  -1.015  0.00  0.00     0.062 H 
ATOM     23  H   LIG d   1       4.061   0.304  -1.075  0.00  0.00     0.062 H 
ATOM     24  H   LIG d   1       3.937   1.543  -3.209  0.00  0.00     0.064 H 
ATOM     25  H   LIG d   1       3.946  -4.174  -5.780  0.00  0.00     0.051 H 
ATOM     26  H   LIG d   1       5.673  -3.822  -6.057  0.00  0.00     0.051 H 
ENDROOT
BRANCH   1  27
ATOM     27  C   LIG d   1       3.441  -4.330  -9.802  0.00  0.00     0.032 C 
ATOM     28  H   LIG d   1       3.346  -5.340 -10.201  0.00  0.00     0.036 H 
ATOM     29  H   LIG d   1       4.283  -3.829 -10.280  0.00  0.00     0.036 H 
BRANCH  27  30
ATOM     30  C   LIG d   1       2.157  -3.548 -10.081  0.00  0.00     0.033 C 
ATOM     31  H   LIG d   1       2.306  -2.901 -10.945  0.00  0.00     0.036 H 
ATOM     32  H   LIG d   1       1.904  -2.942  -9.212  0.00  0.00     0.036 H 
BRANCH  30  33
ATOM     33  C   LIG d   1       1.034  -4.512 -10.366  0.00  0.00     0.218 C 
ATOM     34  N   LIG d   1      -0.246  -4.132 -10.179  0.00  0.00    -0.285 N 
ATOM     35  H   LIG d   1      -0.448  -3.214  -9.937  0.00  0.00     0.155 HD
ATOM     36  O   LIG d   1       1.282  -5.632 -10.762  0.00  0.00    -0.276 OA
BRANCH  34  37
ATOM     37  C   LIG d   1      -1.283  -5.060 -10.337  0.00  0.00     0.034 A 
ATOM     38  C   LIG d   1      -1.999  -5.107 -11.525  0.00  0.00    -0.037 A 
ATOM     39  C   LIG d   1      -3.020  -6.023 -11.680  0.00  0.00    -0.018 A 
ATOM     40  H   LIG d   1      -1.756  -4.428 -12.329  0.00  0.00     0.064 H 
ATOM     41  C   LIG d   1      -3.332  -6.896 -10.648  0.00  0.00     0.120 A 
ATOM     42  H   LIG d   1      -3.577  -6.060 -12.605  0.00  0.00     0.066 H 
ATOM     43  C   LIG d   1      -2.621  -6.846  -9.458  0.00  0.00    -0.018 A 
ATOM     44  C   LIG d   1      -1.595  -5.934  -9.303  0.00  0.00    -0.037 A 
ATOM     45  H   LIG d   1      -2.867  -7.523  -8.653  0.00  0.00     0.066 H 
ATOM     46  H   LIG d   1      -1.039  -5.898  -8.379  0.00  0.00     0.064 H 
BRANCH  41  47
ATOM     47  O   LIG d   1      -4.338  -7.798 -10.801  0.00  0.00    -0.495 OA
BRANCH  47  48
ATOM     48  C   LIG d   1      -4.852  -7.979 -12.123  0.00  0.00     0.079 C 
ATOM     49  H   LIG d   1      -5.771  -8.563 -12.078  0.00  0.00     0.066 H 
ATOM     50  H   LIG d   1      -5.060  -7.006 -12.568  0.00  0.00     0.066 H 
ATOM     51  H   LIG d   1      -4.115  -8.506 -12.729  0.00  0.00     0.066 H 
ENDBRANCH  47  48
ENDBRANCH  41  47
ENDBRANCH  34  37
ENDBRANCH  30  33
ENDBRANCH  27  30
ENDBRANCH   1  27
TORSDOF 6
ENDMDL
