MODEL 1
REMARK VINA RESULT:      -5.6      0.000      0.000
REMARK  1 active torsions:
REMARK  status: ('A' for Active; 'I' for Inactive)
REMARK    1  A    between atoms: C_11  and  C_12 
ROOT
ATOM      1  C   LIG d   1       4.497   0.381  -1.755  0.00  0.00     0.062 C 
ATOM      2  C   LIG d   1       3.985   1.426  -2.657  0.00  0.00     0.067 C 
ATOM      3  N   LIG d   1       3.589   2.232  -3.353  0.00  0.00    -0.196 NA
ATOM      4  H   LIG d   1       3.819   0.266  -0.910  0.00  0.00     0.047 H 
ATOM      5  H   LIG d   1       5.484   0.666  -1.393  0.00  0.00     0.047 H 
ENDROOT
BRANCH   1   6
ATOM      6  C   LIG d   1       4.595  -0.924  -2.503  0.00  0.00    -0.009 A 
ATOM      7  C   LIG d   1       5.719  -1.375  -3.327  0.00  0.00     0.004 A 
ATOM      8  C   LIG d   1       6.956  -0.822  -3.666  0.00  0.00    -0.051 A 
ATOM      9  C   LIG d   1       5.357  -2.641  -3.821  0.00  0.00     0.048 A 
ATOM     10  C   LIG d   1       7.808  -1.515  -4.479  0.00  0.00    -0.047 A 
ATOM     11  H   LIG d   1       7.238   0.149  -3.288  0.00  0.00     0.062 H 
ATOM     12  C   LIG d   1       7.454  -2.765  -4.971  0.00  0.00     0.020 A 
ATOM     13  H   LIG d   1       8.764  -1.087  -4.743  0.00  0.00     0.063 H 
ATOM     14  C   LIG d   1       6.238  -3.328  -4.647  0.00  0.00    -0.024 A 
ATOM     15 BR   LIG d   1       8.652  -3.701  -6.096  0.00  0.00    -0.050 Br
ATOM     16  H   LIG d   1       5.972  -4.301  -5.034  0.00  0.00     0.065 H 
ATOM     17  N   LIG d   1       4.103  -2.925  -3.328  0.00  0.00    -0.360 N 
ATOM     18  H   LIG d   1       3.604  -3.738  -3.509  0.00  0.00     0.165 HD
ATOM     19  C   LIG d   1       3.665  -1.892  -2.545  0.00  0.00     0.007 A 
ATOM     20  H   LIG d   1       2.713  -1.859  -2.035  0.00  0.00     0.081 H 
ENDBRANCH   1   6
TORSDOF 1
ENDMDL
MODEL 2
REMARK VINA RESULT:      -5.5      3.361      3.889
REMARK  1 active torsions:
REMARK  status: ('A' for Active; 'I' for Inactive)
REMARK    1  A    between atoms: C_11  and  C_12 
ROOT
ATOM      1  C   LIG d   1       4.165  -1.325  -2.064  0.00  0.00     0.062 C 
ATOM      2  C   LIG d   1       4.498   0.070  -1.730  0.00  0.00     0.067 C 
ATOM      3  N   LIG d   1       4.754   1.146  -1.472  0.00  0.00    -0.196 NA
ATOM      4  H   LIG d   1       3.103  -1.497  -1.892  0.00  0.00     0.047 H 
ATOM      5  H   LIG d   1       4.749  -1.998  -1.437  0.00  0.00     0.047 H 
ENDROOT
BRANCH   1   6
ATOM      6  C   LIG d   1       4.488  -1.584  -3.514  0.00  0.00    -0.009 A 
ATOM      7  C   LIG d   1       3.891  -0.917  -4.673  0.00  0.00     0.004 A 
ATOM      8  C   LIG d   1       2.929   0.084  -4.826  0.00  0.00    -0.051 A 
ATOM      9  C   LIG d   1       4.496  -1.488  -5.806  0.00  0.00     0.048 A 
ATOM     10  C   LIG d   1       2.579   0.501  -6.080  0.00  0.00    -0.047 A 
ATOM     11  H   LIG d   1       2.462   0.526  -3.959  0.00  0.00     0.062 H 
ATOM     12  C   LIG d   1       3.173  -0.062  -7.203  0.00  0.00     0.020 A 
ATOM     13  H   LIG d   1       1.833   1.274  -6.199  0.00  0.00     0.063 H 
ATOM     14  C   LIG d   1       4.125  -1.050  -7.072  0.00  0.00    -0.024 A 
ATOM     15 BR   LIG d   1       2.669   0.534  -8.925  0.00  0.00    -0.050 Br
ATOM     16  H   LIG d   1       4.582  -1.480  -7.951  0.00  0.00     0.065 H 
ATOM     17  N   LIG d   1       5.391  -2.433  -5.355  0.00  0.00    -0.360 N 
ATOM     18  H   LIG d   1       5.951  -2.986  -5.923  0.00  0.00     0.165 HD
ATOM     19  C   LIG d   1       5.373  -2.475  -3.987  0.00  0.00     0.007 A 
ATOM     20  H   LIG d   1       5.981  -3.129  -3.379  0.00  0.00     0.081 H 
ENDBRANCH   1   6
TORSDOF 1
ENDMDL
MODEL 3
REMARK VINA RESULT:      -5.1      3.062      5.127
REMARK  1 active torsions:
REMARK  status: ('A' for Active; 'I' for Inactive)
REMARK    1  A    between atoms: C_11  and  C_12 
ROOT
ATOM      1  C   LIG d   1       5.811  -5.172  -5.404  0.00  0.00     0.062 C 
ATOM      2  C   LIG d   1       4.464  -5.248  -5.994  0.00  0.00     0.067 C 
ATOM      3  N   LIG d   1       3.425  -5.305  -6.449  0.00  0.00    -0.196 NA
ATOM      4  H   LIG d   1       6.525  -5.665  -6.063  0.00  0.00     0.047 H 
ATOM      5  H   LIG d   1       5.811  -5.667  -4.433  0.00  0.00     0.047 H 
ENDROOT
BRANCH   1   6
ATOM      6  C   LIG d   1       6.203  -3.727  -5.230  0.00  0.00    -0.009 A 
ATOM      7  C   LIG d   1       5.598  -2.764  -4.306  0.00  0.00     0.004 A 
ATOM      8  C   LIG d   1       4.569  -2.839  -3.365  0.00  0.00    -0.051 A 
ATOM      9  C   LIG d   1       6.284  -1.552  -4.501  0.00  0.00     0.048 A 
ATOM     10  C   LIG d   1       4.232  -1.731  -2.639  0.00  0.00    -0.047 A 
ATOM     11  H   LIG d   1       4.040  -3.768  -3.212  0.00  0.00     0.062 H 
ATOM     12  C   LIG d   1       4.906  -0.531  -2.829  0.00  0.00     0.020 A 
ATOM     13  H   LIG d   1       3.435  -1.788  -1.912  0.00  0.00     0.063 H 
ATOM     14  C   LIG d   1       5.925  -0.437  -3.753  0.00  0.00    -0.024 A 
ATOM     15 BR   LIG d   1       4.420   0.987  -1.812  0.00  0.00    -0.050 Br
ATOM     16  H   LIG d   1       6.444   0.500  -3.893  0.00  0.00     0.065 H 
ATOM     17  N   LIG d   1       7.232  -1.775  -5.475  0.00  0.00    -0.360 N 
ATOM     18  H   LIG d   1       7.852  -1.109  -5.812  0.00  0.00     0.165 HD
ATOM     19  C   LIG d   1       7.169  -3.076  -5.897  0.00  0.00     0.007 A 
ATOM     20  H   LIG d   1       7.802  -3.514  -6.654  0.00  0.00     0.081 H 
ENDBRANCH   1   6
TORSDOF 1
ENDMDL
MODEL 4
REMARK VINA RESULT:      -4.9      4.691      5.355
REMARK  1 active torsions:
REMARK  status: ('A' for Active; 'I' for Inactive)
REMARK    1  A    between atoms: C_11  and  C_12 
ROOT
ATOM      1  C   LIG d   1       2.460   0.345  -8.917  0.00  0.00     0.062 C 
ATOM      2  C   LIG d   1       3.129   1.568  -9.393  0.00  0.00     0.067 C 
ATOM      3  N   LIG d   1       3.645   2.511  -9.759  0.00  0.00    -0.196 NA
ATOM      4  H   LIG d   1       2.228  -0.296  -9.767  0.00  0.00     0.047 H 
ATOM      5  H   LIG d   1       1.539   0.612  -8.401  0.00  0.00     0.047 H 
ENDROOT
BRANCH   1   6
ATOM      6  C   LIG d   1       3.373  -0.390  -7.968  0.00  0.00    -0.009 A 
ATOM      7  C   LIG d   1       3.401  -0.260  -6.510  0.00  0.00     0.004 A 
ATOM      8  C   LIG d   1       2.673   0.498  -5.589  0.00  0.00    -0.051 A 
ATOM      9  C   LIG d   1       4.410  -1.130  -6.060  0.00  0.00     0.048 A 
ATOM     10  C   LIG d   1       2.948   0.391  -4.255  0.00  0.00    -0.047 A 
ATOM     11  H   LIG d   1       1.897   1.167  -5.930  0.00  0.00     0.062 H 
ATOM     12  C   LIG d   1       3.945  -0.466  -3.806  0.00  0.00     0.020 A 
ATOM     13  H   LIG d   1       2.386   0.978  -3.543  0.00  0.00     0.063 H 
ATOM     14  C   LIG d   1       4.674  -1.223  -4.699  0.00  0.00    -0.024 A 
ATOM     15 BR   LIG d   1       4.305  -0.595  -1.955  0.00  0.00    -0.050 Br
ATOM     16  H   LIG d   1       5.446  -1.888  -4.340  0.00  0.00     0.065 H 
ATOM     17  N   LIG d   1       4.948  -1.736  -7.174  0.00  0.00    -0.360 N 
ATOM     18  H   LIG d   1       5.667  -2.388  -7.161  0.00  0.00     0.165 HD
ATOM     19  C   LIG d   1       4.317  -1.284  -8.301  0.00  0.00     0.007 A 
ATOM     20  H   LIG d   1       4.545  -1.599  -9.309  0.00  0.00     0.081 H 
ENDBRANCH   1   6
TORSDOF 1
ENDMDL
MODEL 5
REMARK VINA RESULT:      -4.9      2.937      5.045
REMARK  1 active torsions:
REMARK  status: ('A' for Active; 'I' for Inactive)
REMARK    1  A    between atoms: C_11  and  C_12 
ROOT
ATOM      1  C   LIG d   1       7.768  -4.408  -5.626  0.00  0.00     0.062 C 
ATOM      2  C   LIG d   1       8.506  -5.040  -4.520  0.00  0.00     0.067 C 
ATOM      3  N   LIG d   1       9.076  -5.528  -3.667  0.00  0.00    -0.196 NA
ATOM      4  H   LIG d   1       7.601  -5.139  -6.416  0.00  0.00     0.047 H 
ATOM      5  H   LIG d   1       8.347  -3.573  -6.019  0.00  0.00     0.047 H 
ENDROOT
BRANCH   1   6
ATOM      6  C   LIG d   1       6.441  -3.903  -5.119  0.00  0.00    -0.009 A 
ATOM      7  C   LIG d   1       6.213  -2.693  -4.326  0.00  0.00     0.004 A 
ATOM      8  C   LIG d   1       7.048  -1.692  -3.822  0.00  0.00    -0.051 A 
ATOM      9  C   LIG d   1       4.828  -2.638  -4.088  0.00  0.00     0.048 A 
ATOM     10  C   LIG d   1       6.513  -0.664  -3.098  0.00  0.00    -0.047 A 
ATOM     11  H   LIG d   1       8.111  -1.731  -4.003  0.00  0.00     0.062 H 
ATOM     12  C   LIG d   1       5.145  -0.606  -2.859  0.00  0.00     0.020 A 
ATOM     13  H   LIG d   1       7.158   0.108  -2.707  0.00  0.00     0.063 H 
ATOM     14  C   LIG d   1       4.305  -1.583  -3.348  0.00  0.00    -0.024 A 
ATOM     15 BR   LIG d   1       4.432   0.827  -1.853  0.00  0.00    -0.050 Br
ATOM     16  H   LIG d   1       3.243  -1.529  -3.158  0.00  0.00     0.065 H 
ATOM     17  N   LIG d   1       4.268  -3.739  -4.696  0.00  0.00    -0.360 N 
ATOM     18  H   LIG d   1       3.322  -3.957  -4.692  0.00  0.00     0.165 HD
ATOM     19  C   LIG d   1       5.243  -4.481  -5.306  0.00  0.00     0.007 A 
ATOM     20  H   LIG d   1       5.075  -5.395  -5.855  0.00  0.00     0.081 H 
ENDBRANCH   1   6
TORSDOF 1
ENDMDL
MODEL 6
REMARK VINA RESULT:      -4.9      1.701      2.292
REMARK  1 active torsions:
REMARK  status: ('A' for Active; 'I' for Inactive)
REMARK    1  A    between atoms: C_11  and  C_12 
ROOT
ATOM      1  C   LIG d   1       3.425  -0.198  -2.972  0.00  0.00     0.062 C 
ATOM      2  C   LIG d   1       2.953   0.587  -4.125  0.00  0.00     0.067 C 
ATOM      3  N   LIG d   1       2.591   1.192  -5.015  0.00  0.00    -0.196 NA
ATOM      4  H   LIG d   1       2.813  -1.093  -2.867  0.00  0.00     0.047 H 
ATOM      5  H   LIG d   1       3.346   0.404  -2.067  0.00  0.00     0.047 H 
ENDROOT
BRANCH   1   6
ATOM      6  C   LIG d   1       4.863  -0.595  -3.188  0.00  0.00    -0.009 A 
ATOM      7  C   LIG d   1       5.342  -1.830  -3.812  0.00  0.00     0.004 A 
ATOM      8  C   LIG d   1       4.709  -2.945  -4.367  0.00  0.00    -0.051 A 
ATOM      9  C   LIG d   1       6.746  -1.760  -3.787  0.00  0.00     0.048 A 
ATOM     10  C   LIG d   1       5.460  -3.963  -4.884  0.00  0.00    -0.047 A 
ATOM     11  H   LIG d   1       3.631  -3.002  -4.388  0.00  0.00     0.062 H 
ATOM     12  C   LIG d   1       6.848  -3.898  -4.861  0.00  0.00     0.020 A 
ATOM     13  H   LIG d   1       4.971  -4.825  -5.312  0.00  0.00     0.063 H 
ATOM     14  C   LIG d   1       7.491  -2.807  -4.318  0.00  0.00    -0.024 A 
ATOM     15 BR   LIG d   1       7.863  -5.322  -5.582  0.00  0.00    -0.050 Br
ATOM     16  H   LIG d   1       8.570  -2.765  -4.306  0.00  0.00     0.065 H 
ATOM     17  N   LIG d   1       7.082  -0.565  -3.190  0.00  0.00    -0.360 N 
ATOM     18  H   LIG d   1       7.988  -0.253  -3.039  0.00  0.00     0.165 HD
ATOM     19  C   LIG d   1       5.947   0.115  -2.840  0.00  0.00     0.007 A 
ATOM     20  H   LIG d   1       5.928   1.081  -2.355  0.00  0.00     0.081 H 
ENDBRANCH   1   6
TORSDOF 1
ENDMDL
MODEL 7
REMARK VINA RESULT:      -4.6      7.630      9.022
REMARK  1 active torsions:
REMARK  status: ('A' for Active; 'I' for Inactive)
REMARK    1  A    between atoms: C_11  and  C_12 
ROOT
ATOM      1  C   LIG d   1       9.121   3.796  -4.743  0.00  0.00     0.062 C 
ATOM      2  C   LIG d   1       8.233   2.629  -4.619  0.00  0.00     0.067 C 
ATOM      3  N   LIG d   1       7.547   1.728  -4.524  0.00  0.00    -0.196 NA
ATOM      4  H   LIG d   1       8.526   4.686  -4.947  0.00  0.00     0.047 H 
ATOM      5  H   LIG d   1       9.824   3.634  -5.560  0.00  0.00     0.047 H 
ENDROOT
BRANCH   1   6
ATOM      6  C   LIG d   1       9.883   3.986  -3.456  0.00  0.00    -0.009 A 
ATOM      7  C   LIG d   1       9.994   5.225  -2.682  0.00  0.00     0.004 A 
ATOM      8  C   LIG d   1       9.487   6.516  -2.842  0.00  0.00    -0.051 A 
ATOM      9  C   LIG d   1      10.802   4.920  -1.573  0.00  0.00     0.048 A 
ATOM     10  C   LIG d   1       9.781   7.479  -1.918  0.00  0.00    -0.047 A 
ATOM     11  H   LIG d   1       8.866   6.754  -3.693  0.00  0.00     0.062 H 
ATOM     12  C   LIG d   1      10.580   7.184  -0.821  0.00  0.00     0.020 A 
ATOM     13  H   LIG d   1       9.390   8.478  -2.043  0.00  0.00     0.063 H 
ATOM     14  C   LIG d   1      11.090   5.915  -0.645  0.00  0.00    -0.024 A 
ATOM     15 BR   LIG d   1      10.972   8.535   0.442  0.00  0.00    -0.050 Br
ATOM     16  H   LIG d   1      11.709   5.694   0.212  0.00  0.00     0.065 H 
ATOM     17  N   LIG d   1      11.151   3.592  -1.677  0.00  0.00    -0.360 N 
ATOM     18  H   LIG d   1      11.708   3.111  -1.045  0.00  0.00     0.165 HD
ATOM     19  C   LIG d   1      10.594   3.052  -2.804  0.00  0.00     0.007 A 
ATOM     20  H   LIG d   1      10.709   2.026  -3.122  0.00  0.00     0.081 H 
ENDBRANCH   1   6
TORSDOF 1
ENDMDL
MODEL 8
REMARK VINA RESULT:      -4.6      8.573      9.630
REMARK  1 active torsions:
REMARK  status: ('A' for Active; 'I' for Inactive)
REMARK    1  A    between atoms: C_11  and  C_12 
ROOT
ATOM      1  C   LIG d   1      10.571   8.236   0.113  0.00  0.00     0.062 C 
ATOM      2  C   LIG d   1      11.465   8.513   1.250  0.00  0.00     0.067 C 
ATOM      3  N   LIG d   1      12.154   8.725   2.126  0.00  0.00    -0.196 NA
ATOM      4  H   LIG d   1      10.804   8.915  -0.707  0.00  0.00     0.047 H 
ATOM      5  H   LIG d   1       9.536   8.381   0.421  0.00  0.00     0.047 H 
ENDROOT
BRANCH   1   6
ATOM      6  C   LIG d   1      10.763   6.812  -0.343  0.00  0.00    -0.009 A 
ATOM      7  C   LIG d   1      10.340   6.243  -1.625  0.00  0.00     0.004 A 
ATOM      8  C   LIG d   1       9.691   6.759  -2.748  0.00  0.00    -0.051 A 
ATOM      9  C   LIG d   1      10.727   4.891  -1.597  0.00  0.00     0.048 A 
ATOM     10  C   LIG d   1       9.432   5.945  -3.815  0.00  0.00    -0.047 A 
ATOM     11  H   LIG d   1       9.392   7.796  -2.773  0.00  0.00     0.062 H 
ATOM     12  C   LIG d   1       9.811   4.608  -3.792  0.00  0.00     0.020 A 
ATOM     13  H   LIG d   1       8.928   6.343  -4.683  0.00  0.00     0.063 H 
ATOM     14  C   LIG d   1      10.455   4.080  -2.693  0.00  0.00    -0.024 A 
ATOM     15 BR   LIG d   1       9.441   3.505  -5.281  0.00  0.00    -0.050 Br
ATOM     16  H   LIG d   1      10.746   3.041  -2.684  0.00  0.00     0.065 H 
ATOM     17  N   LIG d   1      11.338   4.669  -0.382  0.00  0.00    -0.360 N 
ATOM     18  H   LIG d   1      11.704   3.819  -0.090  0.00  0.00     0.165 HD
ATOM     19  C   LIG d   1      11.351   5.825   0.350  0.00  0.00     0.007 A 
ATOM     20  H   LIG d   1      11.771   5.927   1.340  0.00  0.00     0.081 H 
ENDBRANCH   1   6
TORSDOF 1
ENDMDL
MODEL 9
REMARK VINA RESULT:      -4.5      2.119      2.567
REMARK  1 active torsions:
REMARK  status: ('A' for Active; 'I' for Inactive)
REMARK    1  A    between atoms: C_11  and  C_12 
ROOT
ATOM      1  C   LIG d   1       4.225  -1.299  -2.281  0.00  0.00     0.062 C 
ATOM      2  C   LIG d   1       4.515   0.061  -1.800  0.00  0.00     0.067 C 
ATOM      3  N   LIG d   1       4.739   1.111  -1.429  0.00  0.00    -0.196 NA
ATOM      4  H   LIG d   1       3.267  -1.630  -1.880  0.00  0.00     0.047 H 
ATOM      5  H   LIG d   1       5.010  -1.978  -1.949  0.00  0.00     0.047 H 
ENDROOT
BRANCH   1   6
ATOM      6  C   LIG d   1       4.166  -1.298  -3.787  0.00  0.00    -0.009 A 
ATOM      7  C   LIG d   1       4.843  -2.235  -4.687  0.00  0.00     0.004 A 
ATOM      8  C   LIG d   1       5.680  -3.335  -4.490  0.00  0.00    -0.051 A 
ATOM      9  C   LIG d   1       4.499  -1.839  -5.992  0.00  0.00     0.048 A 
ATOM     10  C   LIG d   1       6.162  -4.022  -5.569  0.00  0.00    -0.047 A 
ATOM     11  H   LIG d   1       5.946  -3.642  -3.490  0.00  0.00     0.062 H 
ATOM     12  C   LIG d   1       5.826  -3.634  -6.860  0.00  0.00     0.020 A 
ATOM     13  H   LIG d   1       6.810  -4.872  -5.417  0.00  0.00     0.063 H 
ATOM     14  C   LIG d   1       5.001  -2.551  -7.076  0.00  0.00    -0.024 A 
ATOM     15 BR   LIG d   1       6.508  -4.601  -8.335  0.00  0.00    -0.050 Br
ATOM     16  H   LIG d   1       4.744  -2.257  -8.083  0.00  0.00     0.065 H 
ATOM     17  N   LIG d   1       3.675  -0.741  -5.879  0.00  0.00    -0.360 N 
ATOM     18  H   LIG d   1       3.285  -0.258  -6.625  0.00  0.00     0.165 HD
ATOM     19  C   LIG d   1       3.487  -0.434  -4.559  0.00  0.00     0.007 A 
ATOM     20  H   LIG d   1       2.883   0.382  -4.191  0.00  0.00     0.081 H 
ENDBRANCH   1   6
TORSDOF 1
ENDMDL
