MODEL 1
REMARK VINA RESULT:      -5.9      0.000      0.000
REMARK  6 active torsions:
REMARK  status: ('A' for Active; 'I' for Inactive)
REMARK    1  A    between atoms: C_1  and  C_2 
REMARK    2  A    between atoms: C_2  and  N_3 
REMARK    3  A    between atoms: N_3  and  C_4 
REMARK    4  A    between atoms: N_3  and  C_6 
REMARK    5  A    between atoms: C_4  and  C_5 
REMARK    6  A    between atoms: C_11  and  C_17 
ROOT
ATOM      1  C   LIG d   1       2.635  -1.342 -10.600  0.00  0.00     0.033 A 
ATOM      2  C   LIG d   1       2.195  -0.066 -10.247  0.00  0.00    -0.040 A 
ATOM      3  C   LIG d   1       2.411   0.415  -8.990  0.00  0.00    -0.049 A 
ATOM      4  C   LIG d   1       3.079  -0.375  -8.042  0.00  0.00     0.018 A 
ATOM      5  C   LIG d   1       3.305   0.121  -6.734  0.00  0.00    -0.036 A 
ATOM      6  C   LIG d   1       3.960  -0.671  -5.830  0.00  0.00     0.069 A 
ATOM      7  C   LIG d   1       4.405  -2.004  -6.243  0.00  0.00     0.345 A 
ATOM      8  O   LIG d   1       4.989  -2.722  -5.452  0.00  0.00    -0.244 OA
ATOM      9  O   LIG d   1       4.171  -2.437  -7.494  0.00  0.00    -0.422 OA
ATOM     10  C   LIG d   1       3.526  -1.663  -8.393  0.00  0.00     0.141 A 
ATOM     11  C   LIG d   1       3.297  -2.137  -9.677  0.00  0.00     0.002 A 
ATOM     12  H   LIG d   1       1.680   0.545 -10.974  0.00  0.00     0.064 H 
ATOM     13  H   LIG d   1       2.067   1.404  -8.724  0.00  0.00     0.062 H 
ATOM     14  H   LIG d   1       2.967   1.108  -6.455  0.00  0.00     0.063 H 
ATOM     15  H   LIG d   1       3.634  -3.124  -9.956  0.00  0.00     0.067 H 
ENDROOT
BRANCH   1  16
ATOM     16  N   LIG d   1       2.409  -1.821 -11.887  0.00  0.00    -0.330 N 
BRANCH  16  17
ATOM     17  C   LIG d   1       1.038  -1.993 -12.374  0.00  0.00     0.009 C 
ATOM     18  H   LIG d   1       0.421  -1.166 -12.021  0.00  0.00     0.046 H 
ATOM     19  H   LIG d   1       1.038  -2.006 -13.464  0.00  0.00     0.046 H 
BRANCH  17  20
ATOM     20  C   LIG d   1       0.472  -3.313 -11.849  0.00  0.00    -0.049 C 
ATOM     21  H   LIG d   1       0.662  -4.104 -12.575  0.00  0.00     0.025 H 
ATOM     22  H   LIG d   1       0.954  -3.564 -10.904  0.00  0.00     0.025 H 
ATOM     23  H   LIG d   1      -0.602  -3.212 -11.694  0.00  0.00     0.025 H 
ENDBRANCH  17  20
ENDBRANCH  16  17
BRANCH  16  24
ATOM     24  C   LIG d   1       3.542  -2.154 -12.754  0.00  0.00     0.009 C 
ATOM     25  H   LIG d   1       4.330  -2.617 -12.160  0.00  0.00     0.046 H 
ATOM     26  H   LIG d   1       3.215  -2.849 -13.528  0.00  0.00     0.046 H 
BRANCH  24  27
ATOM     27  C   LIG d   1       4.077  -0.878 -13.408  0.00  0.00    -0.049 C 
ATOM     28  H   LIG d   1       4.974  -0.551 -12.883  0.00  0.00     0.025 H 
ATOM     29  H   LIG d   1       4.320  -1.078 -14.451  0.00  0.00     0.025 H 
ATOM     30  H   LIG d   1       3.319  -0.097 -13.355  0.00  0.00     0.025 H 
ENDBRANCH  24  27
ENDBRANCH  16  24
ENDBRANCH   1  16
BRANCH   6  31
ATOM     31  C   LIG d   1       4.215  -0.188  -4.452  0.00  0.00     0.007 A 
ATOM     32  C   LIG d   1       5.489   0.250  -4.088  0.00  0.00     0.049 A 
ATOM     33  C   LIG d   1       5.718   0.703  -2.804  0.00  0.00    -0.043 A 
ATOM     34 CL   LIG d   1       6.781   0.230  -5.248  0.00  0.00    -0.083 Cl
ATOM     35  C   LIG d   1       4.691   0.715  -1.877  0.00  0.00    -0.060 A 
ATOM     36  H   LIG d   1       6.703   1.045  -2.520  0.00  0.00     0.063 H 
ATOM     37  C   LIG d   1       3.427   0.277  -2.233  0.00  0.00    -0.061 A 
ATOM     38  H   LIG d   1       4.877   1.066  -0.873  0.00  0.00     0.062 H 
ATOM     39  C   LIG d   1       3.184  -0.174  -3.513  0.00  0.00    -0.052 A 
ATOM     40  H   LIG d   1       2.630   0.289  -1.505  0.00  0.00     0.062 H 
ATOM     41  H   LIG d   1       2.197  -0.516  -3.788  0.00  0.00     0.062 H 
ENDBRANCH   6  31
TORSDOF 6
ENDMDL
MODEL 2
REMARK VINA RESULT:      -5.8      2.812      7.664
REMARK  6 active torsions:
REMARK  status: ('A' for Active; 'I' for Inactive)
REMARK    1  A    between atoms: C_1  and  C_2 
REMARK    2  A    between atoms: C_2  and  N_3 
REMARK    3  A    between atoms: N_3  and  C_4 
REMARK    4  A    between atoms: N_3  and  C_6 
REMARK    5  A    between atoms: C_4  and  C_5 
REMARK    6  A    between atoms: C_11  and  C_17 
ROOT
ATOM      1  C   LIG d   1       3.800  -0.316  -4.967  0.00  0.00     0.033 A 
ATOM      2  C   LIG d   1       2.761   0.440  -5.510  0.00  0.00    -0.040 A 
ATOM      3  C   LIG d   1       2.476   0.367  -6.840  0.00  0.00    -0.049 A 
ATOM      4  C   LIG d   1       3.232  -0.473  -7.673  0.00  0.00     0.018 A 
ATOM      5  C   LIG d   1       2.940  -0.553  -9.058  0.00  0.00    -0.036 A 
ATOM      6  C   LIG d   1       3.693  -1.381  -9.846  0.00  0.00     0.069 A 
ATOM      7  C   LIG d   1       4.774  -2.157  -9.235  0.00  0.00     0.345 A 
ATOM      8  O   LIG d   1       5.454  -2.898  -9.921  0.00  0.00    -0.244 OA
ATOM      9  O   LIG d   1       5.018  -2.053  -7.917  0.00  0.00    -0.422 OA
ATOM     10  C   LIG d   1       4.281  -1.239  -7.131  0.00  0.00     0.141 A 
ATOM     11  C   LIG d   1       4.557  -1.151  -5.774  0.00  0.00     0.002 A 
ATOM     12  H   LIG d   1       2.177   1.088  -4.872  0.00  0.00     0.064 H 
ATOM     13  H   LIG d   1       1.671   0.954  -7.255  0.00  0.00     0.062 H 
ATOM     14  H   LIG d   1       2.137   0.029  -9.484  0.00  0.00     0.063 H 
ATOM     15  H   LIG d   1       5.361  -1.733  -5.347  0.00  0.00     0.067 H 
ENDROOT
BRANCH   1  16
ATOM     16  N   LIG d   1       4.079  -0.232  -3.606  0.00  0.00    -0.330 N 
BRANCH  16  17
ATOM     17  C   LIG d   1       4.797  -1.321  -2.937  0.00  0.00     0.009 C 
ATOM     18  H   LIG d   1       5.438  -1.829  -3.657  0.00  0.00     0.046 H 
ATOM     19  H   LIG d   1       5.407  -0.913  -2.131  0.00  0.00     0.046 H 
BRANCH  17  20
ATOM     20  C   LIG d   1       3.789  -2.316  -2.359  0.00  0.00    -0.049 C 
ATOM     21  H   LIG d   1       4.026  -2.506  -1.312  0.00  0.00     0.025 H 
ATOM     22  H   LIG d   1       2.784  -1.900  -2.434  0.00  0.00     0.025 H 
ATOM     23  H   LIG d   1       3.839  -3.250  -2.918  0.00  0.00     0.025 H 
ENDBRANCH  17  20
ENDBRANCH  16  17
BRANCH  16  24
ATOM     24  C   LIG d   1       3.654   0.944  -2.842  0.00  0.00     0.009 C 
ATOM     25  H   LIG d   1       3.726   1.830  -3.471  0.00  0.00     0.046 H 
ATOM     26  H   LIG d   1       2.622   0.812  -2.517  0.00  0.00     0.046 H 
BRANCH  24  27
ATOM     27  C   LIG d   1       4.557   1.111  -1.618  0.00  0.00    -0.049 C 
ATOM     28  H   LIG d   1       5.441   1.684  -1.895  0.00  0.00     0.025 H 
ATOM     29  H   LIG d   1       4.013   1.638  -0.834  0.00  0.00     0.025 H 
ATOM     30  H   LIG d   1       4.859   0.129  -1.252  0.00  0.00     0.025 H 
ENDBRANCH  24  27
ENDBRANCH  16  24
ENDBRANCH   1  16
BRANCH   6  31
ATOM     31  C   LIG d   1       3.418  -1.492 -11.299  0.00  0.00     0.007 A 
ATOM     32  C   LIG d   1       2.452  -2.384 -11.763  0.00  0.00     0.049 A 
ATOM     33  C   LIG d   1       2.198  -2.478 -13.118  0.00  0.00    -0.043 A 
ATOM     34 CL   LIG d   1       1.566  -3.370 -10.641  0.00  0.00    -0.083 Cl
ATOM     35  C   LIG d   1       2.907  -1.697 -14.013  0.00  0.00    -0.060 A 
ATOM     36  H   LIG d   1       1.448  -3.166 -13.479  0.00  0.00     0.063 H 
ATOM     37  C   LIG d   1       3.870  -0.814 -13.557  0.00  0.00    -0.061 A 
ATOM     38  H   LIG d   1       2.708  -1.778 -15.072  0.00  0.00     0.062 H 
ATOM     39  C   LIG d   1       4.130  -0.707 -12.207  0.00  0.00    -0.052 A 
ATOM     40  H   LIG d   1       4.419  -0.207 -14.261  0.00  0.00     0.062 H 
ATOM     41  H   LIG d   1       4.882  -0.018 -11.853  0.00  0.00     0.062 H 
ENDBRANCH   6  31
TORSDOF 6
ENDMDL
MODEL 3
REMARK VINA RESULT:      -5.7      2.610      7.557
REMARK  6 active torsions:
REMARK  status: ('A' for Active; 'I' for Inactive)
REMARK    1  A    between atoms: C_1  and  C_2 
REMARK    2  A    between atoms: C_2  and  N_3 
REMARK    3  A    between atoms: N_3  and  C_4 
REMARK    4  A    between atoms: N_3  and  C_6 
REMARK    5  A    between atoms: C_4  and  C_5 
REMARK    6  A    between atoms: C_11  and  C_17 
ROOT
ATOM      1  C   LIG d   1       3.819  -0.322  -5.018  0.00  0.00     0.033 A 
ATOM      2  C   LIG d   1       2.783   0.452  -5.541  0.00  0.00    -0.040 A 
ATOM      3  C   LIG d   1       2.413   0.318  -6.846  0.00  0.00    -0.049 A 
ATOM      4  C   LIG d   1       3.076  -0.604  -7.671  0.00  0.00     0.018 A 
ATOM      5  C   LIG d   1       2.694  -0.748  -9.029  0.00  0.00    -0.036 A 
ATOM      6  C   LIG d   1       3.357  -1.656  -9.810  0.00  0.00     0.069 A 
ATOM      7  C   LIG d   1       4.438  -2.448  -9.219  0.00  0.00     0.345 A 
ATOM      8  O   LIG d   1       5.038  -3.259  -9.900  0.00  0.00    -0.244 OA
ATOM      9  O   LIG d   1       4.769  -2.282  -7.927  0.00  0.00    -0.422 OA
ATOM     10  C   LIG d   1       4.120  -1.389  -7.148  0.00  0.00     0.141 A 
ATOM     11  C   LIG d   1       4.485  -1.238  -5.818  0.00  0.00     0.002 A 
ATOM     12  H   LIG d   1       2.271   1.163  -4.909  0.00  0.00     0.064 H 
ATOM     13  H   LIG d   1       1.611   0.920  -7.245  0.00  0.00     0.062 H 
ATOM     14  H   LIG d   1       1.893  -0.152  -9.440  0.00  0.00     0.063 H 
ATOM     15  H   LIG d   1       5.287  -1.834  -5.406  0.00  0.00     0.067 H 
ENDROOT
BRANCH   1  16
ATOM     16  N   LIG d   1       4.187  -0.175  -3.683  0.00  0.00    -0.330 N 
BRANCH  16  17
ATOM     17  C   LIG d   1       4.874  -1.267  -2.988  0.00  0.00     0.009 C 
ATOM     18  H   LIG d   1       5.525  -1.790  -3.689  0.00  0.00     0.046 H 
ATOM     19  H   LIG d   1       5.471  -0.860  -2.173  0.00  0.00     0.046 H 
BRANCH  17  20
ATOM     20  C   LIG d   1       3.840  -2.243  -2.425  0.00  0.00    -0.049 C 
ATOM     21  H   LIG d   1       4.322  -3.195  -2.204  0.00  0.00     0.025 H 
ATOM     22  H   LIG d   1       3.413  -1.831  -1.510  0.00  0.00     0.025 H 
ATOM     23  H   LIG d   1       3.049  -2.397  -3.158  0.00  0.00     0.025 H 
ENDBRANCH  17  20
ENDBRANCH  16  17
BRANCH  16  24
ATOM     24  C   LIG d   1       3.885   1.071  -2.973  0.00  0.00     0.009 C 
ATOM     25  H   LIG d   1       4.236   1.918  -3.562  0.00  0.00     0.046 H 
ATOM     26  H   LIG d   1       2.808   1.152  -2.826  0.00  0.00     0.046 H 
BRANCH  24  27
ATOM     27  C   LIG d   1       4.587   1.066  -1.614  0.00  0.00    -0.049 C 
ATOM     28  H   LIG d   1       5.641   0.825  -1.751  0.00  0.00     0.025 H 
ATOM     29  H   LIG d   1       4.496   2.050  -1.155  0.00  0.00     0.025 H 
ATOM     30  H   LIG d   1       4.123   0.321  -0.968  0.00  0.00     0.025 H 
ENDBRANCH  24  27
ENDBRANCH  16  24
ENDBRANCH   1  16
BRANCH   6  31
ATOM     31  C   LIG d   1       2.987  -1.834 -11.234  0.00  0.00     0.007 A 
ATOM     32  C   LIG d   1       3.619  -1.078 -12.222  0.00  0.00     0.049 A 
ATOM     33  C   LIG d   1       3.272  -1.254 -13.548  0.00  0.00    -0.043 A 
ATOM     34 CL   LIG d   1       4.841   0.075 -11.788  0.00  0.00    -0.083 Cl
ATOM     35  C   LIG d   1       2.294  -2.168 -13.895  0.00  0.00    -0.060 A 
ATOM     36  H   LIG d   1       3.761  -0.671 -14.314  0.00  0.00     0.063 H 
ATOM     37  C   LIG d   1       1.661  -2.916 -12.918  0.00  0.00    -0.061 A 
ATOM     38  H   LIG d   1       2.023  -2.298 -14.932  0.00  0.00     0.062 H 
ATOM     39  C   LIG d   1       2.001  -2.755 -11.591  0.00  0.00    -0.052 A 
ATOM     40  H   LIG d   1       0.899  -3.629 -13.195  0.00  0.00     0.062 H 
ATOM     41  H   LIG d   1       1.506  -3.339 -10.830  0.00  0.00     0.062 H 
ENDBRANCH   6  31
TORSDOF 6
ENDMDL
MODEL 4
REMARK VINA RESULT:      -5.6      5.319      7.803
REMARK  6 active torsions:
REMARK  status: ('A' for Active; 'I' for Inactive)
REMARK    1  A    between atoms: C_1  and  C_2 
REMARK    2  A    between atoms: C_2  and  N_3 
REMARK    3  A    between atoms: N_3  and  C_4 
REMARK    4  A    between atoms: N_3  and  C_6 
REMARK    5  A    between atoms: C_4  and  C_5 
REMARK    6  A    between atoms: C_11  and  C_17 
ROOT
ATOM      1  C   LIG d   1       9.063  -5.857  -4.732  0.00  0.00     0.033 A 
ATOM      2  C   LIG d   1       7.954  -6.305  -5.452  0.00  0.00    -0.040 A 
ATOM      3  C   LIG d   1       6.842  -5.525  -5.560  0.00  0.00    -0.049 A 
ATOM      4  C   LIG d   1       6.807  -4.264  -4.945  0.00  0.00     0.018 A 
ATOM      5  C   LIG d   1       5.652  -3.450  -5.054  0.00  0.00    -0.036 A 
ATOM      6  C   LIG d   1       5.646  -2.224  -4.444  0.00  0.00     0.069 A 
ATOM      7  C   LIG d   1       6.832  -1.794  -3.700  0.00  0.00     0.345 A 
ATOM      8  O   LIG d   1       6.843  -0.707  -3.151  0.00  0.00    -0.244 OA
ATOM      9  O   LIG d   1       7.907  -2.596  -3.620  0.00  0.00    -0.422 OA
ATOM     10  C   LIG d   1       7.922  -3.807  -4.219  0.00  0.00     0.141 A 
ATOM     11  C   LIG d   1       9.047  -4.615  -4.118  0.00  0.00     0.002 A 
ATOM     12  H   LIG d   1       7.978  -7.275  -5.927  0.00  0.00     0.064 H 
ATOM     13  H   LIG d   1       5.987  -5.877  -6.118  0.00  0.00     0.062 H 
ATOM     14  H   LIG d   1       4.791  -3.791  -5.610  0.00  0.00     0.063 H 
ATOM     15  H   LIG d   1       9.908  -4.274  -3.562  0.00  0.00     0.067 H 
ENDROOT
BRANCH   1  16
ATOM     16  N   LIG d   1      10.194  -6.663  -4.631  0.00  0.00    -0.330 N 
BRANCH  16  17
ATOM     17  C   LIG d   1      10.971  -6.988  -5.830  0.00  0.00     0.009 C 
ATOM     18  H   LIG d   1      11.538  -7.904  -5.659  0.00  0.00     0.046 H 
ATOM     19  H   LIG d   1      10.296  -7.131  -6.674  0.00  0.00     0.046 H 
BRANCH  17  20
ATOM     20  C   LIG d   1      11.935  -5.841  -6.138  0.00  0.00    -0.049 C 
ATOM     21  H   LIG d   1      12.441  -5.536  -5.222  0.00  0.00     0.025 H 
ATOM     22  H   LIG d   1      12.674  -6.173  -6.868  0.00  0.00     0.025 H 
ATOM     23  H   LIG d   1      11.377  -4.997  -6.544  0.00  0.00     0.025 H 
ENDBRANCH  17  20
ENDBRANCH  16  17
BRANCH  16  24
ATOM     24  C   LIG d   1      10.605  -7.188  -3.327  0.00  0.00     0.009 C 
ATOM     25  H   LIG d   1      11.411  -7.908  -3.464  0.00  0.00     0.046 H 
ATOM     26  H   LIG d   1      10.953  -6.368  -2.699  0.00  0.00     0.046 H 
BRANCH  24  27
ATOM     27  C   LIG d   1       9.415  -7.875  -2.654  0.00  0.00    -0.049 C 
ATOM     28  H   LIG d   1       8.996  -7.215  -1.895  0.00  0.00     0.025 H 
ATOM     29  H   LIG d   1       8.654  -8.099  -3.402  0.00  0.00     0.025 H 
ATOM     30  H   LIG d   1       9.748  -8.802  -2.187  0.00  0.00     0.025 H 
ENDBRANCH  24  27
ENDBRANCH  16  24
ENDBRANCH   1  16
BRANCH   6  31
ATOM     31  C   LIG d   1       4.457  -1.345  -4.536  0.00  0.00     0.007 A 
ATOM     32  C   LIG d   1       3.522  -1.321  -3.501  0.00  0.00     0.049 A 
ATOM     33  C   LIG d   1       2.418  -0.495  -3.591  0.00  0.00    -0.043 A 
ATOM     34 CL   LIG d   1       3.748  -2.321  -2.100  0.00  0.00    -0.083 Cl
ATOM     35  C   LIG d   1       2.234   0.299  -4.709  0.00  0.00    -0.060 A 
ATOM     36  H   LIG d   1       1.694  -0.472  -2.790  0.00  0.00     0.063 H 
ATOM     37  C   LIG d   1       3.156   0.274  -5.741  0.00  0.00    -0.061 A 
ATOM     38  H   LIG d   1       1.367   0.939  -4.777  0.00  0.00     0.062 H 
ATOM     39  C   LIG d   1       4.265  -0.542  -5.661  0.00  0.00    -0.052 A 
ATOM     40  H   LIG d   1       3.007   0.897  -6.610  0.00  0.00     0.062 H 
ATOM     41  H   LIG d   1       4.983  -0.560  -6.467  0.00  0.00     0.062 H 
ENDBRANCH   6  31
TORSDOF 6
ENDMDL
MODEL 5
REMARK VINA RESULT:      -5.5      3.004      7.791
REMARK  6 active torsions:
REMARK  status: ('A' for Active; 'I' for Inactive)
REMARK    1  A    between atoms: C_1  and  C_2 
REMARK    2  A    between atoms: C_2  and  N_3 
REMARK    3  A    between atoms: N_3  and  C_4 
REMARK    4  A    between atoms: N_3  and  C_6 
REMARK    5  A    between atoms: C_4  and  C_5 
REMARK    6  A    between atoms: C_11  and  C_17 
ROOT
ATOM      1  C   LIG d   1       5.049  -0.836  -4.612  0.00  0.00     0.033 A 
ATOM      2  C   LIG d   1       5.661  -1.932  -5.222  0.00  0.00    -0.040 A 
ATOM      3  C   LIG d   1       5.503  -2.156  -6.556  0.00  0.00    -0.049 A 
ATOM      4  C   LIG d   1       4.719  -1.282  -7.326  0.00  0.00     0.018 A 
ATOM      5  C   LIG d   1       4.551  -1.511  -8.714  0.00  0.00    -0.036 A 
ATOM      6  C   LIG d   1       3.783  -0.641  -9.441  0.00  0.00     0.069 A 
ATOM      7  C   LIG d   1       3.159   0.496  -8.760  0.00  0.00     0.345 A 
ATOM      8  O   LIG d   1       2.473   1.279  -9.391  0.00  0.00    -0.244 OA
ATOM      9  O   LIG d   1       3.344   0.678  -7.441  0.00  0.00    -0.422 OA
ATOM     10  C   LIG d   1       4.101  -0.174  -6.717  0.00  0.00     0.141 A 
ATOM     11  C   LIG d   1       4.272   0.039  -5.356  0.00  0.00     0.002 A 
ATOM     12  H   LIG d   1       6.265  -2.607  -4.632  0.00  0.00     0.064 H 
ATOM     13  H   LIG d   1       5.979  -3.006  -7.022  0.00  0.00     0.062 H 
ATOM     14  H   LIG d   1       5.023  -2.357  -9.192  0.00  0.00     0.063 H 
ATOM     15  H   LIG d   1       3.800   0.884  -4.878  0.00  0.00     0.067 H 
ENDROOT
BRANCH   1  16
ATOM     16  N   LIG d   1       5.220  -0.618  -3.248  0.00  0.00    -0.330 N 
BRANCH  16  17
ATOM     17  C   LIG d   1       5.077  -1.731  -2.305  0.00  0.00     0.009 C 
ATOM     18  H   LIG d   1       5.758  -2.534  -2.585  0.00  0.00     0.046 H 
ATOM     19  H   LIG d   1       5.314  -1.387  -1.298  0.00  0.00     0.046 H 
BRANCH  17  20
ATOM     20  C   LIG d   1       3.637  -2.246  -2.341  0.00  0.00    -0.049 C 
ATOM     21  H   LIG d   1       3.257  -2.192  -3.361  0.00  0.00     0.025 H 
ATOM     22  H   LIG d   1       3.613  -3.281  -1.999  0.00  0.00     0.025 H 
ATOM     23  H   LIG d   1       3.015  -1.633  -1.689  0.00  0.00     0.025 H 
ENDBRANCH  17  20
ENDBRANCH  16  17
BRANCH  16  24
ATOM     24  C   LIG d   1       5.543   0.723  -2.755  0.00  0.00     0.009 C 
ATOM     25  H   LIG d   1       6.510   0.702  -2.253  0.00  0.00     0.046 H 
ATOM     26  H   LIG d   1       5.584   1.418  -3.593  0.00  0.00     0.046 H 
BRANCH  24  27
ATOM     27  C   LIG d   1       4.465   1.177  -1.768  0.00  0.00    -0.049 C 
ATOM     28  H   LIG d   1       4.816   1.019  -0.749  0.00  0.00     0.025 H 
ATOM     29  H   LIG d   1       4.256   2.236  -1.920  0.00  0.00     0.025 H 
ATOM     30  H   LIG d   1       3.555   0.601  -1.934  0.00  0.00     0.025 H 
ENDBRANCH  24  27
ENDBRANCH  16  24
ENDBRANCH   1  16
BRANCH   6  31
ATOM     31  C   LIG d   1       3.584  -0.848 -10.895  0.00  0.00     0.007 A 
ATOM     32  C   LIG d   1       2.506  -1.606 -11.353  0.00  0.00     0.049 A 
ATOM     33  C   LIG d   1       2.324  -1.790 -12.710  0.00  0.00    -0.043 A 
ATOM     34 CL   LIG d   1       1.393  -2.311 -10.223  0.00  0.00    -0.083 Cl
ATOM     35  C   LIG d   1       3.213  -1.234 -13.612  0.00  0.00    -0.060 A 
ATOM     36  H   LIG d   1       1.489  -2.374 -13.068  0.00  0.00     0.063 H 
ATOM     37  C   LIG d   1       4.286  -0.486 -13.162  0.00  0.00    -0.061 A 
ATOM     38  H   LIG d   1       3.069  -1.385 -14.672  0.00  0.00     0.062 H 
ATOM     39  C   LIG d   1       4.477  -0.290 -11.810  0.00  0.00    -0.052 A 
ATOM     40  H   LIG d   1       4.976  -0.054 -13.871  0.00  0.00     0.062 H 
ATOM     41  H   LIG d   1       5.315   0.294 -11.460  0.00  0.00     0.062 H 
ENDBRANCH   6  31
TORSDOF 6
ENDMDL
MODEL 6
REMARK VINA RESULT:      -5.5      5.331      7.829
REMARK  6 active torsions:
REMARK  status: ('A' for Active; 'I' for Inactive)
REMARK    1  A    between atoms: C_1  and  C_2 
REMARK    2  A    between atoms: C_2  and  N_3 
REMARK    3  A    between atoms: N_3  and  C_4 
REMARK    4  A    between atoms: N_3  and  C_6 
REMARK    5  A    between atoms: C_4  and  C_5 
REMARK    6  A    between atoms: C_11  and  C_17 
ROOT
ATOM      1  C   LIG d   1       9.406  -5.519  -4.387  0.00  0.00     0.033 A 
ATOM      2  C   LIG d   1       9.733  -4.287  -3.819  0.00  0.00    -0.040 A 
ATOM      3  C   LIG d   1       8.817  -3.278  -3.786  0.00  0.00    -0.049 A 
ATOM      4  C   LIG d   1       7.536  -3.476  -4.324  0.00  0.00     0.018 A 
ATOM      5  C   LIG d   1       6.580  -2.430  -4.292  0.00  0.00    -0.036 A 
ATOM      6  C   LIG d   1       5.338  -2.652  -4.824  0.00  0.00     0.069 A 
ATOM      7  C   LIG d   1       5.038  -3.961  -5.409  0.00  0.00     0.345 A 
ATOM      8  O   LIG d   1       3.939  -4.175  -5.887  0.00  0.00    -0.244 OA
ATOM      9  O   LIG d   1       5.973  -4.926  -5.420  0.00  0.00    -0.422 OA
ATOM     10  C   LIG d   1       7.201  -4.717  -4.897  0.00  0.00     0.141 A 
ATOM     11  C   LIG d   1       8.146  -5.733  -4.924  0.00  0.00     0.002 A 
ATOM     12  H   LIG d   1      10.718  -4.131  -3.403  0.00  0.00     0.064 H 
ATOM     13  H   LIG d   1       9.076  -2.327  -3.345  0.00  0.00     0.062 H 
ATOM     14  H   LIG d   1       6.827  -1.474  -3.854  0.00  0.00     0.063 H 
ATOM     15  H   LIG d   1       7.900  -6.689  -5.362  0.00  0.00     0.067 H 
ENDROOT
BRANCH   1  16
ATOM     16  N   LIG d   1      10.351  -6.541  -4.413  0.00  0.00    -0.330 N 
BRANCH  16  17
ATOM     17  C   LIG d   1      11.654  -6.317  -5.046  0.00  0.00     0.009 C 
ATOM     18  H   LIG d   1      12.090  -5.395  -4.662  0.00  0.00     0.046 H 
ATOM     19  H   LIG d   1      12.315  -7.154  -4.821  0.00  0.00     0.046 H 
BRANCH  17  20
ATOM     20  C   LIG d   1      11.472  -6.204  -6.560  0.00  0.00    -0.049 C 
ATOM     21  H   LIG d   1      11.818  -7.121  -7.037  0.00  0.00     0.025 H 
ATOM     22  H   LIG d   1      10.417  -6.052  -6.789  0.00  0.00     0.025 H 
ATOM     23  H   LIG d   1      12.050  -5.359  -6.934  0.00  0.00     0.025 H 
ENDBRANCH  17  20
ENDBRANCH  16  17
BRANCH  16  24
ATOM     24  C   LIG d   1      10.042  -7.840  -3.810  0.00  0.00     0.009 C 
ATOM     25  H   LIG d   1       9.127  -8.235  -4.249  0.00  0.00     0.046 H 
ATOM     26  H   LIG d   1      10.863  -8.531  -3.998  0.00  0.00     0.046 H 
BRANCH  24  27
ATOM     27  C   LIG d   1       9.854  -7.671  -2.301  0.00  0.00    -0.049 C 
ATOM     28  H   LIG d   1       9.066  -8.340  -1.957  0.00  0.00     0.025 H 
ATOM     29  H   LIG d   1      10.785  -7.911  -1.789  0.00  0.00     0.025 H 
ATOM     30  H   LIG d   1       9.576  -6.639  -2.084  0.00  0.00     0.025 H 
ENDBRANCH  24  27
ENDBRANCH  16  24
ENDBRANCH   1  16
BRANCH   6  31
ATOM     31  C   LIG d   1       4.312  -1.582  -4.809  0.00  0.00     0.007 A 
ATOM     32  C   LIG d   1       3.542  -1.367  -3.666  0.00  0.00     0.049 A 
ATOM     33  C   LIG d   1       2.591  -0.365  -3.658  0.00  0.00    -0.043 A 
ATOM     34 CL   LIG d   1       3.783  -2.350  -2.256  0.00  0.00    -0.083 Cl
ATOM     35  C   LIG d   1       2.394   0.415  -4.783  0.00  0.00    -0.060 A 
ATOM     36  H   LIG d   1       1.995  -0.195  -2.773  0.00  0.00     0.063 H 
ATOM     37  C   LIG d   1       3.152   0.201  -5.920  0.00  0.00    -0.061 A 
ATOM     38  H   LIG d   1       1.645   1.194  -4.773  0.00  0.00     0.062 H 
ATOM     39  C   LIG d   1       4.109  -0.792  -5.940  0.00  0.00    -0.052 A 
ATOM     40  H   LIG d   1       2.994   0.814  -6.795  0.00  0.00     0.062 H 
ATOM     41  H   LIG d   1       4.699  -0.958  -6.829  0.00  0.00     0.062 H 
ENDBRANCH   6  31
TORSDOF 6
ENDMDL
MODEL 7
REMARK VINA RESULT:      -5.5      5.004      6.215
REMARK  6 active torsions:
REMARK  status: ('A' for Active; 'I' for Inactive)
REMARK    1  A    between atoms: C_1  and  C_2 
REMARK    2  A    between atoms: C_2  and  N_3 
REMARK    3  A    between atoms: N_3  and  C_4 
REMARK    4  A    between atoms: N_3  and  C_6 
REMARK    5  A    between atoms: C_4  and  C_5 
REMARK    6  A    between atoms: C_11  and  C_17 
ROOT
ATOM      1  C   LIG d   1       6.572  -6.578  -6.147  0.00  0.00     0.033 A 
ATOM      2  C   LIG d   1       5.208  -6.623  -5.856  0.00  0.00    -0.040 A 
ATOM      3  C   LIG d   1       4.587  -5.548  -5.293  0.00  0.00    -0.049 A 
ATOM      4  C   LIG d   1       5.321  -4.388  -5.002  0.00  0.00     0.018 A 
ATOM      5  C   LIG d   1       4.680  -3.268  -4.416  0.00  0.00    -0.036 A 
ATOM      6  C   LIG d   1       5.420  -2.148  -4.145  0.00  0.00     0.069 A 
ATOM      7  C   LIG d   1       6.849  -2.145  -4.468  0.00  0.00     0.345 A 
ATOM      8  O   LIG d   1       7.522  -1.158  -4.232  0.00  0.00    -0.244 OA
ATOM      9  O   LIG d   1       7.419  -3.228  -5.023  0.00  0.00    -0.422 OA
ATOM     10  C   LIG d   1       6.697  -4.336  -5.295  0.00  0.00     0.141 A 
ATOM     11  C   LIG d   1       7.313  -5.440  -5.868  0.00  0.00     0.002 A 
ATOM     12  H   LIG d   1       4.640  -7.515  -6.078  0.00  0.00     0.064 H 
ATOM     13  H   LIG d   1       3.532  -5.589  -5.070  0.00  0.00     0.062 H 
ATOM     14  H   LIG d   1       3.624  -3.296  -4.189  0.00  0.00     0.063 H 
ATOM     15  H   LIG d   1       8.368  -5.412  -6.095  0.00  0.00     0.067 H 
ENDROOT
BRANCH   1  16
ATOM     16  N   LIG d   1       7.193  -7.683  -6.723  0.00  0.00    -0.330 N 
BRANCH  16  17
ATOM     17  C   LIG d   1       8.046  -7.511  -7.902  0.00  0.00     0.009 C 
ATOM     18  H   LIG d   1       8.615  -6.585  -7.807  0.00  0.00     0.046 H 
ATOM     19  H   LIG d   1       8.734  -8.353  -7.980  0.00  0.00     0.046 H 
BRANCH  17  20
ATOM     20  C   LIG d   1       7.174  -7.448  -9.158  0.00  0.00    -0.049 C 
ATOM     21  H   LIG d   1       6.142  -7.677  -8.894  0.00  0.00     0.025 H 
ATOM     22  H   LIG d   1       7.227  -6.447  -9.587  0.00  0.00     0.025 H 
ATOM     23  H   LIG d   1       7.533  -8.175  -9.886  0.00  0.00     0.025 H 
ENDBRANCH  17  20
ENDBRANCH  16  17
BRANCH  16  24
ATOM     24  C   LIG d   1       6.992  -9.017  -6.153  0.00  0.00     0.009 C 
ATOM     25  H   LIG d   1       5.927  -9.191  -6.004  0.00  0.00     0.046 H 
ATOM     26  H   LIG d   1       7.391  -9.767  -6.835  0.00  0.00     0.046 H 
BRANCH  24  27
ATOM     27  C   LIG d   1       7.718  -9.112  -4.809  0.00  0.00    -0.049 C 
ATOM     28  H   LIG d   1       7.130  -9.718  -4.121  0.00  0.00     0.025 H 
ATOM     29  H   LIG d   1       8.695  -9.571  -4.955  0.00  0.00     0.025 H 
ATOM     30  H   LIG d   1       7.846  -8.111  -4.394  0.00  0.00     0.025 H 
ENDBRANCH  24  27
ENDBRANCH  16  24
ENDBRANCH   1  16
BRANCH   6  31
ATOM     31  C   LIG d   1       4.785  -0.957  -3.532  0.00  0.00     0.007 A 
ATOM     32  C   LIG d   1       4.013  -0.096  -4.313  0.00  0.00     0.049 A 
ATOM     33  C   LIG d   1       3.421   1.010  -3.733  0.00  0.00    -0.043 A 
ATOM     34 CL   LIG d   1       3.793  -0.416  -6.005  0.00  0.00    -0.083 Cl
ATOM     35  C   LIG d   1       3.601   1.269  -2.387  0.00  0.00    -0.060 A 
ATOM     36  H   LIG d   1       2.821   1.676  -4.335  0.00  0.00     0.063 H 
ATOM     37  C   LIG d   1       4.370   0.420  -1.610  0.00  0.00    -0.061 A 
ATOM     38  H   LIG d   1       3.139   2.137  -1.940  0.00  0.00     0.062 H 
ATOM     39  C   LIG d   1       4.962  -0.690  -2.175  0.00  0.00    -0.052 A 
ATOM     40  H   LIG d   1       4.505   0.627  -0.559  0.00  0.00     0.062 H 
ATOM     41  H   LIG d   1       5.563  -1.351  -1.567  0.00  0.00     0.062 H 
ENDBRANCH   6  31
TORSDOF 6
ENDMDL
MODEL 8
REMARK VINA RESULT:      -5.5      5.496      7.987
REMARK  6 active torsions:
REMARK  status: ('A' for Active; 'I' for Inactive)
REMARK    1  A    between atoms: C_1  and  C_2 
REMARK    2  A    between atoms: C_2  and  N_3 
REMARK    3  A    between atoms: N_3  and  C_4 
REMARK    4  A    between atoms: N_3  and  C_6 
REMARK    5  A    between atoms: C_4  and  C_5 
REMARK    6  A    between atoms: C_11  and  C_17 
ROOT
ATOM      1  C   LIG d   1      10.174   3.568  -5.475  0.00  0.00     0.033 A 
ATOM      2  C   LIG d   1      10.210   3.414  -4.088  0.00  0.00    -0.040 A 
ATOM      3  C   LIG d   1       9.316   2.598  -3.462  0.00  0.00    -0.049 A 
ATOM      4  C   LIG d   1       8.354   1.905  -4.213  0.00  0.00     0.018 A 
ATOM      5  C   LIG d   1       7.422   1.055  -3.566  0.00  0.00    -0.036 A 
ATOM      6  C   LIG d   1       6.495   0.392  -4.324  0.00  0.00     0.069 A 
ATOM      7  C   LIG d   1       6.494   0.582  -5.776  0.00  0.00     0.345 A 
ATOM      8  O   LIG d   1       5.676   0.000  -6.464  0.00  0.00    -0.244 OA
ATOM      9  O   LIG d   1       7.395   1.397  -6.351  0.00  0.00    -0.422 OA
ATOM     10  C   LIG d   1       8.314   2.056  -5.612  0.00  0.00     0.141 A 
ATOM     11  C   LIG d   1       9.231   2.893  -6.233  0.00  0.00     0.002 A 
ATOM     12  H   LIG d   1      10.949   3.946  -3.507  0.00  0.00     0.064 H 
ATOM     13  H   LIG d   1       9.349   2.483  -2.389  0.00  0.00     0.062 H 
ATOM     14  H   LIG d   1       7.445   0.931  -2.493  0.00  0.00     0.063 H 
ATOM     15  H   LIG d   1       9.208   3.017  -7.305  0.00  0.00     0.067 H 
ENDROOT
BRANCH   1  16
ATOM     16  N   LIG d   1      11.094   4.405  -6.101  0.00  0.00    -0.330 N 
BRANCH  16  17
ATOM     17  C   LIG d   1      10.627   5.448  -7.020  0.00  0.00     0.009 C 
ATOM     18  H   LIG d   1      11.477   5.855  -7.568  0.00  0.00     0.046 H 
ATOM     19  H   LIG d   1       9.912   5.020  -7.723  0.00  0.00     0.046 H 
BRANCH  17  20
ATOM     20  C   LIG d   1       9.952   6.564  -6.222  0.00  0.00    -0.049 C 
ATOM     21  H   LIG d   1       9.820   7.438  -6.860  0.00  0.00     0.025 H 
ATOM     22  H   LIG d   1       8.979   6.221  -5.869  0.00  0.00     0.025 H 
ATOM     23  H   LIG d   1      10.575   6.829  -5.368  0.00  0.00     0.025 H 
ENDBRANCH  17  20
ENDBRANCH  16  17
BRANCH  16  24
ATOM     24  C   LIG d   1      12.527   4.242  -5.844  0.00  0.00     0.009 C 
ATOM     25  H   LIG d   1      12.951   5.199  -5.538  0.00  0.00     0.046 H 
ATOM     26  H   LIG d   1      12.672   3.510  -5.051  0.00  0.00     0.046 H 
BRANCH  24  27
ATOM     27  C   LIG d   1      13.222   3.760  -7.119  0.00  0.00    -0.049 C 
ATOM     28  H   LIG d   1      13.201   4.552  -7.866  0.00  0.00     0.025 H 
ATOM     29  H   LIG d   1      14.257   3.501  -6.893  0.00  0.00     0.025 H 
ATOM     30  H   LIG d   1      12.705   2.881  -7.504  0.00  0.00     0.025 H 
ENDBRANCH  24  27
ENDBRANCH  16  24
ENDBRANCH   1  16
BRANCH   6  31
ATOM     31  C   LIG d   1       5.504  -0.507  -3.684  0.00  0.00     0.007 A 
ATOM     32  C   LIG d   1       4.411   0.029  -3.001  0.00  0.00     0.049 A 
ATOM     33  C   LIG d   1       3.490  -0.815  -2.412  0.00  0.00    -0.043 A 
ATOM     34 CL   LIG d   1       4.206   1.750  -2.900  0.00  0.00    -0.083 Cl
ATOM     35  C   LIG d   1       3.655  -2.186  -2.487  0.00  0.00    -0.060 A 
ATOM     36  H   LIG d   1       2.642  -0.402  -1.885  0.00  0.00     0.063 H 
ATOM     37  C   LIG d   1       4.741  -2.721  -3.158  0.00  0.00    -0.061 A 
ATOM     38  H   LIG d   1       2.934  -2.841  -2.020  0.00  0.00     0.062 H 
ATOM     39  C   LIG d   1       5.665  -1.890  -3.756  0.00  0.00    -0.052 A 
ATOM     40  H   LIG d   1       4.863  -3.792  -3.214  0.00  0.00     0.062 H 
ATOM     41  H   LIG d   1       6.512  -2.310  -4.278  0.00  0.00     0.062 H 
ENDBRANCH   6  31
TORSDOF 6
ENDMDL
MODEL 9
REMARK VINA RESULT:      -5.5      5.536      8.025
REMARK  6 active torsions:
REMARK  status: ('A' for Active; 'I' for Inactive)
REMARK    1  A    between atoms: C_1  and  C_2 
REMARK    2  A    between atoms: C_2  and  N_3 
REMARK    3  A    between atoms: N_3  and  C_4 
REMARK    4  A    between atoms: N_3  and  C_6 
REMARK    5  A    between atoms: C_4  and  C_5 
REMARK    6  A    between atoms: C_11  and  C_17 
ROOT
ATOM      1  C   LIG d   1      10.254   3.695  -5.478  0.00  0.00     0.033 A 
ATOM      2  C   LIG d   1      10.159   3.699  -4.086  0.00  0.00    -0.040 A 
ATOM      3  C   LIG d   1       9.208   2.951  -3.458  0.00  0.00    -0.049 A 
ATOM      4  C   LIG d   1       8.318   2.172  -4.213  0.00  0.00     0.018 A 
ATOM      5  C   LIG d   1       7.327   1.393  -3.564  0.00  0.00    -0.036 A 
ATOM      6  C   LIG d   1       6.473   0.641  -4.325  0.00  0.00     0.069 A 
ATOM      7  C   LIG d   1       6.609   0.667  -5.784  0.00  0.00     0.345 A 
ATOM      8  O   LIG d   1       5.857   0.005  -6.476  0.00  0.00    -0.244 OA
ATOM      9  O   LIG d   1       7.562   1.419  -6.360  0.00  0.00    -0.422 OA
ATOM     10  C   LIG d   1       8.410   2.164  -5.617  0.00  0.00     0.141 A 
ATOM     11  C   LIG d   1       9.384   2.932  -6.240  0.00  0.00     0.002 A 
ATOM     12  H   LIG d   1      10.843   4.298  -3.502  0.00  0.00     0.064 H 
ATOM     13  H   LIG d   1       9.139   2.958  -2.381  0.00  0.00     0.062 H 
ATOM     14  H   LIG d   1       7.249   1.390  -2.487  0.00  0.00     0.063 H 
ATOM     15  H   LIG d   1       9.462   2.934  -7.317  0.00  0.00     0.067 H 
ENDROOT
BRANCH   1  16
ATOM     16  N   LIG d   1      11.231   4.463  -6.107  0.00  0.00    -0.330 N 
BRANCH  16  17
ATOM     17  C   LIG d   1      12.209   3.823  -6.991  0.00  0.00     0.009 C 
ATOM     18  H   LIG d   1      11.688   3.200  -7.718  0.00  0.00     0.046 H 
ATOM     19  H   LIG d   1      12.782   4.589  -7.514  0.00  0.00     0.046 H 
BRANCH  17  20
ATOM     20  C   LIG d   1      13.156   2.956  -6.159  0.00  0.00    -0.049 C 
ATOM     21  H   LIG d   1      12.593   2.453  -5.374  0.00  0.00     0.025 H 
ATOM     22  H   LIG d   1      13.627   2.213  -6.803  0.00  0.00     0.025 H 
ATOM     23  H   LIG d   1      13.924   3.586  -5.709  0.00  0.00     0.025 H 
ENDBRANCH  17  20
ENDBRANCH  16  17
BRANCH  16  24
ATOM     24  C   LIG d   1      11.282   5.910  -5.883  0.00  0.00     0.009 C 
ATOM     25  H   LIG d   1      11.322   6.110  -4.813  0.00  0.00     0.046 H 
ATOM     26  H   LIG d   1      12.170   6.320  -6.363  0.00  0.00     0.046 H 
BRANCH  24  27
ATOM     27  C   LIG d   1      10.033   6.563  -6.478  0.00  0.00    -0.049 C 
ATOM     28  H   LIG d   1       9.751   7.425  -5.874  0.00  0.00     0.025 H 
ATOM     29  H   LIG d   1      10.242   6.886  -7.498  0.00  0.00     0.025 H 
ATOM     30  H   LIG d   1       9.215   5.842  -6.487  0.00  0.00     0.025 H 
ENDBRANCH  24  27
ENDBRANCH  16  24
ENDBRANCH   1  16
BRANCH   6  31
ATOM     31  C   LIG d   1       5.424  -0.186  -3.684  0.00  0.00     0.007 A 
ATOM     32  C   LIG d   1       5.676  -1.525  -3.380  0.00  0.00     0.049 A 
ATOM     33  C   LIG d   1       4.695  -2.288  -2.777  0.00  0.00    -0.043 A 
ATOM     34 CL   LIG d   1       7.220  -2.226  -3.751  0.00  0.00    -0.083 Cl
ATOM     35  C   LIG d   1       3.463  -1.732  -2.485  0.00  0.00    -0.060 A 
ATOM     36  H   LIG d   1       4.889  -3.324  -2.538  0.00  0.00     0.063 H 
ATOM     37  C   LIG d   1       3.207  -0.407  -2.790  0.00  0.00    -0.061 A 
ATOM     38  H   LIG d   1       2.698  -2.335  -2.019  0.00  0.00     0.062 H 
ATOM     39  C   LIG d   1       4.179   0.368  -3.387  0.00  0.00    -0.052 A 
ATOM     40  H   LIG d   1       2.243   0.022  -2.559  0.00  0.00     0.062 H 
ATOM     41  H   LIG d   1       3.977   1.402  -3.624  0.00  0.00     0.062 H 
ENDBRANCH   6  31
TORSDOF 6
ENDMDL
MODEL 10
REMARK VINA RESULT:      -5.3      3.510      4.753
REMARK  6 active torsions:
REMARK  status: ('A' for Active; 'I' for Inactive)
REMARK    1  A    between atoms: C_1  and  C_2 
REMARK    2  A    between atoms: C_2  and  N_3 
REMARK    3  A    between atoms: N_3  and  C_4 
REMARK    4  A    between atoms: N_3  and  C_6 
REMARK    5  A    between atoms: C_4  and  C_5 
REMARK    6  A    between atoms: C_11  and  C_17 
ROOT
ATOM      1  C   LIG d   1       4.527  -6.218  -7.639  0.00  0.00     0.033 A 
ATOM      2  C   LIG d   1       4.693  -6.583  -6.302  0.00  0.00    -0.040 A 
ATOM      3  C   LIG d   1       4.730  -5.631  -5.328  0.00  0.00    -0.049 A 
ATOM      4  C   LIG d   1       4.600  -4.275  -5.666  0.00  0.00     0.018 A 
ATOM      5  C   LIG d   1       4.638  -3.282  -4.655  0.00  0.00    -0.036 A 
ATOM      6  C   LIG d   1       4.509  -1.967  -5.014  0.00  0.00     0.069 A 
ATOM      7  C   LIG d   1       4.335  -1.630  -6.429  0.00  0.00     0.345 A 
ATOM      8  O   LIG d   1       4.219  -0.466  -6.766  0.00  0.00    -0.244 OA
ATOM      9  O   LIG d   1       4.304  -2.602  -7.357  0.00  0.00    -0.422 OA
ATOM     10  C   LIG d   1       4.431  -3.902  -7.012  0.00  0.00     0.141 A 
ATOM     11  C   LIG d   1       4.397  -4.884  -7.993  0.00  0.00     0.002 A 
ATOM     12  H   LIG d   1       4.793  -7.625  -6.038  0.00  0.00     0.064 H 
ATOM     13  H   LIG d   1       4.859  -5.920  -4.295  0.00  0.00     0.062 H 
ATOM     14  H   LIG d   1       4.766  -3.558  -3.619  0.00  0.00     0.063 H 
ATOM     15  H   LIG d   1       4.269  -4.608  -9.029  0.00  0.00     0.067 H 
ENDROOT
BRANCH   1  16
ATOM     16  N   LIG d   1       4.489  -7.200  -8.625  0.00  0.00    -0.330 N 
BRANCH  16  17
ATOM     17  C   LIG d   1       5.586  -8.166  -8.738  0.00  0.00     0.009 C 
ATOM     18  H   LIG d   1       5.920  -8.454  -7.741  0.00  0.00     0.046 H 
ATOM     19  H   LIG d   1       5.239  -9.049  -9.275  0.00  0.00     0.046 H 
BRANCH  17  20
ATOM     20  C   LIG d   1       6.748  -7.529  -9.502  0.00  0.00    -0.049 C 
ATOM     21  H   LIG d   1       6.686  -7.805 -10.554  0.00  0.00     0.025 H 
ATOM     22  H   LIG d   1       6.695  -6.445  -9.407  0.00  0.00     0.025 H 
ATOM     23  H   LIG d   1       7.693  -7.884  -9.088  0.00  0.00     0.025 H 
ENDBRANCH  17  20
ENDBRANCH  16  17
BRANCH  16  24
ATOM     24  C   LIG d   1       3.355  -7.268  -9.550  0.00  0.00     0.009 C 
ATOM     25  H   LIG d   1       2.473  -6.843  -9.072  0.00  0.00     0.046 H 
ATOM     26  H   LIG d   1       3.588  -6.702 -10.451  0.00  0.00     0.046 H 
BRANCH  24  27
ATOM     27  C   LIG d   1       3.084  -8.728  -9.919  0.00  0.00    -0.049 C 
ATOM     28  H   LIG d   1       2.222  -9.089  -9.359  0.00  0.00     0.025 H 
ATOM     29  H   LIG d   1       2.881  -8.801 -10.987  0.00  0.00     0.025 H 
ATOM     30  H   LIG d   1       3.957  -9.333  -9.673  0.00  0.00     0.025 H 
ENDBRANCH  24  27
ENDBRANCH  16  24
ENDBRANCH   1  16
BRANCH   6  31
ATOM     31  C   LIG d   1       4.543  -0.900  -3.986  0.00  0.00     0.007 A 
ATOM     32  C   LIG d   1       5.749  -0.274  -3.667  0.00  0.00     0.049 A 
ATOM     33  C   LIG d   1       5.772   0.722  -2.711  0.00  0.00    -0.043 A 
ATOM     34 CL   LIG d   1       7.214  -0.743  -4.472  0.00  0.00    -0.083 Cl
ATOM     35  C   LIG d   1       4.607   1.093  -2.064  0.00  0.00    -0.060 A 
ATOM     36  H   LIG d   1       6.704   1.210  -2.464  0.00  0.00     0.063 H 
ATOM     37  C   LIG d   1       3.411   0.472  -2.375  0.00  0.00    -0.061 A 
ATOM     38  H   LIG d   1       4.632   1.870  -1.314  0.00  0.00     0.062 H 
ATOM     39  C   LIG d   1       3.372  -0.522  -3.331  0.00  0.00    -0.052 A 
ATOM     40  H   LIG d   1       2.504   0.766  -1.867  0.00  0.00     0.062 H 
ATOM     41  H   LIG d   1       2.437  -1.006  -3.571  0.00  0.00     0.062 H 
ENDBRANCH   6  31
TORSDOF 6
ENDMDL
