MODEL 1
REMARK VINA RESULT:      -8.5      0.000      0.000
REMARK  5 active torsions:
REMARK  status: ('A' for Active; 'I' for Inactive)
REMARK    1  A    between atoms: C_1  and  C_2 
REMARK       I    between atoms: C_2  and  N_4 
REMARK    2  A    between atoms: N_4  and  C_5 
REMARK    3  A    between atoms: C_8  and  S_11 
REMARK    4  A    between atoms: S_11  and  N_14 
REMARK    5  A    between atoms: C_17  and  C_20 
REMARK       I    between atoms: C_20  and  N_22 
ROOT
ATOM      1  N   LIG d   1       9.815   1.519  -6.066  0.00  0.00    -0.176 N 
ATOM      2  C   LIG d   1       8.666   0.811  -6.645  0.00  0.00     0.021 C 
ATOM      3  C   LIG d   1       7.438   1.056  -5.761  0.00  0.00    -0.027 C 
ATOM      4  C   LIG d   1       7.764   0.654  -4.321  0.00  0.00     0.038 C 
ATOM      5  C   LIG d   1       8.917   1.514  -3.797  0.00  0.00    -0.027 C 
ATOM      6  C   LIG d   1      10.163   1.269  -4.660  0.00  0.00     0.021 C 
ATOM      7  H   LIG d   1       8.474   1.187  -7.650  0.00  0.00     0.044 H 
ATOM      8  H   LIG d   1       8.878  -0.258  -6.687  0.00  0.00     0.044 H 
ATOM      9  H   LIG d   1       7.173   2.113  -5.793  0.00  0.00     0.029 H 
ATOM     10  H   LIG d   1       6.603   0.459  -6.126  0.00  0.00     0.029 H 
ATOM     11  H   LIG d   1       8.054  -0.397  -4.294  0.00  0.00     0.040 H 
ATOM     12  H   LIG d   1       8.637   2.566  -3.847  0.00  0.00     0.029 H 
ATOM     13  H   LIG d   1       9.132   1.243  -2.763  0.00  0.00     0.029 H 
ATOM     14  H   LIG d   1      10.495   0.238  -4.544  0.00  0.00     0.044 H 
ATOM     15  H   LIG d   1      10.960   1.949  -4.355  0.00  0.00     0.044 H 
ENDROOT
BRANCH   4  16
ATOM     16  C   LIG d   1       6.548   0.861  -3.455  0.00  0.00     0.219 C 
ATOM     17  O   LIG d   1       6.138   1.983  -3.245  0.00  0.00    -0.275 OA
ATOM     18  N   LIG d   1       5.917  -0.199  -2.915  0.00  0.00    -0.300 N 
ATOM     19  C   LIG d   1       6.335  -1.572  -3.243  0.00  0.00     0.023 C 
ATOM     20  C   LIG d   1       4.793  -0.012  -1.989  0.00  0.00     0.019 C 
ATOM     21  C   LIG d   1       5.103  -2.319  -3.766  0.00  0.00     0.016 C 
ATOM     22  H   LIG d   1       7.108  -1.549  -4.012  0.00  0.00     0.047 H 
ATOM     23  H   LIG d   1       6.715  -2.067  -2.350  0.00  0.00     0.047 H 
ATOM     24  C   LIG d   1       4.033  -2.312  -2.670  0.00  0.00    -0.037 C 
ATOM     25  H   LIG d   1       5.366  -3.345  -4.025  0.00  0.00     0.038 H 
ATOM     26  C   LIG d   1       4.587  -1.591  -4.985  0.00  0.00     0.027 C 
ATOM     27  C   LIG d   1       3.607  -0.864  -2.421  0.00  0.00    -0.006 C 
ATOM     28  H   LIG d   1       4.444  -2.737  -1.753  0.00  0.00     0.028 H 
ATOM     29  H   LIG d   1       3.172  -2.897  -2.994  0.00  0.00     0.028 H 
ATOM     30  H   LIG d   1       2.876  -0.861  -1.613  0.00  0.00     0.033 H 
ATOM     31  C   LIG d   1       2.936  -0.317  -3.667  0.00  0.00     0.031 C 
ATOM     32  N   LIG d   1       3.656  -0.613  -4.900  0.00  0.00    -0.312 N 
ATOM     33  H   LIG d   1       1.943  -0.756  -3.754  0.00  0.00     0.050 H 
ATOM     34  H   LIG d   1       2.836   0.764  -3.568  0.00  0.00     0.050 H 
ATOM     35  C   LIG d   1       3.342   0.117  -5.998  0.00  0.00     0.252 C 
ATOM     36  C   LIG d   1       3.846  -0.231  -7.258  0.00  0.00     0.003 C 
ATOM     37  O   LIG d   1       2.611   1.090  -5.888  0.00  0.00    -0.268 OA
ATOM     38  C   LIG d   1       4.718  -1.277  -7.357  0.00  0.00    -0.055 C 
ATOM     39  H   LIG d   1       3.550   0.318  -8.138  0.00  0.00     0.067 H 
ATOM     40  C   LIG d   1       5.098  -1.953  -6.193  0.00  0.00    -0.042 C 
ATOM     41  H   LIG d   1       5.107  -1.577  -8.318  0.00  0.00     0.062 H 
ATOM     42  H   LIG d   1       5.803  -2.769  -6.253  0.00  0.00     0.064 H 
ATOM     43  H   LIG d   1       5.100  -0.303  -0.985  0.00  0.00     0.047 H 
ATOM     44  H   LIG d   1       4.500   1.037  -1.985  0.00  0.00     0.047 H 
ENDBRANCH   4  16
BRANCH   1  45
ATOM     45  S   LIG d   1      10.706   2.573  -6.982  0.00  0.00     0.061 S 
ATOM     46  O   LIG d   1      10.312   2.372  -8.332  0.00  0.00    -0.153 OA
ATOM     47  O   LIG d   1      12.055   2.443  -6.554  0.00  0.00    -0.153 OA
BRANCH  45  48
ATOM     48  C   LIG d   1      10.194   4.202  -6.546  0.00  0.00     0.106 A 
ATOM     49  C   LIG d   1       9.761   4.468  -5.260  0.00  0.00    -0.034 A 
ATOM     50  C   LIG d   1       9.359   5.744  -4.915  0.00  0.00    -0.039 A 
ATOM     51  H   LIG d   1       9.737   3.677  -4.524  0.00  0.00     0.064 H 
ATOM     52  C   LIG d   1       9.390   6.759  -5.862  0.00  0.00     0.034 A 
ATOM     53  H   LIG d   1       9.021   5.951  -3.910  0.00  0.00     0.064 H 
ATOM     54  C   LIG d   1       9.819   6.487  -7.154  0.00  0.00    -0.039 A 
ATOM     55  C   LIG d   1      10.226   5.211  -7.491  0.00  0.00    -0.034 A 
ATOM     56  H   LIG d   1       9.840   7.275  -7.894  0.00  0.00     0.064 H 
ATOM     57  H   LIG d   1      10.565   5.000  -8.494  0.00  0.00     0.064 H 
BRANCH  52  58
ATOM     58  N   LIG d   1       8.984   8.052  -5.516  0.00  0.00    -0.286 N 
ATOM     59  C   LIG d   1       9.899   8.970  -5.143  0.00  0.00     0.214 C 
ATOM     60  O   LIG d   1      11.064   8.651  -5.028  0.00  0.00    -0.276 OA
ATOM     61  H   LIG d   1       8.043   8.290  -5.545  0.00  0.00     0.155 HD
BRANCH  59  62
ATOM     62  C   LIG d   1       9.475  10.389  -4.868  0.00  0.00     0.013 C 
ATOM     63  H   LIG d   1      10.201  10.864  -4.209  0.00  0.00     0.032 H 
ATOM     64  H   LIG d   1       9.421  10.940  -5.807  0.00  0.00     0.032 H 
ATOM     65  H   LIG d   1       8.495  10.390  -4.390  0.00  0.00     0.032 H 
ENDBRANCH  59  62
ENDBRANCH  52  58
ENDBRANCH  45  48
ENDBRANCH   1  45
TORSDOF 5
ENDMDL
MODEL 2
REMARK VINA RESULT:      -8.5      1.557      1.705
REMARK  5 active torsions:
REMARK  status: ('A' for Active; 'I' for Inactive)
REMARK    1  A    between atoms: C_1  and  C_2 
REMARK       I    between atoms: C_2  and  N_4 
REMARK    2  A    between atoms: N_4  and  C_5 
REMARK    3  A    between atoms: C_8  and  S_11 
REMARK    4  A    between atoms: S_11  and  N_14 
REMARK    5  A    between atoms: C_17  and  C_20 
REMARK       I    between atoms: C_20  and  N_22 
ROOT
ATOM      1  N   LIG d   1       9.773   2.110  -5.612  0.00  0.00    -0.176 N 
ATOM      2  C   LIG d   1       8.762   1.321  -6.328  0.00  0.00     0.021 C 
ATOM      3  C   LIG d   1       7.452   1.358  -5.533  0.00  0.00    -0.027 C 
ATOM      4  C   LIG d   1       7.717   0.888  -4.101  0.00  0.00     0.038 C 
ATOM      5  C   LIG d   1       8.718   1.832  -3.428  0.00  0.00    -0.027 C 
ATOM      6  C   LIG d   1      10.044   1.796  -4.202  0.00  0.00     0.021 C 
ATOM      7  H   LIG d   1       8.599   1.748  -7.318  0.00  0.00     0.044 H 
ATOM      8  H   LIG d   1       9.102   0.290  -6.424  0.00  0.00     0.044 H 
ATOM      9  H   LIG d   1       7.065   2.377  -5.516  0.00  0.00     0.029 H 
ATOM     10  H   LIG d   1       6.723   0.699  -6.003  0.00  0.00     0.029 H 
ATOM     11  H   LIG d   1       8.127  -0.122  -4.120  0.00  0.00     0.040 H 
ATOM     12  H   LIG d   1       8.318   2.846  -3.431  0.00  0.00     0.029 H 
ATOM     13  H   LIG d   1       8.888   1.509  -2.401  0.00  0.00     0.029 H 
ATOM     14  H   LIG d   1      10.488   0.803  -4.128  0.00  0.00     0.044 H 
ATOM     15  H   LIG d   1      10.730   2.537  -3.788  0.00  0.00     0.044 H 
ENDROOT
BRANCH   4  16
ATOM     16  C   LIG d   1       6.426   0.890  -3.325  0.00  0.00     0.219 C 
ATOM     17  O   LIG d   1       5.874   1.939  -3.069  0.00  0.00    -0.275 OA
ATOM     18  N   LIG d   1       5.884  -0.274  -2.916  0.00  0.00    -0.300 N 
ATOM     19  C   LIG d   1       6.481  -1.561  -3.306  0.00  0.00     0.023 C 
ATOM     20  C   LIG d   1       4.680  -0.287  -2.074  0.00  0.00     0.019 C 
ATOM     21  C   LIG d   1       5.386  -2.395  -3.981  0.00  0.00     0.016 C 
ATOM     22  H   LIG d   1       7.300  -1.392  -4.006  0.00  0.00     0.047 H 
ATOM     23  H   LIG d   1       6.849  -2.082  -2.423  0.00  0.00     0.047 H 
ATOM     24  C   LIG d   1       4.244  -2.594  -2.979  0.00  0.00    -0.037 C 
ATOM     25  H   LIG d   1       5.784  -3.361  -4.291  0.00  0.00     0.038 H 
ATOM     26  C   LIG d   1       4.880  -1.632  -5.183  0.00  0.00     0.027 C 
ATOM     27  C   LIG d   1       3.637  -1.227  -2.662  0.00  0.00    -0.006 C 
ATOM     28  H   LIG d   1       4.633  -3.044  -2.065  0.00  0.00     0.028 H 
ATOM     29  H   LIG d   1       3.484  -3.242  -3.413  0.00  0.00     0.028 H 
ATOM     30  H   LIG d   1       2.853  -1.370  -1.919  0.00  0.00     0.033 H 
ATOM     31  C   LIG d   1       3.000  -0.658  -3.917  0.00  0.00     0.031 C 
ATOM     32  N   LIG d   1       3.838  -0.773  -5.104  0.00  0.00    -0.312 N 
ATOM     33  H   LIG d   1       2.073  -1.195  -4.116  0.00  0.00     0.050 H 
ATOM     34  H   LIG d   1       2.767   0.394  -3.749  0.00  0.00     0.050 H 
ATOM     35  C   LIG d   1       3.522   0.005  -6.169  0.00  0.00     0.252 C 
ATOM     36  C   LIG d   1       4.155  -0.183  -7.405  0.00  0.00     0.003 C 
ATOM     37  O   LIG d   1       2.678   0.879  -6.049  0.00  0.00    -0.268 OA
ATOM     38  C   LIG d   1       5.147  -1.116  -7.508  0.00  0.00    -0.055 C 
ATOM     39  H   LIG d   1       3.862   0.400  -8.265  0.00  0.00     0.067 H 
ATOM     40  C   LIG d   1       5.517  -1.837  -6.367  0.00  0.00    -0.042 C 
ATOM     41  H   LIG d   1       5.638  -1.292  -8.452  0.00  0.00     0.062 H 
ATOM     42  H   LIG d   1       6.314  -2.563  -6.428  0.00  0.00     0.064 H 
ATOM     43  H   LIG d   1       4.944  -0.623  -1.072  0.00  0.00     0.047 H 
ATOM     44  H   LIG d   1       4.269   0.720  -2.019  0.00  0.00     0.047 H 
ENDBRANCH   4  16
BRANCH   1  45
ATOM     45  S   LIG d   1      10.596   3.325  -6.380  0.00  0.00     0.061 S 
ATOM     46  O   LIG d   1       9.861   3.633  -7.556  0.00  0.00    -0.153 OA
ATOM     47  O   LIG d   1      11.961   2.932  -6.415  0.00  0.00    -0.153 OA
BRANCH  45  48
ATOM     48  C   LIG d   1      10.508   4.748  -5.345  0.00  0.00     0.106 A 
ATOM     49  C   LIG d   1       9.312   5.427  -5.206  0.00  0.00    -0.034 A 
ATOM     50  C   LIG d   1       9.239   6.544  -4.395  0.00  0.00    -0.039 A 
ATOM     51  H   LIG d   1       8.432   5.085  -5.732  0.00  0.00     0.064 H 
ATOM     52  C   LIG d   1      10.370   6.983  -3.720  0.00  0.00     0.034 A 
ATOM     53  H   LIG d   1       8.305   7.074  -4.287  0.00  0.00     0.064 H 
ATOM     54  C   LIG d   1      11.572   6.302  -3.866  0.00  0.00    -0.039 A 
ATOM     55  C   LIG d   1      11.636   5.182  -4.673  0.00  0.00    -0.034 A 
ATOM     56  H   LIG d   1      12.454   6.644  -3.345  0.00  0.00     0.064 H 
ATOM     57  H   LIG d   1      12.568   4.650  -4.783  0.00  0.00     0.064 H 
BRANCH  52  58
ATOM     58  N   LIG d   1      10.301   8.113  -2.897  0.00  0.00    -0.286 N 
ATOM     59  C   LIG d   1       9.882   7.993  -1.621  0.00  0.00     0.214 C 
ATOM     60  O   LIG d   1       9.489   6.922  -1.210  0.00  0.00    -0.276 OA
ATOM     61  H   LIG d   1      10.554   8.982  -3.245  0.00  0.00     0.155 HD
BRANCH  59  62
ATOM     62  C   LIG d   1       9.904   9.190  -0.706  0.00  0.00     0.013 C 
ATOM     63  H   LIG d   1      10.471   9.995  -1.173  0.00  0.00     0.032 H 
ATOM     64  H   LIG d   1       8.883   9.525  -0.522  0.00  0.00     0.032 H 
ATOM     65  H   LIG d   1      10.373   8.917   0.240  0.00  0.00     0.032 H 
ENDBRANCH  59  62
ENDBRANCH  52  58
ENDBRANCH  45  48
ENDBRANCH   1  45
TORSDOF 5
ENDMDL
MODEL 3
REMARK VINA RESULT:      -7.2      2.542      3.188
REMARK  5 active torsions:
REMARK  status: ('A' for Active; 'I' for Inactive)
REMARK    1  A    between atoms: C_1  and  C_2 
REMARK       I    between atoms: C_2  and  N_4 
REMARK    2  A    between atoms: N_4  and  C_5 
REMARK    3  A    between atoms: C_8  and  S_11 
REMARK    4  A    between atoms: S_11  and  N_14 
REMARK    5  A    between atoms: C_17  and  C_20 
REMARK       I    between atoms: C_20  and  N_22 
ROOT
ATOM      1  N   LIG d   1       9.722   1.203  -6.113  0.00  0.00    -0.176 N 
ATOM      2  C   LIG d   1       8.647   0.282  -6.502  0.00  0.00     0.021 C 
ATOM      3  C   LIG d   1       7.392   0.615  -5.689  0.00  0.00    -0.027 C 
ATOM      4  C   LIG d   1       7.734   0.587  -4.198  0.00  0.00     0.038 C 
ATOM      5  C   LIG d   1       8.800   1.643  -3.896  0.00  0.00    -0.027 C 
ATOM      6  C   LIG d   1      10.074   1.317  -4.690  0.00  0.00     0.021 C 
ATOM      7  H   LIG d   1       8.435   0.398  -7.566  0.00  0.00     0.044 H 
ATOM      8  H   LIG d   1       8.953  -0.745  -6.299  0.00  0.00     0.044 H 
ATOM      9  H   LIG d   1       7.035   1.608  -5.962  0.00  0.00     0.029 H 
ATOM     10  H   LIG d   1       6.617  -0.121  -5.899  0.00  0.00     0.029 H 
ATOM     11  H   LIG d   1       8.114  -0.399  -3.931  0.00  0.00     0.040 H 
ATOM     12  H   LIG d   1       8.429   2.626  -4.186  0.00  0.00     0.029 H 
ATOM     13  H   LIG d   1       9.026   1.638  -2.830  0.00  0.00     0.029 H 
ATOM     14  H   LIG d   1      10.494   0.373  -4.342  0.00  0.00     0.044 H 
ATOM     15  H   LIG d   1      10.804   2.116  -4.557  0.00  0.00     0.044 H 
ENDROOT
BRANCH   4  16
ATOM     16  C   LIG d   1       6.494   0.881  -3.393  0.00  0.00     0.219 C 
ATOM     17  O   LIG d   1       6.105   2.023  -3.275  0.00  0.00    -0.275 OA
ATOM     18  N   LIG d   1       5.819  -0.126  -2.805  0.00  0.00    -0.300 N 
ATOM     19  C   LIG d   1       6.214  -1.527  -3.024  0.00  0.00     0.023 C 
ATOM     20  C   LIG d   1       4.668   0.150  -1.936  0.00  0.00     0.019 C 
ATOM     21  C   LIG d   1       4.982  -2.281  -3.540  0.00  0.00     0.016 C 
ATOM     22  H   LIG d   1       7.013  -1.574  -3.764  0.00  0.00     0.047 H 
ATOM     23  H   LIG d   1       6.550  -1.968  -2.086  0.00  0.00     0.047 H 
ATOM     24  C   LIG d   1       3.875  -2.174  -2.486  0.00  0.00    -0.037 C 
ATOM     25  H   LIG d   1       5.229  -3.328  -3.719  0.00  0.00     0.038 H 
ATOM     26  C   LIG d   1       4.528  -1.627  -4.823  0.00  0.00     0.027 C 
ATOM     27  C   LIG d   1       3.477  -0.704  -2.353  0.00  0.00    -0.006 C 
ATOM     28  H   LIG d   1       4.243  -2.544  -1.529  0.00  0.00     0.028 H 
ATOM     29  H   LIG d   1       3.012  -2.761  -2.801  0.00  0.00     0.028 H 
ATOM     30  H   LIG d   1       2.719  -0.629  -1.574  0.00  0.00     0.033 H 
ATOM     31  C   LIG d   1       2.864  -0.228  -3.657  0.00  0.00     0.031 C 
ATOM     32  N   LIG d   1       3.619  -0.625  -4.839  0.00  0.00    -0.312 N 
ATOM     33  H   LIG d   1       1.863  -0.650  -3.750  0.00  0.00     0.050 H 
ATOM     34  H   LIG d   1       2.786   0.858  -3.635  0.00  0.00     0.050 H 
ATOM     35  C   LIG d   1       3.361   0.035  -5.995  0.00  0.00     0.252 C 
ATOM     36  C   LIG d   1       3.901  -0.411  -7.209  0.00  0.00     0.003 C 
ATOM     37  O   LIG d   1       2.652   1.029  -5.978  0.00  0.00    -0.268 OA
ATOM     38  C   LIG d   1       4.749  -1.481  -7.205  0.00  0.00    -0.055 C 
ATOM     39  H   LIG d   1       3.649   0.083  -8.135  0.00  0.00     0.067 H 
ATOM     40  C   LIG d   1       5.072  -2.082  -5.984  0.00  0.00    -0.042 C 
ATOM     41  H   LIG d   1       5.164  -1.855  -8.128  0.00  0.00     0.062 H 
ATOM     42  H   LIG d   1       5.758  -2.916  -5.963  0.00  0.00     0.064 H 
ATOM     43  H   LIG d   1       4.932  -0.078  -0.904  0.00  0.00     0.047 H 
ATOM     44  H   LIG d   1       4.401   1.203  -2.014  0.00  0.00     0.047 H 
ENDBRANCH   4  16
BRANCH   1  45
ATOM     45  S   LIG d   1      10.528   2.092  -7.255  0.00  0.00     0.061 S 
ATOM     46  O   LIG d   1       9.668   3.164  -7.616  0.00  0.00    -0.153 OA
ATOM     47  O   LIG d   1      11.033   1.167  -8.208  0.00  0.00    -0.153 OA
BRANCH  45  48
ATOM     48  C   LIG d   1      11.927   2.813  -6.462  0.00  0.00     0.106 A 
ATOM     49  C   LIG d   1      13.098   2.090  -6.338  0.00  0.00    -0.034 A 
ATOM     50  C   LIG d   1      14.197   2.652  -5.717  0.00  0.00    -0.039 A 
ATOM     51  H   LIG d   1      13.155   1.084  -6.727  0.00  0.00     0.064 H 
ATOM     52  C   LIG d   1      14.123   3.945  -5.217  0.00  0.00     0.034 A 
ATOM     53  H   LIG d   1      15.112   2.087  -5.621  0.00  0.00     0.064 H 
ATOM     54  C   LIG d   1      12.942   4.667  -5.338  0.00  0.00    -0.039 A 
ATOM     55  C   LIG d   1      11.849   4.102  -5.966  0.00  0.00    -0.034 A 
ATOM     56  H   LIG d   1      12.881   5.672  -4.946  0.00  0.00     0.064 H 
ATOM     57  H   LIG d   1      10.934   4.664  -6.065  0.00  0.00     0.064 H 
BRANCH  52  58
ATOM     58  N   LIG d   1      15.233   4.518  -4.588  0.00  0.00    -0.286 N 
ATOM     59  C   LIG d   1      15.424   4.343  -3.265  0.00  0.00     0.214 C 
ATOM     60  O   LIG d   1      14.591   3.759  -2.605  0.00  0.00    -0.276 OA
ATOM     61  H   LIG d   1      15.867   5.042  -5.104  0.00  0.00     0.155 HD
BRANCH  59  62
ATOM     62  C   LIG d   1      16.671   4.874  -2.607  0.00  0.00     0.013 C 
ATOM     63  H   LIG d   1      17.532   4.674  -3.245  0.00  0.00     0.032 H 
ATOM     64  H   LIG d   1      16.573   5.948  -2.455  0.00  0.00     0.032 H 
ATOM     65  H   LIG d   1      16.811   4.382  -1.643  0.00  0.00     0.032 H 
ENDBRANCH  59  62
ENDBRANCH  52  58
ENDBRANCH  45  48
ENDBRANCH   1  45
TORSDOF 5
ENDMDL
MODEL 4
REMARK VINA RESULT:      -7.1      3.105      5.336
REMARK  5 active torsions:
REMARK  status: ('A' for Active; 'I' for Inactive)
REMARK    1  A    between atoms: C_1  and  C_2 
REMARK       I    between atoms: C_2  and  N_4 
REMARK    2  A    between atoms: N_4  and  C_5 
REMARK    3  A    between atoms: C_8  and  S_11 
REMARK    4  A    between atoms: S_11  and  N_14 
REMARK    5  A    between atoms: C_17  and  C_20 
REMARK       I    between atoms: C_20  and  N_22 
ROOT
ATOM      1  N   LIG d   1       9.633   1.316  -6.271  0.00  0.00    -0.176 N 
ATOM      2  C   LIG d   1       8.537   0.423  -6.669  0.00  0.00     0.021 C 
ATOM      3  C   LIG d   1       7.319   0.713  -5.787  0.00  0.00    -0.027 C 
ATOM      4  C   LIG d   1       7.721   0.595  -4.315  0.00  0.00     0.038 C 
ATOM      5  C   LIG d   1       8.805   1.628  -3.996  0.00  0.00    -0.027 C 
ATOM      6  C   LIG d   1      10.043   1.344  -4.860  0.00  0.00     0.021 C 
ATOM      7  H   LIG d   1       8.282   0.602  -7.715  0.00  0.00     0.044 H 
ATOM      8  H   LIG d   1       8.845  -0.615  -6.539  0.00  0.00     0.044 H 
ATOM      9  H   LIG d   1       6.957   1.721  -5.986  0.00  0.00     0.029 H 
ATOM     10  H   LIG d   1       6.531  -0.008  -6.007  0.00  0.00     0.029 H 
ATOM     11  H   LIG d   1       8.106  -0.406  -4.122  0.00  0.00     0.040 H 
ATOM     12  H   LIG d   1       8.429   2.628  -4.212  0.00  0.00     0.029 H 
ATOM     13  H   LIG d   1       9.074   1.559  -2.942  0.00  0.00     0.029 H 
ATOM     14  H   LIG d   1      10.472   0.380  -4.585  0.00  0.00     0.044 H 
ATOM     15  H   LIG d   1      10.783   2.131  -4.710  0.00  0.00     0.044 H 
ENDROOT
BRANCH   4  16
ATOM     16  C   LIG d   1       6.517   0.846  -3.444  0.00  0.00     0.219 C 
ATOM     17  O   LIG d   1       6.132   1.980  -3.254  0.00  0.00    -0.275 OA
ATOM     18  N   LIG d   1       5.869  -0.190  -2.877  0.00  0.00    -0.300 N 
ATOM     19  C   LIG d   1       6.256  -1.578  -3.180  0.00  0.00     0.023 C 
ATOM     20  C   LIG d   1       4.757   0.039  -1.947  0.00  0.00     0.019 C 
ATOM     21  C   LIG d   1       5.004  -2.310  -3.678  0.00  0.00     0.016 C 
ATOM     22  H   LIG d   1       7.022  -1.587  -3.956  0.00  0.00     0.047 H 
ATOM     23  H   LIG d   1       6.633  -2.062  -2.280  0.00  0.00     0.047 H 
ATOM     24  C   LIG d   1       3.944  -2.258  -2.573  0.00  0.00    -0.037 C 
ATOM     25  H   LIG d   1       5.244  -3.346  -3.918  0.00  0.00     0.038 H 
ATOM     26  C   LIG d   1       4.494  -1.596  -4.907  0.00  0.00     0.027 C 
ATOM     27  C   LIG d   1       3.550  -0.797  -2.351  0.00  0.00    -0.006 C 
ATOM     28  H   LIG d   1       4.353  -2.672  -1.652  0.00  0.00     0.028 H 
ATOM     29  H   LIG d   1       3.069  -2.831  -2.878  0.00  0.00     0.028 H 
ATOM     30  H   LIG d   1       2.826  -0.762  -1.538  0.00  0.00     0.033 H 
ATOM     31  C   LIG d   1       2.880  -0.261  -3.603  0.00  0.00     0.031 C 
ATOM     32  N   LIG d   1       3.584  -0.598  -4.835  0.00  0.00    -0.312 N 
ATOM     33  H   LIG d   1       1.877  -0.682  -3.673  0.00  0.00     0.050 H 
ATOM     34  H   LIG d   1       2.803   0.823  -3.526  0.00  0.00     0.050 H 
ATOM     35  C   LIG d   1       3.275   0.116  -5.945  0.00  0.00     0.252 C 
ATOM     36  C   LIG d   1       3.762  -0.269  -7.202  0.00  0.00     0.003 C 
ATOM     37  O   LIG d   1       2.566   1.106  -5.850  0.00  0.00    -0.268 OA
ATOM     38  C   LIG d   1       4.611  -1.334  -7.286  0.00  0.00    -0.055 C 
ATOM     39  H   LIG d   1       3.470   0.269  -8.091  0.00  0.00     0.067 H 
ATOM     40  C   LIG d   1       4.987  -1.994  -6.111  0.00  0.00    -0.042 C 
ATOM     41  H   LIG d   1       4.986  -1.662  -8.244  0.00  0.00     0.062 H 
ATOM     42  H   LIG d   1       5.675  -2.825  -6.160  0.00  0.00     0.064 H 
ATOM     43  H   LIG d   1       5.066  -0.238  -0.939  0.00  0.00     0.047 H 
ATOM     44  H   LIG d   1       4.486   1.094  -1.962  0.00  0.00     0.047 H 
ENDBRANCH   4  16
BRANCH   1  45
ATOM     45  S   LIG d   1      10.397   2.267  -7.391  0.00  0.00     0.061 S 
ATOM     46  O   LIG d   1      11.734   2.431  -6.940  0.00  0.00    -0.153 OA
ATOM     47  O   LIG d   1       9.537   3.370  -7.641  0.00  0.00    -0.153 OA
BRANCH  45  48
ATOM     48  C   LIG d   1      10.480   1.344  -8.889  0.00  0.00     0.106 A 
ATOM     49  C   LIG d   1      11.357   0.281  -8.996  0.00  0.00    -0.034 A 
ATOM     50  C   LIG d   1      11.426  -0.445 -10.170  0.00  0.00    -0.039 A 
ATOM     51  H   LIG d   1      11.991   0.018  -8.162  0.00  0.00     0.064 H 
ATOM     52  C   LIG d   1      10.611  -0.106 -11.242  0.00  0.00     0.034 A 
ATOM     53  H   LIG d   1      12.111  -1.275 -10.253  0.00  0.00     0.064 H 
ATOM     54  C   LIG d   1       9.734   0.966 -11.133  0.00  0.00    -0.039 A 
ATOM     55  C   LIG d   1       9.667   1.685  -9.955  0.00  0.00    -0.034 A 
ATOM     56  H   LIG d   1       9.103   1.235 -11.967  0.00  0.00     0.064 H 
ATOM     57  H   LIG d   1       8.982   2.514  -9.868  0.00  0.00     0.064 H 
BRANCH  52  58
ATOM     58  N   LIG d   1      10.676  -0.839 -12.431  0.00  0.00    -0.286 N 
ATOM     59  C   LIG d   1       9.844  -1.882 -12.627  0.00  0.00     0.214 C 
ATOM     60  O   LIG d   1       9.096  -2.235 -11.741  0.00  0.00    -0.276 OA
ATOM     61  H   LIG d   1      11.320  -0.597 -13.116  0.00  0.00     0.155 HD
BRANCH  59  62
ATOM     62  C   LIG d   1       9.845  -2.609 -13.948  0.00  0.00     0.013 C 
ATOM     63  H   LIG d   1       8.843  -2.582 -14.377  0.00  0.00     0.032 H 
ATOM     64  H   LIG d   1      10.545  -2.125 -14.628  0.00  0.00     0.032 H 
ATOM     65  H   LIG d   1      10.146  -3.645 -13.792  0.00  0.00     0.032 H 
ENDBRANCH  59  62
ENDBRANCH  52  58
ENDBRANCH  45  48
ENDBRANCH   1  45
TORSDOF 5
ENDMDL
MODEL 5
REMARK VINA RESULT:      -7.0      3.594      9.537
REMARK  5 active torsions:
REMARK  status: ('A' for Active; 'I' for Inactive)
REMARK    1  A    between atoms: C_1  and  C_2 
REMARK       I    between atoms: C_2  and  N_4 
REMARK    2  A    between atoms: N_4  and  C_5 
REMARK    3  A    between atoms: C_8  and  S_11 
REMARK    4  A    between atoms: S_11  and  N_14 
REMARK    5  A    between atoms: C_17  and  C_20 
REMARK       I    between atoms: C_20  and  N_22 
ROOT
ATOM      1  N   LIG d   1      10.684   5.287  -6.028  0.00  0.00    -0.176 N 
ATOM      2  C   LIG d   1      11.795   5.577  -5.111  0.00  0.00     0.021 C 
ATOM      3  C   LIG d   1      11.220   6.025  -3.764  0.00  0.00    -0.027 C 
ATOM      4  C   LIG d   1      10.266   7.201  -3.987  0.00  0.00     0.038 C 
ATOM      5  C   LIG d   1       9.107   6.758  -4.884  0.00  0.00    -0.027 C 
ATOM      6  C   LIG d   1       9.663   6.320  -6.248  0.00  0.00     0.021 C 
ATOM      7  H   LIG d   1      12.397   4.678  -4.971  0.00  0.00     0.044 H 
ATOM      8  H   LIG d   1      12.414   6.372  -5.527  0.00  0.00     0.044 H 
ATOM      9  H   LIG d   1      10.676   5.198  -3.307  0.00  0.00     0.029 H 
ATOM     10  H   LIG d   1      12.032   6.335  -3.107  0.00  0.00     0.029 H 
ATOM     11  H   LIG d   1      10.804   8.019  -4.467  0.00  0.00     0.040 H 
ATOM     12  H   LIG d   1       8.584   5.924  -4.416  0.00  0.00     0.029 H 
ATOM     13  H   LIG d   1       8.417   7.590  -5.023  0.00  0.00     0.029 H 
ATOM     14  H   LIG d   1      10.111   7.175  -6.755  0.00  0.00     0.044 H 
ATOM     15  H   LIG d   1       8.856   5.913  -6.858  0.00  0.00     0.044 H 
ENDROOT
BRANCH   4  16
ATOM     16  C   LIG d   1       9.725   7.667  -2.661  0.00  0.00     0.219 C 
ATOM     17  O   LIG d   1       8.920   6.986  -2.061  0.00  0.00    -0.275 OA
ATOM     18  N   LIG d   1      10.134   8.840  -2.140  0.00  0.00    -0.300 N 
ATOM     19  C   LIG d   1      11.187   9.630  -2.800  0.00  0.00     0.023 C 
ATOM     20  C   LIG d   1       9.545   9.358  -0.899  0.00  0.00     0.019 C 
ATOM     21  C   LIG d   1      12.292   9.883  -1.767  0.00  0.00     0.016 C 
ATOM     22  H   LIG d   1      11.593   9.072  -3.645  0.00  0.00     0.047 H 
ATOM     23  H   LIG d   1      10.779  10.579  -3.143  0.00  0.00     0.047 H 
ATOM     24  C   LIG d   1      11.683  10.646  -0.586  0.00  0.00    -0.037 C 
ATOM     25  H   LIG d   1      13.099  10.466  -2.213  0.00  0.00     0.038 H 
ATOM     26  C   LIG d   1      12.815   8.548  -1.293  0.00  0.00     0.027 C 
ATOM     27  C   LIG d   1      10.641   9.748   0.082  0.00  0.00    -0.006 C 
ATOM     28  H   LIG d   1      11.205  11.558  -0.947  0.00  0.00     0.028 H 
ATOM     29  H   LIG d   1      12.465  10.898   0.130  0.00  0.00     0.028 H 
ATOM     30  H   LIG d   1      10.183  10.311   0.895  0.00  0.00     0.033 H 
ATOM     31  C   LIG d   1      11.332   8.535   0.678  0.00  0.00     0.031 C 
ATOM     32  N   LIG d   1      12.296   7.909  -0.220  0.00  0.00    -0.312 N 
ATOM     33  H   LIG d   1      11.870   8.841   1.575  0.00  0.00     0.050 H 
ATOM     34  H   LIG d   1      10.577   7.799   0.954  0.00  0.00     0.050 H 
ATOM     35  C   LIG d   1      12.690   6.646   0.071  0.00  0.00     0.252 C 
ATOM     36  C   LIG d   1      13.749   6.048  -0.626  0.00  0.00     0.003 C 
ATOM     37  O   LIG d   1      12.117   6.020   0.950  0.00  0.00    -0.268 OA
ATOM     38  C   LIG d   1      14.335   6.730  -1.653  0.00  0.00    -0.055 C 
ATOM     39  H   LIG d   1      14.098   5.063  -0.355  0.00  0.00     0.067 H 
ATOM     40  C   LIG d   1      13.843   7.995  -1.993  0.00  0.00    -0.042 C 
ATOM     41  H   LIG d   1      15.164   6.300  -2.195  0.00  0.00     0.062 H 
ATOM     42  H   LIG d   1      14.283   8.538  -2.817  0.00  0.00     0.064 H 
ATOM     43  H   LIG d   1       8.935  10.232  -1.126  0.00  0.00     0.047 H 
ATOM     44  H   LIG d   1       8.916   8.589  -0.451  0.00  0.00     0.047 H 
ENDBRANCH   4  16
BRANCH   1  45
ATOM     45  S   LIG d   1      10.588   3.826  -6.803  0.00  0.00     0.061 S 
ATOM     46  O   LIG d   1      11.897   3.276  -6.795  0.00  0.00    -0.153 OA
ATOM     47  O   LIG d   1       9.863   4.051  -8.004  0.00  0.00    -0.153 OA
BRANCH  45  48
ATOM     48  C   LIG d   1       9.592   2.771  -5.803  0.00  0.00     0.106 A 
ATOM     49  C   LIG d   1       8.819   1.789  -6.394  0.00  0.00    -0.034 A 
ATOM     50  C   LIG d   1       8.037   0.960  -5.613  0.00  0.00    -0.039 A 
ATOM     51  H   LIG d   1       8.826   1.670  -7.467  0.00  0.00     0.064 H 
ATOM     52  C   LIG d   1       8.029   1.114  -4.233  0.00  0.00     0.034 A 
ATOM     53  H   LIG d   1       7.434   0.193  -6.075  0.00  0.00     0.064 H 
ATOM     54  C   LIG d   1       8.803   2.105  -3.643  0.00  0.00    -0.039 A 
ATOM     55  C   LIG d   1       9.587   2.927  -4.428  0.00  0.00    -0.034 A 
ATOM     56  H   LIG d   1       8.795   2.230  -2.569  0.00  0.00     0.064 H 
ATOM     57  H   LIG d   1      10.192   3.694  -3.970  0.00  0.00     0.064 H 
BRANCH  52  58
ATOM     58  N   LIG d   1       7.239   0.276  -3.439  0.00  0.00    -0.286 N 
ATOM     59  C   LIG d   1       5.979   0.637  -3.122  0.00  0.00     0.214 C 
ATOM     60  O   LIG d   1       5.559   1.724  -3.457  0.00  0.00    -0.276 OA
ATOM     61  H   LIG d   1       7.598  -0.566  -3.116  0.00  0.00     0.155 HD
BRANCH  59  62
ATOM     62  C   LIG d   1       5.094  -0.309  -2.353  0.00  0.00     0.013 C 
ATOM     63  H   LIG d   1       5.424  -1.334  -2.524  0.00  0.00     0.032 H 
ATOM     64  H   LIG d   1       5.156  -0.080  -1.289  0.00  0.00     0.032 H 
ATOM     65  H   LIG d   1       4.063  -0.198  -2.690  0.00  0.00     0.032 H 
ENDBRANCH  59  62
ENDBRANCH  52  58
ENDBRANCH  45  48
ENDBRANCH   1  45
TORSDOF 5
ENDMDL
MODEL 6
REMARK VINA RESULT:      -6.8      2.793      9.015
REMARK  5 active torsions:
REMARK  status: ('A' for Active; 'I' for Inactive)
REMARK    1  A    between atoms: C_1  and  C_2 
REMARK       I    between atoms: C_2  and  N_4 
REMARK    2  A    between atoms: N_4  and  C_5 
REMARK    3  A    between atoms: C_8  and  S_11 
REMARK    4  A    between atoms: S_11  and  N_14 
REMARK    5  A    between atoms: C_17  and  C_20 
REMARK       I    between atoms: C_20  and  N_22 
ROOT
ATOM      1  N   LIG d   1      11.041   2.511  -5.942  0.00  0.00    -0.176 N 
ATOM      2  C   LIG d   1      11.772   3.037  -4.781  0.00  0.00     0.021 C 
ATOM      3  C   LIG d   1      11.006   4.238  -4.218  0.00  0.00    -0.027 C 
ATOM      4  C   LIG d   1      10.780   5.261  -5.334  0.00  0.00     0.038 C 
ATOM      5  C   LIG d   1       9.938   4.629  -6.445  0.00  0.00    -0.027 C 
ATOM      6  C   LIG d   1      10.698   3.431  -7.035  0.00  0.00     0.021 C 
ATOM      7  H   LIG d   1      11.849   2.262  -4.017  0.00  0.00     0.044 H 
ATOM      8  H   LIG d   1      12.770   3.350  -5.088  0.00  0.00     0.044 H 
ATOM      9  H   LIG d   1      10.044   3.907  -3.828  0.00  0.00     0.029 H 
ATOM     10  H   LIG d   1      11.586   4.696  -3.417  0.00  0.00     0.029 H 
ATOM     11  H   LIG d   1      11.742   5.574  -5.740  0.00  0.00     0.040 H 
ATOM     12  H   LIG d   1       8.986   4.294  -6.034  0.00  0.00     0.029 H 
ATOM     13  H   LIG d   1       9.758   5.366  -7.228  0.00  0.00     0.029 H 
ATOM     14  H   LIG d   1      11.609   3.776  -7.522  0.00  0.00     0.044 H 
ATOM     15  H   LIG d   1      10.065   2.917  -7.760  0.00  0.00     0.044 H 
ENDROOT
BRANCH   4  16
ATOM     16  C   LIG d   1      10.057   6.460  -4.776  0.00  0.00     0.219 C 
ATOM     17  O   LIG d   1       8.884   6.377  -4.479  0.00  0.00    -0.275 OA
ATOM     18  N   LIG d   1      10.714   7.625  -4.609  0.00  0.00    -0.300 N 
ATOM     19  C   LIG d   1      12.161   7.717  -4.865  0.00  0.00     0.023 C 
ATOM     20  C   LIG d   1      10.003   8.829  -4.162  0.00  0.00     0.019 C 
ATOM     21  C   LIG d   1      12.822   8.268  -3.595  0.00  0.00     0.016 C 
ATOM     22  H   LIG d   1      12.560   6.728  -5.090  0.00  0.00     0.047 H 
ATOM     23  H   LIG d   1      12.347   8.392  -5.699  0.00  0.00     0.047 H 
ATOM     24  C   LIG d   1      12.221   9.645  -3.297  0.00  0.00    -0.037 C 
ATOM     25  H   LIG d   1      13.899   8.352  -3.738  0.00  0.00     0.038 H 
ATOM     26  C   LIG d   1      12.520   7.324  -2.455  0.00  0.00     0.027 C 
ATOM     27  C   LIG d   1      10.734   9.467  -2.988  0.00  0.00    -0.006 C 
ATOM     28  H   LIG d   1      12.340  10.293  -4.167  0.00  0.00     0.028 H 
ATOM     29  H   LIG d   1      12.725  10.086  -2.438  0.00  0.00     0.028 H 
ATOM     30  H   LIG d   1      10.304  10.453  -2.816  0.00  0.00     0.033 H 
ATOM     31  C   LIG d   1      10.580   8.657  -1.713  0.00  0.00     0.031 C 
ATOM     32  N   LIG d   1      11.434   7.476  -1.662  0.00  0.00    -0.312 N 
ATOM     33  H   LIG d   1      10.840   9.286  -0.862  0.00  0.00     0.050 H 
ATOM     34  H   LIG d   1       9.540   8.346  -1.616  0.00  0.00     0.050 H 
ATOM     35  C   LIG d   1      11.120   6.518  -0.756  0.00  0.00     0.252 C 
ATOM     36  C   LIG d   1      11.994   5.450  -0.512  0.00  0.00     0.003 C 
ATOM     37  O   LIG d   1      10.065   6.586  -0.145  0.00  0.00    -0.268 OA
ATOM     38  C   LIG d   1      13.137   5.346  -1.251  0.00  0.00    -0.055 C 
ATOM     39  H   LIG d   1      11.768   4.719   0.250  0.00  0.00     0.067 H 
ATOM     40  C   LIG d   1      13.387   6.297  -2.246  0.00  0.00    -0.042 C 
ATOM     41  H   LIG d   1      13.835   4.543  -1.072  0.00  0.00     0.062 H 
ATOM     42  H   LIG d   1      14.277   6.216  -2.853  0.00  0.00     0.064 H 
ATOM     43  H   LIG d   1       9.950   9.543  -4.983  0.00  0.00     0.047 H 
ATOM     44  H   LIG d   1       8.994   8.559  -3.854  0.00  0.00     0.047 H 
ENDBRANCH   4  16
BRANCH   1  45
ATOM     45  S   LIG d   1      10.619   0.912  -6.021  0.00  0.00     0.061 S 
ATOM     46  O   LIG d   1      11.634   0.189  -5.338  0.00  0.00    -0.153 OA
ATOM     47  O   LIG d   1      10.276   0.648  -7.374  0.00  0.00    -0.153 OA
BRANCH  45  48
ATOM     48  C   LIG d   1       9.143   0.716  -5.079  0.00  0.00     0.106 A 
ATOM     49  C   LIG d   1       8.589  -0.540  -4.918  0.00  0.00    -0.034 A 
ATOM     50  C   LIG d   1       7.431  -0.698  -4.180  0.00  0.00    -0.039 A 
ATOM     51  H   LIG d   1       9.062  -1.401  -5.369  0.00  0.00     0.064 H 
ATOM     52  C   LIG d   1       6.824   0.409  -3.601  0.00  0.00     0.034 A 
ATOM     53  H   LIG d   1       7.000  -1.679  -4.054  0.00  0.00     0.064 H 
ATOM     54  C   LIG d   1       7.380   1.670  -3.770  0.00  0.00    -0.039 A 
ATOM     55  C   LIG d   1       8.541   1.820  -4.503  0.00  0.00    -0.034 A 
ATOM     56  H   LIG d   1       6.907   2.534  -3.324  0.00  0.00     0.064 H 
ATOM     57  H   LIG d   1       8.976   2.799  -4.630  0.00  0.00     0.064 H 
BRANCH  52  58
ATOM     58  N   LIG d   1       5.652   0.254  -2.853  0.00  0.00    -0.286 N 
ATOM     59  C   LIG d   1       4.453   0.260  -3.469  0.00  0.00     0.214 C 
ATOM     60  O   LIG d   1       4.385   0.481  -4.660  0.00  0.00    -0.276 OA
ATOM     61  H   LIG d   1       5.702   0.141  -1.890  0.00  0.00     0.155 HD
BRANCH  59  62
ATOM     62  C   LIG d   1       3.198  -0.009  -2.678  0.00  0.00     0.013 C 
ATOM     63  H   LIG d   1       3.140  -1.070  -2.439  0.00  0.00     0.032 H 
ATOM     64  H   LIG d   1       3.219   0.572  -1.757  0.00  0.00     0.032 H 
ATOM     65  H   LIG d   1       2.328   0.279  -3.270  0.00  0.00     0.032 H 
ENDBRANCH  59  62
ENDBRANCH  52  58
ENDBRANCH  45  48
ENDBRANCH   1  45
TORSDOF 5
ENDMDL
MODEL 7
REMARK VINA RESULT:      -6.8      2.545      3.246
REMARK  5 active torsions:
REMARK  status: ('A' for Active; 'I' for Inactive)
REMARK    1  A    between atoms: C_1  and  C_2 
REMARK       I    between atoms: C_2  and  N_4 
REMARK    2  A    between atoms: N_4  and  C_5 
REMARK    3  A    between atoms: C_8  and  S_11 
REMARK    4  A    between atoms: S_11  and  N_14 
REMARK    5  A    between atoms: C_17  and  C_20 
REMARK       I    between atoms: C_20  and  N_22 
ROOT
ATOM      1  N   LIG d   1      10.436   2.413  -4.997  0.00  0.00    -0.176 N 
ATOM      2  C   LIG d   1      10.475   1.098  -5.649  0.00  0.00     0.021 C 
ATOM      3  C   LIG d   1       9.062   0.739  -6.121  0.00  0.00    -0.027 C 
ATOM      4  C   LIG d   1       8.097   0.825  -4.937  0.00  0.00     0.038 C 
ATOM      5  C   LIG d   1       8.076   2.257  -4.395  0.00  0.00    -0.027 C 
ATOM      6  C   LIG d   1       9.482   2.630  -3.901  0.00  0.00     0.021 C 
ATOM      7  H   LIG d   1      11.148   1.135  -6.507  0.00  0.00     0.044 H 
ATOM      8  H   LIG d   1      10.826   0.348  -4.940  0.00  0.00     0.044 H 
ATOM      9  H   LIG d   1       8.749   1.437  -6.897  0.00  0.00     0.029 H 
ATOM     10  H   LIG d   1       9.059  -0.275  -6.520  0.00  0.00     0.029 H 
ATOM     11  H   LIG d   1       8.425   0.144  -4.151  0.00  0.00     0.040 H 
ATOM     12  H   LIG d   1       7.772   2.940  -5.188  0.00  0.00     0.029 H 
ATOM     13  H   LIG d   1       7.371   2.322  -3.567  0.00  0.00     0.029 H 
ATOM     14  H   LIG d   1       9.753   2.003  -3.052  0.00  0.00     0.044 H 
ATOM     15  H   LIG d   1       9.499   3.679  -3.604  0.00  0.00     0.044 H 
ENDROOT
BRANCH   4  16
ATOM     16  C   LIG d   1       6.712   0.439  -5.389  0.00  0.00     0.219 C 
ATOM     17  O   LIG d   1       6.370   0.643  -6.534  0.00  0.00    -0.275 OA
ATOM     18  N   LIG d   1       5.855  -0.133  -4.521  0.00  0.00    -0.300 N 
ATOM     19  C   LIG d   1       6.286  -0.485  -3.158  0.00  0.00     0.023 C 
ATOM     20  C   LIG d   1       4.471  -0.425  -4.915  0.00  0.00     0.019 C 
ATOM     21  C   LIG d   1       5.990  -1.975  -2.949  0.00  0.00     0.016 C 
ATOM     22  H   LIG d   1       7.356  -0.302  -3.050  0.00  0.00     0.047 H 
ATOM     23  H   LIG d   1       5.732   0.106  -2.430  0.00  0.00     0.047 H 
ATOM     24  C   LIG d   1       4.485  -2.198  -3.130  0.00  0.00    -0.037 C 
ATOM     25  H   LIG d   1       6.296  -2.283  -1.949  0.00  0.00     0.038 H 
ATOM     26  C   LIG d   1       6.750  -2.761  -3.991  0.00  0.00     0.027 C 
ATOM     27  C   LIG d   1       4.120  -1.868  -4.578  0.00  0.00    -0.006 C 
ATOM     28  H   LIG d   1       3.933  -1.545  -2.454  0.00  0.00     0.028 H 
ATOM     29  H   LIG d   1       4.241  -3.239  -2.919  0.00  0.00     0.028 H 
ATOM     30  H   LIG d   1       3.043  -1.989  -4.691  0.00  0.00     0.033 H 
ATOM     31  C   LIG d   1       4.806  -2.852  -5.507  0.00  0.00     0.031 C 
ATOM     32  N   LIG d   1       6.212  -3.074  -5.192  0.00  0.00    -0.312 N 
ATOM     33  H   LIG d   1       4.299  -3.814  -5.437  0.00  0.00     0.050 H 
ATOM     34  H   LIG d   1       4.726  -2.487  -6.530  0.00  0.00     0.050 H 
ATOM     35  C   LIG d   1       6.985  -3.641  -6.151  0.00  0.00     0.252 C 
ATOM     36  C   LIG d   1       8.291  -4.060  -5.863  0.00  0.00     0.003 C 
ATOM     37  O   LIG d   1       6.538  -3.788  -7.278  0.00  0.00    -0.268 OA
ATOM     38  C   LIG d   1       8.803  -3.826  -4.619  0.00  0.00    -0.055 C 
ATOM     39  H   LIG d   1       8.883  -4.562  -6.612  0.00  0.00     0.067 H 
ATOM     40  C   LIG d   1       8.016  -3.152  -3.680  0.00  0.00    -0.042 C 
ATOM     41  H   LIG d   1       9.800  -4.154  -4.366  0.00  0.00     0.062 H 
ATOM     42  H   LIG d   1       8.415  -2.941  -2.699  0.00  0.00     0.064 H 
ATOM     43  H   LIG d   1       3.796   0.245  -4.383  0.00  0.00     0.047 H 
ATOM     44  H   LIG d   1       4.361  -0.268  -5.987  0.00  0.00     0.047 H 
ENDBRANCH   4  16
BRANCH   1  45
ATOM     45  S   LIG d   1      11.453   3.627  -5.483  0.00  0.00     0.061 S 
ATOM     46  O   LIG d   1      11.189   3.851  -6.861  0.00  0.00    -0.153 OA
ATOM     47  O   LIG d   1      12.747   3.292  -5.000  0.00  0.00    -0.153 OA
BRANCH  45  48
ATOM     48  C   LIG d   1      10.962   5.090  -4.633  0.00  0.00     0.106 A 
ATOM     49  C   LIG d   1       9.840   5.784  -5.045  0.00  0.00    -0.034 A 
ATOM     50  C   LIG d   1       9.451   6.931  -4.381  0.00  0.00    -0.039 A 
ATOM     51  H   LIG d   1       9.265   5.429  -5.889  0.00  0.00     0.064 H 
ATOM     52  C   LIG d   1      10.190   7.387  -3.297  0.00  0.00     0.034 A 
ATOM     53  H   LIG d   1       8.574   7.472  -4.703  0.00  0.00     0.064 H 
ATOM     54  C   LIG d   1      11.321   6.691  -2.888  0.00  0.00    -0.039 A 
ATOM     55  C   LIG d   1      11.700   5.541  -3.553  0.00  0.00    -0.034 A 
ATOM     56  H   LIG d   1      11.900   7.046  -2.048  0.00  0.00     0.064 H 
ATOM     57  H   LIG d   1      12.575   4.997  -3.233  0.00  0.00     0.064 H 
BRANCH  52  58
ATOM     58  N   LIG d   1       9.800   8.548  -2.621  0.00  0.00    -0.286 N 
ATOM     59  C   LIG d   1       9.145   8.456  -1.446  0.00  0.00     0.214 C 
ATOM     60  O   LIG d   1       8.823   7.369  -1.015  0.00  0.00    -0.276 OA
ATOM     61  H   LIG d   1      10.001   9.419  -2.998  0.00  0.00     0.155 HD
BRANCH  59  62
ATOM     62  C   LIG d   1       8.815   9.704  -0.668  0.00  0.00     0.013 C 
ATOM     63  H   LIG d   1       8.182  10.352  -1.274  0.00  0.00     0.032 H 
ATOM     64  H   LIG d   1       8.288   9.433   0.246  0.00  0.00     0.032 H 
ATOM     65  H   LIG d   1       9.736  10.230  -0.415  0.00  0.00     0.032 H 
ENDBRANCH  59  62
ENDBRANCH  52  58
ENDBRANCH  45  48
ENDBRANCH   1  45
TORSDOF 5
ENDMDL
MODEL 8
REMARK VINA RESULT:      -6.8      3.134      4.975
REMARK  5 active torsions:
REMARK  status: ('A' for Active; 'I' for Inactive)
REMARK    1  A    between atoms: C_1  and  C_2 
REMARK       I    between atoms: C_2  and  N_4 
REMARK    2  A    between atoms: N_4  and  C_5 
REMARK    3  A    between atoms: C_8  and  S_11 
REMARK    4  A    between atoms: S_11  and  N_14 
REMARK    5  A    between atoms: C_17  and  C_20 
REMARK       I    between atoms: C_20  and  N_22 
ROOT
ATOM      1  N   LIG d   1       9.031   2.208  -7.063  0.00  0.00    -0.176 N 
ATOM      2  C   LIG d   1       7.893   1.485  -6.480  0.00  0.00     0.021 C 
ATOM      3  C   LIG d   1       7.213   0.663  -7.580  0.00  0.00    -0.027 C 
ATOM      4  C   LIG d   1       6.842   1.586  -8.743  0.00  0.00     0.038 C 
ATOM      5  C   LIG d   1       8.111   2.214  -9.324  0.00  0.00    -0.027 C 
ATOM      6  C   LIG d   1       8.799   3.058  -8.240  0.00  0.00     0.021 C 
ATOM      7  H   LIG d   1       8.248   0.819  -5.693  0.00  0.00     0.044 H 
ATOM      8  H   LIG d   1       7.181   2.199  -6.063  0.00  0.00     0.044 H 
ATOM      9  H   LIG d   1       7.896  -0.109  -7.932  0.00  0.00     0.029 H 
ATOM     10  H   LIG d   1       6.311   0.199  -7.182  0.00  0.00     0.029 H 
ATOM     11  H   LIG d   1       6.178   2.373  -8.385  0.00  0.00     0.040 H 
ATOM     12  H   LIG d   1       8.786   1.427  -9.660  0.00  0.00     0.029 H 
ATOM     13  H   LIG d   1       7.847   2.853 -10.168  0.00  0.00     0.029 H 
ATOM     14  H   LIG d   1       8.160   3.896  -7.964  0.00  0.00     0.044 H 
ATOM     15  H   LIG d   1       9.753   3.430  -8.616  0.00  0.00     0.044 H 
ENDROOT
BRANCH   4  16
ATOM     16  C   LIG d   1       6.142   0.788  -9.813  0.00  0.00     0.219 C 
ATOM     17  O   LIG d   1       6.773   0.016 -10.504  0.00  0.00    -0.275 OA
ATOM     18  N   LIG d   1       4.816   0.932 -10.002  0.00  0.00    -0.300 N 
ATOM     19  C   LIG d   1       4.016   1.783  -9.106  0.00  0.00     0.023 C 
ATOM     20  C   LIG d   1       4.135   0.238 -11.102  0.00  0.00     0.019 C 
ATOM     21  C   LIG d   1       2.872   0.926  -8.550  0.00  0.00     0.016 C 
ATOM     22  H   LIG d   1       4.638   2.145  -8.287  0.00  0.00     0.047 H 
ATOM     23  H   LIG d   1       3.607   2.626  -9.663  0.00  0.00     0.047 H 
ATOM     24  C   LIG d   1       2.035   0.417  -9.728  0.00  0.00    -0.037 C 
ATOM     25  H   LIG d   1       2.251   1.517  -7.877  0.00  0.00     0.038 H 
ATOM     26  C   LIG d   1       3.474  -0.246  -7.810  0.00  0.00     0.027 C 
ATOM     27  C   LIG d   1       2.910  -0.502 -10.581  0.00  0.00    -0.006 C 
ATOM     28  H   LIG d   1       1.694   1.261 -10.328  0.00  0.00     0.028 H 
ATOM     29  H   LIG d   1       1.176  -0.139  -9.353  0.00  0.00     0.028 H 
ATOM     30  H   LIG d   1       2.322  -0.828 -11.438  0.00  0.00     0.033 H 
ATOM     31  C   LIG d   1       3.288  -1.729  -9.773  0.00  0.00     0.031 C 
ATOM     32  N   LIG d   1       3.736  -1.425  -8.419  0.00  0.00    -0.312 N 
ATOM     33  H   LIG d   1       2.417  -2.379  -9.691  0.00  0.00     0.050 H 
ATOM     34  H   LIG d   1       4.080  -2.266 -10.295  0.00  0.00     0.050 H 
ATOM     35  C   LIG d   1       4.419  -2.390  -7.756  0.00  0.00     0.252 C 
ATOM     36  C   LIG d   1       4.715  -2.249  -6.393  0.00  0.00     0.003 C 
ATOM     37  O   LIG d   1       4.780  -3.393  -8.351  0.00  0.00    -0.268 OA
ATOM     38  C   LIG d   1       4.368  -1.093  -5.755  0.00  0.00    -0.055 C 
ATOM     39  H   LIG d   1       5.209  -3.043  -5.854  0.00  0.00     0.067 H 
ATOM     40  C   LIG d   1       3.750  -0.075  -6.489  0.00  0.00    -0.042 C 
ATOM     41  H   LIG d   1       4.569  -0.966  -4.702  0.00  0.00     0.062 H 
ATOM     42  H   LIG d   1       3.489   0.853  -6.003  0.00  0.00     0.064 H 
ATOM     43  H   LIG d   1       3.824   0.967 -11.851  0.00  0.00     0.047 H 
ATOM     44  H   LIG d   1       4.820  -0.475 -11.558  0.00  0.00     0.047 H 
ENDBRANCH   4  16
BRANCH   1  45
ATOM     45  S   LIG d   1      10.545   2.073  -6.404  0.00  0.00     0.061 S 
ATOM     46  O   LIG d   1      11.426   2.781  -7.264  0.00  0.00    -0.153 OA
ATOM     47  O   LIG d   1      10.729   0.700  -6.088  0.00  0.00    -0.153 OA
BRANCH  45  48
ATOM     48  C   LIG d   1      10.526   2.945  -4.874  0.00  0.00     0.106 A 
ATOM     49  C   LIG d   1      10.857   2.290  -3.703  0.00  0.00    -0.034 A 
ATOM     50  C   LIG d   1      10.844   2.971  -2.500  0.00  0.00    -0.039 A 
ATOM     51  H   LIG d   1      11.127   1.245  -3.727  0.00  0.00     0.064 H 
ATOM     52  C   LIG d   1      10.496   4.315  -2.470  0.00  0.00     0.034 A 
ATOM     53  H   LIG d   1      11.103   2.459  -1.586  0.00  0.00     0.064 H 
ATOM     54  C   LIG d   1      10.158   4.969  -3.648  0.00  0.00    -0.039 A 
ATOM     55  C   LIG d   1      10.180   4.284  -4.847  0.00  0.00    -0.034 A 
ATOM     56  H   LIG d   1       9.883   6.014  -3.626  0.00  0.00     0.064 H 
ATOM     57  H   LIG d   1       9.922   4.793  -5.763  0.00  0.00     0.064 H 
BRANCH  52  58
ATOM     58  N   LIG d   1      10.482   5.008  -1.255  0.00  0.00    -0.286 N 
ATOM     59  C   LIG d   1      11.623   5.533  -0.764  0.00  0.00     0.214 C 
ATOM     60  O   LIG d   1      12.675   5.334  -1.334  0.00  0.00    -0.276 OA
ATOM     61  H   LIG d   1       9.651   5.112  -0.765  0.00  0.00     0.155 HD
BRANCH  59  62
ATOM     62  C   LIG d   1      11.590   6.365   0.492  0.00  0.00     0.013 C 
ATOM     63  H   LIG d   1      11.359   7.399   0.236  0.00  0.00     0.032 H 
ATOM     64  H   LIG d   1      10.826   5.977   1.165  0.00  0.00     0.032 H 
ATOM     65  H   LIG d   1      12.563   6.321   0.982  0.00  0.00     0.032 H 
ENDBRANCH  59  62
ENDBRANCH  52  58
ENDBRANCH  45  48
ENDBRANCH   1  45
TORSDOF 5
ENDMDL
MODEL 9
REMARK VINA RESULT:      -6.5      2.695      9.433
REMARK  5 active torsions:
REMARK  status: ('A' for Active; 'I' for Inactive)
REMARK    1  A    between atoms: C_1  and  C_2 
REMARK       I    between atoms: C_2  and  N_4 
REMARK    2  A    between atoms: N_4  and  C_5 
REMARK    3  A    between atoms: C_8  and  S_11 
REMARK    4  A    between atoms: S_11  and  N_14 
REMARK    5  A    between atoms: C_17  and  C_20 
REMARK       I    between atoms: C_20  and  N_22 
ROOT
ATOM      1  N   LIG d   1      12.025   4.635  -5.870  0.00  0.00    -0.176 N 
ATOM      2  C   LIG d   1      12.304   5.226  -4.555  0.00  0.00     0.021 C 
ATOM      3  C   LIG d   1      11.241   6.288  -4.255  0.00  0.00    -0.027 C 
ATOM      4  C   LIG d   1      11.199   7.300  -5.403  0.00  0.00     0.038 C 
ATOM      5  C   LIG d   1      10.817   6.586  -6.702  0.00  0.00    -0.027 C 
ATOM      6  C   LIG d   1      11.881   5.527  -7.029  0.00  0.00     0.021 C 
ATOM      7  H   LIG d   1      12.269   4.449  -3.790  0.00  0.00     0.044 H 
ATOM      8  H   LIG d   1      13.291   5.689  -4.563  0.00  0.00     0.044 H 
ATOM      9  H   LIG d   1      10.266   5.810  -4.156  0.00  0.00     0.029 H 
ATOM     10  H   LIG d   1      11.491   6.801  -3.327  0.00  0.00     0.029 H 
ATOM     11  H   LIG d   1      12.181   7.760  -5.517  0.00  0.00     0.040 H 
ATOM     12  H   LIG d   1       9.847   6.105  -6.580  0.00  0.00     0.029 H 
ATOM     13  H   LIG d   1      10.765   7.311  -7.514  0.00  0.00     0.029 H 
ATOM     14  H   LIG d   1      12.834   6.014  -7.235  0.00  0.00     0.044 H 
ATOM     15  H   LIG d   1      11.567   4.949  -7.898  0.00  0.00     0.044 H 
ENDROOT
BRANCH   4  16
ATOM     16  C   LIG d   1      10.179   8.365  -5.096  0.00  0.00     0.219 C 
ATOM     17  O   LIG d   1       9.000   8.146  -5.280  0.00  0.00    -0.275 OA
ATOM     18  N   LIG d   1      10.576   9.560  -4.618  0.00  0.00    -0.300 N 
ATOM     19  C   LIG d   1      11.989   9.808  -4.289  0.00  0.00     0.023 C 
ATOM     20  C   LIG d   1       9.608  10.644  -4.407  0.00  0.00     0.019 C 
ATOM     21  C   LIG d   1      12.050  10.282  -2.832  0.00  0.00     0.016 C 
ATOM     22  H   LIG d   1      12.562   8.887  -4.402  0.00  0.00     0.047 H 
ATOM     23  H   LIG d   1      12.393  10.579  -4.944  0.00  0.00     0.047 H 
ATOM     24  C   LIG d   1      11.218  11.562  -2.706  0.00  0.00    -0.037 C 
ATOM     25  H   LIG d   1      13.083  10.477  -2.542  0.00  0.00     0.038 H 
ATOM     26  C   LIG d   1      11.458   9.203  -1.956  0.00  0.00     0.027 C 
ATOM     27  C   LIG d   1       9.758  11.220  -3.006  0.00  0.00    -0.006 C 
ATOM     28  H   LIG d   1      11.576  12.304  -3.421  0.00  0.00     0.028 H 
ATOM     29  H   LIG d   1      11.302  11.956  -1.694  0.00  0.00     0.028 H 
ATOM     30  H   LIG d   1       9.178  12.141  -2.955  0.00  0.00     0.033 H 
ATOM     31  C   LIG d   1       9.235  10.273  -1.941  0.00  0.00     0.031 C 
ATOM     32  N   LIG d   1      10.144   9.174  -1.636  0.00  0.00    -0.312 N 
ATOM     33  H   LIG d   1       9.076  10.832  -1.020  0.00  0.00     0.050 H 
ATOM     34  H   LIG d   1       8.282   9.861  -2.273  0.00  0.00     0.050 H 
ATOM     35  C   LIG d   1       9.632   8.104  -0.981  0.00  0.00     0.252 C 
ATOM     36  C   LIG d   1      10.473   7.099  -0.484  0.00  0.00     0.003 C 
ATOM     37  O   LIG d   1       8.424   8.014  -0.822  0.00  0.00    -0.268 OA
ATOM     38  C   LIG d   1      11.814   7.175  -0.730  0.00  0.00    -0.055 C 
ATOM     39  H   LIG d   1      10.068   6.276   0.085  0.00  0.00     0.067 H 
ATOM     40  C   LIG d   1      12.302   8.242  -1.491  0.00  0.00    -0.042 C 
ATOM     41  H   LIG d   1      12.486   6.424  -0.344  0.00  0.00     0.062 H 
ATOM     42  H   LIG d   1      13.358   8.304  -1.712  0.00  0.00     0.064 H 
ATOM     43  H   LIG d   1       9.781  11.430  -5.141  0.00  0.00     0.047 H 
ATOM     44  H   LIG d   1       8.598  10.254  -4.531  0.00  0.00     0.047 H 
ENDBRANCH   4  16
BRANCH   1  45
ATOM     45  S   LIG d   1      11.883   2.994  -6.045  0.00  0.00     0.061 S 
ATOM     46  O   LIG d   1      12.877   2.409  -5.215  0.00  0.00    -0.153 OA
ATOM     47  O   LIG d   1      11.810   2.740  -7.441  0.00  0.00    -0.153 OA
BRANCH  45  48
ATOM     48  C   LIG d   1      10.324   2.531  -5.367  0.00  0.00     0.106 A 
ATOM     49  C   LIG d   1       9.288   2.165  -6.205  0.00  0.00    -0.034 A 
ATOM     50  C   LIG d   1       8.065   1.801  -5.677  0.00  0.00    -0.039 A 
ATOM     51  H   LIG d   1       9.435   2.162  -7.276  0.00  0.00     0.064 H 
ATOM     52  C   LIG d   1       7.876   1.805  -4.301  0.00  0.00     0.034 A 
ATOM     53  H   LIG d   1       7.256   1.514  -6.333  0.00  0.00     0.064 H 
ATOM     54  C   LIG d   1       8.917   2.179  -3.461  0.00  0.00    -0.039 A 
ATOM     55  C   LIG d   1      10.140   2.535  -3.996  0.00  0.00    -0.034 A 
ATOM     56  H   LIG d   1       8.772   2.187  -2.391  0.00  0.00     0.064 H 
ATOM     57  H   LIG d   1      10.951   2.821  -3.344  0.00  0.00     0.064 H 
BRANCH  52  58
ATOM     58  N   LIG d   1       6.639   1.437  -3.762  0.00  0.00    -0.286 N 
ATOM     59  C   LIG d   1       6.431   0.168  -3.354  0.00  0.00     0.214 C 
ATOM     60  O   LIG d   1       7.288  -0.672  -3.529  0.00  0.00    -0.276 OA
ATOM     61  H   LIG d   1       5.930   2.094  -3.681  0.00  0.00     0.155 HD
BRANCH  59  62
ATOM     62  C   LIG d   1       5.135  -0.204  -2.681  0.00  0.00     0.013 C 
ATOM     63  H   LIG d   1       4.586  -0.903  -3.312  0.00  0.00     0.032 H 
ATOM     64  H   LIG d   1       5.347  -0.671  -1.720  0.00  0.00     0.032 H 
ATOM     65  H   LIG d   1       4.536   0.694  -2.525  0.00  0.00     0.032 H 
ENDBRANCH  59  62
ENDBRANCH  52  58
ENDBRANCH  45  48
ENDBRANCH   1  45
TORSDOF 5
ENDMDL
MODEL 10
REMARK VINA RESULT:      -6.4      3.236      9.075
REMARK  5 active torsions:
REMARK  status: ('A' for Active; 'I' for Inactive)
REMARK    1  A    between atoms: C_1  and  C_2 
REMARK       I    between atoms: C_2  and  N_4 
REMARK    2  A    between atoms: N_4  and  C_5 
REMARK    3  A    between atoms: C_8  and  S_11 
REMARK    4  A    between atoms: S_11  and  N_14 
REMARK    5  A    between atoms: C_17  and  C_20 
REMARK       I    between atoms: C_20  and  N_22 
ROOT
ATOM      1  N   LIG d   1       9.432   3.459  -5.804  0.00  0.00    -0.176 N 
ATOM      2  C   LIG d   1       9.887   4.856  -5.804  0.00  0.00     0.021 C 
ATOM      3  C   LIG d   1      10.665   5.123  -4.512  0.00  0.00    -0.027 C 
ATOM      4  C   LIG d   1       9.793   4.746  -3.311  0.00  0.00     0.038 C 
ATOM      5  C   LIG d   1       9.454   3.255  -3.372  0.00  0.00    -0.027 C 
ATOM      6  C   LIG d   1       8.658   2.970  -4.654  0.00  0.00     0.021 C 
ATOM      7  H   LIG d   1      10.536   5.028  -6.664  0.00  0.00     0.044 H 
ATOM      8  H   LIG d   1       9.025   5.521  -5.857  0.00  0.00     0.044 H 
ATOM      9  H   LIG d   1      11.574   4.522  -4.504  0.00  0.00     0.029 H 
ATOM     10  H   LIG d   1      10.924   6.179  -4.455  0.00  0.00     0.029 H 
ATOM     11  H   LIG d   1       8.873   5.329  -3.333  0.00  0.00     0.040 H 
ATOM     12  H   LIG d   1      10.375   2.672  -3.374  0.00  0.00     0.029 H 
ATOM     13  H   LIG d   1       8.853   2.983  -2.503  0.00  0.00     0.029 H 
ATOM     14  H   LIG d   1       7.698   3.484  -4.615  0.00  0.00     0.044 H 
ATOM     15  H   LIG d   1       8.496   1.895  -4.753  0.00  0.00     0.044 H 
ENDROOT
BRANCH   4  16
ATOM     16  C   LIG d   1      10.542   5.039  -2.036  0.00  0.00     0.219 C 
ATOM     17  O   LIG d   1      11.443   4.310  -1.681  0.00  0.00    -0.275 OA
ATOM     18  N   LIG d   1      10.210   6.112  -1.292  0.00  0.00    -0.300 N 
ATOM     19  C   LIG d   1       9.192   7.067  -1.758  0.00  0.00     0.023 C 
ATOM     20  C   LIG d   1      10.860   6.358   0.002  0.00  0.00     0.019 C 
ATOM     21  C   LIG d   1       9.828   8.462  -1.755  0.00  0.00     0.016 C 
ATOM     22  H   LIG d   1       8.877   6.807  -2.770  0.00  0.00     0.047 H 
ATOM     23  H   LIG d   1       8.334   7.052  -1.087  0.00  0.00     0.047 H 
ATOM     24  C   LIG d   1      10.277   8.784  -0.326  0.00  0.00    -0.037 C 
ATOM     25  H   LIG d   1       9.108   9.206  -2.097  0.00  0.00     0.038 H 
ATOM     26  C   LIG d   1      11.028   8.439  -2.672  0.00  0.00     0.027 C 
ATOM     27  C   LIG d   1      11.371   7.791   0.071  0.00  0.00    -0.006 C 
ATOM     28  H   LIG d   1       9.431   8.689   0.355  0.00  0.00     0.028 H 
ATOM     29  H   LIG d   1      10.671   9.799  -0.285  0.00  0.00     0.028 H 
ATOM     30  H   LIG d   1      11.658   7.998   1.101  0.00  0.00     0.033 H 
ATOM     31  C   LIG d   1      12.588   8.005  -0.811  0.00  0.00     0.031 C 
ATOM     32  N   LIG d   1      12.270   8.139  -2.227  0.00  0.00    -0.312 N 
ATOM     33  H   LIG d   1      13.091   8.920  -0.500  0.00  0.00     0.050 H 
ATOM     34  H   LIG d   1      13.271   7.166  -0.679  0.00  0.00     0.050 H 
ATOM     35  C   LIG d   1      13.284   7.976  -3.112  0.00  0.00     0.252 C 
ATOM     36  C   LIG d   1      13.103   8.276  -4.470  0.00  0.00     0.003 C 
ATOM     37  O   LIG d   1      14.366   7.565  -2.723  0.00  0.00    -0.268 OA
ATOM     38  C   LIG d   1      11.870   8.668  -4.904  0.00  0.00    -0.055 C 
ATOM     39  H   LIG d   1      13.928   8.199  -5.162  0.00  0.00     0.067 H 
ATOM     40  C   LIG d   1      10.818   8.734  -3.984  0.00  0.00    -0.042 C 
ATOM     41  H   LIG d   1      11.709   8.921  -5.941  0.00  0.00     0.062 H 
ATOM     42  H   LIG d   1       9.832   9.022  -4.317  0.00  0.00     0.064 H 
ATOM     43  H   LIG d   1      10.142   6.192   0.804  0.00  0.00     0.047 H 
ATOM     44  H   LIG d   1      11.697   5.671   0.121  0.00  0.00     0.047 H 
ENDBRANCH   4  16
BRANCH   1  45
ATOM     45  S   LIG d   1       9.778   2.457  -7.076  0.00  0.00     0.061 S 
ATOM     46  O   LIG d   1      10.585   1.408  -6.559  0.00  0.00    -0.153 OA
ATOM     47  O   LIG d   1      10.205   3.291  -8.145  0.00  0.00    -0.153 OA
BRANCH  45  48
ATOM     48  C   LIG d   1       8.261   1.721  -7.587  0.00  0.00     0.106 A 
ATOM     49  C   LIG d   1       7.488   2.336  -8.554  0.00  0.00    -0.034 A 
ATOM     50  C   LIG d   1       6.297   1.762  -8.957  0.00  0.00    -0.039 A 
ATOM     51  H   LIG d   1       7.814   3.267  -8.995  0.00  0.00     0.064 H 
ATOM     52  C   LIG d   1       5.879   0.565  -8.390  0.00  0.00     0.034 A 
ATOM     53  H   LIG d   1       5.694   2.242  -9.713  0.00  0.00     0.064 H 
ATOM     54  C   LIG d   1       6.656  -0.047  -7.415  0.00  0.00    -0.039 A 
ATOM     55  C   LIG d   1       7.848   0.529  -7.020  0.00  0.00    -0.034 A 
ATOM     56  H   LIG d   1       6.330  -0.975  -6.968  0.00  0.00     0.064 H 
ATOM     57  H   LIG d   1       8.454   0.052  -6.266  0.00  0.00     0.064 H 
BRANCH  52  58
ATOM     58  N   LIG d   1       4.675  -0.020  -8.796  0.00  0.00    -0.286 N 
ATOM     59  C   LIG d   1       3.525   0.299  -8.169  0.00  0.00     0.214 C 
ATOM     60  O   LIG d   1       3.545   1.030  -7.201  0.00  0.00    -0.276 OA
ATOM     61  H   LIG d   1       4.667  -0.655  -9.529  0.00  0.00     0.155 HD
BRANCH  59  62
ATOM     62  C   LIG d   1       2.215  -0.252  -8.670  0.00  0.00     0.013 C 
ATOM     63  H   LIG d   1       2.252  -0.346  -9.755  0.00  0.00     0.032 H 
ATOM     64  H   LIG d   1       2.040  -1.231  -8.226  0.00  0.00     0.032 H 
ATOM     65  H   LIG d   1       1.406   0.424  -8.392  0.00  0.00     0.032 H 
ENDBRANCH  59  62
ENDBRANCH  52  58
ENDBRANCH  45  48
ENDBRANCH   1  45
TORSDOF 5
ENDMDL
