MODEL 1
REMARK VINA RESULT:      -7.5      0.000      0.000
REMARK  12 active torsions:
REMARK  status: ('A' for Active; 'I' for Inactive)
REMARK    1  A    between atoms: C_1  and  C_2 
REMARK    2  A    between atoms: C_6  and  O_8 
REMARK    3  A    between atoms: O_8  and  C_9 
REMARK    4  A    between atoms: C_9  and  C_11 
REMARK    5  A    between atoms: C_11  and  C_13 
REMARK    6  A    between atoms: C_11  and  N_24 
REMARK    7  A    between atoms: C_13  and  C_14 
REMARK       I    between atoms: N_24  and  C_25 
REMARK    8  A    between atoms: C_25  and  O_27 
REMARK    9  A    between atoms: O_27  and  C_28 
REMARK   10  A    between atoms: C_28  and  C_29 
REMARK   11  A    between atoms: C_28  and  C_30 
REMARK   12  A    between atoms: C_28  and  C_31 
ROOT
ATOM      1  C   LIG d   1       6.496  -1.884  -7.192  0.00  0.00     0.128 C 
ATOM      2  H   LIG d   1       5.794  -1.878  -6.358  0.00  0.00     0.062 H 
ENDROOT
BRANCH   1   3
ATOM      3  C   LIG d   1       7.904  -1.965  -6.664  0.00  0.00     0.333 C 
ATOM      4  O   LIG d   1       8.820  -2.194  -7.417  0.00  0.00    -0.248 OA
BRANCH   3   5
ATOM      5  O   LIG d   1       8.142  -1.779  -5.355  0.00  0.00    -0.424 OA
BRANCH   5   6
ATOM      6  C   LIG d   1       8.061  -0.507  -4.888  0.00  0.00     0.143 A 
ATOM      7  C   LIG d   1       7.034  -0.142  -4.005  0.00  0.00     0.063 A 
ATOM      8  C   LIG d   1       6.957   1.178  -3.526  0.00  0.00     0.143 A 
ATOM      9  C   LIG d   1       6.031  -1.117  -3.569  0.00  0.00    -0.023 A 
ATOM     10  C   LIG d   1       7.902   2.109  -3.933  0.00  0.00    -0.015 A 
ATOM     11  O   LIG d   1       5.967   1.525  -2.674  0.00  0.00    -0.422 OA
ATOM     12  C   LIG d   1       8.908   1.739  -4.803  0.00  0.00    -0.043 A 
ATOM     13  H   LIG d   1       7.849   3.124  -3.570  0.00  0.00     0.066 H 
ATOM     14  C   LIG d   1       8.990   0.440  -5.279  0.00  0.00    -0.015 A 
ATOM     15  H   LIG d   1       9.783   0.166  -5.959  0.00  0.00     0.066 H 
ATOM     16  C   LIG d   1       5.047   0.637  -2.271  0.00  0.00     0.341 A 
ATOM     17  C   LIG d   1       5.062  -0.706  -2.713  0.00  0.00     0.041 A 
ATOM     18  O   LIG d   1       4.175   0.997  -1.502  0.00  0.00    -0.245 OA
ATOM     19  C   LIG d   1       4.135  -1.858  -2.389  0.00  0.00    -0.020 C 
ATOM     20  C   LIG d   1       4.401  -2.909  -3.489  0.00  0.00    -0.045 C 
ATOM     21  H   LIG d   1       4.370  -2.269  -1.408  0.00  0.00     0.032 H 
ATOM     22  H   LIG d   1       3.096  -1.529  -2.424  0.00  0.00     0.032 H 
ATOM     23  C   LIG d   1       5.850  -2.578  -3.906  0.00  0.00    -0.026 C 
ATOM     24  H   LIG d   1       4.332  -3.920  -3.086  0.00  0.00     0.027 H 
ATOM     25  H   LIG d   1       3.715  -2.778  -4.326  0.00  0.00     0.027 H 
ATOM     26  H   LIG d   1       5.982  -2.740  -4.976  0.00  0.00     0.031 H 
ATOM     27  H   LIG d   1       6.556  -3.187  -3.340  0.00  0.00     0.031 H 
BRANCH  12  28
ATOM     28  C   LIG d   1       9.928   2.757  -5.240  0.00  0.00    -0.040 C 
ATOM     29  H   LIG d   1      10.798   2.247  -5.654  0.00  0.00     0.028 H 
ATOM     30  H   LIG d   1       9.492   3.406  -5.999  0.00  0.00     0.028 H 
ATOM     31  H   LIG d   1      10.234   3.357  -4.382  0.00  0.00     0.028 H 
ENDBRANCH  12  28
ENDBRANCH   5   6
ENDBRANCH   3   5
ENDBRANCH   1   3
BRANCH   1  32
ATOM     32  C   LIG d   1       6.215  -3.094  -8.086  0.00  0.00     0.003 C 
ATOM     33  H   LIG d   1       5.713  -2.765  -8.995  0.00  0.00     0.034 H 
ATOM     34  H   LIG d   1       7.157  -3.579  -8.345  0.00  0.00     0.034 H 
BRANCH  32  35
ATOM     35  C   LIG d   1       5.335  -4.070  -7.349  0.00  0.00    -0.020 A 
ATOM     36  C   LIG d   1       5.770  -5.291  -6.666  0.00  0.00     0.003 A 
ATOM     37  C   LIG d   1       4.607  -5.869  -6.126  0.00  0.00     0.047 A 
ATOM     38  C   LIG d   1       7.007  -5.910  -6.479  0.00  0.00    -0.052 A 
ATOM     39  N   LIG d   1       3.552  -5.051  -6.464  0.00  0.00    -0.360 N 
ATOM     40  C   LIG d   1       4.706  -7.059  -5.411  0.00  0.00    -0.038 A 
ATOM     41  C   LIG d   1       4.006  -3.982  -7.188  0.00  0.00     0.006 A 
ATOM     42  H   LIG d   1       2.626  -5.208  -6.223  0.00  0.00     0.165 HD
ATOM     43  H   LIG d   1       3.386  -3.187  -7.574  0.00  0.00     0.081 H 
ATOM     44  C   LIG d   1       5.937  -7.653  -5.238  0.00  0.00    -0.060 A 
ATOM     45  H   LIG d   1       3.820  -7.514  -4.992  0.00  0.00     0.064 H 
ATOM     46  C   LIG d   1       7.081  -7.078  -5.772  0.00  0.00    -0.061 A 
ATOM     47  H   LIG d   1       6.011  -8.575  -4.683  0.00  0.00     0.062 H 
ATOM     48  H   LIG d   1       8.039  -7.557  -5.629  0.00  0.00     0.062 H 
ATOM     49  H   LIG d   1       7.902  -5.468  -6.892  0.00  0.00     0.062 H 
ENDBRANCH  32  35
ENDBRANCH   1  32
BRANCH   1  50
ATOM     50  N   LIG d   1       6.336  -0.654  -7.972  0.00  0.00    -0.268 N 
ATOM     51  C   LIG d   1       5.436   0.274  -7.589  0.00  0.00     0.401 C 
ATOM     52  O   LIG d   1       4.759   0.090  -6.597  0.00  0.00    -0.226 OA
ATOM     53  H   LIG d   1       6.876  -0.507  -8.763  0.00  0.00     0.153 HD
BRANCH  51  54
ATOM     54  O   LIG d   1       5.289   1.404  -8.305  0.00  0.00    -0.445 OA
BRANCH  54  55
ATOM     55  C   LIG d   1       4.187   1.447  -9.251  0.00  0.00     0.107 C 
BRANCH  55  56
ATOM     56  C   LIG d   1       3.031   0.594  -8.726  0.00  0.00    -0.025 C 
ATOM     57  H   LIG d   1       3.398  -0.080  -7.952  0.00  0.00     0.027 H 
ATOM     58  H   LIG d   1       2.262   1.243  -8.307  0.00  0.00     0.027 H 
ATOM     59  H   LIG d   1       2.608   0.012  -9.544  0.00  0.00     0.027 H 
ENDBRANCH  55  56
BRANCH  55  60
ATOM     60  C   LIG d   1       3.718   2.893  -9.422  0.00  0.00    -0.025 C 
ATOM     61  H   LIG d   1       4.222   3.528  -8.694  0.00  0.00     0.027 H 
ATOM     62  H   LIG d   1       3.954   3.235 -10.429  0.00  0.00     0.027 H 
ATOM     63  H   LIG d   1       2.640   2.945  -9.265  0.00  0.00     0.027 H 
ENDBRANCH  55  60
BRANCH  55  64
ATOM     64  C   LIG d   1       4.653   0.899 -10.601  0.00  0.00    -0.025 C 
ATOM     65  H   LIG d   1       5.574   0.332 -10.465  0.00  0.00     0.027 H 
ATOM     66  H   LIG d   1       3.882   0.247 -11.014  0.00  0.00     0.027 H 
ATOM     67  H   LIG d   1       4.835   1.726 -11.287  0.00  0.00     0.027 H 
ENDBRANCH  55  64
ENDBRANCH  54  55
ENDBRANCH  51  54
ENDBRANCH   1  50
TORSDOF 12
ENDMDL
MODEL 2
REMARK VINA RESULT:      -7.1      2.347      3.879
REMARK  12 active torsions:
REMARK  status: ('A' for Active; 'I' for Inactive)
REMARK    1  A    between atoms: C_1  and  C_2 
REMARK    2  A    between atoms: C_6  and  O_8 
REMARK    3  A    between atoms: O_8  and  C_9 
REMARK    4  A    between atoms: C_9  and  C_11 
REMARK    5  A    between atoms: C_11  and  C_13 
REMARK    6  A    between atoms: C_11  and  N_24 
REMARK    7  A    between atoms: C_13  and  C_14 
REMARK       I    between atoms: N_24  and  C_25 
REMARK    8  A    between atoms: C_25  and  O_27 
REMARK    9  A    between atoms: O_27  and  C_28 
REMARK   10  A    between atoms: C_28  and  C_29 
REMARK   11  A    between atoms: C_28  and  C_30 
REMARK   12  A    between atoms: C_28  and  C_31 
ROOT
ATOM      1  C   LIG d   1       6.879  -1.171  -7.344  0.00  0.00     0.128 C 
ATOM      2  H   LIG d   1       6.410  -0.464  -6.659  0.00  0.00     0.062 H 
ENDROOT
BRANCH   1   3
ATOM      3  C   LIG d   1       7.986  -1.905  -6.632  0.00  0.00     0.333 C 
ATOM      4  O   LIG d   1       8.715  -2.643  -7.249  0.00  0.00    -0.248 OA
BRANCH   3   5
ATOM      5  O   LIG d   1       8.162  -1.735  -5.311  0.00  0.00    -0.424 OA
BRANCH   5   6
ATOM      6  C   LIG d   1       8.076  -0.466  -4.836  0.00  0.00     0.143 A 
ATOM      7  C   LIG d   1       7.025  -0.100  -3.982  0.00  0.00     0.063 A 
ATOM      8  C   LIG d   1       6.944   1.216  -3.493  0.00  0.00     0.143 A 
ATOM      9  C   LIG d   1       6.002  -1.071  -3.586  0.00  0.00    -0.023 A 
ATOM     10  C   LIG d   1       7.909   2.143  -3.864  0.00  0.00    -0.015 A 
ATOM     11  O   LIG d   1       5.932   1.563  -2.670  0.00  0.00    -0.422 OA
ATOM     12  C   LIG d   1       8.938   1.772  -4.705  0.00  0.00    -0.043 A 
ATOM     13  H   LIG d   1       7.853   3.155  -3.493  0.00  0.00     0.066 H 
ATOM     14  C   LIG d   1       9.024   0.477  -5.190  0.00  0.00    -0.015 A 
ATOM     15  H   LIG d   1       9.836   0.202  -5.848  0.00  0.00     0.066 H 
ATOM     16  C   LIG d   1       4.992   0.680  -2.303  0.00  0.00     0.341 A 
ATOM     17  C   LIG d   1       5.011  -0.659  -2.756  0.00  0.00     0.041 A 
ATOM     18  O   LIG d   1       4.100   1.041  -1.558  0.00  0.00    -0.245 OA
ATOM     19  C   LIG d   1       4.065  -1.806  -2.471  0.00  0.00    -0.020 C 
ATOM     20  C   LIG d   1       4.356  -2.851  -3.572  0.00  0.00    -0.045 C 
ATOM     21  H   LIG d   1       4.266  -2.228  -1.487  0.00  0.00     0.032 H 
ATOM     22  H   LIG d   1       3.030  -1.469  -2.535  0.00  0.00     0.032 H 
ATOM     23  C   LIG d   1       5.820  -2.528  -3.941  0.00  0.00    -0.026 C 
ATOM     24  H   LIG d   1       4.267  -3.864  -3.179  0.00  0.00     0.027 H 
ATOM     25  H   LIG d   1       3.697  -2.707  -4.428  0.00  0.00     0.027 H 
ATOM     26  H   LIG d   1       5.984  -2.681  -5.008  0.00  0.00     0.031 H 
ATOM     27  H   LIG d   1       6.503  -3.147  -3.359  0.00  0.00     0.031 H 
BRANCH  12  28
ATOM     28  C   LIG d   1       9.979   2.786  -5.102  0.00  0.00    -0.040 C 
ATOM     29  H   LIG d   1       9.687   3.769  -4.734  0.00  0.00     0.028 H 
ATOM     30  H   LIG d   1      10.941   2.508  -4.671  0.00  0.00     0.028 H 
ATOM     31  H   LIG d   1      10.063   2.815  -6.189  0.00  0.00     0.028 H 
ENDBRANCH  12  28
ENDBRANCH   5   6
ENDBRANCH   3   5
ENDBRANCH   1   3
BRANCH   1  32
ATOM     32  C   LIG d   1       5.834  -2.176  -7.835  0.00  0.00     0.003 C 
ATOM     33  H   LIG d   1       6.125  -2.553  -8.814  0.00  0.00     0.034 H 
ATOM     34  H   LIG d   1       5.770  -3.005  -7.130  0.00  0.00     0.034 H 
BRANCH  32  35
ATOM     35  C   LIG d   1       4.493  -1.497  -7.935  0.00  0.00    -0.020 A 
ATOM     36  C   LIG d   1       3.637  -1.431  -9.122  0.00  0.00     0.003 A 
ATOM     37  C   LIG d   1       2.496  -0.703  -8.739  0.00  0.00     0.047 A 
ATOM     38  C   LIG d   1       3.748  -1.915 -10.427  0.00  0.00    -0.052 A 
ATOM     39  N   LIG d   1       2.660  -0.359  -7.416  0.00  0.00    -0.360 N 
ATOM     40  C   LIG d   1       1.489  -0.472  -9.671  0.00  0.00    -0.038 A 
ATOM     41  C   LIG d   1       3.853  -0.845  -6.953  0.00  0.00     0.006 A 
ATOM     42  H   LIG d   1       2.024   0.150  -6.889  0.00  0.00     0.165 HD
ATOM     43  H   LIG d   1       4.224  -0.720  -5.947  0.00  0.00     0.081 H 
ATOM     44  C   LIG d   1       1.619  -0.959 -10.953  0.00  0.00    -0.060 A 
ATOM     45  H   LIG d   1       0.608   0.086  -9.390  0.00  0.00     0.064 H 
ATOM     46  C   LIG d   1       2.747  -1.677 -11.326  0.00  0.00    -0.061 A 
ATOM     47  H   LIG d   1       0.837  -0.779 -11.675  0.00  0.00     0.062 H 
ATOM     48  H   LIG d   1       2.834  -2.051 -12.336  0.00  0.00     0.062 H 
ATOM     49  H   LIG d   1       4.623  -2.474 -10.724  0.00  0.00     0.062 H 
ENDBRANCH  32  35
ENDBRANCH   1  32
BRANCH   1  50
ATOM     50  N   LIG d   1       7.432  -0.444  -8.489  0.00  0.00    -0.268 N 
ATOM     51  C   LIG d   1       7.300   0.895  -8.565  0.00  0.00     0.401 C 
ATOM     52  O   LIG d   1       6.721   1.499  -7.683  0.00  0.00    -0.226 OA
ATOM     53  H   LIG d   1       7.894  -0.925  -9.193  0.00  0.00     0.153 HD
BRANCH  51  54
ATOM     54  O   LIG d   1       7.808   1.563  -9.617  0.00  0.00    -0.445 OA
BRANCH  54  55
ATOM     55  C   LIG d   1       9.109   2.183  -9.439  0.00  0.00     0.107 C 
BRANCH  55  56
ATOM     56  C   LIG d   1       8.938   3.548  -8.770  0.00  0.00    -0.025 C 
ATOM     57  H   LIG d   1       8.036   3.542  -8.159  0.00  0.00     0.027 H 
ATOM     58  H   LIG d   1       9.803   3.755  -8.141  0.00  0.00     0.027 H 
ATOM     59  H   LIG d   1       8.853   4.319  -9.536  0.00  0.00     0.027 H 
ENDBRANCH  55  56
BRANCH  55  60
ATOM     60  C   LIG d   1       9.983   1.289  -8.557  0.00  0.00    -0.025 C 
ATOM     61  H   LIG d   1       9.605   0.267  -8.587  0.00  0.00     0.027 H 
ATOM     62  H   LIG d   1      11.009   1.308  -8.923  0.00  0.00     0.027 H 
ATOM     63  H   LIG d   1       9.957   1.656  -7.531  0.00  0.00     0.027 H 
ENDBRANCH  55  60
BRANCH  55  64
ATOM     64  C   LIG d   1       9.778   2.363 -10.803  0.00  0.00    -0.025 C 
ATOM     65  H   LIG d   1      10.262   1.431 -11.097  0.00  0.00     0.027 H 
ATOM     66  H   LIG d   1       9.025   2.632 -11.545  0.00  0.00     0.027 H 
ATOM     67  H   LIG d   1      10.525   3.155 -10.741  0.00  0.00     0.027 H 
ENDBRANCH  55  64
ENDBRANCH  54  55
ENDBRANCH  51  54
ENDBRANCH   1  50
TORSDOF 12
ENDMDL
MODEL 3
REMARK VINA RESULT:      -7.0      2.616      6.515
REMARK  12 active torsions:
REMARK  status: ('A' for Active; 'I' for Inactive)
REMARK    1  A    between atoms: C_1  and  C_2 
REMARK    2  A    between atoms: C_6  and  O_8 
REMARK    3  A    between atoms: O_8  and  C_9 
REMARK    4  A    between atoms: C_9  and  C_11 
REMARK    5  A    between atoms: C_11  and  C_13 
REMARK    6  A    between atoms: C_11  and  N_24 
REMARK    7  A    between atoms: C_13  and  C_14 
REMARK       I    between atoms: N_24  and  C_25 
REMARK    8  A    between atoms: C_25  and  O_27 
REMARK    9  A    between atoms: O_27  and  C_28 
REMARK   10  A    between atoms: C_28  and  C_29 
REMARK   11  A    between atoms: C_28  and  C_30 
REMARK   12  A    between atoms: C_28  and  C_31 
ROOT
ATOM      1  C   LIG d   1       3.782  -0.077  -7.310  0.00  0.00     0.128 C 
ATOM      2  H   LIG d   1       3.251  -1.029  -7.326  0.00  0.00     0.062 H 
ENDROOT
BRANCH   1   3
ATOM      3  C   LIG d   1       5.230  -0.302  -7.662  0.00  0.00     0.333 C 
ATOM      4  O   LIG d   1       6.014   0.615  -7.604  0.00  0.00    -0.248 OA
BRANCH   3   5
ATOM      5  O   LIG d   1       5.648  -1.521  -8.039  0.00  0.00    -0.424 OA
BRANCH   5   6
ATOM      6  C   LIG d   1       5.954  -2.399  -7.050  0.00  0.00     0.143 A 
ATOM      7  C   LIG d   1       5.390  -3.684  -7.045  0.00  0.00     0.063 A 
ATOM      8  C   LIG d   1       5.713  -4.588  -6.018  0.00  0.00     0.143 A 
ATOM      9  C   LIG d   1       4.462  -4.105  -8.098  0.00  0.00    -0.023 A 
ATOM     10  C   LIG d   1       6.591  -4.199  -5.016  0.00  0.00    -0.015 A 
ATOM     11  O   LIG d   1       5.169  -5.824  -6.018  0.00  0.00    -0.422 OA
ATOM     12  C   LIG d   1       7.140  -2.932  -5.031  0.00  0.00    -0.043 A 
ATOM     13  H   LIG d   1       6.844  -4.887  -4.224  0.00  0.00     0.066 H 
ATOM     14  C   LIG d   1       6.826  -2.036  -6.039  0.00  0.00    -0.015 A 
ATOM     15  H   LIG d   1       7.264  -1.049  -6.037  0.00  0.00     0.066 H 
ATOM     16  C   LIG d   1       4.320  -6.216  -6.979  0.00  0.00     0.341 A 
ATOM     17  C   LIG d   1       3.950  -5.360  -8.041  0.00  0.00     0.041 A 
ATOM     18  O   LIG d   1       3.856  -7.341  -6.936  0.00  0.00    -0.245 OA
ATOM     19  C   LIG d   1       3.020  -5.593  -9.213  0.00  0.00    -0.020 C 
ATOM     20  C   LIG d   1       2.693  -4.183  -9.754  0.00  0.00    -0.045 C 
ATOM     21  H   LIG d   1       3.520  -6.185  -9.980  0.00  0.00     0.032 H 
ATOM     22  H   LIG d   1       2.110  -6.091  -8.882  0.00  0.00     0.032 H 
ATOM     23  C   LIG d   1       3.929  -3.373  -9.307  0.00  0.00    -0.026 C 
ATOM     24  H   LIG d   1       2.605  -4.193 -10.841  0.00  0.00     0.027 H 
ATOM     25  H   LIG d   1       1.784  -3.793  -9.295  0.00  0.00     0.027 H 
ATOM     26  H   LIG d   1       3.639  -2.357  -9.039  0.00  0.00     0.031 H 
ATOM     27  H   LIG d   1       4.678  -3.357 -10.100  0.00  0.00     0.031 H 
BRANCH  12  28
ATOM     28  C   LIG d   1       8.091  -2.519  -3.938  0.00  0.00    -0.040 C 
ATOM     29  H   LIG d   1       8.062  -1.435  -3.822  0.00  0.00     0.028 H 
ATOM     30  H   LIG d   1       7.796  -2.992  -3.001  0.00  0.00     0.028 H 
ATOM     31  H   LIG d   1       9.103  -2.830  -4.199  0.00  0.00     0.028 H 
ENDBRANCH  12  28
ENDBRANCH   5   6
ENDBRANCH   3   5
ENDBRANCH   1   3
BRANCH   1  32
ATOM     32  C   LIG d   1       3.151   0.876  -8.327  0.00  0.00     0.003 C 
ATOM     33  H   LIG d   1       2.394   1.485  -7.833  0.00  0.00     0.034 H 
ATOM     34  H   LIG d   1       3.922   1.523  -8.744  0.00  0.00     0.034 H 
BRANCH  32  35
ATOM     35  C   LIG d   1       2.511   0.079  -9.434  0.00  0.00    -0.020 A 
ATOM     36  C   LIG d   1       3.089  -0.203 -10.750  0.00  0.00     0.003 A 
ATOM     37  C   LIG d   1       2.136  -0.977 -11.435  0.00  0.00     0.047 A 
ATOM     38  C   LIG d   1       4.294   0.129 -11.372  0.00  0.00    -0.052 A 
ATOM     39  N   LIG d   1       1.064  -1.145 -10.588  0.00  0.00    -0.360 N 
ATOM     40  C   LIG d   1       2.407  -1.403 -12.732  0.00  0.00    -0.038 A 
ATOM     41  C   LIG d   1       1.308  -0.513  -9.399  0.00  0.00     0.006 A 
ATOM     42  H   LIG d   1       0.257  -1.640 -10.800  0.00  0.00     0.165 HD
ATOM     43  H   LIG d   1       0.631  -0.493  -8.557  0.00  0.00     0.081 H 
ATOM     44  C   LIG d   1       3.603  -1.064 -13.327  0.00  0.00    -0.060 A 
ATOM     45  H   LIG d   1       1.684  -1.997 -13.270  0.00  0.00     0.064 H 
ATOM     46  C   LIG d   1       4.540  -0.300 -12.646  0.00  0.00    -0.061 A 
ATOM     47  H   LIG d   1       3.812  -1.395 -14.333  0.00  0.00     0.062 H 
ATOM     48  H   LIG d   1       5.473  -0.042 -13.127  0.00  0.00     0.062 H 
ATOM     49  H   LIG d   1       5.028   0.723 -10.848  0.00  0.00     0.062 H 
ENDBRANCH  32  35
ENDBRANCH   1  32
BRANCH   1  50
ATOM     50  N   LIG d   1       3.690   0.508  -5.970  0.00  0.00    -0.268 N 
ATOM     51  C   LIG d   1       3.580  -0.293  -4.892  0.00  0.00     0.401 C 
ATOM     52  O   LIG d   1       3.557  -1.500  -5.031  0.00  0.00    -0.226 OA
ATOM     53  H   LIG d   1       3.709   1.471  -5.858  0.00  0.00     0.153 HD
BRANCH  51  54
ATOM     54  O   LIG d   1       3.495   0.244  -3.660  0.00  0.00    -0.445 OA
BRANCH  54  55
ATOM     55  C   LIG d   1       4.645   0.079  -2.788  0.00  0.00     0.107 C 
BRANCH  55  56
ATOM     56  C   LIG d   1       5.922   0.424  -3.556  0.00  0.00    -0.025 C 
ATOM     57  H   LIG d   1       6.059   1.505  -3.566  0.00  0.00     0.027 H 
ATOM     58  H   LIG d   1       6.776  -0.047  -3.070  0.00  0.00     0.027 H 
ATOM     59  H   LIG d   1       5.840   0.058  -4.579  0.00  0.00     0.027 H 
ENDBRANCH  55  56
BRANCH  55  60
ATOM     60  C   LIG d   1       4.508   1.010  -1.581  0.00  0.00    -0.025 C 
ATOM     61  H   LIG d   1       4.090   1.964  -1.903  0.00  0.00     0.027 H 
ATOM     62  H   LIG d   1       3.849   0.554  -0.843  0.00  0.00     0.027 H 
ATOM     63  H   LIG d   1       5.490   1.175  -1.138  0.00  0.00     0.027 H 
ENDBRANCH  55  60
BRANCH  55  64
ATOM     64  C   LIG d   1       4.714  -1.372  -2.307  0.00  0.00    -0.025 C 
ATOM     65  H   LIG d   1       4.065  -1.499  -1.440  0.00  0.00     0.027 H 
ATOM     66  H   LIG d   1       4.386  -2.036  -3.108  0.00  0.00     0.027 H 
ATOM     67  H   LIG d   1       5.740  -1.615  -2.031  0.00  0.00     0.027 H 
ENDBRANCH  55  64
ENDBRANCH  54  55
ENDBRANCH  51  54
ENDBRANCH   1  50
TORSDOF 12
ENDMDL
MODEL 4
REMARK VINA RESULT:      -6.9      2.330      6.418
REMARK  12 active torsions:
REMARK  status: ('A' for Active; 'I' for Inactive)
REMARK    1  A    between atoms: C_1  and  C_2 
REMARK    2  A    between atoms: C_6  and  O_8 
REMARK    3  A    between atoms: O_8  and  C_9 
REMARK    4  A    between atoms: C_9  and  C_11 
REMARK    5  A    between atoms: C_11  and  C_13 
REMARK    6  A    between atoms: C_11  and  N_24 
REMARK    7  A    between atoms: C_13  and  C_14 
REMARK       I    between atoms: N_24  and  C_25 
REMARK    8  A    between atoms: C_25  and  O_27 
REMARK    9  A    between atoms: O_27  and  C_28 
REMARK   10  A    between atoms: C_28  and  C_29 
REMARK   11  A    between atoms: C_28  and  C_30 
REMARK   12  A    between atoms: C_28  and  C_31 
ROOT
ATOM      1  C   LIG d   1       5.767  -3.944  -5.871  0.00  0.00     0.128 C 
ATOM      2  H   LIG d   1       4.757  -3.565  -6.027  0.00  0.00     0.062 H 
ENDROOT
BRANCH   1   3
ATOM      3  C   LIG d   1       6.562  -3.795  -7.142  0.00  0.00     0.333 C 
ATOM      4  O   LIG d   1       7.585  -4.420  -7.292  0.00  0.00    -0.248 OA
BRANCH   3   5
ATOM      5  O   LIG d   1       6.131  -2.970  -8.111  0.00  0.00    -0.424 OA
BRANCH   5   6
ATOM      6  C   LIG d   1       6.378  -1.646  -7.946  0.00  0.00     0.143 A 
ATOM      7  C   LIG d   1       5.372  -0.701  -8.198  0.00  0.00     0.063 A 
ATOM      8  C   LIG d   1       5.635   0.669  -8.023  0.00  0.00     0.143 A 
ATOM      9  C   LIG d   1       4.041  -1.119  -8.645  0.00  0.00    -0.023 A 
ATOM     10  C   LIG d   1       6.894   1.074  -7.601  0.00  0.00    -0.015 A 
ATOM     11  O   LIG d   1       4.663   1.574  -8.266  0.00  0.00    -0.422 OA
ATOM     12  C   LIG d   1       7.877   0.136  -7.355  0.00  0.00    -0.043 A 
ATOM     13  H   LIG d   1       7.104   2.124  -7.465  0.00  0.00     0.066 H 
ATOM     14  C   LIG d   1       7.624  -1.215  -7.526  0.00  0.00    -0.015 A 
ATOM     15  H   LIG d   1       8.404  -1.936  -7.329  0.00  0.00     0.066 H 
ATOM     16  C   LIG d   1       3.442   1.198  -8.675  0.00  0.00     0.341 A 
ATOM     17  C   LIG d   1       3.107  -0.161  -8.872  0.00  0.00     0.041 A 
ATOM     18  O   LIG d   1       2.599   2.052  -8.880  0.00  0.00    -0.245 OA
ATOM     19  C   LIG d   1       1.810  -0.798  -9.323  0.00  0.00    -0.020 C 
ATOM     20  C   LIG d   1       2.196  -2.229  -9.758  0.00  0.00    -0.045 C 
ATOM     21  H   LIG d   1       1.099  -0.833  -8.498  0.00  0.00     0.032 H 
ATOM     22  H   LIG d   1       1.390  -0.247 -10.164  0.00  0.00     0.032 H 
ATOM     23  C   LIG d   1       3.467  -2.489  -8.921  0.00  0.00    -0.026 C 
ATOM     24  H   LIG d   1       1.408  -2.939  -9.503  0.00  0.00     0.027 H 
ATOM     25  H   LIG d   1       2.418  -2.264 -10.825  0.00  0.00     0.027 H 
ATOM     26  H   LIG d   1       4.177  -3.090  -9.488  0.00  0.00     0.031 H 
ATOM     27  H   LIG d   1       3.209  -2.987  -7.986  0.00  0.00     0.031 H 
BRANCH  12  28
ATOM     28  C   LIG d   1       9.240   0.587  -6.898  0.00  0.00    -0.040 C 
ATOM     29  H   LIG d   1       9.143   1.153  -5.972  0.00  0.00     0.028 H 
ATOM     30  H   LIG d   1       9.873  -0.283  -6.729  0.00  0.00     0.028 H 
ATOM     31  H   LIG d   1       9.689   1.220  -7.665  0.00  0.00     0.028 H 
ENDBRANCH  12  28
ENDBRANCH   5   6
ENDBRANCH   3   5
ENDBRANCH   1   3
BRANCH   1  32
ATOM     32  C   LIG d   1       6.443  -3.150  -4.751  0.00  0.00     0.003 C 
ATOM     33  H   LIG d   1       7.013  -3.829  -4.118  0.00  0.00     0.034 H 
ATOM     34  H   LIG d   1       7.113  -2.409  -5.185  0.00  0.00     0.034 H 
BRANCH  32  35
ATOM     35  C   LIG d   1       5.393  -2.454  -3.925  0.00  0.00    -0.020 A 
ATOM     36  C   LIG d   1       5.410  -1.053  -3.495  0.00  0.00     0.003 A 
ATOM     37  C   LIG d   1       4.230  -0.860  -2.754  0.00  0.00     0.047 A 
ATOM     38  C   LIG d   1       6.300   0.006  -3.677  0.00  0.00    -0.052 A 
ATOM     39  N   LIG d   1       3.557  -2.061  -2.742  0.00  0.00    -0.360 N 
ATOM     40  C   LIG d   1       3.965   0.392  -2.208  0.00  0.00    -0.038 A 
ATOM     41  C   LIG d   1       4.262  -2.997  -3.448  0.00  0.00     0.006 A 
ATOM     42  H   LIG d   1       2.707  -2.220  -2.301  0.00  0.00     0.165 HD
ATOM     43  H   LIG d   1       3.955  -4.021  -3.598  0.00  0.00     0.081 H 
ATOM     44  C   LIG d   1       4.857   1.425  -2.399  0.00  0.00    -0.060 A 
ATOM     45  H   LIG d   1       3.063   0.554  -1.636  0.00  0.00     0.064 H 
ATOM     46  C   LIG d   1       6.020   1.228  -3.132  0.00  0.00    -0.061 A 
ATOM     47  H   LIG d   1       4.650   2.395  -1.975  0.00  0.00     0.062 H 
ATOM     48  H   LIG d   1       6.710   2.048  -3.272  0.00  0.00     0.062 H 
ATOM     49  H   LIG d   1       7.206  -0.139  -4.246  0.00  0.00     0.062 H 
ENDBRANCH  32  35
ENDBRANCH   1  32
BRANCH   1  50
ATOM     50  N   LIG d   1       5.704  -5.359  -5.497  0.00  0.00    -0.268 N 
ATOM     51  C   LIG d   1       4.546  -6.038  -5.624  0.00  0.00     0.401 C 
ATOM     52  O   LIG d   1       3.556  -5.476  -6.049  0.00  0.00    -0.226 OA
ATOM     53  H   LIG d   1       6.494  -5.808  -5.158  0.00  0.00     0.153 HD
BRANCH  51  54
ATOM     54  O   LIG d   1       4.487  -7.338  -5.280  0.00  0.00    -0.445 OA
BRANCH  54  55
ATOM     55  C   LIG d   1       5.016  -8.298  -6.234  0.00  0.00     0.107 C 
BRANCH  55  56
ATOM     56  C   LIG d   1       4.373  -8.064  -7.602  0.00  0.00    -0.025 C 
ATOM     57  H   LIG d   1       5.143  -8.081  -8.373  0.00  0.00     0.027 H 
ATOM     58  H   LIG d   1       3.644  -8.849  -7.799  0.00  0.00     0.027 H 
ATOM     59  H   LIG d   1       3.874  -7.095  -7.608  0.00  0.00     0.027 H 
ENDBRANCH  55  56
BRANCH  55  60
ATOM     60  C   LIG d   1       6.532  -8.124  -6.345  0.00  0.00    -0.025 C 
ATOM     61  H   LIG d   1       6.955  -8.965  -6.895  0.00  0.00     0.027 H 
ATOM     62  H   LIG d   1       6.754  -7.197  -6.872  0.00  0.00     0.027 H 
ATOM     63  H   LIG d   1       6.967  -8.088  -5.347  0.00  0.00     0.027 H 
ENDBRANCH  55  60
BRANCH  55  64
ATOM     64  C   LIG d   1       4.699  -9.717  -5.757  0.00  0.00    -0.025 C 
ATOM     65  H   LIG d   1       3.621  -9.832  -5.650  0.00  0.00     0.027 H 
ATOM     66  H   LIG d   1       5.071 -10.436  -6.487  0.00  0.00     0.027 H 
ATOM     67  H   LIG d   1       5.180  -9.894  -4.795  0.00  0.00     0.027 H 
ENDBRANCH  55  64
ENDBRANCH  54  55
ENDBRANCH  51  54
ENDBRANCH   1  50
TORSDOF 12
ENDMDL
MODEL 5
REMARK VINA RESULT:      -6.9      2.789      7.140
REMARK  12 active torsions:
REMARK  status: ('A' for Active; 'I' for Inactive)
REMARK    1  A    between atoms: C_1  and  C_2 
REMARK    2  A    between atoms: C_6  and  O_8 
REMARK    3  A    between atoms: O_8  and  C_9 
REMARK    4  A    between atoms: C_9  and  C_11 
REMARK    5  A    between atoms: C_11  and  C_13 
REMARK    6  A    between atoms: C_11  and  N_24 
REMARK    7  A    between atoms: C_13  and  C_14 
REMARK       I    between atoms: N_24  and  C_25 
REMARK    8  A    between atoms: C_25  and  O_27 
REMARK    9  A    between atoms: O_27  and  C_28 
REMARK   10  A    between atoms: C_28  and  C_29 
REMARK   11  A    between atoms: C_28  and  C_30 
REMARK   12  A    between atoms: C_28  and  C_31 
ROOT
ATOM      1  C   LIG d   1       4.994  -3.818  -5.819  0.00  0.00     0.128 C 
ATOM      2  H   LIG d   1       5.997  -3.585  -6.179  0.00  0.00     0.062 H 
ENDROOT
BRANCH   1   3
ATOM      3  C   LIG d   1       4.625  -5.220  -6.230  0.00  0.00     0.333 C 
ATOM      4  O   LIG d   1       3.470  -5.572  -6.204  0.00  0.00    -0.248 OA
BRANCH   3   5
ATOM      5  O   LIG d   1       5.580  -6.077  -6.626  0.00  0.00    -0.424 OA
BRANCH   5   6
ATOM      6  C   LIG d   1       5.897  -7.083  -5.773  0.00  0.00     0.143 A 
ATOM      7  C   LIG d   1       7.190  -7.174  -5.235  0.00  0.00     0.063 A 
ATOM      8  C   LIG d   1       7.510  -8.219  -4.350  0.00  0.00     0.143 A 
ATOM      9  C   LIG d   1       8.222  -6.194  -5.581  0.00  0.00    -0.023 A 
ATOM     10  C   LIG d   1       6.539  -9.153  -4.017  0.00  0.00    -0.015 A 
ATOM     11  O   LIG d   1       8.755  -8.302  -3.834  0.00  0.00    -0.422 OA
ATOM     12  C   LIG d   1       5.271  -9.054  -4.552  0.00  0.00    -0.043 A 
ATOM     13  H   LIG d   1       6.777  -9.959  -3.339  0.00  0.00     0.066 H 
ATOM     14  C   LIG d   1       4.948  -8.028  -5.424  0.00  0.00    -0.015 A 
ATOM     15  H   LIG d   1       3.951  -7.964  -5.834  0.00  0.00     0.066 H 
ATOM     16  C   LIG d   1       9.704  -7.407  -4.146  0.00  0.00     0.341 A 
ATOM     17  C   LIG d   1       9.453  -6.331  -5.028  0.00  0.00     0.041 A 
ATOM     18  O   LIG d   1      10.811  -7.523  -3.654  0.00  0.00    -0.245 OA
ATOM     19  C   LIG d   1      10.364  -5.224  -5.512  0.00  0.00    -0.020 C 
ATOM     20  C   LIG d   1       9.665  -4.643  -6.760  0.00  0.00    -0.045 C 
ATOM     21  H   LIG d   1      10.467  -4.456  -4.745  0.00  0.00     0.032 H 
ATOM     22  H   LIG d   1      11.342  -5.626  -5.779  0.00  0.00     0.032 H 
ATOM     23  C   LIG d   1       8.184  -4.985  -6.487  0.00  0.00    -0.026 C 
ATOM     24  H   LIG d   1       9.811  -3.564  -6.822  0.00  0.00     0.027 H 
ATOM     25  H   LIG d   1      10.018  -5.135  -7.667  0.00  0.00     0.027 H 
ATOM     26  H   LIG d   1       7.673  -5.227  -7.419  0.00  0.00     0.031 H 
ATOM     27  H   LIG d   1       7.689  -4.153  -5.987  0.00  0.00     0.031 H 
BRANCH  12  28
ATOM     28  C   LIG d   1       4.225 -10.075  -4.185  0.00  0.00    -0.040 C 
ATOM     29  H   LIG d   1       3.715  -9.760  -3.274  0.00  0.00     0.028 H 
ATOM     30  H   LIG d   1       3.501 -10.162  -4.994  0.00  0.00     0.028 H 
ATOM     31  H   LIG d   1       4.703 -11.041  -4.018  0.00  0.00     0.028 H 
ENDBRANCH  12  28
ENDBRANCH   5   6
ENDBRANCH   3   5
ENDBRANCH   1   3
BRANCH   1  32
ATOM     32  C   LIG d   1       4.961  -3.707  -4.293  0.00  0.00     0.003 C 
ATOM     33  H   LIG d   1       3.929  -3.752  -3.949  0.00  0.00     0.034 H 
ATOM     34  H   LIG d   1       5.526  -4.531  -3.858  0.00  0.00     0.034 H 
BRANCH  32  35
ATOM     35  C   LIG d   1       5.575  -2.398  -3.871  0.00  0.00    -0.020 A 
ATOM     36  C   LIG d   1       4.866  -1.241  -3.318  0.00  0.00     0.003 A 
ATOM     37  C   LIG d   1       5.847  -0.263  -3.076  0.00  0.00     0.047 A 
ATOM     38  C   LIG d   1       3.529  -0.973  -3.023  0.00  0.00    -0.052 A 
ATOM     39  N   LIG d   1       7.057  -0.799  -3.457  0.00  0.00    -0.360 N 
ATOM     40  C   LIG d   1       5.469   0.965  -2.543  0.00  0.00    -0.038 A 
ATOM     41  C   LIG d   1       6.876  -2.072  -3.923  0.00  0.00     0.006 A 
ATOM     42  H   LIG d   1       7.912  -0.342  -3.400  0.00  0.00     0.165 HD
ATOM     43  H   LIG d   1       7.663  -2.719  -4.282  0.00  0.00     0.081 H 
ATOM     44  C   LIG d   1       4.143   1.209  -2.259  0.00  0.00    -0.060 A 
ATOM     45  H   LIG d   1       6.213   1.725  -2.352  0.00  0.00     0.064 H 
ATOM     46  C   LIG d   1       3.179   0.240  -2.500  0.00  0.00    -0.061 A 
ATOM     47  H   LIG d   1       3.852   2.162  -1.846  0.00  0.00     0.062 H 
ATOM     48  H   LIG d   1       2.143   0.447  -2.273  0.00  0.00     0.062 H 
ATOM     49  H   LIG d   1       2.772  -1.722  -3.208  0.00  0.00     0.062 H 
ENDBRANCH  32  35
ENDBRANCH   1  32
BRANCH   1  50
ATOM     50  N   LIG d   1       4.038  -2.871  -6.398  0.00  0.00    -0.268 N 
ATOM     51  C   LIG d   1       4.292  -2.305  -7.595  0.00  0.00     0.401 C 
ATOM     52  O   LIG d   1       5.313  -2.581  -8.193  0.00  0.00    -0.226 OA
ATOM     53  H   LIG d   1       3.223  -2.651  -5.922  0.00  0.00     0.153 HD
BRANCH  51  54
ATOM     54  O   LIG d   1       3.413  -1.435  -8.128  0.00  0.00    -0.445 OA
BRANCH  54  55
ATOM     55  C   LIG d   1       3.601  -0.030  -7.809  0.00  0.00     0.107 C 
BRANCH  55  56
ATOM     56  C   LIG d   1       2.969   0.831  -8.904  0.00  0.00    -0.025 C 
ATOM     57  H   LIG d   1       2.435   1.664  -8.448  0.00  0.00     0.027 H 
ATOM     58  H   LIG d   1       3.750   1.214  -9.560  0.00  0.00     0.027 H 
ATOM     59  H   LIG d   1       2.272   0.226  -9.484  0.00  0.00     0.027 H 
ENDBRANCH  55  56
BRANCH  55  60
ATOM     60  C   LIG d   1       2.937   0.282  -6.467  0.00  0.00    -0.025 C 
ATOM     61  H   LIG d   1       2.641  -0.648  -5.982  0.00  0.00     0.027 H 
ATOM     62  H   LIG d   1       3.639   0.818  -5.829  0.00  0.00     0.027 H 
ATOM     63  H   LIG d   1       2.054   0.900  -6.634  0.00  0.00     0.027 H 
ENDBRANCH  55  60
BRANCH  55  64
ATOM     64  C   LIG d   1       5.098   0.276  -7.720  0.00  0.00    -0.025 C 
ATOM     65  H   LIG d   1       5.595  -0.506  -7.145  0.00  0.00     0.027 H 
ATOM     66  H   LIG d   1       5.521   0.314  -8.724  0.00  0.00     0.027 H 
ATOM     67  H   LIG d   1       5.244   1.237  -7.228  0.00  0.00     0.027 H 
ENDBRANCH  55  64
ENDBRANCH  54  55
ENDBRANCH  51  54
ENDBRANCH   1  50
TORSDOF 12
ENDMDL
MODEL 6
REMARK VINA RESULT:      -6.8      3.944      8.076
REMARK  12 active torsions:
REMARK  status: ('A' for Active; 'I' for Inactive)
REMARK    1  A    between atoms: C_1  and  C_2 
REMARK    2  A    between atoms: C_6  and  O_8 
REMARK    3  A    between atoms: O_8  and  C_9 
REMARK    4  A    between atoms: C_9  and  C_11 
REMARK    5  A    between atoms: C_11  and  C_13 
REMARK    6  A    between atoms: C_11  and  N_24 
REMARK    7  A    between atoms: C_13  and  C_14 
REMARK       I    between atoms: N_24  and  C_25 
REMARK    8  A    between atoms: C_25  and  O_27 
REMARK    9  A    between atoms: O_27  and  C_28 
REMARK   10  A    between atoms: C_28  and  C_29 
REMARK   11  A    between atoms: C_28  and  C_30 
REMARK   12  A    between atoms: C_28  and  C_31 
ROOT
ATOM      1  C   LIG d   1       9.364   3.064  -5.326  0.00  0.00     0.128 C 
ATOM      2  H   LIG d   1      10.312   2.665  -4.962  0.00  0.00     0.062 H 
ENDROOT
BRANCH   1   3
ATOM      3  C   LIG d   1       8.320   1.978  -5.303  0.00  0.00     0.333 C 
ATOM      4  O   LIG d   1       7.541   1.870  -6.220  0.00  0.00    -0.248 OA
BRANCH   3   5
ATOM      5  O   LIG d   1       8.256   1.129  -4.264  0.00  0.00    -0.424 OA
BRANCH   5   6
ATOM      6  C   LIG d   1       8.163  -0.194  -4.555  0.00  0.00     0.143 A 
ATOM      7  C   LIG d   1       7.039  -0.930  -4.149  0.00  0.00     0.063 A 
ATOM      8  C   LIG d   1       6.950  -2.299  -4.455  0.00  0.00     0.143 A 
ATOM      9  C   LIG d   1       5.949  -0.294  -3.406  0.00  0.00    -0.023 A 
ATOM     10  C   LIG d   1       7.979  -2.911  -5.158  0.00  0.00    -0.015 A 
ATOM     11  O   LIG d   1       5.866  -3.003  -4.064  0.00  0.00    -0.422 OA
ATOM     12  C   LIG d   1       9.080  -2.177  -5.552  0.00  0.00    -0.043 A 
ATOM     13  H   LIG d   1       7.917  -3.962  -5.396  0.00  0.00     0.066 H 
ATOM     14  C   LIG d   1       9.175  -0.828  -5.254  0.00  0.00    -0.015 A 
ATOM     15  H   LIG d   1      10.043  -0.268  -5.569  0.00  0.00     0.066 H 
ATOM     16  C   LIG d   1       4.864  -2.427  -3.384  0.00  0.00     0.341 A 
ATOM     17  C   LIG d   1       4.887  -1.055  -3.042  0.00  0.00     0.041 A 
ATOM     18  O   LIG d   1       3.907  -3.103  -3.055  0.00  0.00    -0.245 OA
ATOM     19  C   LIG d   1       3.879  -0.213  -2.290  0.00  0.00    -0.020 C 
ATOM     20  C   LIG d   1       4.653   1.054  -1.864  0.00  0.00    -0.045 C 
ATOM     21  H   LIG d   1       3.047   0.053  -2.941  0.00  0.00     0.032 H 
ATOM     22  H   LIG d   1       3.518  -0.748  -1.412  0.00  0.00     0.032 H 
ATOM     23  C   LIG d   1       5.762   1.130  -2.935  0.00  0.00    -0.026 C 
ATOM     24  H   LIG d   1       4.010   1.935  -1.905  0.00  0.00     0.027 H 
ATOM     25  H   LIG d   1       5.080   0.932  -0.868  0.00  0.00     0.027 H 
ATOM     26  H   LIG d   1       6.685   1.509  -2.498  0.00  0.00     0.031 H 
ATOM     27  H   LIG d   1       5.445   1.764  -3.764  0.00  0.00     0.031 H 
BRANCH  12  28
ATOM     28  C   LIG d   1      10.191  -2.851  -6.313  0.00  0.00    -0.040 C 
ATOM     29  H   LIG d   1      11.094  -2.863  -5.703  0.00  0.00     0.028 H 
ATOM     30  H   LIG d   1       9.901  -3.874  -6.552  0.00  0.00     0.028 H 
ATOM     31  H   LIG d   1      10.383  -2.303  -7.237  0.00  0.00     0.028 H 
ENDBRANCH  12  28
ENDBRANCH   5   6
ENDBRANCH   3   5
ENDBRANCH   1   3
BRANCH   1  32
ATOM     32  C   LIG d   1       8.919   4.220  -4.427  0.00  0.00     0.003 C 
ATOM     33  H   LIG d   1       8.982   5.155  -4.982  0.00  0.00     0.034 H 
ATOM     34  H   LIG d   1       7.890   4.055  -4.109  0.00  0.00     0.034 H 
BRANCH  32  35
ATOM     35  C   LIG d   1       9.814   4.290  -3.218  0.00  0.00    -0.020 A 
ATOM     36  C   LIG d   1       9.961   5.429  -2.308  0.00  0.00     0.003 A 
ATOM     37  C   LIG d   1      10.897   5.032  -1.336  0.00  0.00     0.047 A 
ATOM     38  C   LIG d   1       9.393   6.702  -2.248  0.00  0.00    -0.052 A 
ATOM     39  N   LIG d   1      11.281   3.746  -1.644  0.00  0.00    -0.360 N 
ATOM     40  C   LIG d   1      11.246   5.919  -0.323  0.00  0.00    -0.038 A 
ATOM     41  C   LIG d   1      10.622   3.319  -2.765  0.00  0.00     0.006 A 
ATOM     42  H   LIG d   1      11.922   3.219  -1.140  0.00  0.00     0.165 HD
ATOM     43  H   LIG d   1      10.737   2.346  -3.219  0.00  0.00     0.081 H 
ATOM     44  C   LIG d   1      10.673   7.171  -0.282  0.00  0.00    -0.060 A 
ATOM     45  H   LIG d   1      11.964   5.627   0.430  0.00  0.00     0.064 H 
ATOM     46  C   LIG d   1       9.749   7.557  -1.243  0.00  0.00    -0.061 A 
ATOM     47  H   LIG d   1      10.945   7.857   0.505  0.00  0.00     0.062 H 
ATOM     48  H   LIG d   1       9.309   8.543  -1.198  0.00  0.00     0.062 H 
ATOM     49  H   LIG d   1       8.673   7.010  -2.993  0.00  0.00     0.062 H 
ENDBRANCH  32  35
ENDBRANCH   1  32
BRANCH   1  50
ATOM     50  N   LIG d   1       9.535   3.549  -6.697  0.00  0.00    -0.268 N 
ATOM     51  C   LIG d   1      10.716   4.070  -7.085  0.00  0.00     0.401 C 
ATOM     52  O   LIG d   1      11.639   4.136  -6.297  0.00  0.00    -0.226 OA
ATOM     53  H   LIG d   1       8.799   3.496  -7.326  0.00  0.00     0.153 HD
BRANCH  51  54
ATOM     54  O   LIG d   1      10.874   4.516  -8.346  0.00  0.00    -0.445 OA
BRANCH  54  55
ATOM     55  C   LIG d   1      10.269   5.796  -8.672  0.00  0.00     0.107 C 
BRANCH  55  56
ATOM     56  C   LIG d   1       9.982   6.569  -7.384  0.00  0.00    -0.025 C 
ATOM     57  H   LIG d   1       8.909   6.729  -7.288  0.00  0.00     0.027 H 
ATOM     58  H   LIG d   1      10.342   5.996  -6.529  0.00  0.00     0.027 H 
ATOM     59  H   LIG d   1      10.492   7.531  -7.416  0.00  0.00     0.027 H 
ENDBRANCH  55  56
BRANCH  55  60
ATOM     60  C   LIG d   1      11.227   6.604  -9.550  0.00  0.00    -0.025 C 
ATOM     61  H   LIG d   1      11.214   6.206 -10.565  0.00  0.00     0.027 H 
ATOM     62  H   LIG d   1      10.914   7.647  -9.565  0.00  0.00     0.027 H 
ATOM     63  H   LIG d   1      12.236   6.533  -9.145  0.00  0.00     0.027 H 
ENDBRANCH  55  60
BRANCH  55  64
ATOM     64  C   LIG d   1       8.960   5.561  -9.429  0.00  0.00    -0.025 C 
ATOM     65  H   LIG d   1       8.125   5.586  -8.728  0.00  0.00     0.027 H 
ATOM     66  H   LIG d   1       8.829   6.343 -10.179  0.00  0.00     0.027 H 
ATOM     67  H   LIG d   1       8.992   4.589  -9.921  0.00  0.00     0.027 H 
ENDBRANCH  55  64
ENDBRANCH  54  55
ENDBRANCH  51  54
ENDBRANCH   1  50
TORSDOF 12
ENDMDL
MODEL 7
REMARK VINA RESULT:      -6.8      2.960      6.751
REMARK  12 active torsions:
REMARK  status: ('A' for Active; 'I' for Inactive)
REMARK    1  A    between atoms: C_1  and  C_2 
REMARK    2  A    between atoms: C_6  and  O_8 
REMARK    3  A    between atoms: O_8  and  C_9 
REMARK    4  A    between atoms: C_9  and  C_11 
REMARK    5  A    between atoms: C_11  and  C_13 
REMARK    6  A    between atoms: C_11  and  N_24 
REMARK    7  A    between atoms: C_13  and  C_14 
REMARK       I    between atoms: N_24  and  C_25 
REMARK    8  A    between atoms: C_25  and  O_27 
REMARK    9  A    between atoms: O_27  and  C_28 
REMARK   10  A    between atoms: C_28  and  C_29 
REMARK   11  A    between atoms: C_28  and  C_30 
REMARK   12  A    between atoms: C_28  and  C_31 
ROOT
ATOM      1  C   LIG d   1       3.551   0.242  -7.446  0.00  0.00     0.128 C 
ATOM      2  H   LIG d   1       4.358  -0.490  -7.489  0.00  0.00     0.062 H 
ENDROOT
BRANCH   1   3
ATOM      3  C   LIG d   1       3.961   1.486  -8.191  0.00  0.00     0.333 C 
ATOM      4  O   LIG d   1       3.190   2.410  -8.293  0.00  0.00    -0.248 OA
BRANCH   3   5
ATOM      5  O   LIG d   1       5.185   1.568  -8.740  0.00  0.00    -0.424 OA
BRANCH   5   6
ATOM      6  C   LIG d   1       5.498   0.646  -9.685  0.00  0.00     0.143 A 
ATOM      7  C   LIG d   1       6.540  -0.267  -9.465  0.00  0.00     0.063 A 
ATOM      8  C   LIG d   1       6.858  -1.220 -10.449  0.00  0.00     0.143 A 
ATOM      9  C   LIG d   1       7.310  -0.247  -8.219  0.00  0.00    -0.023 A 
ATOM     10  C   LIG d   1       6.134  -1.246 -11.633  0.00  0.00    -0.015 A 
ATOM     11  O   LIG d   1       7.861  -2.098 -10.232  0.00  0.00    -0.422 OA
ATOM     12  C   LIG d   1       5.111  -0.343 -11.840  0.00  0.00    -0.043 A 
ATOM     13  H   LIG d   1       6.373  -1.974 -12.394  0.00  0.00     0.066 H 
ATOM     14  C   LIG d   1       4.793   0.599 -10.875  0.00  0.00    -0.015 A 
ATOM     15  H   LIG d   1       3.989   1.299 -11.051  0.00  0.00     0.066 H 
ATOM     16  C   LIG d   1       8.569  -2.085  -9.093  0.00  0.00     0.341 A 
ATOM     17  C   LIG d   1       8.305  -1.156  -8.061  0.00  0.00     0.041 A 
ATOM     18  O   LIG d   1       9.463  -2.898  -8.944  0.00  0.00    -0.245 OA
ATOM     19  C   LIG d   1       8.971  -0.966  -6.715  0.00  0.00    -0.020 C 
ATOM     20  C   LIG d   1       8.547   0.445  -6.252  0.00  0.00    -0.045 C 
ATOM     21  H   LIG d   1       8.618  -1.717  -6.009  0.00  0.00     0.032 H 
ATOM     22  H   LIG d   1      10.055  -1.020  -6.818  0.00  0.00     0.032 H 
ATOM     23  C   LIG d   1       7.211   0.641  -7.000  0.00  0.00    -0.026 C 
ATOM     24  H   LIG d   1       8.396   0.471  -5.172  0.00  0.00     0.027 H 
ATOM     25  H   LIG d   1       9.279   1.192  -6.560  0.00  0.00     0.027 H 
ATOM     26  H   LIG d   1       7.093   1.683  -7.299  0.00  0.00     0.031 H 
ATOM     27  H   LIG d   1       6.375   0.329  -6.373  0.00  0.00     0.031 H 
BRANCH  12  28
ATOM     28  C   LIG d   1       4.333  -0.379 -13.129  0.00  0.00    -0.040 C 
ATOM     29  H   LIG d   1       4.299   0.621 -13.561  0.00  0.00     0.028 H 
ATOM     30  H   LIG d   1       4.818  -1.060 -13.827  0.00  0.00     0.028 H 
ATOM     31  H   LIG d   1       3.317  -0.725 -12.931  0.00  0.00     0.028 H 
ENDBRANCH  12  28
ENDBRANCH   5   6
ENDBRANCH   3   5
ENDBRANCH   1   3
BRANCH   1  32
ATOM     32  C   LIG d   1       2.293  -0.347  -8.088  0.00  0.00     0.003 C 
ATOM     33  H   LIG d   1       1.615  -0.690  -7.307  0.00  0.00     0.034 H 
ATOM     34  H   LIG d   1       1.800   0.419  -8.687  0.00  0.00     0.034 H 
BRANCH  32  35
ATOM     35  C   LIG d   1       2.675  -1.507  -8.969  0.00  0.00    -0.020 A 
ATOM     36  C   LIG d   1       2.144  -1.798 -10.304  0.00  0.00     0.003 A 
ATOM     37  C   LIG d   1       2.793  -2.970 -10.733  0.00  0.00     0.047 A 
ATOM     38  C   LIG d   1       1.208  -1.178 -11.132  0.00  0.00    -0.052 A 
ATOM     39  N   LIG d   1       3.650  -3.352  -9.725  0.00  0.00    -0.360 N 
ATOM     40  C   LIG d   1       2.489  -3.499 -11.983  0.00  0.00    -0.038 A 
ATOM     41  C   LIG d   1       3.569  -2.465  -8.685  0.00  0.00     0.006 A 
ATOM     42  H   LIG d   1       4.227  -4.131  -9.749  0.00  0.00     0.165 HD
ATOM     43  H   LIG d   1       4.140  -2.529  -7.771  0.00  0.00     0.081 H 
ATOM     44  C   LIG d   1       1.562  -2.870 -12.785  0.00  0.00    -0.060 A 
ATOM     45  H   LIG d   1       2.980  -4.399 -12.325  0.00  0.00     0.064 H 
ATOM     46  C   LIG d   1       0.925  -1.714 -12.357  0.00  0.00    -0.061 A 
ATOM     47  H   LIG d   1       1.327  -3.282 -13.754  0.00  0.00     0.062 H 
ATOM     48  H   LIG d   1       0.199  -1.234 -12.997  0.00  0.00     0.062 H 
ATOM     49  H   LIG d   1       0.708  -0.277 -10.806  0.00  0.00     0.062 H 
ENDBRANCH  32  35
ENDBRANCH   1  32
BRANCH   1  50
ATOM     50  N   LIG d   1       3.274   0.579  -6.047  0.00  0.00    -0.268 N 
ATOM     51  C   LIG d   1       3.614  -0.281  -5.067  0.00  0.00     0.401 C 
ATOM     52  O   LIG d   1       4.151  -1.336  -5.344  0.00  0.00    -0.226 OA
ATOM     53  H   LIG d   1       2.846   1.421  -5.826  0.00  0.00     0.153 HD
BRANCH  51  54
ATOM     54  O   LIG d   1       3.359   0.028  -3.782  0.00  0.00    -0.445 OA
BRANCH  54  55
ATOM     55  C   LIG d   1       4.474  -0.043  -2.853  0.00  0.00     0.107 C 
BRANCH  55  56
ATOM     56  C   LIG d   1       5.787   0.128  -3.618  0.00  0.00    -0.025 C 
ATOM     57  H   LIG d   1       6.041  -0.806  -4.118  0.00  0.00     0.027 H 
ATOM     58  H   LIG d   1       5.675   0.919  -4.359  0.00  0.00     0.027 H 
ATOM     59  H   LIG d   1       6.581   0.394  -2.920  0.00  0.00     0.027 H 
ENDBRANCH  55  56
BRANCH  55  60
ATOM     60  C   LIG d   1       4.341   1.068  -1.810  0.00  0.00    -0.025 C 
ATOM     61  H   LIG d   1       3.458   1.669  -2.029  0.00  0.00     0.027 H 
ATOM     62  H   LIG d   1       4.245   0.627  -0.819  0.00  0.00     0.027 H 
ATOM     63  H   LIG d   1       5.228   1.702  -1.841  0.00  0.00     0.027 H 
ENDBRANCH  55  60
BRANCH  55  64
ATOM     64  C   LIG d   1       4.465  -1.404  -2.151  0.00  0.00    -0.025 C 
ATOM     65  H   LIG d   1       4.703  -1.269  -1.096  0.00  0.00     0.027 H 
ATOM     66  H   LIG d   1       3.477  -1.855  -2.247  0.00  0.00     0.027 H 
ATOM     67  H   LIG d   1       5.208  -2.055  -2.611  0.00  0.00     0.027 H 
ENDBRANCH  55  64
ENDBRANCH  54  55
ENDBRANCH  51  54
ENDBRANCH   1  50
TORSDOF 12
ENDMDL
MODEL 8
REMARK VINA RESULT:      -6.8      2.642      5.244
REMARK  12 active torsions:
REMARK  status: ('A' for Active; 'I' for Inactive)
REMARK    1  A    between atoms: C_1  and  C_2 
REMARK    2  A    between atoms: C_6  and  O_8 
REMARK    3  A    between atoms: O_8  and  C_9 
REMARK    4  A    between atoms: C_9  and  C_11 
REMARK    5  A    between atoms: C_11  and  C_13 
REMARK    6  A    between atoms: C_11  and  N_24 
REMARK    7  A    between atoms: C_13  and  C_14 
REMARK       I    between atoms: N_24  and  C_25 
REMARK    8  A    between atoms: C_25  and  O_27 
REMARK    9  A    between atoms: O_27  and  C_28 
REMARK   10  A    between atoms: C_28  and  C_29 
REMARK   11  A    between atoms: C_28  and  C_30 
REMARK   12  A    between atoms: C_28  and  C_31 
ROOT
ATOM      1  C   LIG d   1       7.212  -1.072  -6.302  0.00  0.00     0.128 C 
ATOM      2  H   LIG d   1       7.225  -0.080  -5.851  0.00  0.00     0.062 H 
ENDROOT
BRANCH   1   3
ATOM      3  C   LIG d   1       8.524  -1.327  -6.996  0.00  0.00     0.333 C 
ATOM      4  O   LIG d   1       8.674  -2.327  -7.657  0.00  0.00    -0.248 OA
BRANCH   3   5
ATOM      5  O   LIG d   1       9.528  -0.441  -6.882  0.00  0.00    -0.424 OA
BRANCH   5   6
ATOM      6  C   LIG d   1       9.576   0.556  -7.803  0.00  0.00     0.143 A 
ATOM      7  C   LIG d   1       9.588   1.897  -7.393  0.00  0.00     0.063 A 
ATOM      8  C   LIG d   1       9.640   2.924  -8.353  0.00  0.00     0.143 A 
ATOM      9  C   LIG d   1       9.547   2.253  -5.972  0.00  0.00    -0.023 A 
ATOM     10  C   LIG d   1       9.678   2.597  -9.701  0.00  0.00    -0.015 A 
ATOM     11  O   LIG d   1       9.653   4.214  -7.953  0.00  0.00    -0.422 OA
ATOM     12  C   LIG d   1       9.666   1.274 -10.093  0.00  0.00    -0.043 A 
ATOM     13  H   LIG d   1       9.717   3.380 -10.444  0.00  0.00     0.066 H 
ATOM     14  C   LIG d   1       9.615   0.257  -9.153  0.00  0.00    -0.015 A 
ATOM     15  H   LIG d   1       9.606  -0.774  -9.476  0.00  0.00     0.066 H 
ATOM     16  C   LIG d   1       9.616   4.546  -6.655  0.00  0.00     0.341 A 
ATOM     17  C   LIG d   1       9.563   3.567  -5.636  0.00  0.00     0.041 A 
ATOM     18  O   LIG d   1       9.630   5.723  -6.344  0.00  0.00    -0.245 OA
ATOM     19  C   LIG d   1       9.515   3.716  -4.130  0.00  0.00    -0.020 C 
ATOM     20  C   LIG d   1       9.032   2.346  -3.605  0.00  0.00    -0.045 C 
ATOM     21  H   LIG d   1      10.507   3.942  -3.741  0.00  0.00     0.032 H 
ATOM     22  H   LIG d   1       8.809   4.499  -3.850  0.00  0.00     0.032 H 
ATOM     23  C   LIG d   1       9.485   1.393  -4.732  0.00  0.00    -0.026 C 
ATOM     24  H   LIG d   1       9.521   2.097  -2.663  0.00  0.00     0.027 H 
ATOM     25  H   LIG d   1       7.948   2.332  -3.495  0.00  0.00     0.027 H 
ATOM     26  H   LIG d   1       8.760   0.589  -4.862  0.00  0.00     0.031 H 
ATOM     27  H   LIG d   1      10.470   0.982  -4.507  0.00  0.00     0.031 H 
BRANCH  12  28
ATOM     28  C   LIG d   1       9.707   0.930 -11.559  0.00  0.00    -0.040 C 
ATOM     29  H   LIG d   1       9.088   0.052 -11.744  0.00  0.00     0.028 H 
ATOM     30  H   LIG d   1       9.329   1.770 -12.141  0.00  0.00     0.028 H 
ATOM     31  H   LIG d   1      10.736   0.717 -11.854  0.00  0.00     0.028 H 
ENDBRANCH  12  28
ENDBRANCH   5   6
ENDBRANCH   3   5
ENDBRANCH   1   3
BRANCH   1  32
ATOM     32  C   LIG d   1       6.997  -2.125  -5.212  0.00  0.00     0.003 C 
ATOM     33  H   LIG d   1       7.030  -3.119  -5.657  0.00  0.00     0.034 H 
ATOM     34  H   LIG d   1       7.784  -2.036  -4.463  0.00  0.00     0.034 H 
BRANCH  32  35
ATOM     35  C   LIG d   1       5.657  -1.908  -4.561  0.00  0.00    -0.020 A 
ATOM     36  C   LIG d   1       5.255  -0.748  -3.761  0.00  0.00     0.003 A 
ATOM     37  C   LIG d   1       3.926  -0.988  -3.369  0.00  0.00     0.047 A 
ATOM     38  C   LIG d   1       5.896   0.427  -3.365  0.00  0.00    -0.052 A 
ATOM     39  N   LIG d   1       3.560  -2.206  -3.897  0.00  0.00    -0.360 N 
ATOM     40  C   LIG d   1       3.265  -0.047  -2.586  0.00  0.00    -0.038 A 
ATOM     41  C   LIG d   1       4.602  -2.736  -4.608  0.00  0.00     0.006 A 
ATOM     42  H   LIG d   1       2.692  -2.625  -3.785  0.00  0.00     0.165 HD
ATOM     43  H   LIG d   1       4.580  -3.682  -5.128  0.00  0.00     0.081 H 
ATOM     44  C   LIG d   1       3.916   1.107  -2.207  0.00  0.00    -0.060 A 
ATOM     45  H   LIG d   1       2.244  -0.219  -2.278  0.00  0.00     0.064 H 
ATOM     46  C   LIG d   1       5.228   1.338  -2.597  0.00  0.00    -0.061 A 
ATOM     47  H   LIG d   1       3.402   1.836  -1.600  0.00  0.00     0.062 H 
ATOM     48  H   LIG d   1       5.725   2.247  -2.290  0.00  0.00     0.062 H 
ATOM     49  H   LIG d   1       6.917   0.614  -3.664  0.00  0.00     0.062 H 
ENDBRANCH  32  35
ENDBRANCH   1  32
BRANCH   1  50
ATOM     50  N   LIG d   1       6.120  -1.149  -7.277  0.00  0.00    -0.268 N 
ATOM     51  C   LIG d   1       5.607  -0.020  -7.803  0.00  0.00     0.401 C 
ATOM     52  O   LIG d   1       6.049   1.062  -7.469  0.00  0.00    -0.226 OA
ATOM     53  H   LIG d   1       5.768  -2.012  -7.543  0.00  0.00     0.153 HD
BRANCH  51  54
ATOM     54  O   LIG d   1       4.603  -0.090  -8.698  0.00  0.00    -0.445 OA
BRANCH  54  55
ATOM     55  C   LIG d   1       3.290   0.342  -8.253  0.00  0.00     0.107 C 
BRANCH  55  56
ATOM     56  C   LIG d   1       3.164   0.119  -6.745  0.00  0.00    -0.025 C 
ATOM     57  H   LIG d   1       2.858  -0.910  -6.554  0.00  0.00     0.027 H 
ATOM     58  H   LIG d   1       4.126   0.305  -6.268  0.00  0.00     0.027 H 
ATOM     59  H   LIG d   1       2.419   0.802  -6.338  0.00  0.00     0.027 H 
ENDBRANCH  55  56
BRANCH  55  60
ATOM     60  C   LIG d   1       3.109   1.828  -8.566  0.00  0.00    -0.025 C 
ATOM     61  H   LIG d   1       4.073   2.334  -8.505  0.00  0.00     0.027 H 
ATOM     62  H   LIG d   1       2.701   1.942  -9.570  0.00  0.00     0.027 H 
ATOM     63  H   LIG d   1       2.422   2.269  -7.843  0.00  0.00     0.027 H 
ENDBRANCH  55  60
BRANCH  55  64
ATOM     64  C   LIG d   1       2.214  -0.467  -8.981  0.00  0.00    -0.025 C 
ATOM     65  H   LIG d   1       2.353  -1.528  -8.770  0.00  0.00     0.027 H 
ATOM     66  H   LIG d   1       1.229  -0.153  -8.635  0.00  0.00     0.027 H 
ATOM     67  H   LIG d   1       2.294  -0.297 -10.054  0.00  0.00     0.027 H 
ENDBRANCH  55  64
ENDBRANCH  54  55
ENDBRANCH  51  54
ENDBRANCH   1  50
TORSDOF 12
ENDMDL
MODEL 9
REMARK VINA RESULT:      -6.7      2.952      6.632
REMARK  12 active torsions:
REMARK  status: ('A' for Active; 'I' for Inactive)
REMARK    1  A    between atoms: C_1  and  C_2 
REMARK    2  A    between atoms: C_6  and  O_8 
REMARK    3  A    between atoms: O_8  and  C_9 
REMARK    4  A    between atoms: C_9  and  C_11 
REMARK    5  A    between atoms: C_11  and  C_13 
REMARK    6  A    between atoms: C_11  and  N_24 
REMARK    7  A    between atoms: C_13  and  C_14 
REMARK       I    between atoms: N_24  and  C_25 
REMARK    8  A    between atoms: C_25  and  O_27 
REMARK    9  A    between atoms: O_27  and  C_28 
REMARK   10  A    between atoms: C_28  and  C_29 
REMARK   11  A    between atoms: C_28  and  C_30 
REMARK   12  A    between atoms: C_28  and  C_31 
ROOT
ATOM      1  C   LIG d   1       4.331  -0.172  -7.398  0.00  0.00     0.128 C 
ATOM      2  H   LIG d   1       4.669  -1.196  -7.560  0.00  0.00     0.062 H 
ENDROOT
BRANCH   1   3
ATOM      3  C   LIG d   1       5.027   0.747  -8.369  0.00  0.00     0.333 C 
ATOM      4  O   LIG d   1       4.613   1.868  -8.542  0.00  0.00    -0.248 OA
BRANCH   3   5
ATOM      5  O   LIG d   1       6.110   0.319  -9.039  0.00  0.00    -0.424 OA
BRANCH   5   6
ATOM      6  C   LIG d   1       5.895  -0.521 -10.083  0.00  0.00     0.143 A 
ATOM      7  C   LIG d   1       6.408  -1.827 -10.057  0.00  0.00     0.063 A 
ATOM      8  C   LIG d   1       6.180  -2.692 -11.142  0.00  0.00     0.143 A 
ATOM      9  C   LIG d   1       7.184  -2.310  -8.912  0.00  0.00    -0.023 A 
ATOM     10  C   LIG d   1       5.447  -2.243 -12.231  0.00  0.00    -0.015 A 
ATOM     11  O   LIG d   1       6.675  -3.948 -11.112  0.00  0.00    -0.422 OA
ATOM     12  C   LIG d   1       4.947  -0.956 -12.247  0.00  0.00    -0.043 A 
ATOM     13  H   LIG d   1       5.269  -2.901 -13.069  0.00  0.00     0.066 H 
ATOM     14  C   LIG d   1       5.168  -0.098 -11.181  0.00  0.00    -0.015 A 
ATOM     15  H   LIG d   1       4.770   0.906 -11.209  0.00  0.00     0.066 H 
ATOM     16  C   LIG d   1       7.385  -4.397 -10.067  0.00  0.00     0.341 A 
ATOM     17  C   LIG d   1       7.653  -3.583  -8.942  0.00  0.00     0.041 A 
ATOM     18  O   LIG d   1       7.809  -5.538 -10.086  0.00  0.00    -0.245 OA
ATOM     19  C   LIG d   1       8.422  -3.881  -7.673  0.00  0.00    -0.020 C 
ATOM     20  C   LIG d   1       8.732  -2.500  -7.056  0.00  0.00    -0.045 C 
ATOM     21  H   LIG d   1       7.811  -4.471  -6.991  0.00  0.00     0.032 H 
ATOM     22  H   LIG d   1       9.348  -4.408  -7.906  0.00  0.00     0.032 H 
ATOM     23  C   LIG d   1       7.591  -1.630  -7.626  0.00  0.00    -0.026 C 
ATOM     24  H   LIG d   1       8.686  -2.540  -5.968  0.00  0.00     0.027 H 
ATOM     25  H   LIG d   1       9.704  -2.135  -7.390  0.00  0.00     0.027 H 
ATOM     26  H   LIG d   1       7.949  -0.620  -7.827  0.00  0.00     0.031 H 
ATOM     27  H   LIG d   1       6.751  -1.603  -6.930  0.00  0.00     0.031 H 
BRANCH  12  28
ATOM     28  C   LIG d   1       4.154  -0.478 -13.435  0.00  0.00    -0.040 C 
ATOM     29  H   LIG d   1       3.515   0.352 -13.135  0.00  0.00     0.028 H 
ATOM     30  H   LIG d   1       4.835  -0.148 -14.218  0.00  0.00     0.028 H 
ATOM     31  H   LIG d   1       3.536  -1.295 -13.811  0.00  0.00     0.028 H 
ENDBRANCH  12  28
ENDBRANCH   5   6
ENDBRANCH   3   5
ENDBRANCH   1   3
BRANCH   1  32
ATOM     32  C   LIG d   1       2.818  -0.093  -7.617  0.00  0.00     0.003 C 
ATOM     33  H   LIG d   1       2.305  -0.496  -6.745  0.00  0.00     0.034 H 
ATOM     34  H   LIG d   1       2.527   0.947  -7.762  0.00  0.00     0.034 H 
BRANCH  32  35
ATOM     35  C   LIG d   1       2.445  -0.895  -8.836  0.00  0.00    -0.020 A 
ATOM     36  C   LIG d   1       2.829  -2.280  -9.119  0.00  0.00     0.003 A 
ATOM     37  C   LIG d   1       2.250  -2.598 -10.361  0.00  0.00     0.047 A 
ATOM     38  C   LIG d   1       3.588  -3.234  -8.440  0.00  0.00    -0.052 A 
ATOM     39  N   LIG d   1       1.568  -1.480 -10.789  0.00  0.00    -0.360 N 
ATOM     40  C   LIG d   1       2.444  -3.866 -10.900  0.00  0.00    -0.038 A 
ATOM     41  C   LIG d   1       1.692  -0.478  -9.866  0.00  0.00     0.006 A 
ATOM     42  H   LIG d   1       1.072  -1.414 -11.621  0.00  0.00     0.165 HD
ATOM     43  H   LIG d   1       1.250   0.503  -9.954  0.00  0.00     0.081 H 
ATOM     44  C   LIG d   1       3.197  -4.793 -10.213  0.00  0.00    -0.060 A 
ATOM     45  H   LIG d   1       2.006  -4.123 -11.853  0.00  0.00     0.064 H 
ATOM     46  C   LIG d   1       3.765  -4.474  -8.987  0.00  0.00    -0.061 A 
ATOM     47  H   LIG d   1       3.347  -5.776 -10.632  0.00  0.00     0.062 H 
ATOM     48  H   LIG d   1       4.354  -5.212  -8.461  0.00  0.00     0.062 H 
ATOM     49  H   LIG d   1       4.033  -2.994  -7.486  0.00  0.00     0.062 H 
ENDBRANCH  32  35
ENDBRANCH   1  32
BRANCH   1  50
ATOM     50  N   LIG d   1       4.648   0.235  -6.027  0.00  0.00    -0.268 N 
ATOM     51  C   LIG d   1       4.893  -0.700  -5.087  0.00  0.00     0.401 C 
ATOM     52  O   LIG d   1       4.852  -1.879  -5.378  0.00  0.00    -0.226 OA
ATOM     53  H   LIG d   1       4.681   1.175  -5.795  0.00  0.00     0.153 HD
BRANCH  51  54
ATOM     54  O   LIG d   1       5.184  -0.327  -3.827  0.00  0.00    -0.445 OA
BRANCH  54  55
ATOM     55  C   LIG d   1       4.107  -0.392  -2.855  0.00  0.00     0.107 C 
BRANCH  55  56
ATOM     56  C   LIG d   1       4.156   0.844  -1.955  0.00  0.00    -0.025 C 
ATOM     57  H   LIG d   1       3.239   1.419  -2.077  0.00  0.00     0.027 H 
ATOM     58  H   LIG d   1       4.254   0.532  -0.915  0.00  0.00     0.027 H 
ATOM     59  H   LIG d   1       5.012   1.460  -2.231  0.00  0.00     0.027 H 
ENDBRANCH  55  56
BRANCH  55  60
ATOM     60  C   LIG d   1       2.763  -0.439  -3.584  0.00  0.00    -0.025 C 
ATOM     61  H   LIG d   1       2.333   0.562  -3.620  0.00  0.00     0.027 H 
ATOM     62  H   LIG d   1       2.912  -0.807  -4.598  0.00  0.00     0.027 H 
ATOM     63  H   LIG d   1       2.085  -1.106  -3.052  0.00  0.00     0.027 H 
ENDBRANCH  55  60
BRANCH  55  64
ATOM     64  C   LIG d   1       4.267  -1.652  -2.001  0.00  0.00    -0.025 C 
ATOM     65  H   LIG d   1       4.583  -1.371  -0.996  0.00  0.00     0.027 H 
ATOM     66  H   LIG d   1       3.314  -2.179  -1.949  0.00  0.00     0.027 H 
ATOM     67  H   LIG d   1       5.018  -2.302  -2.449  0.00  0.00     0.027 H 
ENDBRANCH  55  64
ENDBRANCH  54  55
ENDBRANCH  51  54
ENDBRANCH   1  50
TORSDOF 12
ENDMDL
MODEL 10
REMARK VINA RESULT:      -6.7      2.786      6.503
REMARK  12 active torsions:
REMARK  status: ('A' for Active; 'I' for Inactive)
REMARK    1  A    between atoms: C_1  and  C_2 
REMARK    2  A    between atoms: C_6  and  O_8 
REMARK    3  A    between atoms: O_8  and  C_9 
REMARK    4  A    between atoms: C_9  and  C_11 
REMARK    5  A    between atoms: C_11  and  C_13 
REMARK    6  A    between atoms: C_11  and  N_24 
REMARK    7  A    between atoms: C_13  and  C_14 
REMARK       I    between atoms: N_24  and  C_25 
REMARK    8  A    between atoms: C_25  and  O_27 
REMARK    9  A    between atoms: O_27  and  C_28 
REMARK   10  A    between atoms: C_28  and  C_29 
REMARK   11  A    between atoms: C_28  and  C_30 
REMARK   12  A    between atoms: C_28  and  C_31 
ROOT
ATOM      1  C   LIG d   1       4.923  -3.738  -5.878  0.00  0.00     0.128 C 
ATOM      2  H   LIG d   1       5.955  -3.528  -6.161  0.00  0.00     0.062 H 
ENDROOT
BRANCH   1   3
ATOM      3  C   LIG d   1       4.542  -5.116  -6.356  0.00  0.00     0.333 C 
ATOM      4  O   LIG d   1       3.384  -5.459  -6.348  0.00  0.00    -0.248 OA
BRANCH   3   5
ATOM      5  O   LIG d   1       5.490  -5.961  -6.794  0.00  0.00    -0.424 OA
BRANCH   5   6
ATOM      6  C   LIG d   1       6.722  -5.846  -6.236  0.00  0.00     0.143 A 
ATOM      7  C   LIG d   1       7.187  -6.822  -5.341  0.00  0.00     0.063 A 
ATOM      8  C   LIG d   1       8.465  -6.697  -4.769  0.00  0.00     0.143 A 
ATOM      9  C   LIG d   1       6.360  -7.979  -4.989  0.00  0.00    -0.023 A 
ATOM     10  C   LIG d   1       9.256  -5.604  -5.096  0.00  0.00    -0.015 A 
ATOM     11  O   LIG d   1       8.909  -7.639  -3.910  0.00  0.00    -0.422 OA
ATOM     12  C   LIG d   1       8.788  -4.650  -5.977  0.00  0.00    -0.043 A 
ATOM     13  H   LIG d   1      10.238  -5.500  -4.659  0.00  0.00     0.066 H 
ATOM     14  C   LIG d   1       7.530  -4.767  -6.545  0.00  0.00    -0.015 A 
ATOM     15  H   LIG d   1       7.179  -4.011  -7.232  0.00  0.00     0.066 H 
ATOM     16  C   LIG d   1       8.157  -8.701  -3.584  0.00  0.00     0.341 A 
ATOM     17  C   LIG d   1       6.864  -8.891  -4.121  0.00  0.00     0.041 A 
ATOM     18  O   LIG d   1       8.602  -9.524  -2.805  0.00  0.00    -0.245 OA
ATOM     19  C   LIG d   1       5.858  -9.999  -3.893  0.00  0.00    -0.020 C 
ATOM     20  C   LIG d   1       4.512  -9.430  -4.393  0.00  0.00    -0.045 C 
ATOM     21  H   LIG d   1       6.132 -10.883  -4.469  0.00  0.00     0.032 H 
ATOM     22  H   LIG d   1       5.795 -10.242  -2.832  0.00  0.00     0.032 H 
ATOM     23  C   LIG d   1       4.971  -8.381  -5.428  0.00  0.00    -0.026 C 
ATOM     24  H   LIG d   1       3.912 -10.208  -4.865  0.00  0.00     0.027 H 
ATOM     25  H   LIG d   1       3.963  -8.958  -3.578  0.00  0.00     0.027 H 
ATOM     26  H   LIG d   1       4.305  -7.519  -5.415  0.00  0.00     0.031 H 
ATOM     27  H   LIG d   1       5.002  -8.822  -6.426  0.00  0.00     0.031 H 
BRANCH  12  28
ATOM     28  C   LIG d   1       9.654  -3.467  -6.324  0.00  0.00    -0.040 C 
ATOM     29  H   LIG d   1      10.596  -3.535  -5.779  0.00  0.00     0.028 H 
ATOM     30  H   LIG d   1       9.853  -3.463  -7.395  0.00  0.00     0.028 H 
ATOM     31  H   LIG d   1       9.140  -2.546  -6.046  0.00  0.00     0.028 H 
ENDBRANCH  12  28
ENDBRANCH   5   6
ENDBRANCH   3   5
ENDBRANCH   1   3
BRANCH   1  32
ATOM     32  C   LIG d   1       4.787  -3.670  -4.356  0.00  0.00     0.003 C 
ATOM     33  H   LIG d   1       3.732  -3.665  -4.086  0.00  0.00     0.034 H 
ATOM     34  H   LIG d   1       5.272  -4.538  -3.909  0.00  0.00     0.034 H 
BRANCH  32  35
ATOM     35  C   LIG d   1       5.442  -2.413  -3.848  0.00  0.00    -0.020 A 
ATOM     36  C   LIG d   1       4.762  -1.237  -3.299  0.00  0.00     0.003 A 
ATOM     37  C   LIG d   1       5.777  -0.324  -2.960  0.00  0.00     0.047 A 
ATOM     38  C   LIG d   1       3.424  -0.905  -3.079  0.00  0.00    -0.052 A 
ATOM     39  N   LIG d   1       6.978  -0.913  -3.284  0.00  0.00    -0.360 N 
ATOM     40  C   LIG d   1       5.431   0.905  -2.407  0.00  0.00    -0.038 A 
ATOM     41  C   LIG d   1       6.759  -2.159  -3.807  0.00  0.00     0.006 A 
ATOM     42  H   LIG d   1       7.850  -0.507  -3.158  0.00  0.00     0.165 HD
ATOM     43  H   LIG d   1       7.531  -2.836  -4.140  0.00  0.00     0.081 H 
ATOM     44  C   LIG d   1       4.105   1.213  -2.198  0.00  0.00    -0.060 A 
ATOM     45  H   LIG d   1       6.201   1.616  -2.143  0.00  0.00     0.064 H 
ATOM     46  C   LIG d   1       3.107   0.308  -2.534  0.00  0.00    -0.061 A 
ATOM     47  H   LIG d   1       3.839   2.167  -1.769  0.00  0.00     0.062 H 
ATOM     48  H   LIG d   1       2.072   0.565  -2.365  0.00  0.00     0.062 H 
ATOM     49  H   LIG d   1       2.643  -1.604  -3.338  0.00  0.00     0.062 H 
ENDBRANCH  32  35
ENDBRANCH   1  32
BRANCH   1  50
ATOM     50  N   LIG d   1       4.038  -2.746  -6.492  0.00  0.00    -0.268 N 
ATOM     51  C   LIG d   1       4.521  -1.895  -7.419  0.00  0.00     0.401 C 
ATOM     52  O   LIG d   1       5.691  -1.952  -7.746  0.00  0.00    -0.226 OA
ATOM     53  H   LIG d   1       3.105  -2.700  -6.233  0.00  0.00     0.153 HD
BRANCH  51  54
ATOM     54  O   LIG d   1       3.708  -0.982  -7.984  0.00  0.00    -0.445 OA
BRANCH  54  55
ATOM     55  C   LIG d   1       3.143  -1.314  -9.280  0.00  0.00     0.107 C 
BRANCH  55  56
ATOM     56  C   LIG d   1       4.092  -0.849 -10.385  0.00  0.00    -0.025 C 
ATOM     57  H   LIG d   1       4.598  -1.713 -10.817  0.00  0.00     0.027 H 
ATOM     58  H   LIG d   1       3.523  -0.337 -11.160  0.00  0.00     0.027 H 
ATOM     59  H   LIG d   1       4.831  -0.167  -9.966  0.00  0.00     0.027 H 
ENDBRANCH  55  56
BRANCH  55  60
ATOM     60  C   LIG d   1       2.947  -2.828  -9.378  0.00  0.00    -0.025 C 
ATOM     61  H   LIG d   1       2.407  -3.067 -10.294  0.00  0.00     0.027 H 
ATOM     62  H   LIG d   1       3.919  -3.321  -9.390  0.00  0.00     0.027 H 
ATOM     63  H   LIG d   1       2.374  -3.176  -8.518  0.00  0.00     0.027 H 
ENDBRANCH  55  60
BRANCH  55  64
ATOM     64  C   LIG d   1       1.791  -0.614  -9.440  0.00  0.00    -0.025 C 
ATOM     65  H   LIG d   1       1.933   0.335  -9.956  0.00  0.00     0.027 H 
ATOM     66  H   LIG d   1       1.121  -1.249 -10.021  0.00  0.00     0.027 H 
ATOM     67  H   LIG d   1       1.357  -0.432  -8.457  0.00  0.00     0.027 H 
ENDBRANCH  55  64
ENDBRANCH  54  55
ENDBRANCH  51  54
ENDBRANCH   1  50
TORSDOF 12
ENDMDL
