MODEL 1
REMARK VINA RESULT:      -9.1      0.000      0.000
REMARK  3 active torsions:
REMARK  status: ('A' for Active; 'I' for Inactive)
REMARK    1  A    between atoms: C_10  and  C_11 
REMARK    2  A    between atoms: N_30  and  C_33 
REMARK    3  A    between atoms: C_33  and  C_34 
ROOT
ATOM      1  C   LIG d   1       7.398  -0.877  -5.764  0.00  0.00     0.093 C 
ATOM      2  H   LIG d   1       7.330  -1.962  -5.694  0.00  0.00     0.062 H 
ATOM      3  C   LIG d   1       8.849  -0.451  -5.769  0.00  0.00     0.046 A 
ATOM      4  C   LIG d   1       9.371   0.411  -6.667  0.00  0.00    -0.015 A 
ATOM      5  C   LIG d   1      10.773   0.566  -6.341  0.00  0.00     0.003 A 
ATOM      6  C   LIG d   1      11.802   1.321  -6.913  0.00  0.00    -0.052 A 
ATOM      7  C   LIG d   1      13.041   1.224  -6.329  0.00  0.00    -0.061 A 
ATOM      8  C   LIG d   1      13.274   0.421  -5.225  0.00  0.00    -0.060 A 
ATOM      9  C   LIG d   1      12.275  -0.337  -4.639  0.00  0.00    -0.038 A 
ATOM     10  C   LIG d   1      11.006  -0.259  -5.211  0.00  0.00     0.047 A 
ATOM     11  N   LIG d   1       9.821  -0.859  -4.894  0.00  0.00    -0.356 N 
ATOM     12  H   LIG d   1       9.689  -1.479  -4.161  0.00  0.00     0.166 HD
ATOM     13  C   LIG d   1       8.594   1.060  -7.785  0.00  0.00     0.002 C 
ATOM     14  C   LIG d   1       7.093   0.946  -7.475  0.00  0.00     0.107 A 
ATOM     15  H   LIG d   1       6.860   1.637  -6.665  0.00  0.00     0.060 H 
ATOM     16  N   LIG d   1       6.797  -0.416  -7.034  0.00  0.00    -0.276 N 
ATOM     17  C   LIG d   1       6.016  -1.251  -7.721  0.00  0.00     0.234 A 
ATOM     18  O   LIG d   1       5.891  -2.382  -7.302  0.00  0.00    -0.274 OA
ATOM     19  C   LIG d   1       5.286  -0.888  -8.973  0.00  0.00     0.092 A 
ATOM     20  N   LIG d   1       5.498   0.500  -9.345  0.00  0.00    -0.287 N 
ATOM     21  C   LIG d   1       6.302   1.331  -8.683  0.00  0.00     0.237 A 
ATOM     22  O   LIG d   1       6.401   2.469  -9.088  0.00  0.00    -0.274 OA
ATOM     23  H   LIG d   1      11.630   1.950  -7.774  0.00  0.00     0.062 H 
ATOM     24  H   LIG d   1      13.860   1.793  -6.744  0.00  0.00     0.062 H 
ATOM     25  H   LIG d   1      14.269   0.384  -4.807  0.00  0.00     0.062 H 
ATOM     26  H   LIG d   1      12.469  -0.959  -3.778  0.00  0.00     0.064 H 
ATOM     27  H   LIG d   1       8.873   2.110  -7.862  0.00  0.00     0.034 H 
ATOM     28  H   LIG d   1       8.814   0.554  -8.724  0.00  0.00     0.034 H 
ATOM     29  H   LIG d   1       4.220  -1.055  -8.822  0.00  0.00     0.056 H 
ATOM     30  H   LIG d   1       5.632  -1.529  -9.784  0.00  0.00     0.056 H 
ENDROOT
BRANCH   1  31
ATOM     31  C   LIG d   1       6.682  -0.243  -4.598  0.00  0.00    -0.013 A 
ATOM     32  C   LIG d   1       5.707  -0.966  -3.892  0.00  0.00    -0.013 A 
ATOM     33  C   LIG d   1       5.375  -2.284  -4.248  0.00  0.00    -0.054 A 
ATOM     34  C   LIG d   1       5.047  -0.354  -2.796  0.00  0.00    -0.018 A 
ATOM     35  C   LIG d   1       4.423  -2.953  -3.540  0.00  0.00    -0.061 A 
ATOM     36  H   LIG d   1       5.871  -2.764  -5.078  0.00  0.00     0.062 H 
ATOM     37  C   LIG d   1       3.772  -2.350  -2.465  0.00  0.00    -0.061 A 
ATOM     38  H   LIG d   1       4.169  -3.966  -3.816  0.00  0.00     0.062 H 
ATOM     39  C   LIG d   1       4.075  -1.079  -2.086  0.00  0.00    -0.054 A 
ATOM     40  H   LIG d   1       3.021  -2.904  -1.920  0.00  0.00     0.062 H 
ATOM     41  H   LIG d   1       3.562  -0.625  -1.251  0.00  0.00     0.062 H 
ATOM     42  C   LIG d   1       5.376   0.966  -2.444  0.00  0.00    -0.054 A 
ATOM     43  C   LIG d   1       6.323   1.637  -3.155  0.00  0.00    -0.061 A 
ATOM     44  H   LIG d   1       4.880   1.445  -1.613  0.00  0.00     0.062 H 
ATOM     45  C   LIG d   1       6.974   1.034  -4.229  0.00  0.00    -0.056 A 
ATOM     46  H   LIG d   1       6.573   2.651  -2.882  0.00  0.00     0.062 H 
ATOM     47  H   LIG d   1       7.722   1.588  -4.777  0.00  0.00     0.062 H 
ENDBRANCH   1  31
BRANCH  20  48
ATOM     48  C   LIG d   1       4.786   1.017 -10.517  0.00  0.00     0.043 C 
ATOM     49  H   LIG d   1       4.507   2.055 -10.344  0.00  0.00     0.051 H 
ATOM     50  H   LIG d   1       5.434   0.955 -11.392  0.00  0.00     0.051 H 
BRANCH  48  51
ATOM     51  C   LIG d   1       3.545   0.196 -10.752  0.00  0.00     0.005 A 
ATOM     52  C   LIG d   1       2.486   0.270  -9.863  0.00  0.00     0.128 A 
ATOM     53  C   LIG d   1       1.345  -0.483 -10.083  0.00  0.00    -0.026 A 
ATOM     54  F   LIG d   1       2.564   1.080  -8.785  0.00  0.00    -0.205 F 
ATOM     55  C   LIG d   1       1.268  -1.316 -11.182  0.00  0.00    -0.059 A 
ATOM     56  H   LIG d   1       0.517  -0.423  -9.391  0.00  0.00     0.065 H 
ATOM     57  C   LIG d   1       2.328  -1.394 -12.067  0.00  0.00    -0.061 A 
ATOM     58  H   LIG d   1       0.379  -1.906 -11.352  0.00  0.00     0.062 H 
ATOM     59  C   LIG d   1       3.465  -0.638 -11.852  0.00  0.00    -0.054 A 
ATOM     60  H   LIG d   1       2.267  -2.045 -12.926  0.00  0.00     0.062 H 
ATOM     61  H   LIG d   1       4.293  -0.700 -12.543  0.00  0.00     0.062 H 
ENDBRANCH  48  51
ENDBRANCH  20  48
TORSDOF 3
ENDMDL
MODEL 2
REMARK VINA RESULT:      -8.9      2.828      3.698
REMARK  3 active torsions:
REMARK  status: ('A' for Active; 'I' for Inactive)
REMARK    1  A    between atoms: C_10  and  C_11 
REMARK    2  A    between atoms: N_30  and  C_33 
REMARK    3  A    between atoms: C_33  and  C_34 
ROOT
ATOM      1  C   LIG d   1       6.949  -2.861  -4.449  0.00  0.00     0.093 C 
ATOM      2  H   LIG d   1       6.333  -3.333  -3.683  0.00  0.00     0.062 H 
ATOM      3  C   LIG d   1       8.341  -3.451  -4.424  0.00  0.00     0.046 A 
ATOM      4  C   LIG d   1       8.985  -3.889  -5.527  0.00  0.00    -0.015 A 
ATOM      5  C   LIG d   1      10.281  -4.373  -5.097  0.00  0.00     0.003 A 
ATOM      6  C   LIG d   1      11.360  -4.933  -5.787  0.00  0.00    -0.052 A 
ATOM      7  C   LIG d   1      12.458  -5.286  -5.041  0.00  0.00    -0.061 A 
ATOM      8  C   LIG d   1      12.506  -5.100  -3.669  0.00  0.00    -0.060 A 
ATOM      9  C   LIG d   1      11.453  -4.548  -2.961  0.00  0.00    -0.038 A 
ATOM     10  C   LIG d   1      10.324  -4.181  -3.693  0.00  0.00     0.047 A 
ATOM     11  N   LIG d   1       9.134  -3.623  -3.322  0.00  0.00    -0.356 N 
ATOM     12  H   LIG d   1       8.889  -3.385  -2.414  0.00  0.00     0.166 HD
ATOM     13  C   LIG d   1       8.413  -3.862  -6.922  0.00  0.00     0.002 C 
ATOM     14  C   LIG d   1       7.228  -2.885  -6.951  0.00  0.00     0.107 A 
ATOM     15  H   LIG d   1       7.622  -1.871  -6.896  0.00  0.00     0.060 H 
ATOM     16  N   LIG d   1       6.378  -3.127  -5.787  0.00  0.00    -0.276 N 
ATOM     17  C   LIG d   1       5.124  -3.573  -5.879  0.00  0.00     0.234 A 
ATOM     18  O   LIG d   1       4.530  -3.806  -4.848  0.00  0.00    -0.274 OA
ATOM     19  C   LIG d   1       4.403  -3.805  -7.166  0.00  0.00     0.092 A 
ATOM     20  N   LIG d   1       5.217  -3.458  -8.318  0.00  0.00    -0.287 N 
ATOM     21  C   LIG d   1       6.480  -3.044  -8.236  0.00  0.00     0.237 A 
ATOM     22  O   LIG d   1       7.060  -2.783  -9.268  0.00  0.00    -0.274 OA
ATOM     23  H   LIG d   1      11.332  -5.082  -6.856  0.00  0.00     0.062 H 
ATOM     24  H   LIG d   1      13.311  -5.721  -5.540  0.00  0.00     0.062 H 
ATOM     25  H   LIG d   1      13.396  -5.395  -3.134  0.00  0.00     0.062 H 
ATOM     26  H   LIG d   1      11.503  -4.407  -1.892  0.00  0.00     0.064 H 
ATOM     27  H   LIG d   1       9.178  -3.530  -7.624  0.00  0.00     0.034 H 
ATOM     28  H   LIG d   1       8.074  -4.860  -7.197  0.00  0.00     0.034 H 
ATOM     29  H   LIG d   1       3.496  -3.201  -7.178  0.00  0.00     0.056 H 
ATOM     30  H   LIG d   1       4.126  -4.858  -7.232  0.00  0.00     0.056 H 
ENDROOT
BRANCH   1  31
ATOM     31  C   LIG d   1       7.018  -1.375  -4.207  0.00  0.00    -0.013 A 
ATOM     32  C   LIG d   1       6.076  -0.751  -3.372  0.00  0.00    -0.013 A 
ATOM     33  C   LIG d   1       5.055  -1.486  -2.747  0.00  0.00    -0.054 A 
ATOM     34  C   LIG d   1       6.159   0.647  -3.154  0.00  0.00    -0.018 A 
ATOM     35  C   LIG d   1       4.158  -0.847  -1.945  0.00  0.00    -0.061 A 
ATOM     36  H   LIG d   1       4.981  -2.553  -2.901  0.00  0.00     0.062 H 
ATOM     37  C   LIG d   1       4.239   0.528  -1.734  0.00  0.00    -0.061 A 
ATOM     38  H   LIG d   1       3.375  -1.415  -1.466  0.00  0.00     0.062 H 
ATOM     39  C   LIG d   1       5.220   1.271  -2.315  0.00  0.00    -0.054 A 
ATOM     40  H   LIG d   1       3.515   1.010  -1.093  0.00  0.00     0.062 H 
ATOM     41  H   LIG d   1       5.269   2.335  -2.142  0.00  0.00     0.062 H 
ATOM     42  C   LIG d   1       7.177   1.383  -3.784  0.00  0.00    -0.054 A 
ATOM     43  C   LIG d   1       8.069   0.745  -4.590  0.00  0.00    -0.061 A 
ATOM     44  H   LIG d   1       7.251   2.449  -3.629  0.00  0.00     0.062 H 
ATOM     45  C   LIG d   1       7.990  -0.630  -4.801  0.00  0.00    -0.056 A 
ATOM     46  H   LIG d   1       8.850   1.313  -5.073  0.00  0.00     0.062 H 
ATOM     47  H   LIG d   1       8.710  -1.112  -5.445  0.00  0.00     0.062 H 
ENDBRANCH   1  31
BRANCH  20  48
ATOM     48  C   LIG d   1       4.613  -3.569  -9.649  0.00  0.00     0.043 C 
ATOM     49  H   LIG d   1       5.382  -3.443 -10.409  0.00  0.00     0.051 H 
ATOM     50  H   LIG d   1       4.151  -4.551  -9.757  0.00  0.00     0.051 H 
BRANCH  48  51
ATOM     51  C   LIG d   1       3.564  -2.500  -9.814  0.00  0.00     0.005 A 
ATOM     52  C   LIG d   1       2.232  -2.852  -9.957  0.00  0.00     0.128 A 
ATOM     53  C   LIG d   1       1.269  -1.868 -10.104  0.00  0.00    -0.026 A 
ATOM     54  F   LIG d   1       1.872  -4.154  -9.947  0.00  0.00    -0.205 F 
ATOM     55  C   LIG d   1       1.638  -0.537 -10.120  0.00  0.00    -0.059 A 
ATOM     56  H   LIG d   1       0.229  -2.142 -10.212  0.00  0.00     0.065 H 
ATOM     57  C   LIG d   1       2.968  -0.187  -9.982  0.00  0.00    -0.061 A 
ATOM     58  H   LIG d   1       0.887   0.230 -10.239  0.00  0.00     0.062 H 
ATOM     59  C   LIG d   1       3.930  -1.167  -9.830  0.00  0.00    -0.054 A 
ATOM     60  H   LIG d   1       3.257   0.854  -9.995  0.00  0.00     0.062 H 
ATOM     61  H   LIG d   1       4.970  -0.893  -9.723  0.00  0.00     0.062 H 
ENDBRANCH  48  51
ENDBRANCH  20  48
TORSDOF 3
ENDMDL
MODEL 3
REMARK VINA RESULT:      -8.9      4.308      8.268
REMARK  3 active torsions:
REMARK  status: ('A' for Active; 'I' for Inactive)
REMARK    1  A    between atoms: C_10  and  C_11 
REMARK    2  A    between atoms: N_30  and  C_33 
REMARK    3  A    between atoms: C_33  and  C_34 
ROOT
ATOM      1  C   LIG d   1       4.198  -2.944  -7.122  0.00  0.00     0.093 C 
ATOM      2  H   LIG d   1       3.184  -3.091  -7.495  0.00  0.00     0.062 H 
ATOM      3  C   LIG d   1       4.163  -2.134  -5.845  0.00  0.00     0.046 A 
ATOM      4  C   LIG d   1       4.820  -2.487  -4.719  0.00  0.00    -0.015 A 
ATOM      5  C   LIG d   1       4.545  -1.466  -3.730  0.00  0.00     0.003 A 
ATOM      6  C   LIG d   1       4.948  -1.300  -2.402  0.00  0.00    -0.052 A 
ATOM      7  C   LIG d   1       4.485  -0.185  -1.747  0.00  0.00    -0.061 A 
ATOM      8  C   LIG d   1       3.658   0.739  -2.363  0.00  0.00    -0.060 A 
ATOM      9  C   LIG d   1       3.244   0.600  -3.676  0.00  0.00    -0.038 A 
ATOM     10  C   LIG d   1       3.698  -0.523  -4.365  0.00  0.00     0.047 A 
ATOM     11  N   LIG d   1       3.487  -0.961  -5.642  0.00  0.00    -0.356 N 
ATOM     12  H   LIG d   1       2.942  -0.509  -6.304  0.00  0.00     0.166 HD
ATOM     13  C   LIG d   1       5.665  -3.728  -4.572  0.00  0.00     0.002 C 
ATOM     14  C   LIG d   1       6.013  -4.257  -5.972  0.00  0.00     0.107 A 
ATOM     15  H   LIG d   1       6.749  -3.587  -6.415  0.00  0.00     0.060 H 
ATOM     16  N   LIG d   1       4.809  -4.252  -6.801  0.00  0.00    -0.276 N 
ATOM     17  C   LIG d   1       4.244  -5.364  -7.273  0.00  0.00     0.234 A 
ATOM     18  O   LIG d   1       3.208  -5.252  -7.893  0.00  0.00    -0.274 OA
ATOM     19  C   LIG d   1       4.802  -6.738  -7.091  0.00  0.00     0.092 A 
ATOM     20  N   LIG d   1       6.057  -6.724  -6.360  0.00  0.00    -0.287 N 
ATOM     21  C   LIG d   1       6.611  -5.623  -5.857  0.00  0.00     0.237 A 
ATOM     22  O   LIG d   1       7.662  -5.735  -5.264  0.00  0.00    -0.274 OA
ATOM     23  H   LIG d   1       5.593  -2.016  -1.913  0.00  0.00     0.062 H 
ATOM     24  H   LIG d   1       4.776  -0.024  -0.719  0.00  0.00     0.062 H 
ATOM     25  H   LIG d   1       3.325   1.598  -1.799  0.00  0.00     0.062 H 
ATOM     26  H   LIG d   1       2.599   1.328  -4.145  0.00  0.00     0.064 H 
ATOM     27  H   LIG d   1       6.580  -3.485  -4.035  0.00  0.00     0.034 H 
ATOM     28  H   LIG d   1       5.108  -4.485  -4.022  0.00  0.00     0.034 H 
ATOM     29  H   LIG d   1       4.966  -7.186  -8.070  0.00  0.00     0.056 H 
ATOM     30  H   LIG d   1       4.080  -7.344  -6.543  0.00  0.00     0.056 H 
ENDROOT
BRANCH   1  31
ATOM     31  C   LIG d   1       5.028  -2.231  -8.158  0.00  0.00    -0.013 A 
ATOM     32  C   LIG d   1       4.403  -1.492  -9.176  0.00  0.00    -0.013 A 
ATOM     33  C   LIG d   1       3.003  -1.399  -9.256  0.00  0.00    -0.054 A 
ATOM     34  C   LIG d   1       5.200  -0.825 -10.140  0.00  0.00    -0.018 A 
ATOM     35  C   LIG d   1       2.432  -0.675 -10.259  0.00  0.00    -0.061 A 
ATOM     36  H   LIG d   1       2.382  -1.899  -8.527  0.00  0.00     0.062 H 
ATOM     37  C   LIG d   1       3.217  -0.022 -11.208  0.00  0.00    -0.061 A 
ATOM     38  H   LIG d   1       1.356  -0.605 -10.318  0.00  0.00     0.062 H 
ATOM     39  C   LIG d   1       4.575  -0.082 -11.156  0.00  0.00    -0.054 A 
ATOM     40  H   LIG d   1       2.738   0.546 -11.993  0.00  0.00     0.062 H 
ATOM     41  H   LIG d   1       5.170   0.429 -11.899  0.00  0.00     0.062 H 
ATOM     42  C   LIG d   1       6.600  -0.923 -10.063  0.00  0.00    -0.054 A 
ATOM     43  C   LIG d   1       7.170  -1.652  -9.065  0.00  0.00    -0.061 A 
ATOM     44  H   LIG d   1       7.219  -0.423 -10.792  0.00  0.00     0.062 H 
ATOM     45  C   LIG d   1       6.386  -2.304  -8.116  0.00  0.00    -0.056 A 
ATOM     46  H   LIG d   1       8.245  -1.726  -9.008  0.00  0.00     0.062 H 
ATOM     47  H   LIG d   1       6.863  -2.876  -7.333  0.00  0.00     0.062 H 
ENDBRANCH   1  31
BRANCH  20  48
ATOM     48  C   LIG d   1       6.757  -7.998  -6.166  0.00  0.00     0.043 C 
ATOM     49  H   LIG d   1       6.683  -8.595  -7.074  0.00  0.00     0.051 H 
ATOM     50  H   LIG d   1       7.806  -7.806  -5.941  0.00  0.00     0.051 H 
BRANCH  48  51
ATOM     51  C   LIG d   1       6.126  -8.746  -5.020  0.00  0.00     0.005 A 
ATOM     52  C   LIG d   1       6.885  -9.084  -3.912  0.00  0.00     0.128 A 
ATOM     53  C   LIG d   1       6.302  -9.768  -2.858  0.00  0.00    -0.026 A 
ATOM     54  F   LIG d   1       8.190  -8.742  -3.856  0.00  0.00    -0.205 F 
ATOM     55  C   LIG d   1       4.968 -10.123  -2.918  0.00  0.00    -0.059 A 
ATOM     56  H   LIG d   1       6.893 -10.029  -1.992  0.00  0.00     0.065 H 
ATOM     57  C   LIG d   1       4.213  -9.789  -4.026  0.00  0.00    -0.061 A 
ATOM     58  H   LIG d   1       4.515 -10.660  -2.097  0.00  0.00     0.062 H 
ATOM     59  C   LIG d   1       4.791  -9.102  -5.077  0.00  0.00    -0.054 A 
ATOM     60  H   LIG d   1       3.170 -10.067  -4.073  0.00  0.00     0.062 H 
ATOM     61  H   LIG d   1       4.200  -8.842  -5.943  0.00  0.00     0.062 H 
ENDBRANCH  48  51
ENDBRANCH  20  48
TORSDOF 3
ENDMDL
MODEL 4
REMARK VINA RESULT:      -8.6      4.002      8.026
REMARK  3 active torsions:
REMARK  status: ('A' for Active; 'I' for Inactive)
REMARK    1  A    between atoms: C_10  and  C_11 
REMARK    2  A    between atoms: N_30  and  C_33 
REMARK    3  A    between atoms: C_33  and  C_34 
ROOT
ATOM      1  C   LIG d   1       4.665  -2.550  -6.909  0.00  0.00     0.093 C 
ATOM      2  H   LIG d   1       3.708  -3.025  -7.123  0.00  0.00     0.062 H 
ATOM      3  C   LIG d   1       4.535  -1.657  -5.695  0.00  0.00     0.046 A 
ATOM      4  C   LIG d   1       5.395  -1.682  -4.654  0.00  0.00    -0.015 A 
ATOM      5  C   LIG d   1       4.939  -0.688  -3.705  0.00  0.00     0.003 A 
ATOM      6  C   LIG d   1       5.425  -0.273  -2.461  0.00  0.00    -0.052 A 
ATOM      7  C   LIG d   1       4.725   0.720  -1.821  0.00  0.00    -0.061 A 
ATOM      8  C   LIG d   1       3.590   1.292  -2.372  0.00  0.00    -0.060 A 
ATOM      9  C   LIG d   1       3.088   0.902  -3.601  0.00  0.00    -0.038 A 
ATOM     10  C   LIG d   1       3.778  -0.106  -4.273  0.00  0.00     0.047 A 
ATOM     11  N   LIG d   1       3.563  -0.718  -5.475  0.00  0.00    -0.356 N 
ATOM     12  H   LIG d   1       2.833  -0.516  -6.081  0.00  0.00     0.166 HD
ATOM     13  C   LIG d   1       6.587  -2.599  -4.549  0.00  0.00     0.002 C 
ATOM     14  C   LIG d   1       6.914  -3.147  -5.946  0.00  0.00     0.107 A 
ATOM     15  H   LIG d   1       7.355  -2.341  -6.532  0.00  0.00     0.060 H 
ATOM     16  N   LIG d   1       5.677  -3.581  -6.593  0.00  0.00    -0.276 N 
ATOM     17  C   LIG d   1       5.426  -4.853  -6.907  0.00  0.00     0.234 A 
ATOM     18  O   LIG d   1       4.339  -5.115  -7.378  0.00  0.00    -0.274 OA
ATOM     19  C   LIG d   1       6.392  -5.977  -6.716  0.00  0.00     0.092 A 
ATOM     20  N   LIG d   1       7.660  -5.520  -6.174  0.00  0.00    -0.287 N 
ATOM     21  C   LIG d   1       7.907  -4.259  -5.828  0.00  0.00     0.237 A 
ATOM     22  O   LIG d   1       9.005  -3.996  -5.385  0.00  0.00    -0.274 OA
ATOM     23  H   LIG d   1       6.309  -0.713  -2.023  0.00  0.00     0.062 H 
ATOM     24  H   LIG d   1       5.070   1.067  -0.858  0.00  0.00     0.062 H 
ATOM     25  H   LIG d   1       3.080   2.071  -1.824  0.00  0.00     0.062 H 
ATOM     26  H   LIG d   1       2.202   1.356  -4.020  0.00  0.00     0.064 H 
ATOM     27  H   LIG d   1       7.442  -2.044  -4.164  0.00  0.00     0.034 H 
ATOM     28  H   LIG d   1       6.355  -3.424  -3.876  0.00  0.00     0.034 H 
ATOM     29  H   LIG d   1       6.569  -6.458  -7.678  0.00  0.00     0.056 H 
ATOM     30  H   LIG d   1       5.956  -6.706  -6.033  0.00  0.00     0.056 H 
ENDROOT
BRANCH   1  31
ATOM     31  C   LIG d   1       5.113  -1.739  -8.097  0.00  0.00    -0.013 A 
ATOM     32  C   LIG d   1       4.180  -1.332  -9.065  0.00  0.00    -0.013 A 
ATOM     33  C   LIG d   1       2.820  -1.666  -8.954  0.00  0.00    -0.054 A 
ATOM     34  C   LIG d   1       4.619  -0.566 -10.174  0.00  0.00    -0.018 A 
ATOM     35  C   LIG d   1       1.944  -1.255  -9.913  0.00  0.00    -0.061 A 
ATOM     36  H   LIG d   1       2.469  -2.246  -8.113  0.00  0.00     0.062 H 
ATOM     37  C   LIG d   1       2.377  -0.505 -11.005  0.00  0.00    -0.061 A 
ATOM     38  H   LIG d   1       0.900  -1.513  -9.825  0.00  0.00     0.062 H 
ATOM     39  C   LIG d   1       3.685  -0.154 -11.140  0.00  0.00    -0.054 A 
ATOM     40  H   LIG d   1       1.662  -0.191 -11.751  0.00  0.00     0.062 H 
ATOM     41  H   LIG d   1       4.006   0.427 -11.992  0.00  0.00     0.062 H 
ATOM     42  C   LIG d   1       5.980  -0.236 -10.287  0.00  0.00    -0.054 A 
ATOM     43  C   LIG d   1       6.856  -0.653  -9.333  0.00  0.00    -0.061 A 
ATOM     44  H   LIG d   1       6.330   0.344 -11.129  0.00  0.00     0.062 H 
ATOM     45  C   LIG d   1       6.423  -1.402  -8.241  0.00  0.00    -0.056 A 
ATOM     46  H   LIG d   1       7.901  -0.399  -9.423  0.00  0.00     0.062 H 
ATOM     47  H   LIG d   1       7.139  -1.720  -7.496  0.00  0.00     0.062 H 
ENDBRANCH   1  31
BRANCH  20  48
ATOM     48  C   LIG d   1       8.730  -6.506  -5.999  0.00  0.00     0.043 C 
ATOM     49  H   LIG d   1       8.762  -7.165  -6.866  0.00  0.00     0.051 H 
ATOM     50  H   LIG d   1       9.686  -5.991  -5.897  0.00  0.00     0.051 H 
BRANCH  48  51
ATOM     51  C   LIG d   1       8.464  -7.320  -4.759  0.00  0.00     0.005 A 
ATOM     52  C   LIG d   1       9.201  -7.092  -3.610  0.00  0.00     0.128 A 
ATOM     53  C   LIG d   1       8.952  -7.838  -2.470  0.00  0.00    -0.026 A 
ATOM     54  F   LIG d   1      10.158  -6.140  -3.598  0.00  0.00    -0.205 F 
ATOM     55  C   LIG d   1       7.977  -8.817  -2.484  0.00  0.00    -0.059 A 
ATOM     56  H   LIG d   1       9.525  -7.659  -1.571  0.00  0.00     0.065 H 
ATOM     57  C   LIG d   1       7.244  -9.047  -3.633  0.00  0.00    -0.061 A 
ATOM     58  H   LIG d   1       7.785  -9.401  -1.596  0.00  0.00     0.062 H 
ATOM     59  C   LIG d   1       7.488  -8.299  -4.770  0.00  0.00    -0.054 A 
ATOM     60  H   LIG d   1       6.482  -9.811  -3.644  0.00  0.00     0.062 H 
ATOM     61  H   LIG d   1       6.916  -8.480  -5.669  0.00  0.00     0.062 H 
ENDBRANCH  48  51
ENDBRANCH  20  48
TORSDOF 3
ENDMDL
MODEL 5
REMARK VINA RESULT:      -8.5      4.130      8.580
REMARK  3 active torsions:
REMARK  status: ('A' for Active; 'I' for Inactive)
REMARK    1  A    between atoms: C_10  and  C_11 
REMARK    2  A    between atoms: N_30  and  C_33 
REMARK    3  A    between atoms: C_33  and  C_34 
ROOT
ATOM      1  C   LIG d   1       3.997  -4.993  -7.949  0.00  0.00     0.093 C 
ATOM      2  H   LIG d   1       3.315  -5.681  -7.450  0.00  0.00     0.062 H 
ATOM      3  C   LIG d   1       3.222  -4.077  -8.868  0.00  0.00     0.046 A 
ATOM      4  C   LIG d   1       3.372  -2.735  -8.884  0.00  0.00    -0.015 A 
ATOM      5  C   LIG d   1       2.468  -2.219  -9.892  0.00  0.00     0.003 A 
ATOM      6  C   LIG d   1       2.192  -0.926 -10.345  0.00  0.00    -0.052 A 
ATOM      7  C   LIG d   1       1.252  -0.803 -11.339  0.00  0.00    -0.061 A 
ATOM      8  C   LIG d   1       0.602  -1.903 -11.876  0.00  0.00    -0.060 A 
ATOM      9  C   LIG d   1       0.855  -3.194 -11.446  0.00  0.00    -0.038 A 
ATOM     10  C   LIG d   1       1.804  -3.348 -10.437  0.00  0.00     0.047 A 
ATOM     11  N   LIG d   1       2.284  -4.452  -9.793  0.00  0.00    -0.356 N 
ATOM     12  H   LIG d   1       2.003  -5.364  -9.965  0.00  0.00     0.166 HD
ATOM     13  C   LIG d   1       4.316  -1.966  -7.994  0.00  0.00     0.002 C 
ATOM     14  C   LIG d   1       5.356  -2.940  -7.420  0.00  0.00     0.107 A 
ATOM     15  H   LIG d   1       6.043  -3.214  -8.220  0.00  0.00     0.060 H 
ATOM     16  N   LIG d   1       4.676  -4.145  -6.946  0.00  0.00    -0.276 N 
ATOM     17  C   LIG d   1       4.642  -4.505  -5.662  0.00  0.00     0.234 A 
ATOM     18  O   LIG d   1       3.991  -5.486  -5.368  0.00  0.00    -0.274 OA
ATOM     19  C   LIG d   1       5.350  -3.784  -4.563  0.00  0.00     0.092 A 
ATOM     20  N   LIG d   1       6.114  -2.651  -5.057  0.00  0.00    -0.287 N 
ATOM     21  C   LIG d   1       6.126  -2.264  -6.331  0.00  0.00     0.237 A 
ATOM     22  O   LIG d   1       6.802  -1.302  -6.626  0.00  0.00    -0.274 OA
ATOM     23  H   LIG d   1       2.694  -0.063  -9.933  0.00  0.00     0.062 H 
ATOM     24  H   LIG d   1       1.013   0.180 -11.715  0.00  0.00     0.062 H 
ATOM     25  H   LIG d   1      -0.128  -1.747 -12.657  0.00  0.00     0.062 H 
ATOM     26  H   LIG d   1       0.341  -4.042 -11.873  0.00  0.00     0.064 H 
ATOM     27  H   LIG d   1       4.819  -1.194  -8.575  0.00  0.00     0.034 H 
ATOM     28  H   LIG d   1       3.756  -1.505  -7.181  0.00  0.00     0.034 H 
ATOM     29  H   LIG d   1       6.027  -4.476  -4.063  0.00  0.00     0.056 H 
ATOM     30  H   LIG d   1       4.615  -3.427  -3.841  0.00  0.00     0.056 H 
ENDROOT
BRANCH   1  31
ATOM     31  C   LIG d   1       5.019  -5.768  -8.741  0.00  0.00    -0.013 A 
ATOM     32  C   LIG d   1       5.147  -7.155  -8.561  0.00  0.00    -0.013 A 
ATOM     33  C   LIG d   1       4.335  -7.851  -7.649  0.00  0.00    -0.054 A 
ATOM     34  C   LIG d   1       6.111  -7.868  -9.318  0.00  0.00    -0.018 A 
ATOM     35  C   LIG d   1       4.488  -9.196  -7.501  0.00  0.00    -0.061 A 
ATOM     36  H   LIG d   1       3.594  -7.323  -7.069  0.00  0.00     0.062 H 
ATOM     37  C   LIG d   1       5.439  -9.895  -8.243  0.00  0.00    -0.061 A 
ATOM     38  H   LIG d   1       3.864  -9.729  -6.800  0.00  0.00     0.062 H 
ATOM     39  C   LIG d   1       6.236  -9.256  -9.142  0.00  0.00    -0.054 A 
ATOM     40  H   LIG d   1       5.540 -10.963  -8.106  0.00  0.00     0.062 H 
ATOM     41  H   LIG d   1       6.968  -9.811  -9.710  0.00  0.00     0.062 H 
ATOM     42  C   LIG d   1       6.926  -7.171 -10.226  0.00  0.00    -0.054 A 
ATOM     43  C   LIG d   1       6.777  -5.826 -10.369  0.00  0.00    -0.061 A 
ATOM     44  H   LIG d   1       7.667  -7.700 -10.807  0.00  0.00     0.062 H 
ATOM     45  C   LIG d   1       5.826  -5.126  -9.629  0.00  0.00    -0.056 A 
ATOM     46  H   LIG d   1       7.405  -5.292 -11.067  0.00  0.00     0.062 H 
ATOM     47  H   LIG d   1       5.728  -4.059  -9.761  0.00  0.00     0.062 H 
ENDBRANCH   1  31
BRANCH  20  48
ATOM     48  C   LIG d   1       6.918  -1.889  -4.097  0.00  0.00     0.043 C 
ATOM     49  H   LIG d   1       7.404  -2.575  -3.405  0.00  0.00     0.051 H 
ATOM     50  H   LIG d   1       7.674  -1.314  -4.632  0.00  0.00     0.051 H 
BRANCH  48  51
ATOM     51  C   LIG d   1       6.024  -0.951  -3.328  0.00  0.00     0.005 A 
ATOM     52  C   LIG d   1       6.157   0.419  -3.487  0.00  0.00     0.128 A 
ATOM     53  C   LIG d   1       5.332   1.279  -2.783  0.00  0.00    -0.026 A 
ATOM     54  F   LIG d   1       7.087   0.914  -4.332  0.00  0.00    -0.205 F 
ATOM     55  C   LIG d   1       4.384   0.772  -1.914  0.00  0.00    -0.059 A 
ATOM     56  H   LIG d   1       5.433   2.348  -2.908  0.00  0.00     0.065 H 
ATOM     57  C   LIG d   1       4.255  -0.595  -1.753  0.00  0.00    -0.061 A 
ATOM     58  H   LIG d   1       3.743   1.444  -1.362  0.00  0.00     0.062 H 
ATOM     59  C   LIG d   1       5.075  -1.455  -2.459  0.00  0.00    -0.054 A 
ATOM     60  H   LIG d   1       3.515  -0.991  -1.074  0.00  0.00     0.062 H 
ATOM     61  H   LIG d   1       4.974  -2.523  -2.332  0.00  0.00     0.062 H 
ENDBRANCH  48  51
ENDBRANCH  20  48
TORSDOF 3
ENDMDL
MODEL 6
REMARK VINA RESULT:      -8.4      2.515      3.517
REMARK  3 active torsions:
REMARK  status: ('A' for Active; 'I' for Inactive)
REMARK    1  A    between atoms: C_10  and  C_11 
REMARK    2  A    between atoms: N_30  and  C_33 
REMARK    3  A    between atoms: C_33  and  C_34 
ROOT
ATOM      1  C   LIG d   1       5.666  -1.010  -6.883  0.00  0.00     0.093 C 
ATOM      2  H   LIG d   1       6.200  -1.816  -6.381  0.00  0.00     0.062 H 
ATOM      3  C   LIG d   1       6.599   0.157  -7.118  0.00  0.00     0.046 A 
ATOM      4  C   LIG d   1       6.728   0.783  -8.308  0.00  0.00    -0.015 A 
ATOM      5  C   LIG d   1       7.703   1.838  -8.129  0.00  0.00     0.003 A 
ATOM      6  C   LIG d   1       8.231   2.798  -8.997  0.00  0.00    -0.052 A 
ATOM      7  C   LIG d   1       9.162   3.662  -8.475  0.00  0.00    -0.061 A 
ATOM      8  C   LIG d   1       9.565   3.597  -7.151  0.00  0.00    -0.060 A 
ATOM      9  C   LIG d   1       9.059   2.658  -6.270  0.00  0.00    -0.038 A 
ATOM     10  C   LIG d   1       8.113   1.766  -6.773  0.00  0.00     0.047 A 
ATOM     11  N   LIG d   1       7.426   0.738  -6.194  0.00  0.00    -0.356 N 
ATOM     12  H   LIG d   1       7.512   0.461  -5.269  0.00  0.00     0.166 HD
ATOM     13  C   LIG d   1       5.974   0.408  -9.559  0.00  0.00     0.002 C 
ATOM     14  C   LIG d   1       4.765  -0.455  -9.169  0.00  0.00     0.107 A 
ATOM     15  H   LIG d   1       4.025   0.191  -8.697  0.00  0.00     0.060 H 
ATOM     16  N   LIG d   1       5.190  -1.470  -8.206  0.00  0.00    -0.276 N 
ATOM     17  C   LIG d   1       5.168  -2.778  -8.467  0.00  0.00     0.234 A 
ATOM     18  O   LIG d   1       5.608  -3.530  -7.624  0.00  0.00    -0.274 OA
ATOM     19  C   LIG d   1       4.639  -3.378  -9.729  0.00  0.00     0.092 A 
ATOM     20  N   LIG d   1       4.117  -2.370 -10.635  0.00  0.00    -0.287 N 
ATOM     21  C   LIG d   1       4.165  -1.061 -10.396  0.00  0.00     0.237 A 
ATOM     22  O   LIG d   1       3.697  -0.314 -11.229  0.00  0.00    -0.274 OA
ATOM     23  H   LIG d   1       7.923   2.856 -10.030  0.00  0.00     0.062 H 
ATOM     24  H   LIG d   1       9.592   4.417  -9.116  0.00  0.00     0.062 H 
ATOM     25  H   LIG d   1      10.300   4.304  -6.795  0.00  0.00     0.062 H 
ATOM     26  H   LIG d   1       9.382   2.618  -5.240  0.00  0.00     0.064 H 
ATOM     27  H   LIG d   1       5.632   1.311 -10.063  0.00  0.00     0.034 H 
ATOM     28  H   LIG d   1       6.628  -0.155 -10.224  0.00  0.00     0.034 H 
ATOM     29  H   LIG d   1       3.842  -4.079  -9.480  0.00  0.00     0.056 H 
ATOM     30  H   LIG d   1       5.442  -3.921 -10.227  0.00  0.00     0.056 H 
ENDROOT
BRANCH   1  31
ATOM     31  C   LIG d   1       4.495  -0.568  -6.043  0.00  0.00    -0.013 A 
ATOM     32  C   LIG d   1       4.445  -0.892  -4.677  0.00  0.00    -0.013 A 
ATOM     33  C   LIG d   1       5.472  -1.629  -4.064  0.00  0.00    -0.054 A 
ATOM     34  C   LIG d   1       3.338  -0.464  -3.901  0.00  0.00    -0.018 A 
ATOM     35  C   LIG d   1       5.389  -1.925  -2.737  0.00  0.00    -0.061 A 
ATOM     36  H   LIG d   1       6.324  -1.958  -4.640  0.00  0.00     0.062 H 
ATOM     37  C   LIG d   1       4.299  -1.508  -1.976  0.00  0.00    -0.061 A 
ATOM     38  H   LIG d   1       6.180  -2.491  -2.268  0.00  0.00     0.062 H 
ATOM     39  C   LIG d   1       3.290  -0.785  -2.534  0.00  0.00    -0.054 A 
ATOM     40  H   LIG d   1       4.258  -1.756  -0.925  0.00  0.00     0.062 H 
ATOM     41  H   LIG d   1       2.452  -0.468  -1.932  0.00  0.00     0.062 H 
ATOM     42  C   LIG d   1       2.309   0.268  -4.517  0.00  0.00    -0.054 A 
ATOM     43  C   LIG d   1       2.389   0.559  -5.844  0.00  0.00    -0.061 A 
ATOM     44  H   LIG d   1       1.458   0.597  -3.939  0.00  0.00     0.062 H 
ATOM     45  C   LIG d   1       3.479   0.142  -6.604  0.00  0.00    -0.056 A 
ATOM     46  H   LIG d   1       1.596   1.121  -6.314  0.00  0.00     0.062 H 
ATOM     47  H   LIG d   1       3.519   0.386  -7.656  0.00  0.00     0.062 H 
ENDBRANCH   1  31
BRANCH  20  48
ATOM     48  C   LIG d   1       3.500  -2.821 -11.886  0.00  0.00     0.043 C 
ATOM     49  H   LIG d   1       3.107  -1.962 -12.428  0.00  0.00     0.051 H 
ATOM     50  H   LIG d   1       4.247  -3.327 -12.499  0.00  0.00     0.051 H 
BRANCH  48  51
ATOM     51  C   LIG d   1       2.377  -3.776 -11.576  0.00  0.00     0.005 A 
ATOM     52  C   LIG d   1       1.197  -3.303 -11.026  0.00  0.00     0.128 A 
ATOM     53  C   LIG d   1       0.164  -4.182 -10.745  0.00  0.00    -0.026 A 
ATOM     54  F   LIG d   1       1.052  -1.985 -10.768  0.00  0.00    -0.205 F 
ATOM     55  C   LIG d   1       0.315  -5.530 -11.003  0.00  0.00    -0.059 A 
ATOM     56  H   LIG d   1      -0.757  -3.813 -10.319  0.00  0.00     0.065 H 
ATOM     57  C   LIG d   1       1.495  -6.002 -11.547  0.00  0.00    -0.061 A 
ATOM     58  H   LIG d   1      -0.489  -6.216 -10.780  0.00  0.00     0.062 H 
ATOM     59  C   LIG d   1       2.525  -5.126 -11.833  0.00  0.00    -0.054 A 
ATOM     60  H   LIG d   1       1.612  -7.056 -11.749  0.00  0.00     0.062 H 
ATOM     61  H   LIG d   1       3.447  -5.496 -12.258  0.00  0.00     0.062 H 
ENDBRANCH  48  51
ENDBRANCH  20  48
TORSDOF 3
ENDMDL
MODEL 7
REMARK VINA RESULT:      -8.3      3.355      6.215
REMARK  3 active torsions:
REMARK  status: ('A' for Active; 'I' for Inactive)
REMARK    1  A    between atoms: C_10  and  C_11 
REMARK    2  A    between atoms: N_30  and  C_33 
REMARK    3  A    between atoms: C_33  and  C_34 
ROOT
ATOM      1  C   LIG d   1      10.190   2.174  -4.570  0.00  0.00     0.093 C 
ATOM      2  H   LIG d   1       9.966   2.768  -3.684  0.00  0.00     0.062 H 
ATOM      3  C   LIG d   1      11.474   1.402  -4.360  0.00  0.00     0.046 A 
ATOM      4  C   LIG d   1      11.600   0.081  -4.610  0.00  0.00    -0.015 A 
ATOM      5  C   LIG d   1      12.965  -0.282  -4.292  0.00  0.00     0.003 A 
ATOM      6  C   LIG d   1      13.662  -1.493  -4.352  0.00  0.00    -0.052 A 
ATOM      7  C   LIG d   1      14.980  -1.470  -3.965  0.00  0.00    -0.061 A 
ATOM      8  C   LIG d   1      15.600  -0.309  -3.534  0.00  0.00    -0.060 A 
ATOM      9  C   LIG d   1      14.934   0.903  -3.464  0.00  0.00    -0.038 A 
ATOM     10  C   LIG d   1      13.595   0.909  -3.851  0.00  0.00     0.047 A 
ATOM     11  N   LIG d   1      12.663   1.906  -3.904  0.00  0.00    -0.356 N 
ATOM     12  H   LIG d   1      12.819   2.830  -3.657  0.00  0.00     0.166 HD
ATOM     13  C   LIG d   1      10.490  -0.805  -5.118  0.00  0.00     0.002 C 
ATOM     14  C   LIG d   1       9.384   0.080  -5.713  0.00  0.00     0.107 A 
ATOM     15  H   LIG d   1       9.744   0.483  -6.660  0.00  0.00     0.060 H 
ATOM     16  N   LIG d   1       9.112   1.188  -4.799  0.00  0.00    -0.276 N 
ATOM     17  C   LIG d   1       7.947   1.344  -4.169  0.00  0.00     0.234 A 
ATOM     18  O   LIG d   1       7.850   2.259  -3.379  0.00  0.00    -0.274 OA
ATOM     19  C   LIG d   1       6.754   0.469  -4.372  0.00  0.00     0.092 A 
ATOM     20  N   LIG d   1       6.996  -0.564  -5.364  0.00  0.00    -0.287 N 
ATOM     21  C   LIG d   1       8.167  -0.748  -5.972  0.00  0.00     0.237 A 
ATOM     22  O   LIG d   1       8.250  -1.645  -6.784  0.00  0.00    -0.274 OA
ATOM     23  H   LIG d   1      13.187  -2.403  -4.686  0.00  0.00     0.062 H 
ATOM     24  H   LIG d   1      15.550  -2.386  -3.998  0.00  0.00     0.062 H 
ATOM     25  H   LIG d   1      16.639  -0.350  -3.242  0.00  0.00     0.062 H 
ATOM     26  H   LIG d   1      15.429   1.801  -3.127  0.00  0.00     0.064 H 
ATOM     27  H   LIG d   1      10.879  -1.471  -5.888  0.00  0.00     0.034 H 
ATOM     28  H   LIG d   1      10.087  -1.394  -4.295  0.00  0.00     0.034 H 
ATOM     29  H   LIG d   1       5.915   1.083  -4.697  0.00  0.00     0.056 H 
ATOM     30  H   LIG d   1       6.496  -0.004  -3.423  0.00  0.00     0.056 H 
ENDROOT
BRANCH   1  31
ATOM     31  C   LIG d   1      10.325   3.074  -5.771  0.00  0.00    -0.013 A 
ATOM     32  C   LIG d   1       9.999   4.437  -5.672  0.00  0.00    -0.013 A 
ATOM     33  C   LIG d   1       9.544   4.992  -4.464  0.00  0.00    -0.054 A 
ATOM     34  C   LIG d   1      10.135   5.269  -6.811  0.00  0.00    -0.018 A 
ATOM     35  C   LIG d   1       9.236   6.317  -4.404  0.00  0.00    -0.061 A 
ATOM     36  H   LIG d   1       9.438   4.371  -3.586  0.00  0.00     0.062 H 
ATOM     37  C   LIG d   1       9.367   7.134  -5.526  0.00  0.00    -0.061 A 
ATOM     38  H   LIG d   1       8.887   6.741  -3.475  0.00  0.00     0.062 H 
ATOM     39  C   LIG d   1       9.814   6.634  -6.710  0.00  0.00    -0.054 A 
ATOM     40  H   LIG d   1       9.117   8.183  -5.452  0.00  0.00     0.062 H 
ATOM     41  H   LIG d   1       9.910   7.279  -7.570  0.00  0.00     0.062 H 
ATOM     42  C   LIG d   1      10.585   4.713  -8.020  0.00  0.00    -0.054 A 
ATOM     43  C   LIG d   1      10.886   3.387  -8.081  0.00  0.00    -0.061 A 
ATOM     44  H   LIG d   1      10.691   5.334  -8.897  0.00  0.00     0.062 H 
ATOM     45  C   LIG d   1      10.756   2.570  -6.959  0.00  0.00    -0.056 A 
ATOM     46  H   LIG d   1      11.232   2.962  -9.011  0.00  0.00     0.062 H 
ATOM     47  H   LIG d   1      11.002   1.521  -7.034  0.00  0.00     0.062 H 
ENDBRANCH   1  31
BRANCH  20  48
ATOM     48  C   LIG d   1       5.888  -1.456  -5.716  0.00  0.00     0.043 C 
ATOM     49  H   LIG d   1       5.460  -1.146  -6.668  0.00  0.00     0.051 H 
ATOM     50  H   LIG d   1       6.257  -2.479  -5.798  0.00  0.00     0.051 H 
BRANCH  48  51
ATOM     51  C   LIG d   1       4.830  -1.389  -4.645  0.00  0.00     0.005 A 
ATOM     52  C   LIG d   1       3.742  -0.547  -4.798  0.00  0.00     0.128 A 
ATOM     53  C   LIG d   1       2.769  -0.489  -3.814  0.00  0.00    -0.026 A 
ATOM     54  F   LIG d   1       3.626   0.214  -5.908  0.00  0.00    -0.205 F 
ATOM     55  C   LIG d   1       2.890  -1.263  -2.676  0.00  0.00    -0.059 A 
ATOM     56  H   LIG d   1       1.917   0.165  -3.934  0.00  0.00     0.065 H 
ATOM     57  C   LIG d   1       3.980  -2.100  -2.522  0.00  0.00    -0.061 A 
ATOM     58  H   LIG d   1       2.133  -1.216  -1.907  0.00  0.00     0.062 H 
ATOM     59  C   LIG d   1       4.949  -2.163  -3.505  0.00  0.00    -0.054 A 
ATOM     60  H   LIG d   1       4.075  -2.704  -1.633  0.00  0.00     0.062 H 
ATOM     61  H   LIG d   1       5.801  -2.816  -3.384  0.00  0.00     0.062 H 
ENDBRANCH  48  51
ENDBRANCH  20  48
TORSDOF 3
ENDMDL
MODEL 8
REMARK VINA RESULT:      -8.3      2.384      7.425
REMARK  3 active torsions:
REMARK  status: ('A' for Active; 'I' for Inactive)
REMARK    1  A    between atoms: C_10  and  C_11 
REMARK    2  A    between atoms: N_30  and  C_33 
REMARK    3  A    between atoms: C_33  and  C_34 
ROOT
ATOM      1  C   LIG d   1       5.504  -0.129  -6.514  0.00  0.00     0.093 C 
ATOM      2  H   LIG d   1       5.360   0.906  -6.204  0.00  0.00     0.062 H 
ATOM      3  C   LIG d   1       4.653  -0.425  -7.729  0.00  0.00     0.046 A 
ATOM      4  C   LIG d   1       5.126  -1.024  -8.843  0.00  0.00    -0.015 A 
ATOM      5  C   LIG d   1       4.017  -1.133  -9.769  0.00  0.00     0.003 A 
ATOM      6  C   LIG d   1       3.908  -1.659 -11.060  0.00  0.00    -0.052 A 
ATOM      7  C   LIG d   1       2.672  -1.593 -11.655  0.00  0.00    -0.061 A 
ATOM      8  C   LIG d   1       1.577  -1.035 -11.015  0.00  0.00    -0.060 A 
ATOM      9  C   LIG d   1       1.656  -0.508  -9.738  0.00  0.00    -0.038 A 
ATOM     10  C   LIG d   1       2.899  -0.560  -9.110  0.00  0.00     0.047 A 
ATOM     11  N   LIG d   1       3.322  -0.142  -7.881  0.00  0.00    -0.356 N 
ATOM     12  H   LIG d   1       2.764   0.290  -7.216  0.00  0.00     0.166 HD
ATOM     13  C   LIG d   1       6.553  -1.472  -9.037  0.00  0.00     0.002 C 
ATOM     14  C   LIG d   1       7.237  -1.550  -7.663  0.00  0.00     0.107 A 
ATOM     15  H   LIG d   1       6.843  -2.419  -7.137  0.00  0.00     0.060 H 
ATOM     16  N   LIG d   1       6.915  -0.347  -6.898  0.00  0.00    -0.276 N 
ATOM     17  C   LIG d   1       7.831   0.553  -6.536  0.00  0.00     0.234 A 
ATOM     18  O   LIG d   1       7.447   1.551  -5.963  0.00  0.00    -0.274 OA
ATOM     19  C   LIG d   1       9.297   0.416  -6.789  0.00  0.00     0.092 A 
ATOM     20  N   LIG d   1       9.621  -0.835  -7.453  0.00  0.00    -0.287 N 
ATOM     21  C   LIG d   1       8.710  -1.723  -7.847  0.00  0.00     0.237 A 
ATOM     22  O   LIG d   1       9.101  -2.733  -8.393  0.00  0.00    -0.274 OA
ATOM     23  H   LIG d   1       4.756  -2.095 -11.566  0.00  0.00     0.062 H 
ATOM     24  H   LIG d   1       2.550  -1.989 -12.652  0.00  0.00     0.062 H 
ATOM     25  H   LIG d   1       0.628  -1.011 -11.531  0.00  0.00     0.062 H 
ATOM     26  H   LIG d   1       0.794  -0.077  -9.250  0.00  0.00     0.064 H 
ATOM     27  H   LIG d   1       6.567  -2.453  -9.509  0.00  0.00     0.034 H 
ATOM     28  H   LIG d   1       7.077  -0.756  -9.668  0.00  0.00     0.034 H 
ATOM     29  H   LIG d   1       9.826   0.460  -5.838  0.00  0.00     0.056 H 
ATOM     30  H   LIG d   1       9.628   1.245  -7.415  0.00  0.00     0.056 H 
ENDROOT
BRANCH   1  31
ATOM     31  C   LIG d   1       5.130  -1.059  -5.389  0.00  0.00    -0.013 A 
ATOM     32  C   LIG d   1       4.923  -0.553  -4.095  0.00  0.00    -0.013 A 
ATOM     33  C   LIG d   1       5.058   0.818  -3.817  0.00  0.00    -0.054 A 
ATOM     34  C   LIG d   1       4.567  -1.442  -3.049  0.00  0.00    -0.018 A 
ATOM     35  C   LIG d   1       4.850   1.273  -2.550  0.00  0.00    -0.061 A 
ATOM     36  H   LIG d   1       5.324   1.508  -4.604  0.00  0.00     0.062 H 
ATOM     37  C   LIG d   1       4.505   0.397  -1.522  0.00  0.00    -0.061 A 
ATOM     38  H   LIG d   1       4.955   2.326  -2.340  0.00  0.00     0.062 H 
ATOM     39  C   LIG d   1       4.356  -0.935  -1.756  0.00  0.00    -0.054 A 
ATOM     40  H   LIG d   1       4.345   0.784  -0.526  0.00  0.00     0.062 H 
ATOM     41  H   LIG d   1       4.088  -1.601  -0.950  0.00  0.00     0.062 H 
ATOM     42  C   LIG d   1       4.438  -2.813  -3.327  0.00  0.00    -0.054 A 
ATOM     43  C   LIG d   1       4.651  -3.268  -4.591  0.00  0.00    -0.061 A 
ATOM     44  H   LIG d   1       4.171  -3.503  -2.540  0.00  0.00     0.062 H 
ATOM     45  C   LIG d   1       4.996  -2.393  -5.619  0.00  0.00    -0.056 A 
ATOM     46  H   LIG d   1       4.551  -4.323  -4.801  0.00  0.00     0.062 H 
ATOM     47  H   LIG d   1       5.160  -2.780  -6.615  0.00  0.00     0.062 H 
ENDBRANCH   1  31
BRANCH  20  48
ATOM     48  C   LIG d   1      11.033  -1.138  -7.704  0.00  0.00     0.043 C 
ATOM     49  H   LIG d   1      11.114  -2.092  -8.222  0.00  0.00     0.051 H 
ATOM     50  H   LIG d   1      11.470  -0.351  -8.319  0.00  0.00     0.051 H 
BRANCH  48  51
ATOM     51  C   LIG d   1      11.769  -1.216  -6.391  0.00  0.00     0.005 A 
ATOM     52  C   LIG d   1      12.765  -0.299  -6.099  0.00  0.00     0.128 A 
ATOM     53  C   LIG d   1      13.437  -0.370  -4.890  0.00  0.00    -0.026 A 
ATOM     54  F   LIG d   1      13.076   0.668  -6.990  0.00  0.00    -0.205 F 
ATOM     55  C   LIG d   1      13.122  -1.361  -3.982  0.00  0.00    -0.059 A 
ATOM     56  H   LIG d   1      14.212   0.348  -4.661  0.00  0.00     0.065 H 
ATOM     57  C   LIG d   1      12.131  -2.279  -4.276  0.00  0.00    -0.061 A 
ATOM     58  H   LIG d   1      13.649  -1.419  -3.041  0.00  0.00     0.062 H 
ATOM     59  C   LIG d   1      11.455  -2.207  -5.479  0.00  0.00    -0.054 A 
ATOM     60  H   LIG d   1      11.885  -3.054  -3.566  0.00  0.00     0.062 H 
ATOM     61  H   LIG d   1      10.682  -2.925  -5.709  0.00  0.00     0.062 H 
ENDBRANCH  48  51
ENDBRANCH  20  48
TORSDOF 3
ENDMDL
MODEL 9
REMARK VINA RESULT:      -8.2      5.613      7.803
REMARK  3 active torsions:
REMARK  status: ('A' for Active; 'I' for Inactive)
REMARK    1  A    between atoms: C_10  and  C_11 
REMARK    2  A    between atoms: N_30  and  C_33 
REMARK    3  A    between atoms: C_33  and  C_34 
ROOT
ATOM      1  C   LIG d   1       6.238  -7.106  -6.006  0.00  0.00     0.093 C 
ATOM      2  H   LIG d   1       5.228  -7.431  -6.255  0.00  0.00     0.062 H 
ATOM      3  C   LIG d   1       7.114  -7.167  -7.237  0.00  0.00     0.046 A 
ATOM      4  C   LIG d   1       7.910  -6.152  -7.638  0.00  0.00    -0.015 A 
ATOM      5  C   LIG d   1       8.585  -6.591  -8.841  0.00  0.00     0.003 A 
ATOM      6  C   LIG d   1       9.514  -5.976  -9.686  0.00  0.00    -0.052 A 
ATOM      7  C   LIG d   1       9.952  -6.706 -10.763  0.00  0.00    -0.061 A 
ATOM      8  C   LIG d   1       9.503  -7.993 -11.012  0.00  0.00    -0.060 A 
ATOM      9  C   LIG d   1       8.585  -8.626 -10.193  0.00  0.00    -0.038 A 
ATOM     10  C   LIG d   1       8.121  -7.908  -9.091  0.00  0.00     0.047 A 
ATOM     11  N   LIG d   1       7.233  -8.221  -8.102  0.00  0.00    -0.356 N 
ATOM     12  H   LIG d   1       6.759  -9.063  -8.025  0.00  0.00     0.166 HD
ATOM     13  C   LIG d   1       8.031  -4.826  -6.929  0.00  0.00     0.002 C 
ATOM     14  C   LIG d   1       7.485  -4.977  -5.501  0.00  0.00     0.107 A 
ATOM     15  H   LIG d   1       8.202  -5.560  -4.923  0.00  0.00     0.060 H 
ATOM     16  N   LIG d   1       6.215  -5.701  -5.547  0.00  0.00    -0.276 N 
ATOM     17  C   LIG d   1       5.051  -5.153  -5.197  0.00  0.00     0.234 A 
ATOM     18  O   LIG d   1       4.047  -5.819  -5.339  0.00  0.00    -0.274 OA
ATOM     19  C   LIG d   1       4.899  -3.774  -4.643  0.00  0.00     0.092 A 
ATOM     20  N   LIG d   1       6.178  -3.100  -4.497  0.00  0.00    -0.287 N 
ATOM     21  C   LIG d   1       7.341  -3.628  -4.874  0.00  0.00     0.237 A 
ATOM     22  O   LIG d   1       8.345  -2.970  -4.703  0.00  0.00    -0.274 OA
ATOM     23  H   LIG d   1       9.869  -4.973  -9.500  0.00  0.00     0.062 H 
ATOM     24  H   LIG d   1      10.670  -6.263 -11.438  0.00  0.00     0.062 H 
ATOM     25  H   LIG d   1       9.884  -8.520 -11.874  0.00  0.00     0.062 H 
ATOM     26  H   LIG d   1       8.243  -9.630 -10.397  0.00  0.00     0.064 H 
ATOM     27  H   LIG d   1       9.078  -4.527  -6.890  0.00  0.00     0.034 H 
ATOM     28  H   LIG d   1       7.456  -4.072  -7.464  0.00  0.00     0.034 H 
ATOM     29  H   LIG d   1       4.417  -3.835  -3.667  0.00  0.00     0.056 H 
ATOM     30  H   LIG d   1       4.266  -3.191  -5.312  0.00  0.00     0.056 H 
ENDROOT
BRANCH   1  31
ATOM     31  C   LIG d   1       6.810  -7.989  -4.927  0.00  0.00    -0.013 A 
ATOM     32  C   LIG d   1       6.006  -8.964  -4.313  0.00  0.00    -0.013 A 
ATOM     33  C   LIG d   1       4.662  -9.140  -4.683  0.00  0.00    -0.054 A 
ATOM     34  C   LIG d   1       6.562  -9.787  -3.302  0.00  0.00    -0.018 A 
ATOM     35  C   LIG d   1       3.912 -10.094  -4.065  0.00  0.00    -0.061 A 
ATOM     36  H   LIG d   1       4.225  -8.523  -5.454  0.00  0.00     0.062 H 
ATOM     37  C   LIG d   1       4.459 -10.901  -3.069  0.00  0.00    -0.061 A 
ATOM     38  H   LIG d   1       2.880 -10.228  -4.352  0.00  0.00     0.062 H 
ATOM     39  C   LIG d   1       5.759 -10.765  -2.691  0.00  0.00    -0.054 A 
ATOM     40  H   LIG d   1       3.842 -11.651  -2.595  0.00  0.00     0.062 H 
ATOM     41  H   LIG d   1       6.169 -11.398  -1.918  0.00  0.00     0.062 H 
ATOM     42  C   LIG d   1       7.904  -9.607  -2.928  0.00  0.00    -0.054 A 
ATOM     43  C   LIG d   1       8.652  -8.649  -3.541  0.00  0.00    -0.061 A 
ATOM     44  H   LIG d   1       8.341 -10.225  -2.158  0.00  0.00     0.062 H 
ATOM     45  C   LIG d   1       8.106  -7.843  -4.538  0.00  0.00    -0.056 A 
ATOM     46  H   LIG d   1       9.683  -8.512  -3.252  0.00  0.00     0.062 H 
ATOM     47  H   LIG d   1       8.720  -7.090  -5.009  0.00  0.00     0.062 H 
ENDBRANCH   1  31
BRANCH  20  48
ATOM     48  C   LIG d   1       6.189  -1.762  -3.898  0.00  0.00     0.043 C 
ATOM     49  H   LIG d   1       6.467  -1.836  -2.848  0.00  0.00     0.051 H 
ATOM     50  H   LIG d   1       6.911  -1.135  -4.423  0.00  0.00     0.051 H 
BRANCH  48  51
ATOM     51  C   LIG d   1       4.817  -1.151  -4.013  0.00  0.00     0.005 A 
ATOM     52  C   LIG d   1       3.927  -1.241  -2.956  0.00  0.00     0.128 A 
ATOM     53  C   LIG d   1       2.668  -0.675  -3.062  0.00  0.00    -0.026 A 
ATOM     54  F   LIG d   1       4.289  -1.876  -1.820  0.00  0.00    -0.205 F 
ATOM     55  C   LIG d   1       2.296  -0.030  -4.226  0.00  0.00    -0.059 A 
ATOM     56  H   LIG d   1       1.975  -0.742  -2.236  0.00  0.00     0.065 H 
ATOM     57  C   LIG d   1       3.183   0.055  -5.283  0.00  0.00    -0.061 A 
ATOM     58  H   LIG d   1       1.312   0.408  -4.310  0.00  0.00     0.062 H 
ATOM     59  C   LIG d   1       4.442  -0.505  -5.177  0.00  0.00    -0.054 A 
ATOM     60  H   LIG d   1       2.892   0.559  -6.192  0.00  0.00     0.062 H 
ATOM     61  H   LIG d   1       5.134  -0.438  -6.003  0.00  0.00     0.062 H 
ENDBRANCH  48  51
ENDBRANCH  20  48
TORSDOF 3
ENDMDL
MODEL 10
REMARK VINA RESULT:      -8.1      2.963      5.210
REMARK  3 active torsions:
REMARK  status: ('A' for Active; 'I' for Inactive)
REMARK    1  A    between atoms: C_10  and  C_11 
REMARK    2  A    between atoms: N_30  and  C_33 
REMARK    3  A    between atoms: C_33  and  C_34 
ROOT
ATOM      1  C   LIG d   1       7.930  -1.393  -4.507  0.00  0.00     0.093 C 
ATOM      2  H   LIG d   1       7.673  -0.869  -3.586  0.00  0.00     0.062 H 
ATOM      3  C   LIG d   1       8.349  -2.812  -4.190  0.00  0.00     0.046 A 
ATOM      4  C   LIG d   1       7.863  -3.895  -4.833  0.00  0.00    -0.015 A 
ATOM      5  C   LIG d   1       8.505  -5.056  -4.252  0.00  0.00     0.003 A 
ATOM      6  C   LIG d   1       8.399  -6.426  -4.511  0.00  0.00    -0.052 A 
ATOM      7  C   LIG d   1       9.176  -7.264  -3.749  0.00  0.00    -0.061 A 
ATOM      8  C   LIG d   1      10.030  -6.785  -2.768  0.00  0.00    -0.060 A 
ATOM      9  C   LIG d   1      10.155  -5.435  -2.491  0.00  0.00    -0.038 A 
ATOM     10  C   LIG d   1       9.377  -4.561  -3.249  0.00  0.00     0.047 A 
ATOM     11  N   LIG d   1       9.255  -3.201  -3.239  0.00  0.00    -0.356 N 
ATOM     12  H   LIG d   1       9.737  -2.602  -2.648  0.00  0.00     0.166 HD
ATOM     13  C   LIG d   1       6.839  -3.848  -5.938  0.00  0.00     0.002 C 
ATOM     14  C   LIG d   1       6.783  -2.419  -6.500  0.00  0.00     0.107 A 
ATOM     15  H   LIG d   1       7.688  -2.247  -7.082  0.00  0.00     0.060 H 
ATOM     16  N   LIG d   1       6.747  -1.468  -5.390  0.00  0.00    -0.276 N 
ATOM     17  C   LIG d   1       5.704  -0.674  -5.144  0.00  0.00     0.234 A 
ATOM     18  O   LIG d   1       5.749   0.028  -4.156  0.00  0.00    -0.274 OA
ATOM     19  C   LIG d   1       4.483  -0.593  -6.001  0.00  0.00     0.092 A 
ATOM     20  N   LIG d   1       4.574  -1.461  -7.163  0.00  0.00    -0.287 N 
ATOM     21  C   LIG d   1       5.597  -2.280  -7.399  0.00  0.00     0.237 A 
ATOM     22  O   LIG d   1       5.561  -2.958  -8.403  0.00  0.00    -0.274 OA
ATOM     23  H   LIG d   1       7.736  -6.808  -5.272  0.00  0.00     0.062 H 
ATOM     24  H   LIG d   1       9.121  -8.328  -3.920  0.00  0.00     0.062 H 
ATOM     25  H   LIG d   1      10.618  -7.491  -2.200  0.00  0.00     0.062 H 
ATOM     26  H   LIG d   1      10.825  -5.075  -1.725  0.00  0.00     0.064 H 
ATOM     27  H   LIG d   1       7.123  -4.541  -6.729  0.00  0.00     0.034 H 
ATOM     28  H   LIG d   1       5.862  -4.125  -5.543  0.00  0.00     0.034 H 
ATOM     29  H   LIG d   1       4.354   0.436  -6.336  0.00  0.00     0.056 H 
ATOM     30  H   LIG d   1       3.614  -0.882  -5.410  0.00  0.00     0.056 H 
ENDROOT
BRANCH   1  31
ATOM     31  C   LIG d   1       9.051  -0.673  -5.211  0.00  0.00    -0.013 A 
ATOM     32  C   LIG d   1       9.327   0.671  -4.908  0.00  0.00    -0.013 A 
ATOM     33  C   LIG d   1       8.573   1.372  -3.952  0.00  0.00    -0.054 A 
ATOM     34  C   LIG d   1      10.388   1.331  -5.577  0.00  0.00    -0.018 A 
ATOM     35  C   LIG d   1       8.869   2.675  -3.685  0.00  0.00    -0.061 A 
ATOM     36  H   LIG d   1       7.765   0.882  -3.430  0.00  0.00     0.062 H 
ATOM     37  C   LIG d   1       9.910   3.324  -4.346  0.00  0.00    -0.061 A 
ATOM     38  H   LIG d   1       8.288   3.212  -2.949  0.00  0.00     0.062 H 
ATOM     39  C   LIG d   1      10.667   2.673  -5.271  0.00  0.00    -0.054 A 
ATOM     40  H   LIG d   1      10.123   4.358  -4.115  0.00  0.00     0.062 H 
ATOM     41  H   LIG d   1      11.470   3.189  -5.775  0.00  0.00     0.062 H 
ATOM     42  C   LIG d   1      11.138   0.630  -6.537  0.00  0.00    -0.054 A 
ATOM     43  C   LIG d   1      10.838  -0.670  -6.808  0.00  0.00    -0.061 A 
ATOM     44  H   LIG d   1      11.947   1.120  -7.058  0.00  0.00     0.062 H 
ATOM     45  C   LIG d   1       9.798  -1.319  -6.147  0.00  0.00    -0.056 A 
ATOM     46  H   LIG d   1      11.416  -1.206  -7.547  0.00  0.00     0.062 H 
ATOM     47  H   LIG d   1       9.581  -2.351  -6.380  0.00  0.00     0.062 H 
ENDBRANCH   1  31
BRANCH  20  48
ATOM     48  C   LIG d   1       3.475  -1.432  -8.133  0.00  0.00     0.043 C 
ATOM     49  H   LIG d   1       3.610  -2.233  -8.858  0.00  0.00     0.051 H 
ATOM     50  H   LIG d   1       2.527  -1.569  -7.612  0.00  0.00     0.051 H 
BRANCH  48  51
ATOM     51  C   LIG d   1       3.470  -0.104  -8.845  0.00  0.00     0.005 A 
ATOM     52  C   LIG d   1       4.081   0.021 -10.081  0.00  0.00     0.128 A 
ATOM     53  C   LIG d   1       4.071   1.242 -10.736  0.00  0.00    -0.026 A 
ATOM     54  F   LIG d   1       4.682  -1.046 -10.650  0.00  0.00    -0.205 F 
ATOM     55  C   LIG d   1       3.462   2.335 -10.151  0.00  0.00    -0.059 A 
ATOM     56  H   LIG d   1       4.545   1.340 -11.702  0.00  0.00     0.065 H 
ATOM     57  C   LIG d   1       2.856   2.210  -8.915  0.00  0.00    -0.061 A 
ATOM     58  H   LIG d   1       3.458   3.287 -10.660  0.00  0.00     0.062 H 
ATOM     59  C   LIG d   1       2.860   0.991  -8.262  0.00  0.00    -0.054 A 
ATOM     60  H   LIG d   1       2.380   3.064  -8.458  0.00  0.00     0.062 H 
ATOM     61  H   LIG d   1       2.387   0.894  -7.296  0.00  0.00     0.062 H 
ENDBRANCH  48  51
ENDBRANCH  20  48
TORSDOF 3
ENDMDL
