MODEL 1
REMARK VINA RESULT:      -7.6      0.000      0.000
REMARK  8 active torsions:
REMARK  status: ('A' for Active; 'I' for Inactive)
REMARK    1  A    between atoms: C_4  and  C_7 
REMARK    2  A    between atoms: C_7  and  C_8 
REMARK       I    between atoms: N_11  and  C_14 
REMARK    3  A    between atoms: C_14  and  C_16 
REMARK    4  A    between atoms: C_16  and  C_17 
REMARK    5  A    between atoms: C_23  and  C_25 
REMARK    6  A    between atoms: C_25  and  C_26 
REMARK    7  A    between atoms: C_28  and  C_31 
REMARK    8  A    between atoms: C_31  and  N_32 
ROOT
ATOM      1  C   LIG d   1       9.470  -5.624  -3.555  0.00  0.00    -0.020 C 
ATOM      2  H   LIG d   1       8.533  -6.094  -3.221  0.00  0.00     0.031 H 
ATOM      3  C   LIG d   1       9.791  -4.422  -2.662  0.00  0.00    -0.009 C 
ATOM      4  C   LIG d   1      11.122  -3.808  -3.101  0.00  0.00    -0.033 C 
ATOM      5  N   LIG d   1      12.186  -4.815  -2.997  0.00  0.00     0.227 N 
ATOM      6  C   LIG d   1      11.923  -5.957  -3.882  0.00  0.00    -0.030 C 
ATOM      7  C   LIG d   1      10.616  -6.635  -3.466  0.00  0.00     0.008 C 
ATOM      8  H   LIG d   1      10.703  -7.005  -2.434  0.00  0.00     0.036 H 
ATOM      9  H   LIG d   1       8.990  -3.672  -2.755  0.00  0.00     0.032 H 
ATOM     10  H   LIG d   1       9.864  -4.752  -1.615  0.00  0.00     0.032 H 
ATOM     11  H   LIG d   1      11.042  -3.465  -4.143  0.00  0.00     0.081 H 
ATOM     12  H   LIG d   1      11.362  -2.952  -2.452  0.00  0.00     0.081 H 
ATOM     13  H   LIG d   1      13.147  -4.363  -3.283  0.00  0.00     0.201 HD
ATOM     14  H   LIG d   1      11.839  -5.604  -4.921  0.00  0.00     0.082 H 
ATOM     15  H   LIG d   1      12.751  -6.678  -3.805  0.00  0.00     0.082 H 
ATOM     16  H   LIG d   1      12.245  -5.180  -1.961  0.00  0.00     0.201 HD
ENDROOT
BRANCH   1  17
ATOM     17  C   LIG d   1       9.311  -5.158  -5.005  0.00  0.00     0.028 C 
ATOM     18  H   LIG d   1       9.996  -5.726  -5.650  0.00  0.00     0.036 H 
ATOM     19  H   LIG d   1       9.546  -4.086  -5.073  0.00  0.00     0.036 H 
BRANCH  17  20
ATOM     20  C   LIG d   1       7.890  -5.389  -5.453  0.00  0.00     0.216 C 
ATOM     21  N   LIG d   1       6.980  -4.401  -5.345  0.00  0.00    -0.301 N 
ATOM     22  C   LIG d   1       5.592  -4.611  -5.777  0.00  0.00     0.015 C 
ATOM     23  C   LIG d   1       7.356  -3.096  -4.783  0.00  0.00     0.015 C 
ATOM     24  C   LIG d   1       4.655  -4.251  -4.621  0.00  0.00    -0.034 C 
ATOM     25  H   LIG d   1       5.444  -5.666  -6.055  0.00  0.00     0.046 H 
ATOM     26  H   LIG d   1       5.370  -3.969  -6.643  0.00  0.00     0.046 H 
ATOM     27  C   LIG d   1       4.957  -2.827  -4.149  0.00  0.00    -0.034 C 
ATOM     28  H   LIG d   1       4.810  -4.954  -3.788  0.00  0.00     0.028 H 
ATOM     29  H   LIG d   1       3.610  -4.310  -4.962  0.00  0.00     0.028 H 
ATOM     30  C   LIG d   1       6.400  -2.751  -3.643  0.00  0.00    -0.034 C 
ATOM     31  H   LIG d   1       4.827  -2.127  -4.988  0.00  0.00     0.030 H 
ATOM     32  H   LIG d   1       6.609  -1.733  -3.284  0.00  0.00     0.028 H 
ATOM     33  H   LIG d   1       6.538  -3.466  -2.819  0.00  0.00     0.028 H 
ATOM     34  H   LIG d   1       8.386  -3.143  -4.403  0.00  0.00     0.046 H 
ATOM     35  H   LIG d   1       7.290  -2.328  -5.568  0.00  0.00     0.046 H 
ATOM     36  O   LIG d   1       7.568  -6.464  -5.913  0.00  0.00    -0.276 OA
BRANCH  27  37
ATOM     37  C   LIG d   1       3.999  -2.451  -3.017  0.00  0.00    -0.025 C 
ATOM     38  H   LIG d   1       4.378  -2.856  -2.067  0.00  0.00     0.032 H 
ATOM     39  H   LIG d   1       3.004  -2.871  -3.224  0.00  0.00     0.032 H 
BRANCH  37  40
ATOM     40  C   LIG d   1       3.902  -0.950  -2.919  0.00  0.00    -0.047 A 
ATOM     41  C   LIG d   1       4.464  -0.289  -1.844  0.00  0.00    -0.059 A 
ATOM     42  C   LIG d   1       4.375   1.087  -1.754  0.00  0.00    -0.061 A 
ATOM     43  H   LIG d   1       4.973  -0.848  -1.073  0.00  0.00     0.062 H 
ATOM     44  C   LIG d   1       3.723   1.803  -2.742  0.00  0.00    -0.062 A 
ATOM     45  H   LIG d   1       4.813   1.604  -0.914  0.00  0.00     0.062 H 
ATOM     46  C   LIG d   1       3.160   1.142  -3.818  0.00  0.00    -0.061 A 
ATOM     47  H   LIG d   1       3.652   2.879  -2.672  0.00  0.00     0.062 H 
ATOM     48  C   LIG d   1       3.255  -0.234  -3.909  0.00  0.00    -0.059 A 
ATOM     49  H   LIG d   1       2.651   1.700  -4.589  0.00  0.00     0.062 H 
ATOM     50  H   LIG d   1       2.820  -0.750  -4.752  0.00  0.00     0.062 H 
ENDBRANCH  37  40
ENDBRANCH  27  37
ENDBRANCH  17  20
ENDBRANCH   1  17
BRANCH   7  51
ATOM     51  C   LIG d   1      10.332  -7.812  -4.402  0.00  0.00     0.001 C 
ATOM     52  H   LIG d   1       9.870  -7.440  -5.329  0.00  0.00     0.033 H 
ATOM     53  H   LIG d   1      11.274  -8.326  -4.643  0.00  0.00     0.033 H 
BRANCH  51  54
ATOM     54  C   LIG d   1       9.392  -8.777  -3.726  0.00  0.00     0.084 A 
ATOM     55  N   LIG d   1       9.088  -8.811  -2.460  0.00  0.00    -0.083 NA
ATOM     56  O   LIG d   1       8.304  -9.699  -2.215  0.00  0.00    -0.358 OA
ATOM     57  C   LIG d   1       7.978 -10.388  -3.317  0.00  0.00     0.151 A 
ATOM     58  C   LIG d   1       8.666  -9.823  -4.339  0.00  0.00     0.005 A 
ATOM     59  H   LIG d   1       8.661 -10.108  -5.381  0.00  0.00     0.067 H 
BRANCH  57  60
ATOM     60  C   LIG d   1       7.036 -11.560  -3.403  0.00  0.00     0.060 C 
ATOM     61  H   LIG d   1       7.457 -12.320  -4.077  0.00  0.00     0.051 H 
ATOM     62  H   LIG d   1       6.898 -11.994  -2.402  0.00  0.00     0.051 H 
BRANCH  60  63
ATOM     63  N   LIG d   1       5.738 -11.108  -3.924  0.00  0.00    -0.291 N 
ATOM     64  C   LIG d   1       5.301 -11.947  -5.049  0.00  0.00     0.023 C 
ATOM     65  C   LIG d   1       3.978 -11.407  -5.599  0.00  0.00     0.060 C 
ATOM     66  H   LIG d   1       6.065 -11.927  -5.841  0.00  0.00     0.045 H 
ATOM     67  H   LIG d   1       5.161 -12.982  -4.702  0.00  0.00     0.045 H 
ATOM     68  O   LIG d   1       3.012 -11.366  -4.545  0.00  0.00    -0.377 OA
ATOM     69  H   LIG d   1       3.617 -12.064  -6.403  0.00  0.00     0.057 H 
ATOM     70  H   LIG d   1       4.132 -10.391  -5.995  0.00  0.00     0.057 H 
ATOM     71  C   LIG d   1       3.405 -10.558  -3.434  0.00  0.00     0.060 C 
ATOM     72  C   LIG d   1       4.722 -11.090  -2.863  0.00  0.00     0.023 C 
ATOM     73  H   LIG d   1       2.627 -10.596  -2.657  0.00  0.00     0.057 H 
ATOM     74  H   LIG d   1       3.543  -9.517  -3.765  0.00  0.00     0.057 H 
ATOM     75  H   LIG d   1       4.572 -12.110  -2.481  0.00  0.00     0.045 H 
ATOM     76  H   LIG d   1       5.058 -10.437  -2.043  0.00  0.00     0.045 H 
ENDBRANCH  60  63
ENDBRANCH  57  60
ENDBRANCH  51  54
ENDBRANCH   7  51
TORSDOF 8
ENDMDL
MODEL 2
REMARK VINA RESULT:      -7.1      9.095     14.056
REMARK  8 active torsions:
REMARK  status: ('A' for Active; 'I' for Inactive)
REMARK    1  A    between atoms: C_4  and  C_7 
REMARK    2  A    between atoms: C_7  and  C_8 
REMARK       I    between atoms: N_11  and  C_14 
REMARK    3  A    between atoms: C_14  and  C_16 
REMARK    4  A    between atoms: C_16  and  C_17 
REMARK    5  A    between atoms: C_23  and  C_25 
REMARK    6  A    between atoms: C_25  and  C_26 
REMARK    7  A    between atoms: C_28  and  C_31 
REMARK    8  A    between atoms: C_31  and  N_32 
ROOT
ATOM      1  C   LIG d   1      10.063   5.298  -5.720  0.00  0.00    -0.020 C 
ATOM      2  H   LIG d   1       9.006   5.135  -5.464  0.00  0.00     0.031 H 
ATOM      3  C   LIG d   1      10.166   5.922  -7.115  0.00  0.00    -0.009 C 
ATOM      4  C   LIG d   1      11.637   6.194  -7.439  0.00  0.00    -0.033 C 
ATOM      5  N   LIG d   1      12.202   7.103  -6.434  0.00  0.00     0.227 N 
ATOM      6  C   LIG d   1      12.158   6.505  -5.094  0.00  0.00    -0.030 C 
ATOM      7  C   LIG d   1      10.703   6.243  -4.699  0.00  0.00     0.008 C 
ATOM      8  H   LIG d   1      10.149   7.193  -4.677  0.00  0.00     0.036 H 
ATOM      9  H   LIG d   1       9.746   5.228  -7.858  0.00  0.00     0.032 H 
ATOM     10  H   LIG d   1       9.603   6.867  -7.135  0.00  0.00     0.032 H 
ATOM     11  H   LIG d   1      12.195   5.246  -7.432  0.00  0.00     0.081 H 
ATOM     12  H   LIG d   1      11.712   6.656  -8.435  0.00  0.00     0.081 H 
ATOM     13  H   LIG d   1      13.250   7.322  -6.687  0.00  0.00     0.201 HD
ATOM     14  H   LIG d   1      12.713   5.555  -5.097  0.00  0.00     0.082 H 
ATOM     15  H   LIG d   1      12.615   7.196  -4.370  0.00  0.00     0.082 H 
ATOM     16  H   LIG d   1      11.624   8.039  -6.421  0.00  0.00     0.201 HD
ENDROOT
BRANCH   1  17
ATOM     17  C   LIG d   1      10.798   3.955  -5.704  0.00  0.00     0.028 C 
ATOM     18  H   LIG d   1      10.951   3.633  -4.663  0.00  0.00     0.036 H 
ATOM     19  H   LIG d   1      11.773   4.065  -6.201  0.00  0.00     0.036 H 
BRANCH  17  20
ATOM     20  C   LIG d   1       9.975   2.924  -6.433  0.00  0.00     0.216 C 
ATOM     21  N   LIG d   1       8.845   2.446  -5.875  0.00  0.00    -0.301 N 
ATOM     22  C   LIG d   1       8.032   1.441  -6.573  0.00  0.00     0.015 C 
ATOM     23  C   LIG d   1       8.408   2.916  -4.553  0.00  0.00     0.015 C 
ATOM     24  C   LIG d   1       7.817   0.246  -5.639  0.00  0.00    -0.034 C 
ATOM     25  H   LIG d   1       8.553   1.108  -7.483  0.00  0.00     0.046 H 
ATOM     26  H   LIG d   1       7.058   1.874  -6.846  0.00  0.00     0.046 H 
ATOM     27  C   LIG d   1       7.215   0.735  -4.321  0.00  0.00    -0.034 C 
ATOM     28  H   LIG d   1       8.782  -0.245  -5.443  0.00  0.00     0.028 H 
ATOM     29  H   LIG d   1       7.130  -0.471  -6.113  0.00  0.00     0.028 H 
ATOM     30  C   LIG d   1       8.185   1.707  -3.645  0.00  0.00    -0.034 C 
ATOM     31  H   LIG d   1       6.263   1.249  -4.521  0.00  0.00     0.030 H 
ATOM     32  H   LIG d   1       7.761   2.042  -2.687  0.00  0.00     0.028 H 
ATOM     33  H   LIG d   1       9.145   1.202  -3.465  0.00  0.00     0.028 H 
ATOM     34  H   LIG d   1       9.180   3.567  -4.121  0.00  0.00     0.046 H 
ATOM     35  H   LIG d   1       7.468   3.479  -4.657  0.00  0.00     0.046 H 
ATOM     36  O   LIG d   1      10.329   2.526  -7.522  0.00  0.00    -0.276 OA
BRANCH  27  37
ATOM     37  C   LIG d   1       6.966  -0.460  -3.399  0.00  0.00    -0.025 C 
ATOM     38  H   LIG d   1       7.498  -0.307  -2.449  0.00  0.00     0.032 H 
ATOM     39  H   LIG d   1       7.335  -1.377  -3.882  0.00  0.00     0.032 H 
BRANCH  37  40
ATOM     40  C   LIG d   1       5.489  -0.591  -3.133  0.00  0.00    -0.047 A 
ATOM     41  C   LIG d   1       4.939  -1.833  -2.881  0.00  0.00    -0.059 A 
ATOM     42  C   LIG d   1       3.584  -1.953  -2.637  0.00  0.00    -0.061 A 
ATOM     43  H   LIG d   1       5.568  -2.711  -2.876  0.00  0.00     0.062 H 
ATOM     44  C   LIG d   1       2.778  -0.829  -2.644  0.00  0.00    -0.062 A 
ATOM     45  H   LIG d   1       3.154  -2.924  -2.441  0.00  0.00     0.062 H 
ATOM     46  C   LIG d   1       3.328   0.414  -2.896  0.00  0.00    -0.061 A 
ATOM     47  H   LIG d   1       1.719  -0.923  -2.455  0.00  0.00     0.062 H 
ATOM     48  C   LIG d   1       4.685   0.534  -3.134  0.00  0.00    -0.059 A 
ATOM     49  H   LIG d   1       2.699   1.292  -2.902  0.00  0.00     0.062 H 
ATOM     50  H   LIG d   1       5.115   1.505  -3.327  0.00  0.00     0.062 H 
ENDBRANCH  37  40
ENDBRANCH  27  37
ENDBRANCH  17  20
ENDBRANCH   1  17
BRANCH   7  51
ATOM     51  C   LIG d   1      10.659   5.600  -3.311  0.00  0.00     0.001 C 
ATOM     52  H   LIG d   1       9.975   4.739  -3.328  0.00  0.00     0.033 H 
ATOM     53  H   LIG d   1      11.667   5.262  -3.031  0.00  0.00     0.033 H 
BRANCH  51  54
ATOM     54  C   LIG d   1      10.169   6.609  -2.305  0.00  0.00     0.084 A 
ATOM     55  N   LIG d   1       9.893   6.390  -1.051  0.00  0.00    -0.083 NA
ATOM     56  O   LIG d   1       9.522   7.397  -0.494  0.00  0.00    -0.358 OA
ATOM     57  C   LIG d   1       9.503   8.444  -1.330  0.00  0.00     0.151 A 
ATOM     58  C   LIG d   1       9.919   7.982  -2.533  0.00  0.00     0.005 A 
ATOM     59  H   LIG d   1      10.033   8.534  -3.455  0.00  0.00     0.067 H 
BRANCH  57  60
ATOM     60  C   LIG d   1       9.097   9.857  -0.998  0.00  0.00     0.060 C 
ATOM     61  H   LIG d   1       8.000   9.933  -1.005  0.00  0.00     0.051 H 
ATOM     62  H   LIG d   1       9.476  10.122   0.000  0.00  0.00     0.051 H 
BRANCH  60  63
ATOM     63  N   LIG d   1       9.660  10.776  -1.996  0.00  0.00    -0.291 N 
ATOM     64  C   LIG d   1       8.601  11.358  -2.833  0.00  0.00     0.023 C 
ATOM     65  C   LIG d   1       9.235  12.260  -3.895  0.00  0.00     0.060 C 
ATOM     66  H   LIG d   1       8.037  10.551  -3.324  0.00  0.00     0.045 H 
ATOM     67  H   LIG d   1       7.921  11.950  -2.204  0.00  0.00     0.045 H 
ATOM     68  O   LIG d   1      10.028  13.261  -3.250  0.00  0.00    -0.377 OA
ATOM     69  H   LIG d   1       8.445  12.743  -4.488  0.00  0.00     0.057 H 
ATOM     70  H   LIG d   1       9.874  11.656  -4.557  0.00  0.00     0.057 H 
ATOM     71  C   LIG d   1      11.069  12.729  -2.428  0.00  0.00     0.060 C 
ATOM     72  C   LIG d   1      10.454  11.832  -1.351  0.00  0.00     0.023 C 
ATOM     73  H   LIG d   1      11.617  13.554  -1.948  0.00  0.00     0.057 H 
ATOM     74  H   LIG d   1      11.762  12.138  -3.045  0.00  0.00     0.057 H 
ATOM     75  H   LIG d   1       9.803  12.432  -0.698  0.00  0.00     0.045 H 
ATOM     76  H   LIG d   1      11.254  11.374  -0.751  0.00  0.00     0.045 H 
ENDBRANCH  60  63
ENDBRANCH  57  60
ENDBRANCH  51  54
ENDBRANCH   7  51
TORSDOF 8
ENDMDL
MODEL 3
REMARK VINA RESULT:      -7.1      6.609     11.163
REMARK  8 active torsions:
REMARK  status: ('A' for Active; 'I' for Inactive)
REMARK    1  A    between atoms: C_4  and  C_7 
REMARK    2  A    between atoms: C_7  and  C_8 
REMARK       I    between atoms: N_11  and  C_14 
REMARK    3  A    between atoms: C_14  and  C_16 
REMARK    4  A    between atoms: C_16  and  C_17 
REMARK    5  A    between atoms: C_23  and  C_25 
REMARK    6  A    between atoms: C_25  and  C_26 
REMARK    7  A    between atoms: C_28  and  C_31 
REMARK    8  A    between atoms: C_31  and  N_32 
ROOT
ATOM      1  C   LIG d   1       5.364  -1.250  -3.773  0.00  0.00    -0.020 C 
ATOM      2  H   LIG d   1       5.972  -2.089  -4.143  0.00  0.00     0.031 H 
ATOM      3  C   LIG d   1       4.664  -1.654  -2.472  0.00  0.00    -0.009 C 
ATOM      4  C   LIG d   1       3.865  -0.463  -1.938  0.00  0.00    -0.033 C 
ATOM      5  N   LIG d   1       4.770   0.667  -1.697  0.00  0.00     0.227 N 
ATOM      6  C   LIG d   1       5.417   1.104  -2.941  0.00  0.00    -0.030 C 
ATOM      7  C   LIG d   1       6.263  -0.040  -3.505  0.00  0.00     0.008 C 
ATOM      8  H   LIG d   1       7.044  -0.314  -2.781  0.00  0.00     0.036 H 
ATOM      9  H   LIG d   1       3.985  -2.497  -2.668  0.00  0.00     0.032 H 
ATOM     10  H   LIG d   1       5.418  -1.956  -1.729  0.00  0.00     0.032 H 
ATOM     11  H   LIG d   1       3.103  -0.173  -2.677  0.00  0.00     0.081 H 
ATOM     12  H   LIG d   1       3.373  -0.747  -0.996  0.00  0.00     0.081 H 
ATOM     13  H   LIG d   1       4.199   1.512  -1.284  0.00  0.00     0.201 HD
ATOM     14  H   LIG d   1       4.648   1.387  -3.675  0.00  0.00     0.082 H 
ATOM     15  H   LIG d   1       6.063   1.969  -2.733  0.00  0.00     0.082 H 
ATOM     16  H   LIG d   1       5.550   0.367  -0.982  0.00  0.00     0.201 HD
ENDROOT
BRANCH   1  17
ATOM     17  C   LIG d   1       4.316  -0.885  -4.827  0.00  0.00     0.028 C 
ATOM     18  H   LIG d   1       4.516   0.128  -5.206  0.00  0.00     0.036 H 
ATOM     19  H   LIG d   1       3.314  -0.916  -4.374  0.00  0.00     0.036 H 
BRANCH  17  20
ATOM     20  C   LIG d   1       4.384  -1.871  -5.965  0.00  0.00     0.216 C 
ATOM     21  N   LIG d   1       4.131  -1.463  -7.225  0.00  0.00    -0.301 N 
ATOM     22  C   LIG d   1       4.193  -2.411  -8.345  0.00  0.00     0.015 C 
ATOM     23  C   LIG d   1       3.781  -0.063  -7.502  0.00  0.00     0.015 C 
ATOM     24  C   LIG d   1       2.873  -2.347  -9.120  0.00  0.00    -0.034 C 
ATOM     25  H   LIG d   1       4.345  -3.432  -7.962  0.00  0.00     0.046 H 
ATOM     26  H   LIG d   1       5.025  -2.144  -9.015  0.00  0.00     0.046 H 
ATOM     27  C   LIG d   1       2.600  -0.900  -9.536  0.00  0.00    -0.034 C 
ATOM     28  H   LIG d   1       2.053  -2.705  -8.479  0.00  0.00     0.028 H 
ATOM     29  H   LIG d   1       2.942  -2.980 -10.017  0.00  0.00     0.028 H 
ATOM     30  C   LIG d   1       2.471  -0.024  -8.288  0.00  0.00    -0.034 C 
ATOM     31  H   LIG d   1       3.433  -0.534 -10.155  0.00  0.00     0.030 H 
ATOM     32  H   LIG d   1       2.253   1.011  -8.587  0.00  0.00     0.028 H 
ATOM     33  H   LIG d   1       1.653  -0.403  -7.657  0.00  0.00     0.028 H 
ATOM     34  H   LIG d   1       3.662   0.480  -6.555  0.00  0.00     0.046 H 
ATOM     35  H   LIG d   1       4.582   0.404  -8.095  0.00  0.00     0.046 H 
ATOM     36  O   LIG d   1       4.666  -3.029  -5.748  0.00  0.00    -0.276 OA
BRANCH  27  37
ATOM     37  C   LIG d   1       1.300  -0.837 -10.340  0.00  0.00    -0.025 C 
ATOM     38  H   LIG d   1       0.946   0.203 -10.382  0.00  0.00     0.032 H 
ATOM     39  H   LIG d   1       0.538  -1.465  -9.853  0.00  0.00     0.032 H 
BRANCH  37  40
ATOM     40  C   LIG d   1       1.549  -1.342 -11.738  0.00  0.00    -0.047 A 
ATOM     41  C   LIG d   1       0.549  -2.009 -12.420  0.00  0.00    -0.059 A 
ATOM     42  C   LIG d   1       0.777  -2.472 -13.702  0.00  0.00    -0.061 A 
ATOM     43  H   LIG d   1      -0.410  -2.170 -11.951  0.00  0.00     0.062 H 
ATOM     44  C   LIG d   1       2.006  -2.266 -14.303  0.00  0.00    -0.062 A 
ATOM     45  H   LIG d   1      -0.003  -2.994 -14.235  0.00  0.00     0.062 H 
ATOM     46  C   LIG d   1       3.006  -1.599 -13.620  0.00  0.00    -0.061 A 
ATOM     47  H   LIG d   1       2.185  -2.629 -15.304  0.00  0.00     0.062 H 
ATOM     48  C   LIG d   1       2.775  -1.131 -12.340  0.00  0.00    -0.059 A 
ATOM     49  H   LIG d   1       3.966  -1.439 -14.089  0.00  0.00     0.062 H 
ATOM     50  H   LIG d   1       3.555  -0.606 -11.808  0.00  0.00     0.062 H 
ENDBRANCH  37  40
ENDBRANCH  27  37
ENDBRANCH  17  20
ENDBRANCH   1  17
BRANCH   7  51
ATOM     51  C   LIG d   1       6.920   0.408  -4.812  0.00  0.00     0.001 C 
ATOM     52  H   LIG d   1       7.028  -0.457  -5.483  0.00  0.00     0.033 H 
ATOM     53  H   LIG d   1       6.292   1.171  -5.296  0.00  0.00     0.033 H 
BRANCH  51  54
ATOM     54  C   LIG d   1       8.279   0.988  -4.519  0.00  0.00     0.084 A 
ATOM     55  N   LIG d   1       9.427   0.531  -4.930  0.00  0.00    -0.083 NA
ATOM     56  O   LIG d   1      10.345   1.211  -4.533  0.00  0.00    -0.358 OA
ATOM     57  C   LIG d   1       9.912   2.236  -3.786  0.00  0.00     0.151 A 
ATOM     58  C   LIG d   1       8.562   2.137  -3.744  0.00  0.00     0.005 A 
ATOM     59  H   LIG d   1       7.863   2.785  -3.237  0.00  0.00     0.067 H 
BRANCH  57  60
ATOM     60  C   LIG d   1      10.760   3.290  -3.122  0.00  0.00     0.060 C 
ATOM     61  H   LIG d   1      10.960   2.996  -2.081  0.00  0.00     0.051 H 
ATOM     62  H   LIG d   1      11.712   3.390  -3.663  0.00  0.00     0.051 H 
BRANCH  60  63
ATOM     63  N   LIG d   1      10.048   4.574  -3.140  0.00  0.00    -0.291 N 
ATOM     64  C   LIG d   1      10.353   5.363  -1.937  0.00  0.00     0.023 C 
ATOM     65  C   LIG d   1       9.546   6.664  -1.967  0.00  0.00     0.060 C 
ATOM     66  H   LIG d   1      10.085   4.784  -1.041  0.00  0.00     0.045 H 
ATOM     67  H   LIG d   1      11.427   5.596  -1.914  0.00  0.00     0.045 H 
ATOM     68  O   LIG d   1       9.844   7.375  -3.172  0.00  0.00    -0.377 OA
ATOM     69  H   LIG d   1       9.813   7.284  -1.099  0.00  0.00     0.057 H 
ATOM     70  H   LIG d   1       8.470   6.431  -1.936  0.00  0.00     0.057 H 
ATOM     71  C   LIG d   1       9.558   6.637  -4.362  0.00  0.00     0.060 C 
ATOM     72  C   LIG d   1      10.365   5.336  -4.356  0.00  0.00     0.023 C 
ATOM     73  H   LIG d   1       9.835   7.235  -5.243  0.00  0.00     0.057 H 
ATOM     74  H   LIG d   1       8.484   6.401  -4.402  0.00  0.00     0.057 H 
ATOM     75  H   LIG d   1      11.440   5.569  -4.372  0.00  0.00     0.045 H 
ATOM     76  H   LIG d   1      10.106   4.737  -5.242  0.00  0.00     0.045 H 
ENDBRANCH  60  63
ENDBRANCH  57  60
ENDBRANCH  51  54
ENDBRANCH   7  51
TORSDOF 8
ENDMDL
MODEL 4
REMARK VINA RESULT:      -6.9      9.591     14.375
REMARK  8 active torsions:
REMARK  status: ('A' for Active; 'I' for Inactive)
REMARK    1  A    between atoms: C_4  and  C_7 
REMARK    2  A    between atoms: C_7  and  C_8 
REMARK       I    between atoms: N_11  and  C_14 
REMARK    3  A    between atoms: C_14  and  C_16 
REMARK    4  A    between atoms: C_16  and  C_17 
REMARK    5  A    between atoms: C_23  and  C_25 
REMARK    6  A    between atoms: C_25  and  C_26 
REMARK    7  A    between atoms: C_28  and  C_31 
REMARK    8  A    between atoms: C_31  and  N_32 
ROOT
ATOM      1  C   LIG d   1      12.738   6.010  -3.237  0.00  0.00    -0.020 C 
ATOM      2  H   LIG d   1      11.887   6.662  -3.478  0.00  0.00     0.031 H 
ATOM      3  C   LIG d   1      13.976   6.469  -4.012  0.00  0.00    -0.009 C 
ATOM      4  C   LIG d   1      15.168   5.588  -3.630  0.00  0.00    -0.033 C 
ATOM      5  N   LIG d   1      15.409   5.690  -2.185  0.00  0.00     0.227 N 
ATOM      6  C   LIG d   1      14.252   5.209  -1.419  0.00  0.00    -0.030 C 
ATOM      7  C   LIG d   1      13.033   6.078  -1.736  0.00  0.00     0.008 C 
ATOM      8  H   LIG d   1      13.236   7.119  -1.446  0.00  0.00     0.036 H 
ATOM      9  H   LIG d   1      13.785   6.382  -5.093  0.00  0.00     0.032 H 
ATOM     10  H   LIG d   1      14.197   7.518  -3.763  0.00  0.00     0.032 H 
ATOM     11  H   LIG d   1      14.951   4.543  -3.894  0.00  0.00     0.081 H 
ATOM     12  H   LIG d   1      16.062   5.926  -4.175  0.00  0.00     0.081 H 
ATOM     13  H   LIG d   1      16.285   5.081  -1.916  0.00  0.00     0.201 HD
ATOM     14  H   LIG d   1      14.038   4.165  -1.693  0.00  0.00     0.082 H 
ATOM     15  H   LIG d   1      14.474   5.268  -0.343  0.00  0.00     0.082 H 
ATOM     16  H   LIG d   1      15.596   6.740  -1.916  0.00  0.00     0.201 HD
ENDROOT
BRANCH   1  17
ATOM     17  C   LIG d   1      12.395   4.570  -3.626  0.00  0.00     0.028 C 
ATOM     18  H   LIG d   1      12.042   4.025  -2.738  0.00  0.00     0.036 H 
ATOM     19  H   LIG d   1      13.292   4.075  -4.027  0.00  0.00     0.036 H 
BRANCH  17  20
ATOM     20  C   LIG d   1      11.313   4.577  -4.675  0.00  0.00     0.216 C 
ATOM     21  N   LIG d   1      10.121   4.003  -4.418  0.00  0.00    -0.301 N 
ATOM     22  C   LIG d   1       9.056   4.002  -5.429  0.00  0.00     0.015 C 
ATOM     23  C   LIG d   1       9.866   3.358  -3.122  0.00  0.00     0.015 C 
ATOM     24  C   LIG d   1       8.584   2.561  -5.647  0.00  0.00    -0.034 C 
ATOM     25  H   LIG d   1       9.442   4.409  -6.376  0.00  0.00     0.046 H 
ATOM     26  H   LIG d   1       8.212   4.617  -5.083  0.00  0.00     0.046 H 
ATOM     27  C   LIG d   1       8.174   1.954  -4.303  0.00  0.00    -0.034 C 
ATOM     28  H   LIG d   1       9.401   1.968  -6.083  0.00  0.00     0.028 H 
ATOM     29  H   LIG d   1       7.721   2.557  -6.330  0.00  0.00     0.028 H 
ATOM     30  C   LIG d   1       9.381   1.930  -3.363  0.00  0.00    -0.034 C 
ATOM     31  H   LIG d   1       7.374   2.563  -3.855  0.00  0.00     0.030 H 
ATOM     32  H   LIG d   1       9.091   1.474  -2.406  0.00  0.00     0.028 H 
ATOM     33  H   LIG d   1      10.190   1.341  -3.820  0.00  0.00     0.028 H 
ATOM     34  H   LIG d   1      10.792   3.341  -2.531  0.00  0.00     0.046 H 
ATOM     35  H   LIG d   1       9.094   3.924  -2.577  0.00  0.00     0.046 H 
ATOM     36  O   LIG d   1      11.514   5.101  -5.749  0.00  0.00    -0.276 OA
BRANCH  27  37
ATOM     37  C   LIG d   1       7.668   0.527  -4.521  0.00  0.00    -0.025 C 
ATOM     38  H   LIG d   1       8.483  -0.184  -4.323  0.00  0.00     0.032 H 
ATOM     39  H   LIG d   1       7.328   0.414  -5.561  0.00  0.00     0.032 H 
BRANCH  37  40
ATOM     40  C   LIG d   1       6.521   0.252  -3.584  0.00  0.00    -0.047 A 
ATOM     41  C   LIG d   1       5.824   1.302  -3.019  0.00  0.00    -0.059 A 
ATOM     42  C   LIG d   1       4.771   1.049  -2.159  0.00  0.00    -0.061 A 
ATOM     43  H   LIG d   1       6.101   2.320  -3.247  0.00  0.00     0.062 H 
ATOM     44  C   LIG d   1       4.415  -0.255  -1.865  0.00  0.00    -0.062 A 
ATOM     45  H   LIG d   1       4.226   1.870  -1.716  0.00  0.00     0.062 H 
ATOM     46  C   LIG d   1       5.114  -1.305  -2.431  0.00  0.00    -0.061 A 
ATOM     47  H   LIG d   1       3.594  -0.452  -1.193  0.00  0.00     0.062 H 
ATOM     48  C   LIG d   1       6.162  -1.052  -3.295  0.00  0.00    -0.059 A 
ATOM     49  H   LIG d   1       4.837  -2.324  -2.202  0.00  0.00     0.062 H 
ATOM     50  H   LIG d   1       6.705  -1.872  -3.741  0.00  0.00     0.062 H 
ENDBRANCH  37  40
ENDBRANCH  27  37
ENDBRANCH  17  20
ENDBRANCH   1  17
BRANCH   7  51
ATOM     51  C   LIG d   1      11.822   5.563  -0.955  0.00  0.00     0.001 C 
ATOM     52  H   LIG d   1      11.443   4.646  -1.428  0.00  0.00     0.033 H 
ATOM     53  H   LIG d   1      12.120   5.345   0.082  0.00  0.00     0.033 H 
BRANCH  51  54
ATOM     54  C   LIG d   1      10.740   6.612  -0.956  0.00  0.00     0.084 A 
ATOM     55  N   LIG d   1       9.489   6.441  -1.277  0.00  0.00    -0.083 NA
ATOM     56  O   LIG d   1       8.861   7.470  -1.180  0.00  0.00    -0.358 OA
ATOM     57  C   LIG d   1       9.634   8.484  -0.770  0.00  0.00     0.151 A 
ATOM     58  C   LIG d   1      10.880   7.975  -0.608  0.00  0.00     0.005 A 
ATOM     59  H   LIG d   1      11.773   8.492  -0.288  0.00  0.00     0.067 H 
BRANCH  57  60
ATOM     60  C   LIG d   1       9.206   9.910  -0.537  0.00  0.00     0.060 C 
ATOM     61  H   LIG d   1       8.127  10.003  -0.729  0.00  0.00     0.051 H 
ATOM     62  H   LIG d   1       9.419  10.192   0.504  0.00  0.00     0.051 H 
BRANCH  60  63
ATOM     63  N   LIG d   1       9.944  10.798  -1.446  0.00  0.00    -0.291 N 
ATOM     64  C   LIG d   1       9.117  11.173  -2.602  0.00  0.00     0.023 C 
ATOM     65  C   LIG d   1       9.942  12.048  -3.551  0.00  0.00     0.060 C 
ATOM     66  H   LIG d   1       8.790  10.265  -3.129  0.00  0.00     0.045 H 
ATOM     67  H   LIG d   1       8.236  11.734  -2.256  0.00  0.00     0.045 H 
ATOM     68  O   LIG d   1      10.427  13.188  -2.837  0.00  0.00    -0.377 OA
ATOM     69  H   LIG d   1       9.312  12.379  -4.389  0.00  0.00     0.057 H 
ATOM     70  H   LIG d   1      10.794  11.468  -3.938  0.00  0.00     0.057 H 
ATOM     71  C   LIG d   1      11.236  12.860  -1.706  0.00  0.00     0.060 C 
ATOM     72  C   LIG d   1      10.424  11.994  -0.739  0.00  0.00     0.023 C 
ATOM     73  H   LIG d   1      11.550  13.782  -1.196  0.00  0.00     0.057 H 
ATOM     74  H   LIG d   1      12.126  12.303  -2.037  0.00  0.00     0.057 H 
ATOM     75  H   LIG d   1       9.565  12.567  -0.363  0.00  0.00     0.045 H 
ATOM     76  H   LIG d   1      11.060  11.690   0.106  0.00  0.00     0.045 H 
ENDBRANCH  60  63
ENDBRANCH  57  60
ENDBRANCH  51  54
ENDBRANCH   7  51
TORSDOF 8
ENDMDL
MODEL 5
REMARK VINA RESULT:      -6.9      4.512      6.716
REMARK  8 active torsions:
REMARK  status: ('A' for Active; 'I' for Inactive)
REMARK    1  A    between atoms: C_4  and  C_7 
REMARK    2  A    between atoms: C_7  and  C_8 
REMARK       I    between atoms: N_11  and  C_14 
REMARK    3  A    between atoms: C_14  and  C_16 
REMARK    4  A    between atoms: C_16  and  C_17 
REMARK    5  A    between atoms: C_23  and  C_25 
REMARK    6  A    between atoms: C_25  and  C_26 
REMARK    7  A    between atoms: C_28  and  C_31 
REMARK    8  A    between atoms: C_31  and  N_32 
ROOT
ATOM      1  C   LIG d   1       4.752  -1.090  -5.476  0.00  0.00    -0.020 C 
ATOM      2  H   LIG d   1       5.034  -1.291  -6.520  0.00  0.00     0.031 H 
ATOM      3  C   LIG d   1       3.570  -0.117  -5.438  0.00  0.00    -0.009 C 
ATOM      4  C   LIG d   1       3.152   0.114  -3.984  0.00  0.00    -0.033 C 
ATOM      5  N   LIG d   1       2.775  -1.166  -3.372  0.00  0.00     0.227 N 
ATOM      6  C   LIG d   1       3.908  -2.100  -3.353  0.00  0.00    -0.030 C 
ATOM      7  C   LIG d   1       4.348  -2.397  -4.789  0.00  0.00     0.008 C 
ATOM      8  H   LIG d   1       3.519  -2.864  -5.340  0.00  0.00     0.036 H 
ATOM      9  H   LIG d   1       3.868   0.839  -5.894  0.00  0.00     0.032 H 
ATOM     10  H   LIG d   1       2.726  -0.544  -6.001  0.00  0.00     0.032 H 
ATOM     11  H   LIG d   1       3.992   0.554  -3.427  0.00  0.00     0.081 H 
ATOM     12  H   LIG d   1       2.293   0.802  -3.956  0.00  0.00     0.081 H 
ATOM     13  H   LIG d   1       2.445  -0.994  -2.337  0.00  0.00     0.201 HD
ATOM     14  H   LIG d   1       4.745  -1.650  -2.799  0.00  0.00     0.082 H 
ATOM     15  H   LIG d   1       3.603  -3.036  -2.862  0.00  0.00     0.082 H 
ATOM     16  H   LIG d   1       1.955  -1.621  -3.948  0.00  0.00     0.201 HD
ENDROOT
BRANCH   1  17
ATOM     17  C   LIG d   1       5.946  -0.474  -4.742  0.00  0.00     0.028 C 
ATOM     18  H   LIG d   1       6.358  -1.207  -4.033  0.00  0.00     0.036 H 
ATOM     19  H   LIG d   1       5.618   0.421  -4.195  0.00  0.00     0.036 H 
BRANCH  17  20
ATOM     20  C   LIG d   1       7.007  -0.092  -5.742  0.00  0.00     0.216 C 
ATOM     21  N   LIG d   1       8.020   0.717  -5.373  0.00  0.00    -0.301 N 
ATOM     22  C   LIG d   1       9.062   1.099  -6.336  0.00  0.00     0.015 C 
ATOM     23  C   LIG d   1       8.099   1.239  -4.002  0.00  0.00     0.015 C 
ATOM     24  C   LIG d   1       9.171   2.626  -6.365  0.00  0.00    -0.034 C 
ATOM     25  H   LIG d   1       8.796   0.730  -7.338  0.00  0.00     0.046 H 
ATOM     26  H   LIG d   1      10.027   0.668  -6.031  0.00  0.00     0.046 H 
ATOM     27  C   LIG d   1       9.408   3.144  -4.944  0.00  0.00    -0.034 C 
ATOM     28  H   LIG d   1       8.237   3.054  -6.760  0.00  0.00     0.028 H 
ATOM     29  H   LIG d   1      10.013   2.923  -7.008  0.00  0.00     0.028 H 
ATOM     30  C   LIG d   1       8.222   2.761  -4.056  0.00  0.00    -0.034 C 
ATOM     31  H   LIG d   1      10.328   2.696  -4.540  0.00  0.00     0.030 H 
ATOM     32  H   LIG d   1       8.384   3.152  -3.041  0.00  0.00     0.028 H 
ATOM     33  H   LIG d   1       7.299   3.189  -4.471  0.00  0.00     0.028 H 
ATOM     34  H   LIG d   1       7.191   0.960  -3.450  0.00  0.00     0.046 H 
ATOM     35  H   LIG d   1       8.980   0.814  -3.498  0.00  0.00     0.046 H 
ATOM     36  O   LIG d   1       6.949  -0.512  -6.878  0.00  0.00    -0.276 OA
BRANCH  27  37
ATOM     37  C   LIG d   1       9.552   4.667  -4.974  0.00  0.00    -0.025 C 
ATOM     38  H   LIG d   1       8.605   5.117  -5.304  0.00  0.00     0.032 H 
ATOM     39  H   LIG d   1      10.354   4.945  -5.674  0.00  0.00     0.032 H 
BRANCH  37  40
ATOM     40  C   LIG d   1       9.893   5.166  -3.594  0.00  0.00    -0.047 A 
ATOM     41  C   LIG d   1       9.340   6.344  -3.129  0.00  0.00    -0.059 A 
ATOM     42  C   LIG d   1       9.653   6.801  -1.862  0.00  0.00    -0.061 A 
ATOM     43  H   LIG d   1       8.665   6.907  -3.754  0.00  0.00     0.062 H 
ATOM     44  C   LIG d   1      10.519   6.080  -1.060  0.00  0.00    -0.062 A 
ATOM     45  H   LIG d   1       9.222   7.722  -1.499  0.00  0.00     0.062 H 
ATOM     46  C   LIG d   1      11.072   4.902  -1.526  0.00  0.00    -0.061 A 
ATOM     47  H   LIG d   1      10.764   6.438  -0.072  0.00  0.00     0.062 H 
ATOM     48  C   LIG d   1      10.754   4.441  -2.790  0.00  0.00    -0.059 A 
ATOM     49  H   LIG d   1      11.748   4.338  -0.901  0.00  0.00     0.062 H 
ATOM     50  H   LIG d   1      11.183   3.519  -3.153  0.00  0.00     0.062 H 
ENDBRANCH  37  40
ENDBRANCH  27  37
ENDBRANCH  17  20
ENDBRANCH   1  17
BRANCH   7  51
ATOM     51  C   LIG d   1       5.543  -3.353  -4.768  0.00  0.00     0.001 C 
ATOM     52  H   LIG d   1       6.352  -2.943  -5.391  0.00  0.00     0.033 H 
ATOM     53  H   LIG d   1       5.900  -3.472  -3.734  0.00  0.00     0.033 H 
BRANCH  51  54
ATOM     54  C   LIG d   1       5.123  -4.695  -5.311  0.00  0.00     0.084 A 
ATOM     55  N   LIG d   1       3.908  -5.087  -5.566  0.00  0.00    -0.083 NA
ATOM     56  O   LIG d   1       3.886  -6.217  -5.995  0.00  0.00    -0.358 OA
ATOM     57  C   LIG d   1       5.119  -6.735  -6.084  0.00  0.00     0.151 A 
ATOM     58  C   LIG d   1       5.970  -5.776  -5.647  0.00  0.00     0.005 A 
ATOM     59  H   LIG d   1       7.046  -5.826  -5.571  0.00  0.00     0.067 H 
BRANCH  57  60
ATOM     60  C   LIG d   1       5.486  -8.113  -6.572  0.00  0.00     0.060 C 
ATOM     61  H   LIG d   1       5.302  -8.179  -7.654  0.00  0.00     0.051 H 
ATOM     62  H   LIG d   1       6.551  -8.302  -6.369  0.00  0.00     0.051 H 
BRANCH  60  63
ATOM     63  N   LIG d   1       4.669  -9.114  -5.873  0.00  0.00    -0.291 N 
ATOM     64  C   LIG d   1       4.870 -10.452  -6.449  0.00  0.00     0.023 C 
ATOM     65  C   LIG d   1       3.958 -11.452  -5.733  0.00  0.00     0.060 C 
ATOM     66  H   LIG d   1       4.625 -10.431  -7.521  0.00  0.00     0.045 H 
ATOM     67  H   LIG d   1       5.921 -10.753  -6.319  0.00  0.00     0.045 H 
ATOM     68  O   LIG d   1       4.231 -11.418  -4.330  0.00  0.00    -0.377 OA
ATOM     69  H   LIG d   1       4.146 -12.464  -6.120  0.00  0.00     0.057 H 
ATOM     70  H   LIG d   1       2.906 -11.181  -5.909  0.00  0.00     0.057 H 
ATOM     71  C   LIG d   1       4.045 -10.131  -3.737  0.00  0.00     0.060 C 
ATOM     72  C   LIG d   1       4.958  -9.118  -4.433  0.00  0.00     0.023 C 
ATOM     73  H   LIG d   1       4.297 -10.178  -2.668  0.00  0.00     0.057 H 
ATOM     74  H   LIG d   1       2.996  -9.820  -3.854  0.00  0.00     0.057 H 
ATOM     75  H   LIG d   1       6.009  -9.397  -4.270  0.00  0.00     0.045 H 
ATOM     76  H   LIG d   1       4.777  -8.115  -4.019  0.00  0.00     0.045 H 
ENDBRANCH  60  63
ENDBRANCH  57  60
ENDBRANCH  51  54
ENDBRANCH   7  51
TORSDOF 8
ENDMDL
MODEL 6
REMARK VINA RESULT:      -6.8      9.338     14.306
REMARK  8 active torsions:
REMARK  status: ('A' for Active; 'I' for Inactive)
REMARK    1  A    between atoms: C_4  and  C_7 
REMARK    2  A    between atoms: C_7  and  C_8 
REMARK       I    between atoms: N_11  and  C_14 
REMARK    3  A    between atoms: C_14  and  C_16 
REMARK    4  A    between atoms: C_16  and  C_17 
REMARK    5  A    between atoms: C_23  and  C_25 
REMARK    6  A    between atoms: C_25  and  C_26 
REMARK    7  A    between atoms: C_28  and  C_31 
REMARK    8  A    between atoms: C_31  and  N_32 
ROOT
ATOM      1  C   LIG d   1      11.451   4.782  -4.060  0.00  0.00    -0.020 C 
ATOM      2  H   LIG d   1      10.993   5.309  -4.910  0.00  0.00     0.031 H 
ATOM      3  C   LIG d   1      12.933   4.528  -4.348  0.00  0.00    -0.009 C 
ATOM      4  C   LIG d   1      13.573   3.842  -3.138  0.00  0.00    -0.033 C 
ATOM      5  N   LIG d   1      13.426   4.699  -1.955  0.00  0.00     0.227 N 
ATOM      6  C   LIG d   1      12.011   4.917  -1.630  0.00  0.00    -0.030 C 
ATOM      7  C   LIG d   1      11.325   5.635  -2.795  0.00  0.00     0.008 C 
ATOM      8  H   LIG d   1      11.801   6.612  -2.959  0.00  0.00     0.036 H 
ATOM      9  H   LIG d   1      13.029   3.880  -5.232  0.00  0.00     0.032 H 
ATOM     10  H   LIG d   1      13.439   5.486  -4.539  0.00  0.00     0.032 H 
ATOM     11  H   LIG d   1      13.075   2.878  -2.958  0.00  0.00     0.081 H 
ATOM     12  H   LIG d   1      14.642   3.672  -3.337  0.00  0.00     0.081 H 
ATOM     13  H   LIG d   1      13.914   4.219  -1.093  0.00  0.00     0.201 HD
ATOM     14  H   LIG d   1      11.520   3.948  -1.457  0.00  0.00     0.082 H 
ATOM     15  H   LIG d   1      11.934   5.535  -0.723  0.00  0.00     0.082 H 
ATOM     16  H   LIG d   1      13.897   5.674  -2.147  0.00  0.00     0.201 HD
ENDROOT
BRANCH   1  17
ATOM     17  C   LIG d   1      10.733   3.446  -3.850  0.00  0.00     0.028 C 
ATOM     18  H   LIG d   1       9.911   3.581  -3.133  0.00  0.00     0.036 H 
ATOM     19  H   LIG d   1      11.445   2.706  -3.457  0.00  0.00     0.036 H 
BRANCH  17  20
ATOM     20  C   LIG d   1      10.179   2.962  -5.165  0.00  0.00     0.216 C 
ATOM     21  N   LIG d   1       8.947   2.418  -5.218  0.00  0.00    -0.301 N 
ATOM     22  C   LIG d   1       8.393   1.941  -6.492  0.00  0.00     0.015 C 
ATOM     23  C   LIG d   1       8.137   2.283  -4.000  0.00  0.00     0.015 C 
ATOM     24  C   LIG d   1       7.945   0.486  -6.321  0.00  0.00    -0.034 C 
ATOM     25  H   LIG d   1       9.162   1.999  -7.278  0.00  0.00     0.046 H 
ATOM     26  H   LIG d   1       7.530   2.560  -6.778  0.00  0.00     0.046 H 
ATOM     27  C   LIG d   1       6.976   0.390  -5.140  0.00  0.00    -0.034 C 
ATOM     28  H   LIG d   1       8.822  -0.149  -6.129  0.00  0.00     0.028 H 
ATOM     29  H   LIG d   1       7.439   0.147  -7.238  0.00  0.00     0.028 H 
ATOM     30  C   LIG d   1       7.688   0.829  -3.859  0.00  0.00    -0.034 C 
ATOM     31  H   LIG d   1       6.112   1.045  -5.321  0.00  0.00     0.030 H 
ATOM     32  H   LIG d   1       6.998   0.739  -3.007  0.00  0.00     0.028 H 
ATOM     33  H   LIG d   1       8.566   0.190  -3.688  0.00  0.00     0.028 H 
ATOM     34  H   LIG d   1       8.736   2.573  -3.126  0.00  0.00     0.046 H 
ATOM     35  H   LIG d   1       7.255   2.937  -4.073  0.00  0.00     0.046 H 
ATOM     36  O   LIG d   1      10.842   3.062  -6.176  0.00  0.00    -0.276 OA
BRANCH  27  37
ATOM     37  C   LIG d   1       6.499  -1.056  -4.988  0.00  0.00    -0.025 C 
ATOM     38  H   LIG d   1       7.266  -1.641  -4.461  0.00  0.00     0.032 H 
ATOM     39  H   LIG d   1       6.327  -1.491  -5.984  0.00  0.00     0.032 H 
BRANCH  37  40
ATOM     40  C   LIG d   1       5.216  -1.081  -4.200  0.00  0.00    -0.047 A 
ATOM     41  C   LIG d   1       5.105  -1.890  -3.085  0.00  0.00    -0.059 A 
ATOM     42  C   LIG d   1       3.928  -1.913  -2.362  0.00  0.00    -0.061 A 
ATOM     43  H   LIG d   1       5.938  -2.506  -2.781  0.00  0.00     0.062 H 
ATOM     44  C   LIG d   1       2.860  -1.125  -2.752  0.00  0.00    -0.062 A 
ATOM     45  H   LIG d   1       3.840  -2.547  -1.491  0.00  0.00     0.062 H 
ATOM     46  C   LIG d   1       2.972  -0.315  -3.867  0.00  0.00    -0.061 A 
ATOM     47  H   LIG d   1       1.940  -1.143  -2.187  0.00  0.00     0.062 H 
ATOM     48  C   LIG d   1       4.151  -0.288  -4.587  0.00  0.00    -0.059 A 
ATOM     49  H   LIG d   1       2.139   0.301  -4.173  0.00  0.00     0.062 H 
ATOM     50  H   LIG d   1       4.240   0.348  -5.455  0.00  0.00     0.062 H 
ENDBRANCH  37  40
ENDBRANCH  27  37
ENDBRANCH  17  20
ENDBRANCH   1  17
BRANCH   7  51
ATOM     51  C   LIG d   1       9.845   5.843  -2.465  0.00  0.00     0.001 C 
ATOM     52  H   LIG d   1       9.240   5.660  -3.365  0.00  0.00     0.033 H 
ATOM     53  H   LIG d   1       9.544   5.142  -1.672  0.00  0.00     0.033 H 
BRANCH  51  54
ATOM     54  C   LIG d   1       9.629   7.258  -1.994  0.00  0.00     0.084 A 
ATOM     55  N   LIG d   1       8.824   7.651  -1.049  0.00  0.00    -0.083 NA
ATOM     56  O   LIG d   1       8.868   8.849  -0.897  0.00  0.00    -0.358 OA
ATOM     57  C   LIG d   1       9.731   9.423  -1.746  0.00  0.00     0.151 A 
ATOM     58  C   LIG d   1      10.260   8.422  -2.490  0.00  0.00     0.005 A 
ATOM     59  H   LIG d   1      10.993   8.496  -3.280  0.00  0.00     0.067 H 
BRANCH  57  60
ATOM     60  C   LIG d   1      10.051  10.892  -1.853  0.00  0.00     0.060 C 
ATOM     61  H   LIG d   1      10.958  11.025  -2.461  0.00  0.00     0.051 H 
ATOM     62  H   LIG d   1       9.210  11.417  -2.330  0.00  0.00     0.051 H 
BRANCH  60  63
ATOM     63  N   LIG d   1      10.275  11.444  -0.511  0.00  0.00    -0.291 N 
ATOM     64  C   LIG d   1      11.452  10.830   0.122  0.00  0.00     0.023 C 
ATOM     65  C   LIG d   1      11.614  11.389   1.539  0.00  0.00     0.060 C 
ATOM     66  H   LIG d   1      11.316   9.739   0.169  0.00  0.00     0.045 H 
ATOM     67  H   LIG d   1      12.349  11.062  -0.470  0.00  0.00     0.045 H 
ATOM     68  O   LIG d   1      11.714  12.813   1.474  0.00  0.00    -0.377 OA
ATOM     69  H   LIG d   1      12.525  10.976   1.996  0.00  0.00     0.057 H 
ATOM     70  H   LIG d   1      10.739  11.110   2.146  0.00  0.00     0.057 H 
ATOM     71  C   LIG d   1      10.585  13.444   0.865  0.00  0.00     0.060 C 
ATOM     72  C   LIG d   1      10.414  12.906  -0.559  0.00  0.00     0.023 C 
ATOM     73  H   LIG d   1      10.745  14.532   0.828  0.00  0.00     0.057 H 
ATOM     74  H   LIG d   1       9.680  13.226   1.451  0.00  0.00     0.057 H 
ATOM     75  H   LIG d   1      11.294  13.172  -1.161  0.00  0.00     0.045 H 
ATOM     76  H   LIG d   1       9.513  13.345  -1.012  0.00  0.00     0.045 H 
ENDBRANCH  60  63
ENDBRANCH  57  60
ENDBRANCH  51  54
ENDBRANCH   7  51
TORSDOF 8
ENDMDL
MODEL 7
REMARK VINA RESULT:      -6.8      9.039     12.190
REMARK  8 active torsions:
REMARK  status: ('A' for Active; 'I' for Inactive)
REMARK    1  A    between atoms: C_4  and  C_7 
REMARK    2  A    between atoms: C_7  and  C_8 
REMARK       I    between atoms: N_11  and  C_14 
REMARK    3  A    between atoms: C_14  and  C_16 
REMARK    4  A    between atoms: C_16  and  C_17 
REMARK    5  A    between atoms: C_23  and  C_25 
REMARK    6  A    between atoms: C_25  and  C_26 
REMARK    7  A    between atoms: C_28  and  C_31 
REMARK    8  A    between atoms: C_31  and  N_32 
ROOT
ATOM      1  C   LIG d   1       9.716   5.871  -3.005  0.00  0.00    -0.020 C 
ATOM      2  H   LIG d   1       8.717   6.164  -3.361  0.00  0.00     0.031 H 
ATOM      3  C   LIG d   1       9.892   6.307  -1.548  0.00  0.00    -0.009 C 
ATOM      4  C   LIG d   1      11.263   5.849  -1.045  0.00  0.00    -0.033 C 
ATOM      5  N   LIG d   1      11.362   4.387  -1.153  0.00  0.00     0.227 N 
ATOM      6  C   LIG d   1      11.244   3.949  -2.549  0.00  0.00    -0.030 C 
ATOM      7  C   LIG d   1       9.872   4.351  -3.096  0.00  0.00     0.008 C 
ATOM      8  H   LIG d   1       9.082   3.862  -2.508  0.00  0.00     0.036 H 
ATOM      9  H   LIG d   1       9.823   7.403  -1.482  0.00  0.00     0.032 H 
ATOM     10  H   LIG d   1       9.102   5.853  -0.931  0.00  0.00     0.032 H 
ATOM     11  H   LIG d   1      12.051   6.316  -1.654  0.00  0.00     0.081 H 
ATOM     12  H   LIG d   1      11.386   6.148   0.006  0.00  0.00     0.081 H 
ATOM     13  H   LIG d   1      12.336   4.057  -0.763  0.00  0.00     0.201 HD
ATOM     14  H   LIG d   1      12.032   4.425  -3.151  0.00  0.00     0.082 H 
ATOM     15  H   LIG d   1      11.352   2.856  -2.600  0.00  0.00     0.082 H 
ATOM     16  H   LIG d   1      10.554   3.921  -0.569  0.00  0.00     0.201 HD
ENDROOT
BRANCH   1  17
ATOM     17  C   LIG d   1      10.779   6.548  -3.875  0.00  0.00     0.028 C 
ATOM     18  H   LIG d   1      11.097   5.856  -4.668  0.00  0.00     0.036 H 
ATOM     19  H   LIG d   1      11.645   6.815  -3.252  0.00  0.00     0.036 H 
BRANCH  17  20
ATOM     20  C   LIG d   1      10.201   7.794  -4.495  0.00  0.00     0.216 C 
ATOM     21  N   LIG d   1       9.877   7.807  -5.803  0.00  0.00    -0.301 N 
ATOM     22  C   LIG d   1       9.313   9.014  -6.422  0.00  0.00     0.015 C 
ATOM     23  C   LIG d   1      10.088   6.617  -6.638  0.00  0.00     0.015 C 
ATOM     24  C   LIG d   1      10.156   9.379  -7.648  0.00  0.00    -0.034 C 
ATOM     25  H   LIG d   1       9.332   9.846  -5.702  0.00  0.00     0.046 H 
ATOM     26  H   LIG d   1       8.275   8.823  -6.734  0.00  0.00     0.046 H 
ATOM     27  C   LIG d   1      10.237   8.172  -8.585  0.00  0.00    -0.034 C 
ATOM     28  H   LIG d   1      11.169   9.663  -7.326  0.00  0.00     0.028 H 
ATOM     29  H   LIG d   1       9.689  10.223  -8.177  0.00  0.00     0.028 H 
ATOM     30  C   LIG d   1      10.917   7.008  -7.861  0.00  0.00    -0.034 C 
ATOM     31  H   LIG d   1       9.222   7.873  -8.885  0.00  0.00     0.030 H 
ATOM     32  H   LIG d   1      10.994   6.147  -8.542  0.00  0.00     0.028 H 
ATOM     33  H   LIG d   1      11.924   7.313  -7.539  0.00  0.00     0.028 H 
ATOM     34  H   LIG d   1      10.622   5.851  -6.057  0.00  0.00     0.046 H 
ATOM     35  H   LIG d   1       9.115   6.219  -6.962  0.00  0.00     0.046 H 
ATOM     36  O   LIG d   1      10.028   8.784  -3.817  0.00  0.00    -0.276 OA
BRANCH  27  37
ATOM     37  C   LIG d   1      11.049   8.544  -9.827  0.00  0.00    -0.025 C 
ATOM     38  H   LIG d   1      12.050   8.094  -9.758  0.00  0.00     0.032 H 
ATOM     39  H   LIG d   1      11.143   9.638  -9.889  0.00  0.00     0.032 H 
BRANCH  37  40
ATOM     40  C   LIG d   1      10.349   8.028 -11.057  0.00  0.00    -0.047 A 
ATOM     41  C   LIG d   1      10.357   8.774 -12.221  0.00  0.00    -0.059 A 
ATOM     42  C   LIG d   1       9.715   8.301 -13.350  0.00  0.00    -0.061 A 
ATOM     43  H   LIG d   1      10.864   9.727 -12.248  0.00  0.00     0.062 H 
ATOM     44  C   LIG d   1       9.065   7.080 -13.316  0.00  0.00    -0.062 A 
ATOM     45  H   LIG d   1       9.721   8.884 -14.259  0.00  0.00     0.062 H 
ATOM     46  C   LIG d   1       9.058   6.335 -12.152  0.00  0.00    -0.061 A 
ATOM     47  H   LIG d   1       8.563   6.711 -14.197  0.00  0.00     0.062 H 
ATOM     48  C   LIG d   1       9.705   6.805 -11.025  0.00  0.00    -0.059 A 
ATOM     49  H   LIG d   1       8.550   5.381 -12.124  0.00  0.00     0.062 H 
ATOM     50  H   LIG d   1       9.703   6.221 -10.117  0.00  0.00     0.062 H 
ENDBRANCH  37  40
ENDBRANCH  27  37
ENDBRANCH  17  20
ENDBRANCH   1  17
BRANCH   7  51
ATOM     51  C   LIG d   1       9.758   3.913  -4.558  0.00  0.00     0.001 C 
ATOM     52  H   LIG d   1       9.378   4.750  -5.163  0.00  0.00     0.033 H 
ATOM     53  H   LIG d   1      10.748   3.611  -4.930  0.00  0.00     0.033 H 
BRANCH  51  54
ATOM     54  C   LIG d   1       8.807   2.749  -4.661  0.00  0.00     0.084 A 
ATOM     55  N   LIG d   1       8.088   2.418  -5.696  0.00  0.00    -0.083 NA
ATOM     56  O   LIG d   1       7.422   1.433  -5.478  0.00  0.00    -0.358 OA
ATOM     57  C   LIG d   1       7.616   0.970  -4.236  0.00  0.00     0.151 A 
ATOM     58  C   LIG d   1       8.518   1.798  -3.655  0.00  0.00     0.005 A 
ATOM     59  H   LIG d   1       8.922   1.745  -2.655  0.00  0.00     0.067 H 
BRANCH  57  60
ATOM     60  C   LIG d   1       6.962  -0.233  -3.607  0.00  0.00     0.060 C 
ATOM     61  H   LIG d   1       7.215  -1.132  -4.187  0.00  0.00     0.051 H 
ATOM     62  H   LIG d   1       7.322  -0.349  -2.575  0.00  0.00     0.051 H 
BRANCH  60  63
ATOM     63  N   LIG d   1       5.504  -0.049  -3.599  0.00  0.00    -0.291 N 
ATOM     64  C   LIG d   1       4.814  -1.320  -3.334  0.00  0.00     0.023 C 
ATOM     65  C   LIG d   1       3.300  -1.095  -3.394  0.00  0.00     0.060 C 
ATOM     66  H   LIG d   1       5.107  -2.061  -4.092  0.00  0.00     0.045 H 
ATOM     67  H   LIG d   1       5.094  -1.687  -2.336  0.00  0.00     0.045 H 
ATOM     68  O   LIG d   1       2.939  -0.077  -2.458  0.00  0.00    -0.377 OA
ATOM     69  H   LIG d   1       2.779  -2.030  -3.140  0.00  0.00     0.057 H 
ATOM     70  H   LIG d   1       3.015  -0.779  -4.409  0.00  0.00     0.057 H 
ATOM     71  C   LIG d   1       3.591   1.174  -2.687  0.00  0.00     0.060 C 
ATOM     72  C   LIG d   1       5.107   0.973  -2.620  0.00  0.00     0.023 C 
ATOM     73  H   LIG d   1       3.284   1.897  -1.916  0.00  0.00     0.057 H 
ATOM     74  H   LIG d   1       3.316   1.558  -3.681  0.00  0.00     0.057 H 
ATOM     75  H   LIG d   1       5.391   0.643  -1.610  0.00  0.00     0.045 H 
ATOM     76  H   LIG d   1       5.616   1.920  -2.852  0.00  0.00     0.045 H 
ENDBRANCH  60  63
ENDBRANCH  57  60
ENDBRANCH  51  54
ENDBRANCH   7  51
TORSDOF 8
ENDMDL
MODEL 8
REMARK VINA RESULT:      -6.8      8.626     13.110
REMARK  8 active torsions:
REMARK  status: ('A' for Active; 'I' for Inactive)
REMARK    1  A    between atoms: C_4  and  C_7 
REMARK    2  A    between atoms: C_7  and  C_8 
REMARK       I    between atoms: N_11  and  C_14 
REMARK    3  A    between atoms: C_14  and  C_16 
REMARK    4  A    between atoms: C_16  and  C_17 
REMARK    5  A    between atoms: C_23  and  C_25 
REMARK    6  A    between atoms: C_25  and  C_26 
REMARK    7  A    between atoms: C_28  and  C_31 
REMARK    8  A    between atoms: C_31  and  N_32 
ROOT
ATOM      1  C   LIG d   1      11.013   5.032  -3.347  0.00  0.00    -0.020 C 
ATOM      2  H   LIG d   1      11.540   4.879  -4.300  0.00  0.00     0.031 H 
ATOM      3  C   LIG d   1      12.030   5.151  -2.208  0.00  0.00    -0.009 C 
ATOM      4  C   LIG d   1      11.290   5.417  -0.895  0.00  0.00    -0.033 C 
ATOM      5  N   LIG d   1      10.512   6.657  -1.012  0.00  0.00     0.227 N 
ATOM      6  C   LIG d   1       9.496   6.549  -2.067  0.00  0.00    -0.030 C 
ATOM      7  C   LIG d   1      10.183   6.317  -3.415  0.00  0.00     0.008 C 
ATOM      8  H   LIG d   1      10.839   7.169  -3.646  0.00  0.00     0.036 H 
ATOM      9  H   LIG d   1      12.601   4.214  -2.127  0.00  0.00     0.032 H 
ATOM     10  H   LIG d   1      12.719   5.983  -2.418  0.00  0.00     0.032 H 
ATOM     11  H   LIG d   1      10.612   4.577  -0.680  0.00  0.00     0.081 H 
ATOM     12  H   LIG d   1      12.020   5.518  -0.077  0.00  0.00     0.081 H 
ATOM     13  H   LIG d   1      10.005   6.863  -0.057  0.00  0.00     0.201 HD
ATOM     14  H   LIG d   1       8.827   5.704  -1.847  0.00  0.00     0.082 H 
ATOM     15  H   LIG d   1       8.911   7.479  -2.109  0.00  0.00     0.082 H 
ATOM     16  H   LIG d   1      11.186   7.491  -1.257  0.00  0.00     0.201 HD
ENDROOT
BRANCH   1  17
ATOM     17  C   LIG d   1      10.089   3.840  -3.086  0.00  0.00     0.028 C 
ATOM     18  H   LIG d   1       9.042   4.176  -3.109  0.00  0.00     0.036 H 
ATOM     19  H   LIG d   1      10.314   3.411  -2.098  0.00  0.00     0.036 H 
BRANCH  17  20
ATOM     20  C   LIG d   1      10.306   2.794  -4.149  0.00  0.00     0.216 C 
ATOM     21  N   LIG d   1       9.266   2.060  -4.594  0.00  0.00    -0.301 N 
ATOM     22  C   LIG d   1       9.461   1.037  -5.630  0.00  0.00     0.015 C 
ATOM     23  C   LIG d   1       7.918   2.263  -4.045  0.00  0.00     0.015 C 
ATOM     24  C   LIG d   1       8.898  -0.293  -5.121  0.00  0.00    -0.034 C 
ATOM     25  H   LIG d   1      10.534   0.925  -5.845  0.00  0.00     0.046 H 
ATOM     26  H   LIG d   1       8.932   1.332  -6.549  0.00  0.00     0.046 H 
ATOM     27  C   LIG d   1       7.441  -0.098  -4.697  0.00  0.00    -0.034 C 
ATOM     28  H   LIG d   1       9.489  -0.636  -4.259  0.00  0.00     0.028 H 
ATOM     29  H   LIG d   1       8.950  -1.044  -5.924  0.00  0.00     0.028 H 
ATOM     30  C   LIG d   1       7.372   0.922  -3.559  0.00  0.00    -0.034 C 
ATOM     31  H   LIG d   1       6.856   0.269  -5.554  0.00  0.00     0.030 H 
ATOM     32  H   LIG d   1       6.327   1.045  -3.240  0.00  0.00     0.028 H 
ATOM     33  H   LIG d   1       7.975   0.566  -2.710  0.00  0.00     0.028 H 
ATOM     34  H   LIG d   1       7.966   2.971  -3.205  0.00  0.00     0.046 H 
ATOM     35  H   LIG d   1       7.261   2.668  -4.829  0.00  0.00     0.046 H 
ATOM     36  O   LIG d   1      11.414   2.615  -4.606  0.00  0.00    -0.276 OA
BRANCH  27  37
ATOM     37  C   LIG d   1       6.866  -1.434  -4.221  0.00  0.00    -0.025 C 
ATOM     38  H   LIG d   1       7.432  -1.784  -3.346  0.00  0.00     0.032 H 
ATOM     39  H   LIG d   1       6.944  -2.175  -5.030  0.00  0.00     0.032 H 
BRANCH  37  40
ATOM     40  C   LIG d   1       5.418  -1.251  -3.845  0.00  0.00    -0.047 A 
ATOM     41  C   LIG d   1       4.936  -1.793  -2.669  0.00  0.00    -0.059 A 
ATOM     42  C   LIG d   1       3.609  -1.626  -2.323  0.00  0.00    -0.061 A 
ATOM     43  H   LIG d   1       5.596  -2.349  -2.020  0.00  0.00     0.062 H 
ATOM     44  C   LIG d   1       2.762  -0.914  -3.154  0.00  0.00    -0.062 A 
ATOM     45  H   LIG d   1       3.231  -2.050  -1.405  0.00  0.00     0.062 H 
ATOM     46  C   LIG d   1       3.245  -0.371  -4.331  0.00  0.00    -0.061 A 
ATOM     47  H   LIG d   1       1.725  -0.784  -2.885  0.00  0.00     0.062 H 
ATOM     48  C   LIG d   1       4.574  -0.535  -4.673  0.00  0.00    -0.059 A 
ATOM     49  H   LIG d   1       2.585   0.184  -4.980  0.00  0.00     0.062 H 
ATOM     50  H   LIG d   1       4.952  -0.107  -5.589  0.00  0.00     0.062 H 
ENDBRANCH  37  40
ENDBRANCH  27  37
ENDBRANCH  17  20
ENDBRANCH   1  17
BRANCH   7  51
ATOM     51  C   LIG d   1       9.124   6.183  -4.511  0.00  0.00     0.001 C 
ATOM     52  H   LIG d   1       9.021   5.125  -4.794  0.00  0.00     0.033 H 
ATOM     53  H   LIG d   1       8.159   6.558  -4.138  0.00  0.00     0.033 H 
BRANCH  51  54
ATOM     54  C   LIG d   1       9.543   6.985  -5.716  0.00  0.00     0.084 A 
ATOM     55  N   LIG d   1       9.156   8.189  -6.024  0.00  0.00    -0.083 NA
ATOM     56  O   LIG d   1       9.664   8.571  -7.052  0.00  0.00    -0.358 OA
ATOM     57  C   LIG d   1      10.476   7.643  -7.575  0.00  0.00     0.151 A 
ATOM     58  C   LIG d   1      10.434   6.580  -6.736  0.00  0.00     0.005 A 
ATOM     59  H   LIG d   1      10.958   5.640  -6.827  0.00  0.00     0.067 H 
BRANCH  57  60
ATOM     60  C   LIG d   1      11.278   7.757  -8.846  0.00  0.00     0.060 C 
ATOM     61  H   LIG d   1      11.830   8.708  -8.846  0.00  0.00     0.051 H 
ATOM     62  H   LIG d   1      11.990   6.921  -8.907  0.00  0.00     0.051 H 
BRANCH  60  63
ATOM     63  N   LIG d   1      10.373   7.715 -10.002  0.00  0.00    -0.291 N 
ATOM     64  C   LIG d   1      10.920   8.488 -11.127  0.00  0.00     0.023 C 
ATOM     65  C   LIG d   1       9.920   8.468 -12.287  0.00  0.00     0.060 C 
ATOM     66  H   LIG d   1      11.094   9.526 -10.809  0.00  0.00     0.045 H 
ATOM     67  H   LIG d   1      11.870   8.040 -11.452  0.00  0.00     0.045 H 
ATOM     68  O   LIG d   1       9.641   7.112 -12.645  0.00  0.00    -0.377 OA
ATOM     69  H   LIG d   1      10.348   8.995 -13.152  0.00  0.00     0.057 H 
ATOM     70  H   LIG d   1       8.988   8.965 -11.978  0.00  0.00     0.057 H 
ATOM     71  C   LIG d   1       9.107   6.331 -11.573  0.00  0.00     0.060 C 
ATOM     72  C   LIG d   1      10.098   6.329 -10.407  0.00  0.00     0.023 C 
ATOM     73  H   LIG d   1       8.943   5.298 -11.915  0.00  0.00     0.057 H 
ATOM     74  H   LIG d   1       8.151   6.764 -11.241  0.00  0.00     0.057 H 
ATOM     75  H   LIG d   1      11.035   5.846 -10.720  0.00  0.00     0.045 H 
ATOM     76  H   LIG d   1       9.668   5.778  -9.558  0.00  0.00     0.045 H 
ENDBRANCH  60  63
ENDBRANCH  57  60
ENDBRANCH  51  54
ENDBRANCH   7  51
TORSDOF 8
ENDMDL
MODEL 9
REMARK VINA RESULT:      -6.7      9.292     14.569
REMARK  8 active torsions:
REMARK  status: ('A' for Active; 'I' for Inactive)
REMARK    1  A    between atoms: C_4  and  C_7 
REMARK    2  A    between atoms: C_7  and  C_8 
REMARK       I    between atoms: N_11  and  C_14 
REMARK    3  A    between atoms: C_14  and  C_16 
REMARK    4  A    between atoms: C_16  and  C_17 
REMARK    5  A    between atoms: C_23  and  C_25 
REMARK    6  A    between atoms: C_25  and  C_26 
REMARK    7  A    between atoms: C_28  and  C_31 
REMARK    8  A    between atoms: C_31  and  N_32 
ROOT
ATOM      1  C   LIG d   1      11.084   5.099  -3.167  0.00  0.00    -0.020 C 
ATOM      2  H   LIG d   1      11.693   4.929  -4.067  0.00  0.00     0.031 H 
ATOM      3  C   LIG d   1      11.991   5.165  -1.935  0.00  0.00    -0.009 C 
ATOM      4  C   LIG d   1      11.140   5.455  -0.696  0.00  0.00    -0.033 C 
ATOM      5  N   LIG d   1      10.434   6.730  -0.873  0.00  0.00     0.227 N 
ATOM      6  C   LIG d   1       9.520   6.674  -2.022  0.00  0.00    -0.030 C 
ATOM      7  C   LIG d   1      10.323   6.421  -3.300  0.00  0.00     0.008 C 
ATOM      8  H   LIG d   1      11.035   7.243  -3.459  0.00  0.00     0.036 H 
ATOM      9  H   LIG d   1      12.509   4.202  -1.809  0.00  0.00     0.032 H 
ATOM     10  H   LIG d   1      12.733   5.966  -2.069  0.00  0.00     0.032 H 
ATOM     11  H   LIG d   1      10.409   4.646  -0.556  0.00  0.00     0.081 H 
ATOM     12  H   LIG d   1      11.792   5.517   0.189  0.00  0.00     0.081 H 
ATOM     13  H   LIG d   1       9.847   6.952   0.031  0.00  0.00     0.201 HD
ATOM     14  H   LIG d   1       8.796   5.859  -1.876  0.00  0.00     0.082 H 
ATOM     15  H   LIG d   1       8.984   7.631  -2.110  0.00  0.00     0.082 H 
ATOM     16  H   LIG d   1      11.165   7.534  -1.044  0.00  0.00     0.201 HD
ENDROOT
BRANCH   1  17
ATOM     17  C   LIG d   1      10.087   3.948  -3.008  0.00  0.00     0.028 C 
ATOM     18  H   LIG d   1       9.062   4.337  -3.096  0.00  0.00     0.036 H 
ATOM     19  H   LIG d   1      10.219   3.482  -2.021  0.00  0.00     0.036 H 
BRANCH  17  20
ATOM     20  C   LIG d   1      10.329   2.922  -4.086  0.00  0.00     0.216 C 
ATOM     21  N   LIG d   1       9.305   2.180  -4.551  0.00  0.00    -0.301 N 
ATOM     22  C   LIG d   1       9.524   1.176  -5.600  0.00  0.00     0.015 C 
ATOM     23  C   LIG d   1       7.949   2.354  -4.011  0.00  0.00     0.015 C 
ATOM     24  C   LIG d   1       8.977  -0.171  -5.117  0.00  0.00    -0.034 C 
ATOM     25  H   LIG d   1      10.601   1.083  -5.807  0.00  0.00     0.046 H 
ATOM     26  H   LIG d   1       8.999   1.477  -6.519  0.00  0.00     0.046 H 
ATOM     27  C   LIG d   1       7.513  -0.004  -4.704  0.00  0.00    -0.034 C 
ATOM     28  H   LIG d   1       9.565  -0.518  -4.254  0.00  0.00     0.028 H 
ATOM     29  H   LIG d   1       9.047  -0.909  -5.930  0.00  0.00     0.028 H 
ATOM     30  C   LIG d   1       7.418   0.998  -3.550  0.00  0.00    -0.034 C 
ATOM     31  H   LIG d   1       6.931   0.368  -5.560  0.00  0.00     0.030 H 
ATOM     32  H   LIG d   1       6.368   1.101  -3.240  0.00  0.00     0.028 H 
ATOM     33  H   LIG d   1       8.019   0.638  -2.702  0.00  0.00     0.028 H 
ATOM     34  H   LIG d   1       7.979   3.050  -3.161  0.00  0.00     0.046 H 
ATOM     35  H   LIG d   1       7.293   2.762  -4.795  0.00  0.00     0.046 H 
ATOM     36  O   LIG d   1      11.444   2.766  -4.534  0.00  0.00    -0.276 OA
BRANCH  27  37
ATOM     37  C   LIG d   1       6.953  -1.355  -4.253  0.00  0.00    -0.025 C 
ATOM     38  H   LIG d   1       7.528  -1.719  -3.389  0.00  0.00     0.032 H 
ATOM     39  H   LIG d   1       7.034  -2.078  -5.078  0.00  0.00     0.032 H 
BRANCH  37  40
ATOM     40  C   LIG d   1       5.507  -1.194  -3.864  0.00  0.00    -0.047 A 
ATOM     41  C   LIG d   1       4.638  -0.516  -4.698  0.00  0.00    -0.059 A 
ATOM     42  C   LIG d   1       3.311  -0.369  -4.342  0.00  0.00    -0.061 A 
ATOM     43  H   LIG d   1       4.996  -0.100  -5.628  0.00  0.00     0.062 H 
ATOM     44  C   LIG d   1       2.851  -0.901  -3.151  0.00  0.00    -0.062 A 
ATOM     45  H   LIG d   1       2.632   0.162  -4.993  0.00  0.00     0.062 H 
ATOM     46  C   LIG d   1       3.720  -1.580  -2.317  0.00  0.00    -0.061 A 
ATOM     47  H   LIG d   1       1.815  -0.786  -2.872  0.00  0.00     0.062 H 
ATOM     48  C   LIG d   1       5.046  -1.732  -2.677  0.00  0.00    -0.059 A 
ATOM     49  H   LIG d   1       3.362  -1.996  -1.387  0.00  0.00     0.062 H 
ATOM     50  H   LIG d   1       5.724  -2.266  -2.028  0.00  0.00     0.062 H 
ENDBRANCH  37  40
ENDBRANCH  27  37
ENDBRANCH  17  20
ENDBRANCH   1  17
BRANCH   7  51
ATOM     51  C   LIG d   1       9.369   6.341  -4.494  0.00  0.00     0.001 C 
ATOM     52  H   LIG d   1       9.673   5.515  -5.153  0.00  0.00     0.033 H 
ATOM     53  H   LIG d   1       8.344   6.165  -4.134  0.00  0.00     0.033 H 
BRANCH  51  54
ATOM     54  C   LIG d   1       9.415   7.638  -5.261  0.00  0.00     0.084 A 
ATOM     55  N   LIG d   1       9.100   7.814  -6.512  0.00  0.00    -0.083 NA
ATOM     56  O   LIG d   1       9.237   8.968  -6.847  0.00  0.00    -0.358 OA
ATOM     57  C   LIG d   1       9.674   9.727  -5.833  0.00  0.00     0.151 A 
ATOM     58  C   LIG d   1       9.807   8.902  -4.766  0.00  0.00     0.005 A 
ATOM     59  H   LIG d   1      10.138   9.153  -3.769  0.00  0.00     0.067 H 
BRANCH  57  60
ATOM     60  C   LIG d   1       9.962  11.206  -5.871  0.00  0.00     0.060 C 
ATOM     61  H   LIG d   1      10.805  11.397  -6.551  0.00  0.00     0.051 H 
ATOM     62  H   LIG d   1       9.072  11.744  -6.230  0.00  0.00     0.051 H 
BRANCH  60  63
ATOM     63  N   LIG d   1      10.305  11.673  -4.521  0.00  0.00    -0.291 N 
ATOM     64  C   LIG d   1      11.597  12.375  -4.519  0.00  0.00     0.023 C 
ATOM     65  C   LIG d   1      11.944  12.791  -3.086  0.00  0.00     0.060 C 
ATOM     66  H   LIG d   1      12.379  11.706  -4.908  0.00  0.00     0.045 H 
ATOM     67  H   LIG d   1      11.530  13.269  -5.156  0.00  0.00     0.045 H 
ATOM     68  O   LIG d   1      10.887  13.598  -2.562  0.00  0.00    -0.377 OA
ATOM     69  H   LIG d   1      12.881  13.367  -3.087  0.00  0.00     0.057 H 
ATOM     70  H   LIG d   1      12.065  11.893  -2.461  0.00  0.00     0.057 H 
ATOM     71  C   LIG d   1       9.616  12.946  -2.548  0.00  0.00     0.060 C 
ATOM     72  C   LIG d   1       9.245  12.532  -3.975  0.00  0.00     0.023 C 
ATOM     73  H   LIG d   1       8.852  13.634  -2.157  0.00  0.00     0.057 H 
ATOM     74  H   LIG d   1       9.666  12.052  -1.908  0.00  0.00     0.057 H 
ATOM     75  H   LIG d   1       9.140  13.428  -4.603  0.00  0.00     0.045 H 
ATOM     76  H   LIG d   1       8.295  11.978  -3.963  0.00  0.00     0.045 H 
ENDBRANCH  60  63
ENDBRANCH  57  60
ENDBRANCH  51  54
ENDBRANCH   7  51
TORSDOF 8
ENDMDL
