MODEL 1
REMARK VINA RESULT:      -5.8      0.000      0.000
REMARK  6 active torsions:
REMARK  status: ('A' for Active; 'I' for Inactive)
REMARK    1  A    between atoms: C_3  and  N_23 
REMARK    2  A    between atoms: N_7  and  C_10 
REMARK    3  A    between atoms: C_13  and  O_20 
REMARK    4  A    between atoms: C_15  and  C_18 
REMARK    5  A    between atoms: C_18  and  O_19 
REMARK    6  A    between atoms: O_20  and  P_21 
ROOT
ATOM      1  C   LIG d   1      10.645  10.677  -2.994  0.00  0.00     0.141 C 
ATOM      2  H   LIG d   1      11.395  11.353  -2.582  0.00  0.00     0.084 H 
ATOM      3  C   LIG d   1      11.147   9.218  -2.936  0.00  0.00     0.022 C 
ATOM      4  C   LIG d   1      10.555   8.669  -1.619  0.00  0.00     0.094 C 
ATOM      5  H   LIG d   1       9.888   7.831  -1.819  0.00  0.00     0.063 H 
ATOM      6  C   LIG d   1       9.765   9.862  -1.037  0.00  0.00     0.111 C 
ATOM      7  H   LIG d   1      10.377  10.414  -0.324  0.00  0.00     0.065 H 
ATOM      8  O   LIG d   1       9.454  10.691  -2.179  0.00  0.00    -0.348 OA
ATOM      9  H   LIG d   1      10.773   8.650  -3.788  0.00  0.00     0.034 H 
ATOM     10  H   LIG d   1      12.237   9.189  -2.908  0.00  0.00     0.034 H 
ENDROOT
BRANCH   1  11
ATOM     11  N   LIG d   1      10.323  11.050  -4.374  0.00  0.00    -0.288 N 
ATOM     12  C   LIG d   1      10.012  12.309  -4.823  0.00  0.00     0.167 A 
ATOM     13  C   LIG d   1       9.782  12.182  -6.203  0.00  0.00     0.147 A 
ATOM     14  N   LIG d   1       9.900  13.507  -4.258  0.00  0.00    -0.216 NA
ATOM     15  C   LIG d   1       9.440  13.336  -6.928  0.00  0.00     0.147 A 
ATOM     16  N   LIG d   1       9.959  10.876  -6.520  0.00  0.00    -0.231 NA
ATOM     17  N   LIG d   1       9.352  14.490  -6.277  0.00  0.00    -0.219 NA
ATOM     18  C   LIG d   1       9.578  14.561  -4.977  0.00  0.00     0.120 A 
ATOM     19  H   LIG d   1       9.495  15.519  -4.486  0.00  0.00     0.105 H 
ATOM     20  C   LIG d   1      10.283  10.212  -5.447  0.00  0.00     0.100 A 
ATOM     21  H   LIG d   1      10.486   9.152  -5.413  0.00  0.00     0.103 H 
BRANCH  15  22
ATOM     22  N   LIG d   1       9.202  13.272  -8.290  0.00  0.00    -0.341 NA
ATOM     23  H   LIG d   1       9.475  12.374  -8.635  0.00  0.00     0.144 HD
ATOM     24  H   LIG d   1       9.640  13.896  -8.889  0.00  0.00     0.144 HD
ENDBRANCH  15  22
ENDBRANCH   1  11
BRANCH   6  25
ATOM     25  C   LIG d   1       8.479   9.374  -0.366  0.00  0.00     0.073 C 
ATOM     26  H   LIG d   1       8.660   9.223   0.698  0.00  0.00     0.058 H 
ATOM     27  H   LIG d   1       7.694  10.117  -0.501  0.00  0.00     0.058 H 
BRANCH  25  28
ATOM     28  O   LIG d   1       8.072   8.139  -0.959  0.00  0.00    -0.392 OA
ATOM     29  H   LIG d   1       7.425   8.238  -1.671  0.00  0.00     0.209 HD
ENDBRANCH  25  28
ENDBRANCH   6  25
BRANCH   4  30
ATOM     30  O   LIG d   1      11.598   8.277  -0.725  0.00  0.00    -0.361 OA
BRANCH  30  31
ATOM     31  P   LIG d   1      11.455   7.048   0.305  0.00  0.00    -0.015 P 
ATOM     32  O   LIG d   1      10.206   6.306   0.016  0.00  0.00    -0.638 OA
ATOM     33  O   LIG d   1      12.715   6.060   0.142  0.00  0.00    -0.577 OA
ATOM     34  O   LIG d   1      11.407   7.612   1.812  0.00  0.00    -0.577 OA
ENDBRANCH  30  31
ENDBRANCH   4  30
TORSDOF 6
ENDMDL
MODEL 2
REMARK VINA RESULT:      -5.3      2.335      3.334
REMARK  6 active torsions:
REMARK  status: ('A' for Active; 'I' for Inactive)
REMARK    1  A    between atoms: C_3  and  N_23 
REMARK    2  A    between atoms: N_7  and  C_10 
REMARK    3  A    between atoms: C_13  and  O_20 
REMARK    4  A    between atoms: C_15  and  C_18 
REMARK    5  A    between atoms: C_18  and  O_19 
REMARK    6  A    between atoms: O_20  and  P_21 
ROOT
ATOM      1  C   LIG d   1       9.514   7.270  -3.795  0.00  0.00     0.141 C 
ATOM      2  H   LIG d   1       8.480   7.479  -3.518  0.00  0.00     0.084 H 
ATOM      3  C   LIG d   1      10.470   7.688  -2.656  0.00  0.00     0.022 C 
ATOM      4  C   LIG d   1      10.686   6.387  -1.852  0.00  0.00     0.094 C 
ATOM      5  H   LIG d   1      11.738   6.102  -1.861  0.00  0.00     0.063 H 
ATOM      6  C   LIG d   1       9.835   5.337  -2.600  0.00  0.00     0.111 C 
ATOM      7  H   LIG d   1       8.851   5.246  -2.142  0.00  0.00     0.065 H 
ATOM      8  O   LIG d   1       9.717   5.849  -3.946  0.00  0.00    -0.348 OA
ATOM      9  H   LIG d   1      11.415   8.047  -3.063  0.00  0.00     0.034 H 
ATOM     10  H   LIG d   1      10.009   8.453  -2.031  0.00  0.00     0.034 H 
ENDROOT
BRANCH   1  11
ATOM     11  N   LIG d   1       9.861   7.970  -5.034  0.00  0.00    -0.288 N 
ATOM     12  C   LIG d   1       9.745   9.317  -5.266  0.00  0.00     0.167 A 
ATOM     13  C   LIG d   1      10.194   9.524  -6.581  0.00  0.00     0.147 A 
ATOM     14  N   LIG d   1       9.331  10.360  -4.554  0.00  0.00    -0.216 NA
ATOM     15  C   LIG d   1      10.185  10.835  -7.087  0.00  0.00     0.147 A 
ATOM     16  N   LIG d   1      10.554   8.315  -7.076  0.00  0.00    -0.231 NA
ATOM     17  N   LIG d   1       9.753  11.814  -6.301  0.00  0.00    -0.219 NA
ATOM     18  C   LIG d   1       9.340  11.571  -5.070  0.00  0.00     0.120 A 
ATOM     19  H   LIG d   1       8.997  12.396  -4.463  0.00  0.00     0.105 H 
ATOM     20  C   LIG d   1      10.364   7.402  -6.166  0.00  0.00     0.100 A 
ATOM     21  H   LIG d   1      10.572   6.350  -6.292  0.00  0.00     0.103 H 
BRANCH  15  22
ATOM     22  N   LIG d   1      10.616  11.100  -8.375  0.00  0.00    -0.341 NA
ATOM     23  H   LIG d   1      10.202  10.444  -9.007  0.00  0.00     0.144 HD
ATOM     24  H   LIG d   1      11.562  11.064  -8.588  0.00  0.00     0.144 HD
ENDBRANCH  15  22
ENDBRANCH   1  11
BRANCH   6  25
ATOM     25  C   LIG d   1      10.545   3.981  -2.606  0.00  0.00     0.073 C 
ATOM     26  H   LIG d   1       9.809   3.187  -2.731  0.00  0.00     0.058 H 
ATOM     27  H   LIG d   1      11.259   3.948  -3.429  0.00  0.00     0.058 H 
BRANCH  25  28
ATOM     28  O   LIG d   1      11.236   3.800  -1.368  0.00  0.00    -0.392 OA
ATOM     29  H   LIG d   1      12.181   3.619  -1.468  0.00  0.00     0.209 HD
ENDBRANCH  25  28
ENDBRANCH   6  25
BRANCH   4  30
ATOM     30  O   LIG d   1      10.221   6.543  -0.510  0.00  0.00    -0.361 OA
BRANCH  30  31
ATOM     31  P   LIG d   1      11.206   6.561   0.763  0.00  0.00    -0.015 P 
ATOM     32  O   LIG d   1      12.555   6.117   0.349  0.00  0.00    -0.638 OA
ATOM     33  O   LIG d   1      11.291   8.055   1.355  0.00  0.00    -0.577 OA
ATOM     34  O   LIG d   1      10.639   5.566   1.896  0.00  0.00    -0.577 OA
ENDBRANCH  30  31
ENDBRANCH   4  30
TORSDOF 6
ENDMDL
MODEL 3
REMARK VINA RESULT:      -5.3     13.980     15.747
REMARK  6 active torsions:
REMARK  status: ('A' for Active; 'I' for Inactive)
REMARK    1  A    between atoms: C_3  and  N_23 
REMARK    2  A    between atoms: N_7  and  C_10 
REMARK    3  A    between atoms: C_13  and  O_20 
REMARK    4  A    between atoms: C_15  and  C_18 
REMARK    5  A    between atoms: C_18  and  O_19 
REMARK    6  A    between atoms: O_20  and  P_21 
ROOT
ATOM      1  C   LIG d   1       5.180  -2.651  -6.036  0.00  0.00     0.141 C 
ATOM      2  H   LIG d   1       6.234  -2.426  -6.203  0.00  0.00     0.084 H 
ATOM      3  C   LIG d   1       4.731  -2.126  -4.654  0.00  0.00     0.022 C 
ATOM      4  C   LIG d   1       4.128  -0.736  -4.959  0.00  0.00     0.094 C 
ATOM      5  H   LIG d   1       3.076  -0.705  -4.678  0.00  0.00     0.063 H 
ATOM      6  C   LIG d   1       4.285  -0.586  -6.489  0.00  0.00     0.111 C 
ATOM      7  H   LIG d   1       5.200  -0.045  -6.728  0.00  0.00     0.065 H 
ATOM      8  O   LIG d   1       4.358  -1.941  -6.986  0.00  0.00    -0.348 OA
ATOM      9  H   LIG d   1       3.976  -2.782  -4.222  0.00  0.00     0.034 H 
ATOM     10  H   LIG d   1       5.586  -2.034  -3.984  0.00  0.00     0.034 H 
ENDROOT
BRANCH   1  11
ATOM     11  N   LIG d   1       4.943  -4.093  -6.133  0.00  0.00    -0.288 N 
ATOM     12  C   LIG d   1       5.827  -5.086  -5.794  0.00  0.00     0.167 A 
ATOM     13  C   LIG d   1       5.167  -6.298  -6.055  0.00  0.00     0.147 A 
ATOM     14  N   LIG d   1       7.065  -5.116  -5.312  0.00  0.00    -0.216 NA
ATOM     15  C   LIG d   1       5.851  -7.497  -5.792  0.00  0.00     0.147 A 
ATOM     16  N   LIG d   1       3.937  -5.989  -6.532  0.00  0.00    -0.231 NA
ATOM     17  N   LIG d   1       7.087  -7.428  -5.311  0.00  0.00    -0.219 NA
ATOM     18  C   LIG d   1       7.668  -6.264  -5.081  0.00  0.00     0.120 A 
ATOM     19  H   LIG d   1       8.674  -6.252  -4.690  0.00  0.00     0.105 H 
ATOM     20  C   LIG d   1       3.802  -4.695  -6.573  0.00  0.00     0.100 A 
ATOM     21  H   LIG d   1       2.917  -4.174  -6.910  0.00  0.00     0.103 H 
BRANCH  15  22
ATOM     22  N   LIG d   1       5.252  -8.722  -6.029  0.00  0.00    -0.341 NA
ATOM     23  H   LIG d   1       4.384  -8.581  -6.506  0.00  0.00     0.144 HD
ATOM     24  H   LIG d   1       5.019  -9.300  -5.286  0.00  0.00     0.144 HD
ENDBRANCH  15  22
ENDBRANCH   1  11
BRANCH   6  25
ATOM     25  C   LIG d   1       3.071   0.134  -7.081  0.00  0.00     0.073 C 
ATOM     26  H   LIG d   1       3.285   0.417  -8.112  0.00  0.00     0.058 H 
ATOM     27  H   LIG d   1       2.207  -0.530  -7.057  0.00  0.00     0.058 H 
BRANCH  25  28
ATOM     28  O   LIG d   1       2.793   1.307  -6.313  0.00  0.00    -0.392 OA
ATOM     29  H   LIG d   1       2.208   1.154  -5.559  0.00  0.00     0.209 HD
ENDBRANCH  25  28
ENDBRANCH   6  25
BRANCH   4  30
ATOM     30  O   LIG d   1       4.859   0.288  -4.280  0.00  0.00    -0.361 OA
BRANCH  30  31
ATOM     31  P   LIG d   1       4.293   1.053  -2.982  0.00  0.00    -0.015 P 
ATOM     32  O   LIG d   1       5.418   1.394  -2.082  0.00  0.00    -0.638 OA
ATOM     33  O   LIG d   1       3.543   2.402  -3.437  0.00  0.00    -0.577 OA
ATOM     34  O   LIG d   1       3.255   0.098  -2.205  0.00  0.00    -0.577 OA
ENDBRANCH  30  31
ENDBRANCH   4  30
TORSDOF 6
ENDMDL
MODEL 4
REMARK VINA RESULT:      -5.2     13.153     14.875
REMARK  6 active torsions:
REMARK  status: ('A' for Active; 'I' for Inactive)
REMARK    1  A    between atoms: C_3  and  N_23 
REMARK    2  A    between atoms: N_7  and  C_10 
REMARK    3  A    between atoms: C_13  and  O_20 
REMARK    4  A    between atoms: C_15  and  C_18 
REMARK    5  A    between atoms: C_18  and  O_19 
REMARK    6  A    between atoms: O_20  and  P_21 
ROOT
ATOM      1  C   LIG d   1       3.259   0.164  -7.097  0.00  0.00     0.141 C 
ATOM      2  H   LIG d   1       2.401   0.816  -6.931  0.00  0.00     0.084 H 
ATOM      3  C   LIG d   1       2.904  -0.942  -8.115  0.00  0.00     0.022 C 
ATOM      4  C   LIG d   1       3.390  -0.376  -9.468  0.00  0.00     0.094 C 
ATOM      5  H   LIG d   1       4.158  -1.019  -9.898  0.00  0.00     0.063 H 
ATOM      6  C   LIG d   1       3.981   1.005  -9.107  0.00  0.00     0.111 C 
ATOM      7  H   LIG d   1       3.236   1.788  -9.249  0.00  0.00     0.065 H 
ATOM      8  O   LIG d   1       4.338   0.899  -7.711  0.00  0.00    -0.348 OA
ATOM      9  H   LIG d   1       3.431  -1.866  -7.876  0.00  0.00     0.034 H 
ATOM     10  H   LIG d   1       1.827  -1.112  -8.136  0.00  0.00     0.034 H 
ENDROOT
BRANCH   1  11
ATOM     11  N   LIG d   1       3.700  -0.431  -5.833  0.00  0.00    -0.288 N 
ATOM     12  C   LIG d   1       3.645   0.159  -4.595  0.00  0.00     0.167 A 
ATOM     13  C   LIG d   1       4.174  -0.781  -3.695  0.00  0.00     0.147 A 
ATOM     14  N   LIG d   1       3.228   1.333  -4.132  0.00  0.00    -0.216 NA
ATOM     15  C   LIG d   1       4.238  -0.434  -2.335  0.00  0.00     0.147 A 
ATOM     16  N   LIG d   1       4.519  -1.875  -4.416  0.00  0.00    -0.231 NA
ATOM     17  N   LIG d   1       3.796   0.763  -1.965  0.00  0.00    -0.219 NA
ATOM     18  C   LIG d   1       3.307   1.614  -2.849  0.00  0.00     0.120 A 
ATOM     19  H   LIG d   1       2.958   2.577  -2.507  0.00  0.00     0.105 H 
ATOM     20  C   LIG d   1       4.236  -1.673  -5.671  0.00  0.00     0.100 A 
ATOM     21  H   LIG d   1       4.404  -2.384  -6.466  0.00  0.00     0.103 H 
BRANCH  15  22
ATOM     22  N   LIG d   1       4.748  -1.319  -1.401  0.00  0.00    -0.341 NA
ATOM     23  H   LIG d   1       4.734  -0.894  -0.496  0.00  0.00     0.144 HD
ATOM     24  H   LIG d   1       5.656  -1.649  -1.491  0.00  0.00     0.144 HD
ENDBRANCH  15  22
ENDBRANCH   1  11
BRANCH   6  25
ATOM     25  C   LIG d   1       5.222   1.292  -9.955  0.00  0.00     0.073 C 
ATOM     26  H   LIG d   1       5.441   2.359  -9.928  0.00  0.00     0.058 H 
ATOM     27  H   LIG d   1       6.071   0.736  -9.557  0.00  0.00     0.058 H 
BRANCH  25  28
ATOM     28  O   LIG d   1       4.980   0.890 -11.305  0.00  0.00    -0.392 OA
ATOM     29  H   LIG d   1       4.979   1.620 -11.938  0.00  0.00     0.209 HD
ENDBRANCH  25  28
ENDBRANCH   6  25
BRANCH   4  30
ATOM     30  O   LIG d   1       2.294  -0.229 -10.374  0.00  0.00    -0.361 OA
BRANCH  30  31
ATOM     31  P   LIG d   1       2.011  -1.256 -11.581  0.00  0.00    -0.015 P 
ATOM     32  O   LIG d   1       2.935  -0.968 -12.700  0.00  0.00    -0.638 OA
ATOM     33  O   LIG d   1       2.241  -2.764 -11.068  0.00  0.00    -0.577 OA
ATOM     34  O   LIG d   1       0.490  -1.086 -12.084  0.00  0.00    -0.577 OA
ENDBRANCH  30  31
ENDBRANCH   4  30
TORSDOF 6
ENDMDL
MODEL 5
REMARK VINA RESULT:      -5.2      5.788      8.084
REMARK  6 active torsions:
REMARK  status: ('A' for Active; 'I' for Inactive)
REMARK    1  A    between atoms: C_3  and  N_23 
REMARK    2  A    between atoms: N_7  and  C_10 
REMARK    3  A    between atoms: C_13  and  O_20 
REMARK    4  A    between atoms: C_15  and  C_18 
REMARK    5  A    between atoms: C_18  and  O_19 
REMARK    6  A    between atoms: O_20  and  P_21 
ROOT
ATOM      1  C   LIG d   1       9.138   6.499  -4.948  0.00  0.00     0.141 C 
ATOM      2  H   LIG d   1       8.063   6.325  -5.005  0.00  0.00     0.084 H 
ATOM      3  C   LIG d   1       9.846   5.894  -6.180  0.00  0.00     0.022 C 
ATOM      4  C   LIG d   1       9.959   7.077  -7.166  0.00  0.00     0.094 C 
ATOM      5  H   LIG d   1      11.005   7.295  -7.384  0.00  0.00     0.063 H 
ATOM      6  C   LIG d   1       9.306   8.258  -6.414  0.00  0.00     0.111 C 
ATOM      7  H   LIG d   1       8.257   8.355  -6.694  0.00  0.00     0.065 H 
ATOM      8  O   LIG d   1       9.422   7.913  -5.015  0.00  0.00    -0.348 OA
ATOM      9  H   LIG d   1      10.836   5.526  -5.909  0.00  0.00     0.034 H 
ATOM     10  H   LIG d   1       9.246   5.092  -6.610  0.00  0.00     0.034 H 
ENDROOT
BRANCH   1  11
ATOM     11  N   LIG d   1       9.683   5.927  -3.715  0.00  0.00    -0.288 N 
ATOM     12  C   LIG d   1       9.809   6.569  -2.508  0.00  0.00     0.167 A 
ATOM     13  C   LIG d   1      10.377   5.632  -1.629  0.00  0.00     0.147 A 
ATOM     14  N   LIG d   1       9.523   7.786  -2.058  0.00  0.00    -0.216 NA
ATOM     15  C   LIG d   1      10.620   6.029  -0.303  0.00  0.00     0.147 A 
ATOM     16  N   LIG d   1      10.567   4.488  -2.331  0.00  0.00    -0.231 NA
ATOM     17  N   LIG d   1      10.300   7.267   0.056  0.00  0.00    -0.219 NA
ATOM     18  C   LIG d   1       9.767   8.113  -0.806  0.00  0.00     0.120 A 
ATOM     19  H   LIG d   1       9.522   9.111  -0.474  0.00  0.00     0.105 H 
ATOM     20  C   LIG d   1      10.155   4.659  -3.554  0.00  0.00     0.100 A 
ATOM     21  H   LIG d   1      10.185   3.906  -4.328  0.00  0.00     0.103 H 
BRANCH  15  22
ATOM     22  N   LIG d   1      11.177   5.149   0.609  0.00  0.00    -0.341 NA
ATOM     23  H   LIG d   1      12.119   5.425   0.805  0.00  0.00     0.144 HD
ATOM     24  H   LIG d   1      11.249   4.206   0.392  0.00  0.00     0.144 HD
ENDBRANCH  15  22
ENDBRANCH   1  11
BRANCH   6  25
ATOM     25  C   LIG d   1      10.058   9.558  -6.707  0.00  0.00     0.073 C 
ATOM     26  H   LIG d   1      10.051  10.189  -5.817  0.00  0.00     0.058 H 
ATOM     27  H   LIG d   1      11.087   9.328  -6.983  0.00  0.00     0.058 H 
BRANCH  25  28
ATOM     28  O   LIG d   1       9.418  10.246  -7.783  0.00  0.00    -0.392 OA
ATOM     29  H   LIG d   1       8.513  10.527  -7.588  0.00  0.00     0.209 HD
ENDBRANCH  25  28
ENDBRANCH   6  25
BRANCH   4  30
ATOM     30  O   LIG d   1       9.244   6.796  -8.372  0.00  0.00    -0.361 OA
BRANCH  30  31
ATOM     31  P   LIG d   1       9.869   7.031  -9.836  0.00  0.00    -0.015 P 
ATOM     32  O   LIG d   1      11.240   6.475  -9.883  0.00  0.00    -0.638 OA
ATOM     33  O   LIG d   1       8.953   6.295 -10.936  0.00  0.00    -0.577 OA
ATOM     34  O   LIG d   1       9.921   8.610 -10.151  0.00  0.00    -0.577 OA
ENDBRANCH  30  31
ENDBRANCH   4  30
TORSDOF 6
ENDMDL
MODEL 6
REMARK VINA RESULT:      -5.1     13.053     14.790
REMARK  6 active torsions:
REMARK  status: ('A' for Active; 'I' for Inactive)
REMARK    1  A    between atoms: C_3  and  N_23 
REMARK    2  A    between atoms: N_7  and  C_10 
REMARK    3  A    between atoms: C_13  and  O_20 
REMARK    4  A    between atoms: C_15  and  C_18 
REMARK    5  A    between atoms: C_18  and  O_19 
REMARK    6  A    between atoms: O_20  and  P_21 
ROOT
ATOM      1  C   LIG d   1       2.882   0.258  -6.896  0.00  0.00     0.141 C 
ATOM      2  H   LIG d   1       1.864   0.430  -6.544  0.00  0.00     0.084 H 
ATOM      3  C   LIG d   1       2.897  -0.842  -7.980  0.00  0.00     0.022 C 
ATOM      4  C   LIG d   1       2.837  -0.059  -9.310  0.00  0.00     0.094 C 
ATOM      5  H   LIG d   1       3.727  -0.253  -9.909  0.00  0.00     0.063 H 
ATOM      6  C   LIG d   1       2.793   1.422  -8.872  0.00  0.00     0.111 C 
ATOM      7  H   LIG d   1       1.763   1.775  -8.823  0.00  0.00     0.065 H 
ATOM      8  O   LIG d   1       3.391   1.436  -7.557  0.00  0.00    -0.348 OA
ATOM      9  H   LIG d   1       3.817  -1.425  -7.921  0.00  0.00     0.034 H 
ATOM     10  H   LIG d   1       2.027  -1.492  -7.878  0.00  0.00     0.034 H 
ENDROOT
BRANCH   1  11
ATOM     11  N   LIG d   1       3.752  -0.116  -5.778  0.00  0.00    -0.288 N 
ATOM     12  C   LIG d   1       5.078  -0.458  -5.861  0.00  0.00     0.167 A 
ATOM     13  C   LIG d   1       5.489  -0.735  -4.546  0.00  0.00     0.147 A 
ATOM     14  N   LIG d   1       5.960  -0.566  -6.849  0.00  0.00    -0.216 NA
ATOM     15  C   LIG d   1       6.825  -1.117  -4.335  0.00  0.00     0.147 A 
ATOM     16  N   LIG d   1       4.413  -0.552  -3.743  0.00  0.00    -0.231 NA
ATOM     17  N   LIG d   1       7.634  -1.197  -5.385  0.00  0.00    -0.219 NA
ATOM     18  C   LIG d   1       7.202  -0.927  -6.604  0.00  0.00     0.120 A 
ATOM     19  H   LIG d   1       7.893  -1.004  -7.430  0.00  0.00     0.105 H 
ATOM     20  C   LIG d   1       3.393  -0.183  -4.465  0.00  0.00     0.100 A 
ATOM     21  H   LIG d   1       2.408   0.035  -4.080  0.00  0.00     0.103 H 
BRANCH  15  22
ATOM     22  N   LIG d   1       7.287  -1.402  -3.062  0.00  0.00    -0.341 NA
ATOM     23  H   LIG d   1       8.287  -1.369  -3.055  0.00  0.00     0.144 HD
ATOM     24  H   LIG d   1       7.078  -2.254  -2.649  0.00  0.00     0.144 HD
ENDBRANCH  15  22
ENDBRANCH   1  11
BRANCH   6  25
ATOM     25  C   LIG d   1       3.607   2.288  -9.836  0.00  0.00     0.073 C 
ATOM     26  H   LIG d   1       2.985   3.105 -10.203  0.00  0.00     0.058 H 
ATOM     27  H   LIG d   1       4.474   2.695  -9.317  0.00  0.00     0.058 H 
BRANCH  25  28
ATOM     28  O   LIG d   1       4.043   1.491 -10.939  0.00  0.00    -0.392 OA
ATOM     29  H   LIG d   1       4.986   1.576 -11.137  0.00  0.00     0.209 HD
ENDBRANCH  25  28
ENDBRANCH   6  25
BRANCH   4  30
ATOM     30  O   LIG d   1       1.657  -0.399 -10.041  0.00  0.00    -0.361 OA
BRANCH  30  31
ATOM     31  P   LIG d   1       1.678  -1.328 -11.355  0.00  0.00    -0.015 P 
ATOM     32  O   LIG d   1       0.383  -1.210 -12.062  0.00  0.00    -0.638 OA
ATOM     33  O   LIG d   1       2.867  -0.853 -12.331  0.00  0.00    -0.577 OA
ATOM     34  O   LIG d   1       1.916  -2.862 -10.926  0.00  0.00    -0.577 OA
ENDBRANCH  30  31
ENDBRANCH   4  30
TORSDOF 6
ENDMDL
MODEL 7
REMARK VINA RESULT:      -5.1     18.316     20.284
REMARK  6 active torsions:
REMARK  status: ('A' for Active; 'I' for Inactive)
REMARK    1  A    between atoms: C_3  and  N_23 
REMARK    2  A    between atoms: N_7  and  C_10 
REMARK    3  A    between atoms: C_13  and  O_20 
REMARK    4  A    between atoms: C_15  and  C_18 
REMARK    5  A    between atoms: C_18  and  O_19 
REMARK    6  A    between atoms: O_20  and  P_21 
ROOT
ATOM      1  C   LIG d   1       8.696  -9.777  -2.375  0.00  0.00     0.141 C 
ATOM      2  H   LIG d   1       9.195 -10.251  -3.221  0.00  0.00     0.084 H 
ATOM      3  C   LIG d   1       9.422 -10.129  -1.058  0.00  0.00     0.022 C 
ATOM      4  C   LIG d   1      10.386  -8.943  -0.833  0.00  0.00     0.094 C 
ATOM      5  H   LIG d   1      10.150  -8.430   0.100  0.00  0.00     0.063 H 
ATOM      6  C   LIG d   1      10.128  -8.015  -2.041  0.00  0.00     0.111 C 
ATOM      7  H   LIG d   1      10.845  -8.216  -2.836  0.00  0.00     0.065 H 
ATOM      8  O   LIG d   1       8.789  -8.341  -2.477  0.00  0.00    -0.348 OA
ATOM      9  H   LIG d   1       8.710 -10.203  -0.237  0.00  0.00     0.034 H 
ATOM     10  H   LIG d   1       9.979 -11.060  -1.165  0.00  0.00     0.034 H 
ENDROOT
BRANCH   1  11
ATOM     11  N   LIG d   1       7.293 -10.194  -2.310  0.00  0.00    -0.288 N 
ATOM     12  C   LIG d   1       6.296  -9.829  -3.180  0.00  0.00     0.167 A 
ATOM     13  C   LIG d   1       5.132 -10.467  -2.722  0.00  0.00     0.147 A 
ATOM     14  N   LIG d   1       6.230  -9.065  -4.264  0.00  0.00    -0.216 NA
ATOM     15  C   LIG d   1       3.939 -10.265  -3.439  0.00  0.00     0.147 A 
ATOM     16  N   LIG d   1       5.470 -11.175  -1.617  0.00  0.00    -0.231 NA
ATOM     17  N   LIG d   1       3.971  -9.483  -4.512  0.00  0.00    -0.219 NA
ATOM     18  C   LIG d   1       5.091  -8.904  -4.904  0.00  0.00     0.120 A 
ATOM     19  H   LIG d   1       5.073  -8.276  -5.782  0.00  0.00     0.105 H 
ATOM     20  C   LIG d   1       6.740 -11.020  -1.377  0.00  0.00     0.100 A 
ATOM     21  H   LIG d   1       7.276 -11.476  -0.558  0.00  0.00     0.103 H 
BRANCH  15  22
ATOM     22  N   LIG d   1       2.760 -10.868  -3.036  0.00  0.00    -0.341 NA
ATOM     23  H   LIG d   1       2.955 -11.788  -2.696  0.00  0.00     0.144 HD
ATOM     24  H   LIG d   1       2.041 -11.001  -3.673  0.00  0.00     0.144 HD
ENDBRANCH  15  22
ENDBRANCH   1  11
BRANCH   6  25
ATOM     25  C   LIG d   1      10.207  -6.548  -1.612  0.00  0.00     0.073 C 
ATOM     26  H   LIG d   1      11.101  -6.093  -2.039  0.00  0.00     0.058 H 
ATOM     27  H   LIG d   1       9.324  -6.017  -1.968  0.00  0.00     0.058 H 
BRANCH  25  28
ATOM     28  O   LIG d   1      10.267  -6.471  -0.186  0.00  0.00    -0.392 OA
ATOM     29  H   LIG d   1      10.767  -7.189   0.225  0.00  0.00     0.209 HD
ENDBRANCH  25  28
ENDBRANCH   6  25
BRANCH   4  30
ATOM     30  O   LIG d   1      11.743  -9.392  -0.829  0.00  0.00    -0.361 OA
BRANCH  30  31
ATOM     31  P   LIG d   1      12.835  -8.873   0.234  0.00  0.00    -0.015 P 
ATOM     32  O   LIG d   1      12.157  -8.107   1.303  0.00  0.00    -0.638 OA
ATOM     33  O   LIG d   1      13.599 -10.134   0.879  0.00  0.00    -0.577 OA
ATOM     34  O   LIG d   1      13.901  -7.923  -0.512  0.00  0.00    -0.577 OA
ENDBRANCH  30  31
ENDBRANCH   4  30
TORSDOF 6
ENDMDL
MODEL 8
REMARK VINA RESULT:      -5.1      2.819      3.743
REMARK  6 active torsions:
REMARK  status: ('A' for Active; 'I' for Inactive)
REMARK    1  A    between atoms: C_3  and  N_23 
REMARK    2  A    between atoms: N_7  and  C_10 
REMARK    3  A    between atoms: C_13  and  O_20 
REMARK    4  A    between atoms: C_15  and  C_18 
REMARK    5  A    between atoms: C_18  and  O_19 
REMARK    6  A    between atoms: O_20  and  P_21 
ROOT
ATOM      1  C   LIG d   1       9.934   8.039  -3.521  0.00  0.00     0.141 C 
ATOM      2  H   LIG d   1       8.937   8.386  -3.247  0.00  0.00     0.084 H 
ATOM      3  C   LIG d   1      10.884   8.124  -2.306  0.00  0.00     0.022 C 
ATOM      4  C   LIG d   1      10.833   6.708  -1.689  0.00  0.00     0.094 C 
ATOM      5  H   LIG d   1      11.820   6.247  -1.708  0.00  0.00     0.063 H 
ATOM      6  C   LIG d   1       9.857   5.935  -2.604  0.00  0.00     0.111 C 
ATOM      7  H   LIG d   1       8.849   5.958  -2.192  0.00  0.00     0.065 H 
ATOM      8  O   LIG d   1       9.901   6.638  -3.866  0.00  0.00    -0.348 OA
ATOM      9  H   LIG d   1      11.898   8.363  -2.629  0.00  0.00     0.034 H 
ATOM     10  H   LIG d   1      10.527   8.866  -1.592  0.00  0.00     0.034 H 
ENDROOT
BRANCH   1  11
ATOM     11  N   LIG d   1      10.462   8.827  -4.636  0.00  0.00    -0.288 N 
ATOM     12  C   LIG d   1      10.010   8.804  -5.932  0.00  0.00     0.167 A 
ATOM     13  C   LIG d   1      10.813   9.716  -6.637  0.00  0.00     0.147 A 
ATOM     14  N   LIG d   1       9.053   8.150  -6.581  0.00  0.00    -0.216 NA
ATOM     15  C   LIG d   1      10.564   9.896  -8.009  0.00  0.00     0.147 A 
ATOM     16  N   LIG d   1      11.697  10.239  -5.754  0.00  0.00    -0.231 NA
ATOM     17  N   LIG d   1       9.585   9.197  -8.572  0.00  0.00    -0.219 NA
ATOM     18  C   LIG d   1       8.856   8.350  -7.867  0.00  0.00     0.120 A 
ATOM     19  H   LIG d   1       8.070   7.802  -8.364  0.00  0.00     0.105 H 
ATOM     20  C   LIG d   1      11.488   9.722  -4.577  0.00  0.00     0.100 A 
ATOM     21  H   LIG d   1      12.048   9.964  -3.686  0.00  0.00     0.103 H 
BRANCH  15  22
ATOM     22  N   LIG d   1      11.322  10.781  -8.756  0.00  0.00    -0.341 NA
ATOM     23  H   LIG d   1      10.757  11.174  -9.482  0.00  0.00     0.144 HD
ATOM     24  H   LIG d   1      12.115  10.470  -9.220  0.00  0.00     0.144 HD
ENDBRANCH  15  22
ENDBRANCH   1  11
BRANCH   6  25
ATOM     25  C   LIG d   1      10.326   4.490  -2.782  0.00  0.00     0.073 C 
ATOM     26  H   LIG d   1       9.461   3.845  -2.946  0.00  0.00     0.058 H 
ATOM     27  H   LIG d   1      10.994   4.427  -3.641  0.00  0.00     0.058 H 
BRANCH  25  28
ATOM     28  O   LIG d   1      11.019   4.066  -1.606  0.00  0.00    -0.392 OA
ATOM     29  H   LIG d   1      11.007   4.712  -0.888  0.00  0.00     0.209 HD
ENDBRANCH  25  28
ENDBRANCH   6  25
BRANCH   4  30
ATOM     30  O   LIG d   1      10.329   6.761  -0.353  0.00  0.00    -0.361 OA
BRANCH  30  31
ATOM     31  P   LIG d   1      11.255   6.526   0.943  0.00  0.00    -0.015 P 
ATOM     32  O   LIG d   1      11.440   7.809   1.656  0.00  0.00    -0.638 OA
ATOM     33  O   LIG d   1      10.546   5.464   1.924  0.00  0.00    -0.577 OA
ATOM     34  O   LIG d   1      12.689   5.957   0.482  0.00  0.00    -0.577 OA
ENDBRANCH  30  31
ENDBRANCH   4  30
TORSDOF 6
ENDMDL
MODEL 9
REMARK VINA RESULT:      -5.0      2.532      3.047
REMARK  6 active torsions:
REMARK  status: ('A' for Active; 'I' for Inactive)
REMARK    1  A    between atoms: C_3  and  N_23 
REMARK    2  A    between atoms: N_7  and  C_10 
REMARK    3  A    between atoms: C_13  and  O_20 
REMARK    4  A    between atoms: C_15  and  C_18 
REMARK    5  A    between atoms: C_18  and  O_19 
REMARK    6  A    between atoms: O_20  and  P_21 
ROOT
ATOM      1  C   LIG d   1      10.669   9.139  -4.031  0.00  0.00     0.141 C 
ATOM      2  H   LIG d   1      11.518   9.823  -4.043  0.00  0.00     0.084 H 
ATOM      3  C   LIG d   1      11.032   7.846  -3.269  0.00  0.00     0.022 C 
ATOM      4  C   LIG d   1      10.524   8.102  -1.832  0.00  0.00     0.094 C 
ATOM      5  H   LIG d   1       9.762   7.372  -1.559  0.00  0.00     0.063 H 
ATOM      6  C   LIG d   1       9.915   9.521  -1.897  0.00  0.00     0.111 C 
ATOM      7  H   LIG d   1      10.646  10.265  -1.581  0.00  0.00     0.065 H 
ATOM      8  O   LIG d   1       9.572   9.712  -3.287  0.00  0.00    -0.348 OA
ATOM      9  H   LIG d   1      10.521   6.988  -3.706  0.00  0.00     0.034 H 
ATOM     10  H   LIG d   1      12.111   7.689  -3.272  0.00  0.00     0.034 H 
ENDROOT
BRANCH   1  11
ATOM     11  N   LIG d   1      10.249   8.824  -5.398  0.00  0.00    -0.288 N 
ATOM     12  C   LIG d   1      10.724   9.402  -6.548  0.00  0.00     0.167 A 
ATOM     13  C   LIG d   1      10.034   8.786  -7.605  0.00  0.00     0.147 A 
ATOM     14  N   LIG d   1      11.623  10.341  -6.824  0.00  0.00    -0.216 NA
ATOM     15  C   LIG d   1      10.329   9.194  -8.918  0.00  0.00     0.147 A 
ATOM     16  N   LIG d   1       9.188   7.880  -7.057  0.00  0.00    -0.231 NA
ATOM     17  N   LIG d   1      11.244  10.140  -9.096  0.00  0.00    -0.219 NA
ATOM     18  C   LIG d   1      11.867  10.691  -8.070  0.00  0.00     0.120 A 
ATOM     19  H   LIG d   1      12.604  11.457  -8.258  0.00  0.00     0.105 H 
ATOM     20  C   LIG d   1       9.317   7.897  -5.761  0.00  0.00     0.100 A 
ATOM     21  H   LIG d   1       8.766   7.271  -5.076  0.00  0.00     0.103 H 
BRANCH  15  22
ATOM     22  N   LIG d   1       9.682   8.622  -9.999  0.00  0.00    -0.341 NA
ATOM     23  H   LIG d   1       9.891   9.144 -10.826  0.00  0.00     0.144 HD
ATOM     24  H   LIG d   1       8.714   8.552 -10.004  0.00  0.00     0.144 HD
ENDBRANCH  15  22
ENDBRANCH   1  11
BRANCH   6  25
ATOM     25  C   LIG d   1       8.662   9.603  -1.023  0.00  0.00     0.073 C 
ATOM     26  H   LIG d   1       8.921  10.036  -0.056  0.00  0.00     0.058 H 
ATOM     27  H   LIG d   1       7.916  10.229  -1.514  0.00  0.00     0.058 H 
BRANCH  25  28
ATOM     28  O   LIG d   1       8.129   8.291  -0.829  0.00  0.00    -0.392 OA
ATOM     29  H   LIG d   1       7.511   8.222  -0.089  0.00  0.00     0.209 HD
ENDBRANCH  25  28
ENDBRANCH   6  25
BRANCH   4  30
ATOM     30  O   LIG d   1      11.609   8.066  -0.902  0.00  0.00    -0.361 OA
BRANCH  30  31
ATOM     31  P   LIG d   1      11.636   7.088   0.375  0.00  0.00    -0.015 P 
ATOM     32  O   LIG d   1      11.751   7.894   1.611  0.00  0.00    -0.638 OA
ATOM     33  O   LIG d   1      10.278   6.225   0.421  0.00  0.00    -0.577 OA
ATOM     34  O   LIG d   1      12.899   6.094   0.264  0.00  0.00    -0.577 OA
ENDBRANCH  30  31
ENDBRANCH   4  30
TORSDOF 6
ENDMDL
MODEL 10
REMARK VINA RESULT:      -5.0      5.021      7.591
REMARK  6 active torsions:
REMARK  status: ('A' for Active; 'I' for Inactive)
REMARK    1  A    between atoms: C_3  and  N_23 
REMARK    2  A    between atoms: N_7  and  C_10 
REMARK    3  A    between atoms: C_13  and  O_20 
REMARK    4  A    between atoms: C_15  and  C_18 
REMARK    5  A    between atoms: C_18  and  O_19 
REMARK    6  A    between atoms: O_20  and  P_21 
ROOT
ATOM      1  C   LIG d   1      10.977   8.188  -4.522  0.00  0.00     0.141 C 
ATOM      2  H   LIG d   1      12.050   8.163  -4.715  0.00  0.00     0.084 H 
ATOM      3  C   LIG d   1      10.479   9.649  -4.448  0.00  0.00     0.022 C 
ATOM      4  C   LIG d   1       9.974   9.945  -5.878  0.00  0.00     0.094 C 
ATOM      5  H   LIG d   1       8.911  10.182  -5.867  0.00  0.00     0.063 H 
ATOM      6  C   LIG d   1      10.227   8.628  -6.646  0.00  0.00     0.111 C 
ATOM      7  H   LIG d   1      11.184   8.667  -7.167  0.00  0.00     0.065 H 
ATOM      8  O   LIG d   1      10.253   7.605  -5.626  0.00  0.00    -0.348 OA
ATOM      9  H   LIG d   1       9.665   9.740  -3.730  0.00  0.00     0.034 H 
ATOM     10  H   LIG d   1      11.297  10.319  -4.184  0.00  0.00     0.034 H 
ENDROOT
BRANCH   1  11
ATOM     11  N   LIG d   1      10.665   7.481  -3.277  0.00  0.00    -0.288 N 
ATOM     12  C   LIG d   1      11.455   7.424  -2.156  0.00  0.00     0.167 A 
ATOM     13  C   LIG d   1      10.750   6.641  -1.226  0.00  0.00     0.147 A 
ATOM     14  N   LIG d   1      12.640   7.920  -1.816  0.00  0.00    -0.216 NA
ATOM     15  C   LIG d   1      11.336   6.416   0.031  0.00  0.00     0.147 A 
ATOM     16  N   LIG d   1       9.589   6.267  -1.816  0.00  0.00    -0.231 NA
ATOM     17  N   LIG d   1      12.525   6.953   0.280  0.00  0.00    -0.219 NA
ATOM     18  C   LIG d   1      13.150   7.683  -0.626  0.00  0.00     0.120 A 
ATOM     19  H   LIG d   1      14.115   8.102  -0.383  0.00  0.00     0.105 H 
ATOM     20  C   LIG d   1       9.536   6.764  -3.019  0.00  0.00     0.100 A 
ATOM     21  H   LIG d   1       8.718   6.626  -3.710  0.00  0.00     0.103 H 
BRANCH  15  22
ATOM     22  N   LIG d   1      10.690   5.653   0.988  0.00  0.00    -0.341 NA
ATOM     23  H   LIG d   1       9.708   5.643   0.798  0.00  0.00     0.144 HD
ATOM     24  H   LIG d   1      10.745   5.900   1.924  0.00  0.00     0.144 HD
ENDBRANCH  15  22
ENDBRANCH   1  11
BRANCH   6  25
ATOM     25  C   LIG d   1       9.093   8.363  -7.638  0.00  0.00     0.073 C 
ATOM     26  H   LIG d   1       9.403   7.597  -8.348  0.00  0.00     0.058 H 
ATOM     27  H   LIG d   1       8.209   8.023  -7.098  0.00  0.00     0.058 H 
BRANCH  25  28
ATOM     28  O   LIG d   1       8.785   9.568  -8.343  0.00  0.00    -0.392 OA
ATOM     29  H   LIG d   1       8.966  10.374  -7.840  0.00  0.00     0.209 HD
ENDBRANCH  25  28
ENDBRANCH   6  25
BRANCH   4  30
ATOM     30  O   LIG d   1      10.720  11.015  -6.463  0.00  0.00    -0.361 OA
BRANCH  30  31
ATOM     31  P   LIG d   1      10.134  12.504  -6.627  0.00  0.00    -0.015 P 
ATOM     32  O   LIG d   1       9.287  12.833  -5.459  0.00  0.00    -0.638 OA
ATOM     33  O   LIG d   1      11.351  13.554  -6.721  0.00  0.00    -0.577 OA
ATOM     34  O   LIG d   1       9.249  12.588  -7.971  0.00  0.00    -0.577 OA
ENDBRANCH  30  31
ENDBRANCH   4  30
TORSDOF 6
ENDMDL
