MODEL 1
REMARK VINA RESULT:      -6.8      0.000      0.000
REMARK  6 active torsions:
REMARK  status: ('A' for Active; 'I' for Inactive)
REMARK    1  A    between atoms: C_1  and  C_2 
REMARK    2  A    between atoms: C_4  and  O_23 
REMARK    3  A    between atoms: C_7  and  C_21 
REMARK    4  A    between atoms: C_7  and  C_22 
REMARK    5  A    between atoms: C_10  and  O_20 
REMARK    6  A    between atoms: C_14  and  O_19 
ROOT
ATOM      1  C   LIG d   1       4.839  -0.960  -5.171  0.00  0.00     0.019 C 
ATOM      2  C   LIG d   1       6.363  -0.867  -5.289  0.00  0.00    -0.018 C 
ATOM      3  C   LIG d   1       7.008  -1.247  -3.955  0.00  0.00     0.056 C 
ATOM      4  H   LIG d   1       6.755  -2.266  -3.676  0.00  0.00     0.059 H 
ATOM      5  C   LIG d   1       6.568  -0.274  -2.868  0.00  0.00    -0.021 C 
ATOM      6  C   LIG d   1       5.046  -0.226  -2.716  0.00  0.00    -0.026 C 
ATOM      7  C   LIG d   1       4.354  -0.064  -4.051  0.00  0.00     0.003 C 
ATOM      8  H   LIG d   1       4.640   0.978  -4.388  0.00  0.00     0.034 H 
ATOM      9  C   LIG d   1       2.830  -0.014  -3.952  0.00  0.00     0.078 C 
ATOM     10  H   LIG d   1       2.517   0.621  -3.115  0.00  0.00     0.064 H 
ATOM     11  C   LIG d   1       2.360   0.646  -5.245  0.00  0.00    -0.050 C 
ATOM     12  C   LIG d   1       3.016   0.353  -6.315  0.00  0.00     0.008 C 
ATOM     13  C   LIG d   1       4.177  -0.612  -6.487  0.00  0.00     0.192 C 
ATOM     14  C   LIG d   1       5.034   0.095  -7.500  0.00  0.00     0.344 C 
ATOM     15  O   LIG d   1       6.216  -0.056  -7.692  0.00  0.00    -0.247 OA
ATOM     16  O   LIG d   1       4.237   0.941  -8.199  0.00  0.00    -0.458 OA
ATOM     17  C   LIG d   1       2.869   0.830  -7.747  0.00  0.00     0.117 C 
ATOM     18  H   LIG d   1       6.707  -1.549  -6.066  0.00  0.00     0.030 H 
ATOM     19  H   LIG d   1       6.643   0.156  -5.545  0.00  0.00     0.030 H 
ATOM     20  H   LIG d   1       7.009  -0.578  -1.914  0.00  0.00     0.029 H 
ATOM     21  H   LIG d   1       6.934   0.728  -3.111  0.00  0.00     0.029 H 
ATOM     22  H   LIG d   1       1.521   1.323  -5.254  0.00  0.00     0.060 H 
ATOM     23  H   LIG d   1       2.325   0.100  -8.342  0.00  0.00     0.075 H 
ATOM     24  H   LIG d   1       2.376   1.800  -7.776  0.00  0.00     0.075 H 
ENDROOT
BRANCH   6  25
ATOM     25  C   LIG d   1       4.562  -1.442  -1.929  0.00  0.00    -0.059 C 
ATOM     26  H   LIG d   1       4.830  -1.326  -0.879  0.00  0.00     0.024 H 
ATOM     27  H   LIG d   1       3.480  -1.528  -2.021  0.00  0.00     0.024 H 
ATOM     28  H   LIG d   1       5.033  -2.342  -2.326  0.00  0.00     0.024 H 
ENDBRANCH   6  25
BRANCH   6  29
ATOM     29  C   LIG d   1       4.738   1.024  -1.855  0.00  0.00    -0.059 C 
ATOM     30  H   LIG d   1       5.500   1.785  -2.033  0.00  0.00     0.024 H 
ATOM     31  H   LIG d   1       3.759   1.420  -2.125  0.00  0.00     0.024 H 
ATOM     32  H   LIG d   1       4.741   0.749  -0.800  0.00  0.00     0.024 H 
ENDBRANCH   6  29
BRANCH   3  33
ATOM     33  O   LIG d   1       8.435  -1.166  -4.098  0.00  0.00    -0.392 OA
ATOM     34  H   LIG d   1       8.926  -1.597  -3.386  0.00  0.00     0.210 HD
ENDBRANCH   3  33
BRANCH   1  35
ATOM     35  C   LIG d   1       4.499  -2.430  -4.917  0.00  0.00    -0.056 C 
ATOM     36  H   LIG d   1       4.346  -2.937  -5.870  0.00  0.00     0.024 H 
ATOM     37  H   LIG d   1       5.321  -2.905  -4.380  0.00  0.00     0.024 H 
ATOM     38  H   LIG d   1       3.589  -2.495  -4.321  0.00  0.00     0.024 H 
ENDBRANCH   1  35
BRANCH   9  39
ATOM     39  O   LIG d   1       2.222  -1.292  -3.810  0.00  0.00    -0.387 OA
ATOM     40  H   LIG d   1       2.840  -1.997  -3.571  0.00  0.00     0.210 HD
ENDBRANCH   9  39
BRANCH  13  41
ATOM     41  O   LIG d   1       3.682  -1.825  -7.068  0.00  0.00    -0.373 OA
ATOM     42  H   LIG d   1       4.369  -2.477  -7.262  0.00  0.00     0.211 HD
ENDBRANCH  13  41
TORSDOF 6
ENDMDL
MODEL 2
REMARK VINA RESULT:      -6.0      2.170      4.073
REMARK  6 active torsions:
REMARK  status: ('A' for Active; 'I' for Inactive)
REMARK    1  A    between atoms: C_1  and  C_2 
REMARK    2  A    between atoms: C_4  and  O_23 
REMARK    3  A    between atoms: C_7  and  C_21 
REMARK    4  A    between atoms: C_7  and  C_22 
REMARK    5  A    between atoms: C_10  and  O_20 
REMARK    6  A    between atoms: C_14  and  O_19 
ROOT
ATOM      1  C   LIG d   1       5.864  -0.695  -4.934  0.00  0.00     0.019 C 
ATOM      2  C   LIG d   1       7.169   0.045  -5.240  0.00  0.00    -0.018 C 
ATOM      3  C   LIG d   1       7.953  -0.713  -6.313  0.00  0.00     0.056 C 
ATOM      4  H   LIG d   1       7.383  -0.782  -7.235  0.00  0.00     0.059 H 
ATOM      5  C   LIG d   1       8.317  -2.103  -5.807  0.00  0.00    -0.021 C 
ATOM      6  C   LIG d   1       7.084  -2.910  -5.395  0.00  0.00    -0.026 C 
ATOM      7  C   LIG d   1       6.166  -2.112  -4.495  0.00  0.00     0.003 C 
ATOM      8  H   LIG d   1       6.757  -1.985  -3.538  0.00  0.00     0.034 H 
ATOM      9  C   LIG d   1       4.917  -2.875  -4.059  0.00  0.00     0.078 C 
ATOM     10  H   LIG d   1       5.170  -3.904  -3.774  0.00  0.00     0.064 H 
ATOM     11  C   LIG d   1       4.415  -2.153  -2.812  0.00  0.00    -0.050 C 
ATOM     12  C   LIG d   1       4.531  -0.869  -2.801  0.00  0.00     0.008 C 
ATOM     13  C   LIG d   1       5.057   0.049  -3.891  0.00  0.00     0.192 C 
ATOM     14  C   LIG d   1       5.791   1.096  -3.101  0.00  0.00     0.344 C 
ATOM     15  O   LIG d   1       6.678   1.818  -3.487  0.00  0.00    -0.247 OA
ATOM     16  O   LIG d   1       5.266   1.116  -1.850  0.00  0.00    -0.458 OA
ATOM     17  C   LIG d   1       4.185   0.162  -1.745  0.00  0.00     0.117 C 
ATOM     18  H   LIG d   1       6.940   1.048  -5.597  0.00  0.00     0.030 H 
ATOM     19  H   LIG d   1       7.770   0.106  -4.331  0.00  0.00     0.030 H 
ATOM     20  H   LIG d   1       8.846  -2.645  -6.597  0.00  0.00     0.029 H 
ATOM     21  H   LIG d   1       8.986  -2.011  -4.947  0.00  0.00     0.029 H 
ATOM     22  H   LIG d   1       3.986  -2.697  -1.985  0.00  0.00     0.060 H 
ATOM     23  H   LIG d   1       3.232   0.636  -1.968  0.00  0.00     0.075 H 
ATOM     24  H   LIG d   1       4.172  -0.294  -0.756  0.00  0.00     0.075 H 
ENDROOT
BRANCH   6  25
ATOM     25  C   LIG d   1       6.383  -3.462  -6.635  0.00  0.00    -0.059 C 
ATOM     26  H   LIG d   1       5.313  -3.531  -6.447  0.00  0.00     0.024 H 
ATOM     27  H   LIG d   1       6.562  -2.797  -7.479  0.00  0.00     0.024 H 
ATOM     28  H   LIG d   1       6.777  -4.453  -6.864  0.00  0.00     0.024 H 
ENDBRANCH   6  25
BRANCH   6  29
ATOM     29  C   LIG d   1       7.613  -4.126  -4.593  0.00  0.00    -0.059 C 
ATOM     30  H   LIG d   1       8.703  -4.123  -4.605  0.00  0.00     0.024 H 
ATOM     31  H   LIG d   1       7.260  -4.064  -3.564  0.00  0.00     0.024 H 
ATOM     32  H   LIG d   1       7.248  -5.047  -5.048  0.00  0.00     0.024 H 
ENDBRANCH   6  29
BRANCH   3  33
ATOM     33  O   LIG d   1       9.162   0.010  -6.591  0.00  0.00    -0.392 OA
ATOM     34  H   LIG d   1       9.206   0.371  -7.487  0.00  0.00     0.210 HD
ENDBRANCH   3  33
BRANCH   1  35
ATOM     35  C   LIG d   1       5.019  -0.658  -6.209  0.00  0.00    -0.056 C 
ATOM     36  H   LIG d   1       4.103  -0.097  -6.021  0.00  0.00     0.024 H 
ATOM     37  H   LIG d   1       5.586  -0.173  -7.005  0.00  0.00     0.024 H 
ATOM     38  H   LIG d   1       4.768  -1.675  -6.508  0.00  0.00     0.024 H 
ENDBRANCH   1  35
BRANCH   9  39
ATOM     39  O   LIG d   1       3.893  -2.911  -5.045  0.00  0.00    -0.387 OA
ATOM     40  H   LIG d   1       3.145  -3.481  -4.813  0.00  0.00     0.210 HD
ENDBRANCH   9  39
BRANCH  13  41
ATOM     41  O   LIG d   1       3.942   0.664  -4.549  0.00  0.00    -0.373 OA
ATOM     42  H   LIG d   1       3.306   0.035  -4.915  0.00  0.00     0.211 HD
ENDBRANCH  13  41
TORSDOF 6
ENDMDL
MODEL 3
REMARK VINA RESULT:      -5.7      1.685      4.669
REMARK  6 active torsions:
REMARK  status: ('A' for Active; 'I' for Inactive)
REMARK    1  A    between atoms: C_1  and  C_2 
REMARK    2  A    between atoms: C_4  and  O_23 
REMARK    3  A    between atoms: C_7  and  C_21 
REMARK    4  A    between atoms: C_7  and  C_22 
REMARK    5  A    between atoms: C_10  and  O_20 
REMARK    6  A    between atoms: C_14  and  O_19 
ROOT
ATOM      1  C   LIG d   1       5.224  -1.100  -4.646  0.00  0.00     0.019 C 
ATOM      2  C   LIG d   1       4.045  -1.333  -5.596  0.00  0.00    -0.018 C 
ATOM      3  C   LIG d   1       4.562  -1.827  -6.948  0.00  0.00     0.056 C 
ATOM      4  H   LIG d   1       5.095  -2.768  -6.841  0.00  0.00     0.059 H 
ATOM      5  C   LIG d   1       5.464  -0.774  -7.578  0.00  0.00    -0.021 C 
ATOM      6  C   LIG d   1       6.642  -0.404  -6.674  0.00  0.00    -0.026 C 
ATOM      7  C   LIG d   1       6.192  -0.112  -5.259  0.00  0.00     0.003 C 
ATOM      8  H   LIG d   1       5.592   0.843  -5.350  0.00  0.00     0.034 H 
ATOM      9  C   LIG d   1       7.335   0.259  -4.316  0.00  0.00     0.078 C 
ATOM     10  H   LIG d   1       8.029   0.954  -4.802  0.00  0.00     0.064 H 
ATOM     11  C   LIG d   1       6.677   0.991  -3.150  0.00  0.00    -0.050 C 
ATOM     12  C   LIG d   1       5.524   0.556  -2.770  0.00  0.00     0.008 C 
ATOM     13  C   LIG d   1       4.736  -0.633  -3.292  0.00  0.00     0.192 C 
ATOM     14  C   LIG d   1       3.320  -0.132  -3.227  0.00  0.00     0.344 C 
ATOM     15  O   LIG d   1       2.372  -0.531  -3.860  0.00  0.00    -0.247 OA
ATOM     16  O   LIG d   1       3.272   0.856  -2.300  0.00  0.00    -0.458 OA
ATOM     17  C   LIG d   1       4.571   1.041  -1.695  0.00  0.00     0.117 C 
ATOM     18  H   LIG d   1       3.377  -2.078  -5.167  0.00  0.00     0.030 H 
ATOM     19  H   LIG d   1       3.507  -0.394  -5.739  0.00  0.00     0.030 H 
ATOM     20  H   LIG d   1       5.853  -1.155  -8.527  0.00  0.00     0.029 H 
ATOM     21  H   LIG d   1       4.878   0.126  -7.786  0.00  0.00     0.029 H 
ATOM     22  H   LIG d   1       7.159   1.831  -2.672  0.00  0.00     0.060 H 
ATOM     23  H   LIG d   1       4.666   0.436  -0.796  0.00  0.00     0.075 H 
ATOM     24  H   LIG d   1       4.746   2.093  -1.476  0.00  0.00     0.075 H 
ENDROOT
BRANCH   6  25
ATOM     25  C   LIG d   1       7.719  -1.484  -6.754  0.00  0.00    -0.059 C 
ATOM     26  H   LIG d   1       8.331  -1.321  -7.640  0.00  0.00     0.024 H 
ATOM     27  H   LIG d   1       8.347  -1.437  -5.865  0.00  0.00     0.024 H 
ATOM     28  H   LIG d   1       7.247  -2.465  -6.815  0.00  0.00     0.024 H 
ENDBRANCH   6  25
BRANCH   6  29
ATOM     29  C   LIG d   1       7.251   0.891  -7.267  0.00  0.00    -0.059 C 
ATOM     30  H   LIG d   1       8.257   1.033  -6.872  0.00  0.00     0.024 H 
ATOM     31  H   LIG d   1       7.295   0.809  -8.353  0.00  0.00     0.024 H 
ATOM     32  H   LIG d   1       6.630   1.744  -6.991  0.00  0.00     0.024 H 
ENDBRANCH   6  29
BRANCH   3  33
ATOM     33  O   LIG d   1       3.437  -2.051  -7.813  0.00  0.00    -0.392 OA
ATOM     34  H   LIG d   1       3.538  -2.814  -8.399  0.00  0.00     0.210 HD
ENDBRANCH   3  33
BRANCH   1  35
ATOM     35  C   LIG d   1       5.874  -2.463  -4.400  0.00  0.00    -0.056 C 
ATOM     36  H   LIG d   1       6.918  -2.429  -4.715  0.00  0.00     0.024 H 
ATOM     37  H   LIG d   1       5.822  -2.704  -3.338  0.00  0.00     0.024 H 
ATOM     38  H   LIG d   1       5.347  -3.226  -4.973  0.00  0.00     0.024 H 
ENDBRANCH   1  35
BRANCH   9  39
ATOM     39  O   LIG d   1       8.068  -0.860  -3.834  0.00  0.00    -0.387 OA
ATOM     40  H   LIG d   1       8.547  -1.342  -4.523  0.00  0.00     0.210 HD
ENDBRANCH   9  39
BRANCH  13  41
ATOM     41  O   LIG d   1       4.883  -1.720  -2.368  0.00  0.00    -0.373 OA
ATOM     42  H   LIG d   1       4.247  -1.705  -1.640  0.00  0.00     0.211 HD
ENDBRANCH  13  41
TORSDOF 6
ENDMDL
MODEL 4
REMARK VINA RESULT:      -5.4      1.878      4.270
REMARK  6 active torsions:
REMARK  status: ('A' for Active; 'I' for Inactive)
REMARK    1  A    between atoms: C_1  and  C_2 
REMARK    2  A    between atoms: C_4  and  O_23 
REMARK    3  A    between atoms: C_7  and  C_21 
REMARK    4  A    between atoms: C_7  and  C_22 
REMARK    5  A    between atoms: C_10  and  O_20 
REMARK    6  A    between atoms: C_14  and  O_19 
ROOT
ATOM      1  C   LIG d   1       5.672  -1.315  -5.421  0.00  0.00     0.019 C 
ATOM      2  C   LIG d   1       4.252  -1.205  -5.984  0.00  0.00    -0.018 C 
ATOM      3  C   LIG d   1       3.484  -0.114  -5.236  0.00  0.00     0.056 C 
ATOM      4  H   LIG d   1       3.966   0.852  -5.353  0.00  0.00     0.059 H 
ATOM      5  C   LIG d   1       3.370  -0.476  -3.761  0.00  0.00    -0.021 C 
ATOM      6  C   LIG d   1       4.738  -0.689  -3.109  0.00  0.00    -0.026 C 
ATOM      7  C   LIG d   1       5.616  -1.603  -3.936  0.00  0.00     0.003 C 
ATOM      8  H   LIG d   1       5.108  -2.612  -3.869  0.00  0.00     0.034 H 
ATOM      9  C   LIG d   1       6.996  -1.844  -3.328  0.00  0.00     0.078 C 
ATOM     10  H   LIG d   1       6.919  -2.022  -2.249  0.00  0.00     0.064 H 
ATOM     11  C   LIG d   1       7.509  -3.125  -3.980  0.00  0.00    -0.050 C 
ATOM     12  C   LIG d   1       7.214  -3.299  -5.222  0.00  0.00     0.008 C 
ATOM     13  C   LIG d   1       6.462  -2.373  -6.162  0.00  0.00     0.192 C 
ATOM     14  C   LIG d   1       5.667  -3.339  -6.996  0.00  0.00     0.344 C 
ATOM     15  O   LIG d   1       4.654  -3.113  -7.613  0.00  0.00    -0.247 OA
ATOM     16  O   LIG d   1       6.302  -4.537  -6.960  0.00  0.00    -0.458 OA
ATOM     17  C   LIG d   1       7.511  -4.441  -6.175  0.00  0.00     0.117 C 
ATOM     18  H   LIG d   1       4.302  -0.953  -7.043  0.00  0.00     0.030 H 
ATOM     19  H   LIG d   1       3.738  -2.159  -5.855  0.00  0.00     0.030 H 
ATOM     20  H   LIG d   1       2.848   0.328  -3.233  0.00  0.00     0.029 H 
ATOM     21  H   LIG d   1       2.779  -1.391  -3.658  0.00  0.00     0.029 H 
ATOM     22  H   LIG d   1       8.088  -3.844  -3.421  0.00  0.00     0.060 H 
ATOM     23  H   LIG d   1       8.363  -4.202  -6.808  0.00  0.00     0.075 H 
ATOM     24  H   LIG d   1       7.684  -5.363  -5.623  0.00  0.00     0.075 H 
ENDROOT
BRANCH   6  25
ATOM     25  C   LIG d   1       5.387   0.660  -2.806  0.00  0.00    -0.059 C 
ATOM     26  H   LIG d   1       5.497   1.225  -3.730  0.00  0.00     0.024 H 
ATOM     27  H   LIG d   1       4.759   1.217  -2.112  0.00  0.00     0.024 H 
ATOM     28  H   LIG d   1       6.368   0.498  -2.359  0.00  0.00     0.024 H 
ENDBRANCH   6  25
BRANCH   6  29
ATOM     29  C   LIG d   1       4.465  -1.379  -1.749  0.00  0.00    -0.059 C 
ATOM     30  H   LIG d   1       5.313  -2.012  -1.486  0.00  0.00     0.024 H 
ATOM     31  H   LIG d   1       4.326  -0.620  -0.978  0.00  0.00     0.024 H 
ATOM     32  H   LIG d   1       3.566  -1.990  -1.825  0.00  0.00     0.024 H 
ENDBRANCH   6  29
BRANCH   3  33
ATOM     33  O   LIG d   1       2.163  -0.022  -5.794  0.00  0.00    -0.392 OA
ATOM     34  H   LIG d   1       1.463  -0.311  -5.193  0.00  0.00     0.210 HD
ENDBRANCH   3  33
BRANCH   1  35
ATOM     35  C   LIG d   1       6.376   0.009  -5.722  0.00  0.00    -0.056 C 
ATOM     36  H   LIG d   1       6.850  -0.047  -6.703  0.00  0.00     0.024 H 
ATOM     37  H   LIG d   1       5.645   0.818  -5.717  0.00  0.00     0.024 H 
ATOM     38  H   LIG d   1       7.134   0.198  -4.963  0.00  0.00     0.024 H 
ENDBRANCH   1  35
BRANCH   9  39
ATOM     39  O   LIG d   1       7.916  -0.783  -3.553  0.00  0.00    -0.387 OA
ATOM     40  H   LIG d   1       7.520   0.001  -3.958  0.00  0.00     0.210 HD
ENDBRANCH   9  39
BRANCH  13  41
ATOM     41  O   LIG d   1       7.410  -1.707  -7.006  0.00  0.00    -0.373 OA
ATOM     42  H   LIG d   1       7.726  -0.864  -6.653  0.00  0.00     0.211 HD
ENDBRANCH  13  41
TORSDOF 6
ENDMDL
MODEL 5
REMARK VINA RESULT:      -5.3     10.426     12.267
REMARK  6 active torsions:
REMARK  status: ('A' for Active; 'I' for Inactive)
REMARK    1  A    between atoms: C_1  and  C_2 
REMARK    2  A    between atoms: C_4  and  O_23 
REMARK    3  A    between atoms: C_7  and  C_21 
REMARK    4  A    between atoms: C_7  and  C_22 
REMARK    5  A    between atoms: C_10  and  O_20 
REMARK    6  A    between atoms: C_14  and  O_19 
ROOT
ATOM      1  C   LIG d   1      10.118   9.070  -0.890  0.00  0.00     0.019 C 
ATOM      2  C   LIG d   1      10.840   8.996   0.458  0.00  0.00    -0.018 C 
ATOM      3  C   LIG d   1      11.293  10.396   0.878  0.00  0.00     0.056 C 
ATOM      4  H   LIG d   1      10.442  11.063   0.990  0.00  0.00     0.059 H 
ATOM      5  C   LIG d   1      12.275  10.954  -0.143  0.00  0.00    -0.021 C 
ATOM      6  C   LIG d   1      11.681  11.000  -1.553  0.00  0.00    -0.026 C 
ATOM      7  C   LIG d   1      11.029   9.688  -1.929  0.00  0.00     0.003 C 
ATOM      8  H   LIG d   1      11.893   8.960  -2.007  0.00  0.00     0.034 H 
ATOM      9  C   LIG d   1      10.417   9.685  -3.328  0.00  0.00     0.078 C 
ATOM     10  H   LIG d   1      11.092  10.163  -4.048  0.00  0.00     0.064 H 
ATOM     11  C   LIG d   1      10.288   8.213  -3.712  0.00  0.00    -0.050 C 
ATOM     12  C   LIG d   1       9.965   7.396  -2.769  0.00  0.00     0.008 C 
ATOM     13  C   LIG d   1       9.639   7.699  -1.316  0.00  0.00     0.192 C 
ATOM     14  C   LIG d   1      10.246   6.525  -0.600  0.00  0.00     0.344 C 
ATOM     15  O   LIG d   1      10.589   6.470   0.557  0.00  0.00    -0.247 OA
ATOM     16  O   LIG d   1      10.332   5.500  -1.483  0.00  0.00    -0.458 OA
ATOM     17  C   LIG d   1       9.784   5.890  -2.761  0.00  0.00     0.117 C 
ATOM     18  H   LIG d   1      10.163   8.592   1.210  0.00  0.00     0.030 H 
ATOM     19  H   LIG d   1      11.714   8.349   0.364  0.00  0.00     0.030 H 
ATOM     20  H   LIG d   1      12.563  11.968   0.152  0.00  0.00     0.029 H 
ATOM     21  H   LIG d   1      13.175  10.333  -0.156  0.00  0.00     0.029 H 
ATOM     22  H   LIG d   1      10.461   7.881  -4.724  0.00  0.00     0.060 H 
ATOM     23  H   LIG d   1       8.729   5.630  -2.823  0.00  0.00     0.075 H 
ATOM     24  H   LIG d   1      10.345   5.435  -3.575  0.00  0.00     0.075 H 
ENDROOT
BRANCH   6  25
ATOM     25  C   LIG d   1      10.745  12.199  -1.685  0.00  0.00    -0.059 C 
ATOM     26  H   LIG d   1      11.296  13.047  -2.090  0.00  0.00     0.024 H 
ATOM     27  H   LIG d   1       9.923  11.946  -2.354  0.00  0.00     0.024 H 
ATOM     28  H   LIG d   1      10.347  12.460  -0.704  0.00  0.00     0.024 H 
ENDBRANCH   6  25
BRANCH   6  29
ATOM     29  C   LIG d   1      12.871  11.244  -2.514  0.00  0.00    -0.059 C 
ATOM     30  H   LIG d   1      12.763  10.609  -3.395  0.00  0.00     0.024 H 
ATOM     31  H   LIG d   1      12.884  12.290  -2.820  0.00  0.00     0.024 H 
ATOM     32  H   LIG d   1      13.804  11.002  -2.006  0.00  0.00     0.024 H 
ENDBRANCH   6  29
BRANCH   3  33
ATOM     33  O   LIG d   1      11.952  10.300   2.151  0.00  0.00    -0.392 OA
ATOM     34  H   LIG d   1      11.428  10.636   2.891  0.00  0.00     0.210 HD
ENDBRANCH   3  33
BRANCH   1  35
ATOM     35  C   LIG d   1       8.851   9.899  -0.673  0.00  0.00    -0.056 C 
ATOM     36  H   LIG d   1       9.122  10.943  -0.515  0.00  0.00     0.024 H 
ATOM     37  H   LIG d   1       8.210   9.819  -1.552  0.00  0.00     0.024 H 
ATOM     38  H   LIG d   1       8.318   9.525   0.201  0.00  0.00     0.024 H 
ENDBRANCH   1  35
BRANCH   9  39
ATOM     39  O   LIG d   1       9.146  10.318  -3.401  0.00  0.00    -0.387 OA
ATOM     40  H   LIG d   1       8.773  10.551  -2.539  0.00  0.00     0.210 HD
ENDBRANCH   9  39
BRANCH  13  41
ATOM     41  O   LIG d   1       8.216   7.655  -1.149  0.00  0.00    -0.373 OA
ATOM     42  H   LIG d   1       7.915   6.987  -0.517  0.00  0.00     0.211 HD
ENDBRANCH  13  41
TORSDOF 6
ENDMDL
MODEL 6
REMARK VINA RESULT:      -5.1      2.055      4.941
REMARK  6 active torsions:
REMARK  status: ('A' for Active; 'I' for Inactive)
REMARK    1  A    between atoms: C_1  and  C_2 
REMARK    2  A    between atoms: C_4  and  O_23 
REMARK    3  A    between atoms: C_7  and  C_21 
REMARK    4  A    between atoms: C_7  and  C_22 
REMARK    5  A    between atoms: C_10  and  O_20 
REMARK    6  A    between atoms: C_14  and  O_19 
ROOT
ATOM      1  C   LIG d   1       4.365  -1.187  -6.842  0.00  0.00     0.019 C 
ATOM      2  C   LIG d   1       4.564  -2.704  -6.880  0.00  0.00    -0.018 C 
ATOM      3  C   LIG d   1       4.735  -3.166  -8.328  0.00  0.00     0.056 C 
ATOM      4  H   LIG d   1       5.605  -2.703  -8.785  0.00  0.00     0.059 H 
ATOM      5  C   LIG d   1       3.479  -2.844  -9.128  0.00  0.00    -0.021 C 
ATOM      6  C   LIG d   1       3.138  -1.353  -9.094  0.00  0.00    -0.026 C 
ATOM      7  C   LIG d   1       3.168  -0.803  -7.685  0.00  0.00     0.003 C 
ATOM      8  H   LIG d   1       2.295  -1.307  -7.171  0.00  0.00     0.034 H 
ATOM      9  C   LIG d   1       2.837   0.686  -7.599  0.00  0.00     0.078 C 
ATOM     10  H   LIG d   1       1.983   0.931  -8.242  0.00  0.00     0.064 H 
ATOM     11  C   LIG d   1       2.418   0.925  -6.151  0.00  0.00    -0.050 C 
ATOM     12  C   LIG d   1       3.055   0.262  -5.248  0.00  0.00     0.008 C 
ATOM     13  C   LIG d   1       4.218  -0.701  -5.415  0.00  0.00     0.192 C 
ATOM     14  C   LIG d   1       3.918  -1.748  -4.380  0.00  0.00     0.344 C 
ATOM     15  O   LIG d   1       4.309  -2.891  -4.359  0.00  0.00    -0.247 OA
ATOM     16  O   LIG d   1       3.129  -1.182  -3.433  0.00  0.00    -0.458 OA
ATOM     17  C   LIG d   1       2.898   0.211  -3.740  0.00  0.00     0.117 C 
ATOM     18  H   LIG d   1       5.453  -2.967  -6.307  0.00  0.00     0.030 H 
ATOM     19  H   LIG d   1       3.690  -3.193  -6.447  0.00  0.00     0.030 H 
ATOM     20  H   LIG d   1       3.629  -3.148 -10.169  0.00  0.00     0.029 H 
ATOM     21  H   LIG d   1       2.637  -3.412  -8.723  0.00  0.00     0.029 H 
ATOM     22  H   LIG d   1       1.626   1.616  -5.905  0.00  0.00     0.060 H 
ATOM     23  H   LIG d   1       3.641   0.841  -3.255  0.00  0.00     0.075 H 
ATOM     24  H   LIG d   1       1.890   0.505  -3.452  0.00  0.00     0.075 H 
ENDROOT
BRANCH   6  25
ATOM     25  C   LIG d   1       4.041  -0.589 -10.060  0.00  0.00    -0.059 C 
ATOM     26  H   LIG d   1       3.531   0.312 -10.399  0.00  0.00     0.024 H 
ATOM     27  H   LIG d   1       4.965  -0.314  -9.552  0.00  0.00     0.024 H 
ATOM     28  H   LIG d   1       4.272  -1.221 -10.918  0.00  0.00     0.024 H 
ENDBRANCH   6  25
BRANCH   6  29
ATOM     29  C   LIG d   1       1.690  -1.229  -9.632  0.00  0.00    -0.059 C 
ATOM     30  H   LIG d   1       0.986  -1.307  -8.803  0.00  0.00     0.024 H 
ATOM     31  H   LIG d   1       1.566  -0.266 -10.125  0.00  0.00     0.024 H 
ATOM     32  H   LIG d   1       1.499  -2.031 -10.346  0.00  0.00     0.024 H 
ENDBRANCH   6  29
BRANCH   3  33
ATOM     33  O   LIG d   1       4.935  -4.588  -8.333  0.00  0.00    -0.392 OA
ATOM     34  H   LIG d   1       5.361  -4.922  -9.135  0.00  0.00     0.210 HD
ENDBRANCH   3  33
BRANCH   1  35
ATOM     35  C   LIG d   1       5.658  -0.553  -7.360  0.00  0.00    -0.056 C 
ATOM     36  H   LIG d   1       5.447   0.009  -8.270  0.00  0.00     0.024 H 
ATOM     37  H   LIG d   1       6.061   0.119  -6.602  0.00  0.00     0.024 H 
ATOM     38  H   LIG d   1       6.384  -1.336  -7.576  0.00  0.00     0.024 H 
ENDBRANCH   1  35
BRANCH   9  39
ATOM     39  O   LIG d   1       3.924   1.537  -7.937  0.00  0.00    -0.387 OA
ATOM     40  H   LIG d   1       3.980   2.337  -7.395  0.00  0.00     0.210 HD
ENDBRANCH   9  39
BRANCH  13  41
ATOM     41  O   LIG d   1       5.428  -0.025  -5.050  0.00  0.00    -0.373 OA
ATOM     42  H   LIG d   1       5.299   0.895  -4.783  0.00  0.00     0.211 HD
ENDBRANCH  13  41
TORSDOF 6
ENDMDL
MODEL 7
REMARK VINA RESULT:      -4.8      2.045      4.346
REMARK  6 active torsions:
REMARK  status: ('A' for Active; 'I' for Inactive)
REMARK    1  A    between atoms: C_1  and  C_2 
REMARK    2  A    between atoms: C_4  and  O_23 
REMARK    3  A    between atoms: C_7  and  C_21 
REMARK    4  A    between atoms: C_7  and  C_22 
REMARK    5  A    between atoms: C_10  and  O_20 
REMARK    6  A    between atoms: C_14  and  O_19 
ROOT
ATOM      1  C   LIG d   1       5.399  -1.316  -5.444  0.00  0.00     0.019 C 
ATOM      2  C   LIG d   1       5.773  -2.635  -4.762  0.00  0.00    -0.018 C 
ATOM      3  C   LIG d   1       6.814  -3.375  -5.605  0.00  0.00     0.056 C 
ATOM      4  H   LIG d   1       7.720  -2.784  -5.712  0.00  0.00     0.059 H 
ATOM      5  C   LIG d   1       6.234  -3.708  -6.974  0.00  0.00    -0.021 C 
ATOM      6  C   LIG d   1       5.751  -2.461  -7.718  0.00  0.00    -0.026 C 
ATOM      7  C   LIG d   1       4.883  -1.586  -6.841  0.00  0.00     0.003 C 
ATOM      8  H   LIG d   1       3.946  -2.200  -6.675  0.00  0.00     0.034 H 
ATOM      9  C   LIG d   1       4.379  -0.325  -7.539  0.00  0.00     0.078 C 
ATOM     10  H   LIG d   1       4.038  -0.553  -8.555  0.00  0.00     0.064 H 
ATOM     11  C   LIG d   1       3.168   0.130  -6.730  0.00  0.00    -0.050 C 
ATOM     12  C   LIG d   1       3.235  -0.024  -5.451  0.00  0.00     0.008 C 
ATOM     13  C   LIG d   1       4.387  -0.554  -4.615  0.00  0.00     0.192 C 
ATOM     14  C   LIG d   1       3.675  -1.333  -3.545  0.00  0.00     0.344 C 
ATOM     15  O   LIG d   1       4.120  -2.233  -2.875  0.00  0.00    -0.247 OA
ATOM     16  O   LIG d   1       2.418  -0.835  -3.437  0.00  0.00    -0.458 OA
ATOM     17  C   LIG d   1       2.235   0.270  -4.349  0.00  0.00     0.117 C 
ATOM     18  H   LIG d   1       6.185  -2.429  -3.775  0.00  0.00     0.030 H 
ATOM     19  H   LIG d   1       4.881  -3.257  -4.666  0.00  0.00     0.030 H 
ATOM     20  H   LIG d   1       6.999  -4.206  -7.577  0.00  0.00     0.029 H 
ATOM     21  H   LIG d   1       5.393  -4.398  -6.851  0.00  0.00     0.029 H 
ATOM     22  H   LIG d   1       2.301   0.558  -7.211  0.00  0.00     0.060 H 
ATOM     23  H   LIG d   1       2.468   1.214  -3.861  0.00  0.00     0.075 H 
ATOM     24  H   LIG d   1       1.222   0.277  -4.746  0.00  0.00     0.075 H 
ENDROOT
BRANCH   6  25
ATOM     25  C   LIG d   1       6.942  -1.720  -8.320  0.00  0.00    -0.059 C 
ATOM     26  H   LIG d   1       6.775  -1.569  -9.386  0.00  0.00     0.024 H 
ATOM     27  H   LIG d   1       7.055  -0.754  -7.828  0.00  0.00     0.024 H 
ATOM     28  H   LIG d   1       7.848  -2.309  -8.174  0.00  0.00     0.024 H 
ENDBRANCH   6  25
BRANCH   6  29
ATOM     29  C   LIG d   1       4.888  -2.971  -8.900  0.00  0.00    -0.059 C 
ATOM     30  H   LIG d   1       3.844  -2.708  -8.728  0.00  0.00     0.024 H 
ATOM     31  H   LIG d   1       5.231  -2.511  -9.826  0.00  0.00     0.024 H 
ATOM     32  H   LIG d   1       4.981  -4.055  -8.976  0.00  0.00     0.024 H 
ENDBRANCH   6  29
BRANCH   3  33
ATOM     33  O   LIG d   1       7.157  -4.599  -4.937  0.00  0.00    -0.392 OA
ATOM     34  H   LIG d   1       7.569  -4.471  -4.071  0.00  0.00     0.210 HD
ENDBRANCH   3  33
BRANCH   1  35
ATOM     35  C   LIG d   1       6.658  -0.447  -5.456  0.00  0.00    -0.056 C 
ATOM     36  H   LIG d   1       6.719   0.091  -6.402  0.00  0.00     0.024 H 
ATOM     37  H   LIG d   1       6.614   0.267  -4.633  0.00  0.00     0.024 H 
ATOM     38  H   LIG d   1       7.538  -1.080  -5.341  0.00  0.00     0.024 H 
ENDBRANCH   1  35
BRANCH   9  39
ATOM     39  O   LIG d   1       5.341   0.721  -7.602  0.00  0.00    -0.387 OA
ATOM     40  H   LIG d   1       5.691   0.879  -8.490  0.00  0.00     0.210 HD
ENDBRANCH   9  39
BRANCH  13  41
ATOM     41  O   LIG d   1       5.059   0.556  -4.006  0.00  0.00    -0.373 OA
ATOM     42  H   LIG d   1       5.663   1.024  -4.600  0.00  0.00     0.211 HD
ENDBRANCH  13  41
TORSDOF 6
ENDMDL
MODEL 8
REMARK VINA RESULT:      -4.7      9.884     11.705
REMARK  6 active torsions:
REMARK  status: ('A' for Active; 'I' for Inactive)
REMARK    1  A    between atoms: C_1  and  C_2 
REMARK    2  A    between atoms: C_4  and  O_23 
REMARK    3  A    between atoms: C_7  and  C_21 
REMARK    4  A    between atoms: C_7  and  C_22 
REMARK    5  A    between atoms: C_10  and  O_20 
REMARK    6  A    between atoms: C_14  and  O_19 
ROOT
ATOM      1  C   LIG d   1      10.393   7.980  -1.893  0.00  0.00     0.019 C 
ATOM      2  C   LIG d   1      10.662   8.276  -3.371  0.00  0.00    -0.018 C 
ATOM      3  C   LIG d   1      11.227   7.028  -4.052  0.00  0.00     0.056 C 
ATOM      4  H   LIG d   1      10.523   6.203  -3.999  0.00  0.00     0.059 H 
ATOM      5  C   LIG d   1      12.552   6.638  -3.409  0.00  0.00    -0.021 C 
ATOM      6  C   LIG d   1      12.415   6.394  -1.904  0.00  0.00    -0.026 C 
ATOM      7  C   LIG d   1      11.667   7.516  -1.220  0.00  0.00     0.003 C 
ATOM      8  H   LIG d   1      12.363   8.405  -1.302  0.00  0.00     0.034 H 
ATOM      9  C   LIG d   1      11.501   7.316   0.286  0.00  0.00     0.078 C 
ATOM     10  H   LIG d   1      12.435   6.955   0.734  0.00  0.00     0.064 H 
ATOM     11  C   LIG d   1      11.216   8.704   0.851  0.00  0.00    -0.050 C 
ATOM     12  C   LIG d   1      10.484   9.483   0.129  0.00  0.00     0.008 C 
ATOM     13  C   LIG d   1       9.810   9.194  -1.201  0.00  0.00     0.192 C 
ATOM     14  C   LIG d   1       9.950  10.506  -1.922  0.00  0.00     0.344 C 
ATOM     15  O   LIG d   1       9.923  10.693  -3.115  0.00  0.00    -0.247 OA
ATOM     16  O   LIG d   1      10.096  11.479  -0.988  0.00  0.00    -0.458 OA
ATOM     17  C   LIG d   1      10.028  10.914   0.340  0.00  0.00     0.117 C 
ATOM     18  H   LIG d   1       9.732   8.566  -3.857  0.00  0.00     0.030 H 
ATOM     19  H   LIG d   1      11.388   9.088  -3.449  0.00  0.00     0.030 H 
ATOM     20  H   LIG d   1      12.927   5.726  -3.882  0.00  0.00     0.029 H 
ATOM     21  H   LIG d   1      13.283   7.435  -3.575  0.00  0.00     0.029 H 
ATOM     22  H   LIG d   1      11.611   9.012   1.807  0.00  0.00     0.060 H 
ATOM     23  H   LIG d   1       9.009  10.941   0.718  0.00  0.00     0.075 H 
ATOM     24  H   LIG d   1      10.707  11.435   1.013  0.00  0.00     0.075 H 
ENDROOT
BRANCH   6  25
ATOM     25  C   LIG d   1      11.802   5.018  -1.653  0.00  0.00    -0.059 C 
ATOM     26  H   LIG d   1      10.725   5.119  -1.522  0.00  0.00     0.024 H 
ATOM     27  H   LIG d   1      12.005   4.369  -2.504  0.00  0.00     0.024 H 
ATOM     28  H   LIG d   1      12.238   4.584  -0.753  0.00  0.00     0.024 H 
ENDBRANCH   6  25
BRANCH   6  29
ATOM     29  C   LIG d   1      13.858   6.358  -1.341  0.00  0.00    -0.059 C 
ATOM     30  H   LIG d   1      14.363   5.458  -1.693  0.00  0.00     0.024 H 
ATOM     31  H   LIG d   1      14.404   7.237  -1.681  0.00  0.00     0.024 H 
ATOM     32  H   LIG d   1      13.822   6.350  -0.251  0.00  0.00     0.024 H 
ENDBRANCH   6  29
BRANCH   3  33
ATOM     33  O   LIG d   1      11.456   7.328  -5.438  0.00  0.00    -0.392 OA
ATOM     34  H   LIG d   1      12.234   6.892  -5.810  0.00  0.00     0.210 HD
ENDBRANCH   3  33
BRANCH   1  35
ATOM     35  C   LIG d   1       9.297   6.914  -1.843  0.00  0.00    -0.056 C 
ATOM     36  H   LIG d   1       9.736   5.934  -2.030  0.00  0.00     0.024 H 
ATOM     37  H   LIG d   1       8.829   6.921  -0.858  0.00  0.00     0.024 H 
ATOM     38  H   LIG d   1       8.547   7.128  -2.604  0.00  0.00     0.024 H 
ENDBRANCH   1  35
BRANCH   9  39
ATOM     39  O   LIG d   1      10.450   6.424   0.634  0.00  0.00    -0.387 OA
ATOM     40  H   LIG d   1      10.202   5.813  -0.074  0.00  0.00     0.210 HD
ENDBRANCH   9  39
BRANCH  13  41
ATOM     41  O   LIG d   1       8.419   8.944  -0.965  0.00  0.00    -0.373 OA
ATOM     42  H   LIG d   1       8.177   8.925  -0.029  0.00  0.00     0.211 HD
ENDBRANCH  13  41
TORSDOF 6
ENDMDL
MODEL 9
REMARK VINA RESULT:      -4.7      2.345      5.469
REMARK  6 active torsions:
REMARK  status: ('A' for Active; 'I' for Inactive)
REMARK    1  A    between atoms: C_1  and  C_2 
REMARK    2  A    between atoms: C_4  and  O_23 
REMARK    3  A    between atoms: C_7  and  C_21 
REMARK    4  A    between atoms: C_7  and  C_22 
REMARK    5  A    between atoms: C_10  and  O_20 
REMARK    6  A    between atoms: C_14  and  O_19 
ROOT
ATOM      1  C   LIG d   1       5.167  -0.323  -8.355  0.00  0.00     0.019 C 
ATOM      2  C   LIG d   1       5.917  -1.466  -9.045  0.00  0.00    -0.018 C 
ATOM      3  C   LIG d   1       5.895  -1.257 -10.560  0.00  0.00     0.056 C 
ATOM      4  H   LIG d   1       6.383  -0.325 -10.832  0.00  0.00     0.059 H 
ATOM      5  C   LIG d   1       4.459  -1.273 -11.067  0.00  0.00    -0.021 C 
ATOM      6  C   LIG d   1       3.591  -0.214 -10.383  0.00  0.00    -0.026 C 
ATOM      7  C   LIG d   1       3.749  -0.248  -8.879  0.00  0.00     0.003 C 
ATOM      8  H   LIG d   1       3.288  -1.235  -8.573  0.00  0.00     0.034 H 
ATOM      9  C   LIG d   1       2.904   0.795  -8.150  0.00  0.00     0.078 C 
ATOM     10  H   LIG d   1       1.893   0.841  -8.572  0.00  0.00     0.064 H 
ATOM     11  C   LIG d   1       2.790   0.293  -6.713  0.00  0.00    -0.050 C 
ATOM     12  C   LIG d   1       3.830  -0.285  -6.218  0.00  0.00     0.008 C 
ATOM     13  C   LIG d   1       5.195  -0.494  -6.851  0.00  0.00     0.192 C 
ATOM     14  C   LIG d   1       5.580  -1.855  -6.340  0.00  0.00     0.344 C 
ATOM     15  O   LIG d   1       6.371  -2.624  -6.830  0.00  0.00    -0.247 OA
ATOM     16  O   LIG d   1       4.889  -2.078  -5.195  0.00  0.00    -0.458 OA
ATOM     17  C   LIG d   1       4.075  -0.930  -4.867  0.00  0.00     0.117 C 
ATOM     18  H   LIG d   1       6.948  -1.484  -8.695  0.00  0.00     0.030 H 
ATOM     19  H   LIG d   1       5.429  -2.413  -8.806  0.00  0.00     0.030 H 
ATOM     20  H   LIG d   1       4.456  -1.089 -12.146  0.00  0.00     0.029 H 
ATOM     21  H   LIG d   1       4.023  -2.261 -10.889  0.00  0.00     0.029 H 
ATOM     22  H   LIG d   1       1.879   0.417  -6.147  0.00  0.00     0.060 H 
ATOM     23  H   LIG d   1       4.614  -0.251  -4.210  0.00  0.00     0.075 H 
ATOM     24  H   LIG d   1       3.134  -1.243  -4.418  0.00  0.00     0.075 H 
ENDROOT
BRANCH   6  25
ATOM     25  C   LIG d   1       3.870   1.159 -10.989  0.00  0.00    -0.059 C 
ATOM     26  H   LIG d   1       4.025   1.884 -10.191  0.00  0.00     0.024 H 
ATOM     27  H   LIG d   1       4.763   1.107 -11.612  0.00  0.00     0.024 H 
ATOM     28  H   LIG d   1       3.020   1.467 -11.599  0.00  0.00     0.024 H 
ENDBRANCH   6  25
BRANCH   6  29
ATOM     29  C   LIG d   1       2.123  -0.573 -10.725  0.00  0.00    -0.059 C 
ATOM     30  H   LIG d   1       1.994  -0.580 -11.808  0.00  0.00     0.024 H 
ATOM     31  H   LIG d   1       1.887  -1.559 -10.325  0.00  0.00     0.024 H 
ATOM     32  H   LIG d   1       1.456   0.169 -10.285  0.00  0.00     0.024 H 
ENDBRANCH   6  29
BRANCH   3  33
ATOM     33  O   LIG d   1       6.617  -2.333 -11.180  0.00  0.00    -0.392 OA
ATOM     34  H   LIG d   1       7.559  -2.349 -10.963  0.00  0.00     0.210 HD
ENDBRANCH   3  33
BRANCH   1  35
ATOM     35  C   LIG d   1       5.951   0.960  -8.637  0.00  0.00    -0.056 C 
ATOM     36  H   LIG d   1       6.760   0.745  -9.336  0.00  0.00     0.024 H 
ATOM     37  H   LIG d   1       5.284   1.705  -9.071  0.00  0.00     0.024 H 
ATOM     38  H   LIG d   1       6.368   1.342  -7.705  0.00  0.00     0.024 H 
ENDBRANCH   1  35
BRANCH   9  39
ATOM     39  O   LIG d   1       3.466   2.101  -8.163  0.00  0.00    -0.387 OA
ATOM     40  H   LIG d   1       3.915   2.327  -8.990  0.00  0.00     0.210 HD
ENDBRANCH   9  39
BRANCH  13  41
ATOM     41  O   LIG d   1       6.104   0.475  -6.312  0.00  0.00    -0.373 OA
ATOM     42  H   LIG d   1       6.432   0.256  -5.429  0.00  0.00     0.211 HD
ENDBRANCH  13  41
TORSDOF 6
ENDMDL
