MODEL 1
REMARK VINA RESULT:      -8.3      0.000      0.000
REMARK  7 active torsions:
REMARK  status: ('A' for Active; 'I' for Inactive)
REMARK    1  A    between atoms: C_1  and  C_2 
REMARK    2  A    between atoms: C_2  and  C_3 
REMARK    3  A    between atoms: C_2  and  C_4 
REMARK    4  A    between atoms: C_7  and  C_10 
REMARK    5  A    between atoms: N_28  and  C_31 
REMARK    6  A    between atoms: C_31  and  C_32 
REMARK    7  A    between atoms: C_32  and  C_33 
ROOT
ATOM      1  C   LIG d   1       4.285  -3.645  -6.256  0.00  0.00     0.094 C 
ATOM      2  H   LIG d   1       3.244  -3.960  -6.312  0.00  0.00     0.062 H 
ATOM      3  C   LIG d   1       4.451  -2.575  -5.194  0.00  0.00     0.046 A 
ATOM      4  C   LIG d   1       5.038  -1.381  -5.421  0.00  0.00    -0.015 A 
ATOM      5  C   LIG d   1       5.009  -0.656  -4.164  0.00  0.00     0.003 A 
ATOM      6  C   LIG d   1       5.468   0.612  -3.795  0.00  0.00    -0.052 A 
ATOM      7  C   LIG d   1       5.268   0.987  -2.489  0.00  0.00    -0.061 A 
ATOM      8  C   LIG d   1       4.642   0.157  -1.572  0.00  0.00    -0.060 A 
ATOM      9  C   LIG d   1       4.184  -1.104  -1.910  0.00  0.00    -0.038 A 
ATOM     10  C   LIG d   1       4.369  -1.509  -3.231  0.00  0.00     0.047 A 
ATOM     11  N   LIG d   1       4.045  -2.660  -3.889  0.00  0.00    -0.356 N 
ATOM     12  H   LIG d   1       3.596  -3.423  -3.492  0.00  0.00     0.166 HD
ATOM     13  C   LIG d   1       5.598  -0.909  -6.739  0.00  0.00     0.002 C 
ATOM     14  C   LIG d   1       5.852  -2.118  -7.647  0.00  0.00     0.109 A 
ATOM     15  H   LIG d   1       6.798  -2.605  -7.412  0.00  0.00     0.060 H 
ATOM     16  N   LIG d   1       4.694  -3.031  -7.525  0.00  0.00    -0.261 N 
ATOM     17  C   LIG d   1       4.144  -3.139  -8.736  0.00  0.00     0.313 A 
ATOM     18  O   LIG d   1       3.199  -3.859  -8.990  0.00  0.00    -0.252 OA
ATOM     19  N   LIG d   1       4.756  -2.360  -9.640  0.00  0.00    -0.224 N 
ATOM     20  C   LIG d   1       5.791  -1.685  -9.098  0.00  0.00     0.244 A 
ATOM     21  O   LIG d   1       6.521  -0.895  -9.657  0.00  0.00    -0.273 OA
ATOM     22  H   LIG d   1       5.957   1.265  -4.502  0.00  0.00     0.062 H 
ATOM     23  H   LIG d   1       5.608   1.960  -2.166  0.00  0.00     0.062 H 
ATOM     24  H   LIG d   1       4.511   0.506  -0.559  0.00  0.00     0.062 H 
ATOM     25  H   LIG d   1       3.703  -1.743  -1.185  0.00  0.00     0.064 H 
ATOM     26  H   LIG d   1       4.887  -0.237  -7.217  0.00  0.00     0.034 H 
ATOM     27  H   LIG d   1       6.537  -0.381  -6.566  0.00  0.00     0.034 H 
ENDROOT
BRANCH   1  28
ATOM     28  C   LIG d   1       5.167  -4.826  -5.944  0.00  0.00    -0.021 A 
ATOM     29  C   LIG d   1       6.503  -4.631  -5.650  0.00  0.00    -0.056 A 
ATOM     30  C   LIG d   1       7.313  -5.716  -5.364  0.00  0.00    -0.058 A 
ATOM     31  H   LIG d   1       6.916  -3.634  -5.644  0.00  0.00     0.062 H 
ATOM     32  C   LIG d   1       6.785  -6.993  -5.371  0.00  0.00    -0.045 A 
ATOM     33  H   LIG d   1       8.357  -5.564  -5.134  0.00  0.00     0.062 H 
ATOM     34  C   LIG d   1       5.448  -7.187  -5.664  0.00  0.00    -0.058 A 
ATOM     35  C   LIG d   1       4.638  -6.103  -5.946  0.00  0.00    -0.056 A 
ATOM     36  H   LIG d   1       5.036  -8.185  -5.669  0.00  0.00     0.062 H 
ATOM     37  H   LIG d   1       3.592  -6.254  -6.171  0.00  0.00     0.062 H 
BRANCH  32  38
ATOM     38  C   LIG d   1       7.667  -8.174  -5.059  0.00  0.00    -0.021 C 
ATOM     39  H   LIG d   1       8.081  -8.574  -5.985  0.00  0.00     0.034 H 
BRANCH  38  40
ATOM     40  C   LIG d   1       8.808  -7.731  -4.141  0.00  0.00    -0.059 C 
ATOM     41  H   LIG d   1       8.509  -6.834  -3.597  0.00  0.00     0.024 H 
ATOM     42  H   LIG d   1       9.034  -8.527  -3.431  0.00  0.00     0.024 H 
ATOM     43  H   LIG d   1       9.693  -7.516  -4.739  0.00  0.00     0.024 H 
ENDBRANCH  38  40
BRANCH  38  44
ATOM     44  C   LIG d   1       6.841  -9.257  -4.361  0.00  0.00    -0.059 C 
ATOM     45  H   LIG d   1       7.507  -9.941  -3.836  0.00  0.00     0.024 H 
ATOM     46  H   LIG d   1       6.162  -8.791  -3.646  0.00  0.00     0.024 H 
ATOM     47  H   LIG d   1       6.264  -9.809  -5.103  0.00  0.00     0.024 H 
ENDBRANCH  38  44
ENDBRANCH  32  38
ENDBRANCH   1  28
BRANCH  19  48
ATOM     48  C   LIG d   1       4.349  -2.254 -11.044  0.00  0.00     0.028 C 
ATOM     49  H   LIG d   1       5.104  -1.697 -11.600  0.00  0.00     0.047 H 
ATOM     50  H   LIG d   1       4.248  -3.252 -11.469  0.00  0.00     0.047 H 
BRANCH  48  51
ATOM     51  C   LIG d   1       3.008  -1.524 -11.133  0.00  0.00    -0.011 C 
ATOM     52  H   LIG d   1       2.747  -1.369 -12.180  0.00  0.00     0.033 H 
ATOM     53  H   LIG d   1       2.235  -2.124 -10.653  0.00  0.00     0.033 H 
BRANCH  51  54
ATOM     54  C   LIG d   1       3.114  -0.191 -10.438  0.00  0.00    -0.046 A 
ATOM     55  C   LIG d   1       3.824   0.840 -11.026  0.00  0.00    -0.059 A 
ATOM     56  C   LIG d   1       3.921   2.063 -10.388  0.00  0.00    -0.061 A 
ATOM     57  H   LIG d   1       4.302   0.690 -11.981  0.00  0.00     0.062 H 
ATOM     58  C   LIG d   1       3.308   2.255  -9.164  0.00  0.00    -0.062 A 
ATOM     59  H   LIG d   1       4.477   2.868 -10.847  0.00  0.00     0.062 H 
ATOM     60  C   LIG d   1       2.598   1.224  -8.577  0.00  0.00    -0.061 A 
ATOM     61  H   LIG d   1       3.384   3.210  -8.666  0.00  0.00     0.062 H 
ATOM     62  C   LIG d   1       2.497   0.003  -9.217  0.00  0.00    -0.059 A 
ATOM     63  H   LIG d   1       2.119   1.374  -7.621  0.00  0.00     0.062 H 
ATOM     64  H   LIG d   1       1.939  -0.801  -8.760  0.00  0.00     0.062 H 
ENDBRANCH  51  54
ENDBRANCH  48  51
ENDBRANCH  19  48
TORSDOF 7
ENDMDL
MODEL 2
REMARK VINA RESULT:      -7.9      1.307      5.482
REMARK  7 active torsions:
REMARK  status: ('A' for Active; 'I' for Inactive)
REMARK    1  A    between atoms: C_1  and  C_2 
REMARK    2  A    between atoms: C_2  and  C_3 
REMARK    3  A    between atoms: C_2  and  C_4 
REMARK    4  A    between atoms: C_7  and  C_10 
REMARK    5  A    between atoms: N_28  and  C_31 
REMARK    6  A    between atoms: C_31  and  C_32 
REMARK    7  A    between atoms: C_32  and  C_33 
ROOT
ATOM      1  C   LIG d   1       5.616  -3.359  -7.089  0.00  0.00     0.094 C 
ATOM      2  H   LIG d   1       6.624  -3.031  -7.338  0.00  0.00     0.062 H 
ATOM      3  C   LIG d   1       5.621  -4.831  -6.723  0.00  0.00     0.046 A 
ATOM      4  C   LIG d   1       4.811  -5.746  -7.296  0.00  0.00    -0.015 A 
ATOM      5  C   LIG d   1       5.115  -7.021  -6.672  0.00  0.00     0.003 A 
ATOM      6  C   LIG d   1       4.598  -8.308  -6.853  0.00  0.00    -0.052 A 
ATOM      7  C   LIG d   1       5.133  -9.305  -6.074  0.00  0.00    -0.061 A 
ATOM      8  C   LIG d   1       6.136  -9.059  -5.150  0.00  0.00    -0.060 A 
ATOM      9  C   LIG d   1       6.661  -7.795  -4.947  0.00  0.00    -0.038 A 
ATOM     10  C   LIG d   1       6.140  -6.764  -5.727  0.00  0.00     0.047 A 
ATOM     11  N   LIG d   1       6.421  -5.430  -5.787  0.00  0.00    -0.356 N 
ATOM     12  H   LIG d   1       7.087  -4.974  -5.247  0.00  0.00     0.166 HD
ATOM     13  C   LIG d   1       3.801  -5.475  -8.382  0.00  0.00     0.002 C 
ATOM     14  C   LIG d   1       3.472  -3.978  -8.410  0.00  0.00     0.109 A 
ATOM     15  H   LIG d   1       2.737  -3.714  -7.650  0.00  0.00     0.060 H 
ATOM     16  N   LIG d   1       4.740  -3.230  -8.259  0.00  0.00    -0.261 N 
ATOM     17  C   LIG d   1       4.895  -2.487  -9.358  0.00  0.00     0.313 A 
ATOM     18  O   LIG d   1       5.816  -1.713  -9.528  0.00  0.00    -0.252 OA
ATOM     19  N   LIG d   1       3.918  -2.696 -10.251  0.00  0.00    -0.224 N 
ATOM     20  C   LIG d   1       3.009  -3.585  -9.798  0.00  0.00     0.244 A 
ATOM     21  O   LIG d   1       2.026  -3.987 -10.382  0.00  0.00    -0.273 OA
ATOM     22  H   LIG d   1       3.817  -8.508  -7.570  0.00  0.00     0.062 H 
ATOM     23  H   LIG d   1       4.760 -10.312  -6.186  0.00  0.00     0.062 H 
ATOM     24  H   LIG d   1       6.519  -9.883  -4.566  0.00  0.00     0.062 H 
ATOM     25  H   LIG d   1       7.439  -7.616  -4.220  0.00  0.00     0.064 H 
ATOM     26  H   LIG d   1       4.212  -5.775  -9.345  0.00  0.00     0.034 H 
ATOM     27  H   LIG d   1       2.892  -6.043  -8.182  0.00  0.00     0.034 H 
ENDROOT
BRANCH   1  28
ATOM     28  C   LIG d   1       5.074  -2.543  -5.944  0.00  0.00    -0.021 A 
ATOM     29  C   LIG d   1       4.797  -1.201  -6.122  0.00  0.00    -0.056 A 
ATOM     30  C   LIG d   1       4.300  -0.453  -5.070  0.00  0.00    -0.058 A 
ATOM     31  H   LIG d   1       4.970  -0.737  -7.081  0.00  0.00     0.062 H 
ATOM     32  C   LIG d   1       4.079  -1.048  -3.843  0.00  0.00    -0.045 A 
ATOM     33  H   LIG d   1       4.084   0.596  -5.209  0.00  0.00     0.062 H 
ATOM     34  C   LIG d   1       4.354  -2.391  -3.665  0.00  0.00    -0.058 A 
ATOM     35  C   LIG d   1       4.847  -3.140  -4.717  0.00  0.00    -0.056 A 
ATOM     36  H   LIG d   1       4.181  -2.856  -2.706  0.00  0.00     0.062 H 
ATOM     37  H   LIG d   1       5.059  -4.190  -4.579  0.00  0.00     0.062 H 
BRANCH  32  38
ATOM     38  C   LIG d   1       3.537  -0.232  -2.697  0.00  0.00    -0.021 C 
ATOM     39  H   LIG d   1       2.589  -0.656  -2.365  0.00  0.00     0.034 H 
BRANCH  38  40
ATOM     40  C   LIG d   1       4.537  -0.249  -1.540  0.00  0.00    -0.059 C 
ATOM     41  H   LIG d   1       4.124   0.304  -0.695  0.00  0.00     0.024 H 
ATOM     42  H   LIG d   1       4.729  -1.279  -1.240  0.00  0.00     0.024 H 
ATOM     43  H   LIG d   1       5.470   0.217  -1.859  0.00  0.00     0.024 H 
ENDBRANCH  38  40
BRANCH  38  44
ATOM     44  C   LIG d   1       3.315   1.210  -3.159  0.00  0.00    -0.059 C 
ATOM     45  H   LIG d   1       2.476   1.245  -3.854  0.00  0.00     0.024 H 
ATOM     46  H   LIG d   1       3.098   1.839  -2.295  0.00  0.00     0.024 H 
ATOM     47  H   LIG d   1       4.214   1.575  -3.657  0.00  0.00     0.024 H 
ENDBRANCH  38  44
ENDBRANCH  32  38
ENDBRANCH   1  28
BRANCH  19  48
ATOM     48  C   LIG d   1       3.844  -2.039 -11.559  0.00  0.00     0.028 C 
ATOM     49  H   LIG d   1       4.776  -1.506 -11.750  0.00  0.00     0.047 H 
ATOM     50  H   LIG d   1       3.688  -2.789 -12.334  0.00  0.00     0.047 H 
BRANCH  48  51
ATOM     51  C   LIG d   1       2.679  -1.048 -11.567  0.00  0.00    -0.011 C 
ATOM     52  H   LIG d   1       2.548  -0.649 -12.572  0.00  0.00     0.033 H 
ATOM     53  H   LIG d   1       1.766  -1.557 -11.257  0.00  0.00     0.033 H 
BRANCH  51  54
ATOM     54  C   LIG d   1       2.973   0.081 -10.612  0.00  0.00    -0.046 A 
ATOM     55  C   LIG d   1       2.321   0.144  -9.394  0.00  0.00    -0.059 A 
ATOM     56  C   LIG d   1       2.591   1.180  -8.520  0.00  0.00    -0.061 A 
ATOM     57  H   LIG d   1       1.600  -0.614  -9.128  0.00  0.00     0.062 H 
ATOM     58  C   LIG d   1       3.513   2.150  -8.861  0.00  0.00    -0.062 A 
ATOM     59  H   LIG d   1       2.080   1.230  -7.569  0.00  0.00     0.062 H 
ATOM     60  C   LIG d   1       4.165   2.087 -10.078  0.00  0.00    -0.061 A 
ATOM     61  H   LIG d   1       3.724   2.960  -8.177  0.00  0.00     0.062 H 
ATOM     62  C   LIG d   1       3.899   1.049 -10.952  0.00  0.00    -0.059 A 
ATOM     63  H   LIG d   1       4.887   2.846 -10.345  0.00  0.00     0.062 H 
ATOM     64  H   LIG d   1       4.412   0.997 -11.900  0.00  0.00     0.062 H 
ENDBRANCH  51  54
ENDBRANCH  48  51
ENDBRANCH  19  48
TORSDOF 7
ENDMDL
MODEL 3
REMARK VINA RESULT:      -7.8      3.687      6.319
REMARK  7 active torsions:
REMARK  status: ('A' for Active; 'I' for Inactive)
REMARK    1  A    between atoms: C_1  and  C_2 
REMARK    2  A    between atoms: C_2  and  C_3 
REMARK    3  A    between atoms: C_2  and  C_4 
REMARK    4  A    between atoms: C_7  and  C_10 
REMARK    5  A    between atoms: N_28  and  C_31 
REMARK    6  A    between atoms: C_31  and  C_32 
REMARK    7  A    between atoms: C_32  and  C_33 
ROOT
ATOM      1  C   LIG d   1       4.307   0.588  -7.867  0.00  0.00     0.094 C 
ATOM      2  H   LIG d   1       3.905   1.601  -7.883  0.00  0.00     0.062 H 
ATOM      3  C   LIG d   1       4.225   0.015  -6.466  0.00  0.00     0.046 A 
ATOM      4  C   LIG d   1       5.280  -0.518  -5.814  0.00  0.00    -0.015 A 
ATOM      5  C   LIG d   1       4.792  -0.958  -4.520  0.00  0.00     0.003 A 
ATOM      6  C   LIG d   1       5.419  -1.579  -3.435  0.00  0.00    -0.052 A 
ATOM      7  C   LIG d   1       4.635  -1.857  -2.342  0.00  0.00    -0.061 A 
ATOM      8  C   LIG d   1       3.287  -1.542  -2.305  0.00  0.00    -0.060 A 
ATOM      9  C   LIG d   1       2.640  -0.932  -3.366  0.00  0.00    -0.038 A 
ATOM     10  C   LIG d   1       3.413  -0.634  -4.487  0.00  0.00     0.047 A 
ATOM     11  N   LIG d   1       3.106  -0.046  -5.680  0.00  0.00    -0.356 N 
ATOM     12  H   LIG d   1       2.227   0.278  -5.934  0.00  0.00     0.166 HD
ATOM     13  C   LIG d   1       6.689  -0.617  -6.344  0.00  0.00     0.002 C 
ATOM     14  C   LIG d   1       6.669  -0.484  -7.871  0.00  0.00     0.109 A 
ATOM     15  H   LIG d   1       6.413  -1.426  -8.354  0.00  0.00     0.060 H 
ATOM     16  N   LIG d   1       5.732   0.607  -8.221  0.00  0.00    -0.261 N 
ATOM     17  C   LIG d   1       6.434   1.543  -8.863  0.00  0.00     0.313 A 
ATOM     18  O   LIG d   1       5.948   2.553  -9.332  0.00  0.00    -0.252 OA
ATOM     19  N   LIG d   1       7.738   1.239  -8.929  0.00  0.00    -0.224 N 
ATOM     20  C   LIG d   1       8.003   0.048  -8.353  0.00  0.00     0.244 A 
ATOM     21  O   LIG d   1       9.086  -0.486  -8.242  0.00  0.00    -0.273 OA
ATOM     22  H   LIG d   1       6.470  -1.829  -3.456  0.00  0.00     0.062 H 
ATOM     23  H   LIG d   1       5.084  -2.336  -1.486  0.00  0.00     0.062 H 
ATOM     24  H   LIG d   1       2.720  -1.783  -1.418  0.00  0.00     0.062 H 
ATOM     25  H   LIG d   1       1.587  -0.697  -3.326  0.00  0.00     0.064 H 
ATOM     26  H   LIG d   1       7.295   0.180  -5.917  0.00  0.00     0.034 H 
ATOM     27  H   LIG d   1       7.113  -1.583  -6.070  0.00  0.00     0.034 H 
ENDROOT
BRANCH   1  28
ATOM     28  C   LIG d   1       3.546  -0.287  -8.830  0.00  0.00    -0.021 A 
ATOM     29  C   LIG d   1       3.433  -1.643  -8.589  0.00  0.00    -0.056 A 
ATOM     30  C   LIG d   1       2.735  -2.445  -9.473  0.00  0.00    -0.058 A 
ATOM     31  H   LIG d   1       3.890  -2.076  -7.712  0.00  0.00     0.062 H 
ATOM     32  C   LIG d   1       2.150  -1.890 -10.596  0.00  0.00    -0.045 A 
ATOM     33  H   LIG d   1       2.647  -3.505  -9.285  0.00  0.00     0.062 H 
ATOM     34  C   LIG d   1       2.262  -0.534 -10.835  0.00  0.00    -0.058 A 
ATOM     35  C   LIG d   1       2.956   0.269  -9.950  0.00  0.00    -0.056 A 
ATOM     36  H   LIG d   1       1.805  -0.101 -11.712  0.00  0.00     0.062 H 
ATOM     37  H   LIG d   1       3.041   1.330 -10.135  0.00  0.00     0.062 H 
BRANCH  32  38
ATOM     38  C   LIG d   1       1.389  -2.765 -11.558  0.00  0.00    -0.021 C 
ATOM     39  H   LIG d   1       2.091  -3.308 -12.190  0.00  0.00     0.034 H 
BRANCH  38  40
ATOM     40  C   LIG d   1       0.533  -3.762 -10.775  0.00  0.00    -0.059 C 
ATOM     41  H   LIG d   1      -0.388  -3.960 -11.324  0.00  0.00     0.024 H 
ATOM     42  H   LIG d   1       1.085  -4.693 -10.645  0.00  0.00     0.024 H 
ATOM     43  H   LIG d   1       0.291  -3.344  -9.797  0.00  0.00     0.024 H 
ENDBRANCH  38  40
BRANCH  38  44
ATOM     44  C   LIG d   1       0.485  -1.894 -12.433  0.00  0.00    -0.059 C 
ATOM     45  H   LIG d   1       0.370  -2.358 -13.413  0.00  0.00     0.024 H 
ATOM     46  H   LIG d   1      -0.492  -1.795 -11.961  0.00  0.00     0.024 H 
ATOM     47  H   LIG d   1       0.934  -0.907 -12.550  0.00  0.00     0.024 H 
ENDBRANCH  38  44
ENDBRANCH  32  38
ENDBRANCH   1  28
BRANCH  19  48
ATOM     48  C   LIG d   1       8.752   2.096  -9.551  0.00  0.00     0.028 C 
ATOM     49  H   LIG d   1       9.418   1.486 -10.162  0.00  0.00     0.047 H 
ATOM     50  H   LIG d   1       8.263   2.840 -10.179  0.00  0.00     0.047 H 
BRANCH  48  51
ATOM     51  C   LIG d   1       9.562   2.801  -8.462  0.00  0.00    -0.011 C 
ATOM     52  H   LIG d   1       9.203   2.487  -7.481  0.00  0.00     0.033 H 
ATOM     53  H   LIG d   1      10.615   2.538  -8.564  0.00  0.00     0.033 H 
BRANCH  51  54
ATOM     54  C   LIG d   1       9.400   4.292  -8.602  0.00  0.00    -0.046 A 
ATOM     55  C   LIG d   1       8.713   4.815  -9.682  0.00  0.00    -0.059 A 
ATOM     56  C   LIG d   1       8.565   6.183  -9.810  0.00  0.00    -0.061 A 
ATOM     57  H   LIG d   1       8.294   4.154 -10.425  0.00  0.00     0.062 H 
ATOM     58  C   LIG d   1       9.103   7.029  -8.858  0.00  0.00    -0.062 A 
ATOM     59  H   LIG d   1       8.030   6.591 -10.655  0.00  0.00     0.062 H 
ATOM     60  C   LIG d   1       9.789   6.507  -7.778  0.00  0.00    -0.061 A 
ATOM     61  H   LIG d   1       8.987   8.099  -8.958  0.00  0.00     0.062 H 
ATOM     62  C   LIG d   1       9.933   5.138  -7.647  0.00  0.00    -0.059 A 
ATOM     63  H   LIG d   1      10.209   7.167  -7.034  0.00  0.00     0.062 H 
ATOM     64  H   LIG d   1      10.465   4.730  -6.801  0.00  0.00     0.062 H 
ENDBRANCH  51  54
ENDBRANCH  48  51
ENDBRANCH  19  48
TORSDOF 7
ENDMDL
MODEL 4
REMARK VINA RESULT:      -7.6      4.469      8.872
REMARK  7 active torsions:
REMARK  status: ('A' for Active; 'I' for Inactive)
REMARK    1  A    between atoms: C_1  and  C_2 
REMARK    2  A    between atoms: C_2  and  C_3 
REMARK    3  A    between atoms: C_2  and  C_4 
REMARK    4  A    between atoms: C_7  and  C_10 
REMARK    5  A    between atoms: N_28  and  C_31 
REMARK    6  A    between atoms: C_31  and  C_32 
REMARK    7  A    between atoms: C_32  and  C_33 
ROOT
ATOM      1  C   LIG d   1       8.188  -3.517  -5.092  0.00  0.00     0.094 C 
ATOM      2  H   LIG d   1       7.845  -3.867  -6.065  0.00  0.00     0.062 H 
ATOM      3  C   LIG d   1       9.349  -2.557  -5.263  0.00  0.00     0.046 A 
ATOM      4  C   LIG d   1      10.533  -2.695  -4.628  0.00  0.00    -0.015 A 
ATOM      5  C   LIG d   1      11.363  -1.581  -5.047  0.00  0.00     0.003 A 
ATOM      6  C   LIG d   1      12.669  -1.201  -4.720  0.00  0.00    -0.052 A 
ATOM      7  C   LIG d   1      13.151  -0.063  -5.319  0.00  0.00    -0.061 A 
ATOM      8  C   LIG d   1      12.389   0.682  -6.204  0.00  0.00    -0.060 A 
ATOM      9  C   LIG d   1      11.093   0.333  -6.539  0.00  0.00    -0.038 A 
ATOM     10  C   LIG d   1      10.579  -0.822  -5.951  0.00  0.00     0.047 A 
ATOM     11  N   LIG d   1       9.368  -1.442  -6.058  0.00  0.00    -0.356 N 
ATOM     12  H   LIG d   1       8.632  -1.139  -6.612  0.00  0.00     0.166 HD
ATOM     13  C   LIG d   1      10.902  -3.808  -3.680  0.00  0.00     0.002 C 
ATOM     14  C   LIG d   1       9.625  -4.479  -3.160  0.00  0.00     0.109 A 
ATOM     15  H   LIG d   1       9.182  -3.917  -2.339  0.00  0.00     0.060 H 
ATOM     16  N   LIG d   1       8.699  -4.643  -4.302  0.00  0.00    -0.261 N 
ATOM     17  C   LIG d   1       8.473  -5.952  -4.445  0.00  0.00     0.313 A 
ATOM     18  O   LIG d   1       7.712  -6.422  -5.266  0.00  0.00    -0.252 OA
ATOM     19  N   LIG d   1       9.185  -6.684  -3.577  0.00  0.00    -0.224 N 
ATOM     20  C   LIG d   1       9.929  -5.909  -2.761  0.00  0.00     0.244 A 
ATOM     21  O   LIG d   1      10.684  -6.279  -1.888  0.00  0.00    -0.273 OA
ATOM     22  H   LIG d   1      13.269  -1.776  -4.031  0.00  0.00     0.062 H 
ATOM     23  H   LIG d   1      14.156   0.261  -5.091  0.00  0.00     0.062 H 
ATOM     24  H   LIG d   1      12.822   1.568  -6.645  0.00  0.00     0.062 H 
ATOM     25  H   LIG d   1      10.508   0.925  -7.227  0.00  0.00     0.064 H 
ATOM     26  H   LIG d   1      11.513  -4.543  -4.202  0.00  0.00     0.034 H 
ATOM     27  H   LIG d   1      11.465  -3.399  -2.841  0.00  0.00     0.034 H 
ENDROOT
BRANCH   1  28
ATOM     28  C   LIG d   1       7.060  -2.840  -4.358  0.00  0.00    -0.021 A 
ATOM     29  C   LIG d   1       5.762  -3.284  -4.525  0.00  0.00    -0.056 A 
ATOM     30  C   LIG d   1       4.727  -2.661  -3.852  0.00  0.00    -0.058 A 
ATOM     31  H   LIG d   1       5.556  -4.116  -5.182  0.00  0.00     0.062 H 
ATOM     32  C   LIG d   1       4.991  -1.597  -3.011  0.00  0.00    -0.045 A 
ATOM     33  H   LIG d   1       3.712  -3.008  -3.983  0.00  0.00     0.062 H 
ATOM     34  C   LIG d   1       6.289  -1.154  -2.843  0.00  0.00    -0.058 A 
ATOM     35  C   LIG d   1       7.324  -1.778  -3.513  0.00  0.00    -0.056 A 
ATOM     36  H   LIG d   1       6.495  -0.322  -2.186  0.00  0.00     0.062 H 
ATOM     37  H   LIG d   1       8.339  -1.434  -3.379  0.00  0.00     0.062 H 
BRANCH  32  38
ATOM     38  C   LIG d   1       3.862  -0.919  -2.277  0.00  0.00    -0.021 C 
ATOM     39  H   LIG d   1       3.586  -1.513  -1.406  0.00  0.00     0.034 H 
BRANCH  38  40
ATOM     40  C   LIG d   1       4.310   0.472  -1.825  0.00  0.00    -0.059 C 
ATOM     41  H   LIG d   1       3.523   0.928  -1.222  0.00  0.00     0.024 H 
ATOM     42  H   LIG d   1       5.219   0.386  -1.229  0.00  0.00     0.024 H 
ATOM     43  H   LIG d   1       4.505   1.093  -2.699  0.00  0.00     0.024 H 
ENDBRANCH  38  40
BRANCH  38  44
ATOM     44  C   LIG d   1       2.655  -0.789  -3.208  0.00  0.00    -0.059 C 
ATOM     45  H   LIG d   1       1.782  -0.483  -2.632  0.00  0.00     0.024 H 
ATOM     46  H   LIG d   1       2.865  -0.041  -3.973  0.00  0.00     0.024 H 
ATOM     47  H   LIG d   1       2.457  -1.749  -3.685  0.00  0.00     0.024 H 
ENDBRANCH  38  44
ENDBRANCH  32  38
ENDBRANCH   1  28
BRANCH  19  48
ATOM     48  C   LIG d   1       9.160  -8.149  -3.522  0.00  0.00     0.028 C 
ATOM     49  H   LIG d   1       8.537  -8.532  -4.330  0.00  0.00     0.047 H 
ATOM     50  H   LIG d   1      10.173  -8.534  -3.629  0.00  0.00     0.047 H 
BRANCH  48  51
ATOM     51  C   LIG d   1       8.584  -8.598  -2.177  0.00  0.00    -0.011 C 
ATOM     52  H   LIG d   1       9.326  -9.191  -1.644  0.00  0.00     0.033 H 
ATOM     53  H   LIG d   1       8.324  -7.722  -1.582  0.00  0.00     0.033 H 
BRANCH  51  54
ATOM     54  C   LIG d   1       7.350  -9.430  -2.413  0.00  0.00    -0.046 A 
ATOM     55  C   LIG d   1       6.708  -9.385  -3.637  0.00  0.00    -0.059 A 
ATOM     56  C   LIG d   1       5.576 -10.148  -3.852  0.00  0.00    -0.061 A 
ATOM     57  H   LIG d   1       7.090  -8.752  -4.423  0.00  0.00     0.062 H 
ATOM     58  C   LIG d   1       5.087 -10.958  -2.845  0.00  0.00    -0.062 A 
ATOM     59  H   LIG d   1       5.074 -10.111  -4.808  0.00  0.00     0.062 H 
ATOM     60  C   LIG d   1       5.729 -11.004  -1.621  0.00  0.00    -0.061 A 
ATOM     61  H   LIG d   1       4.202 -11.555  -3.013  0.00  0.00     0.062 H 
ATOM     62  C   LIG d   1       6.864 -10.244  -1.407  0.00  0.00    -0.059 A 
ATOM     63  H   LIG d   1       5.347 -11.638  -0.834  0.00  0.00     0.062 H 
ATOM     64  H   LIG d   1       7.368 -10.284  -0.453  0.00  0.00     0.062 H 
ENDBRANCH  51  54
ENDBRANCH  48  51
ENDBRANCH  19  48
TORSDOF 7
ENDMDL
MODEL 5
REMARK VINA RESULT:      -7.6      1.879      7.512
REMARK  7 active torsions:
REMARK  status: ('A' for Active; 'I' for Inactive)
REMARK    1  A    between atoms: C_1  and  C_2 
REMARK    2  A    between atoms: C_2  and  C_3 
REMARK    3  A    between atoms: C_2  and  C_4 
REMARK    4  A    between atoms: C_7  and  C_10 
REMARK    5  A    between atoms: N_28  and  C_31 
REMARK    6  A    between atoms: C_31  and  C_32 
REMARK    7  A    between atoms: C_32  and  C_33 
ROOT
ATOM      1  C   LIG d   1       6.113  -2.336  -6.816  0.00  0.00     0.094 C 
ATOM      2  H   LIG d   1       7.162  -2.160  -7.052  0.00  0.00     0.062 H 
ATOM      3  C   LIG d   1       5.742  -1.629  -5.527  0.00  0.00     0.046 A 
ATOM      4  C   LIG d   1       5.151  -2.245  -4.481  0.00  0.00    -0.015 A 
ATOM      5  C   LIG d   1       4.955  -1.234  -3.458  0.00  0.00     0.003 A 
ATOM      6  C   LIG d   1       4.395  -1.282  -2.178  0.00  0.00    -0.052 A 
ATOM      7  C   LIG d   1       4.374  -0.107  -1.466  0.00  0.00    -0.061 A 
ATOM      8  C   LIG d   1       4.882   1.074  -1.981  0.00  0.00    -0.060 A 
ATOM      9  C   LIG d   1       5.436   1.151  -3.247  0.00  0.00    -0.038 A 
ATOM     10  C   LIG d   1       5.475  -0.028  -3.990  0.00  0.00     0.047 A 
ATOM     11  N   LIG d   1       5.943  -0.305  -5.242  0.00  0.00    -0.356 N 
ATOM     12  H   LIG d   1       6.354   0.339  -5.840  0.00  0.00     0.166 HD
ATOM     13  C   LIG d   1       4.784  -3.706  -4.408  0.00  0.00     0.002 C 
ATOM     14  C   LIG d   1       4.722  -4.287  -5.825  0.00  0.00     0.109 A 
ATOM     15  H   LIG d   1       3.772  -4.065  -6.309  0.00  0.00     0.060 H 
ATOM     16  N   LIG d   1       5.882  -3.766  -6.582  0.00  0.00    -0.261 N 
ATOM     17  C   LIG d   1       6.618  -4.816  -6.953  0.00  0.00     0.313 A 
ATOM     18  O   LIG d   1       7.619  -4.735  -7.638  0.00  0.00    -0.252 OA
ATOM     19  N   LIG d   1       6.125  -5.970  -6.482  0.00  0.00    -0.224 N 
ATOM     20  C   LIG d   1       4.992  -5.777  -5.775  0.00  0.00     0.244 A 
ATOM     21  O   LIG d   1       4.327  -6.622  -5.215  0.00  0.00    -0.273 OA
ATOM     22  H   LIG d   1       3.997  -2.199  -1.769  0.00  0.00     0.062 H 
ATOM     23  H   LIG d   1       3.950  -0.106  -0.473  0.00  0.00     0.062 H 
ATOM     24  H   LIG d   1       4.840   1.967  -1.375  0.00  0.00     0.062 H 
ATOM     25  H   LIG d   1       5.824   2.080  -3.639  0.00  0.00     0.064 H 
ATOM     26  H   LIG d   1       5.535  -4.241  -3.827  0.00  0.00     0.034 H 
ATOM     27  H   LIG d   1       3.810  -3.812  -3.929  0.00  0.00     0.034 H 
ENDROOT
BRANCH   1  28
ATOM     28  C   LIG d   1       5.240  -1.848  -7.944  0.00  0.00    -0.021 A 
ATOM     29  C   LIG d   1       3.937  -1.463  -7.691  0.00  0.00    -0.056 A 
ATOM     30  C   LIG d   1       3.137  -1.016  -8.726  0.00  0.00    -0.058 A 
ATOM     31  H   LIG d   1       3.544  -1.511  -6.687  0.00  0.00     0.062 H 
ATOM     32  C   LIG d   1       3.640  -0.954 -10.012  0.00  0.00    -0.045 A 
ATOM     33  H   LIG d   1       2.118  -0.715  -8.530  0.00  0.00     0.062 H 
ATOM     34  C   LIG d   1       4.944  -1.337 -10.264  0.00  0.00    -0.058 A 
ATOM     35  C   LIG d   1       5.745  -1.781  -9.229  0.00  0.00    -0.056 A 
ATOM     36  H   LIG d   1       5.337  -1.288 -11.268  0.00  0.00     0.062 H 
ATOM     37  H   LIG d   1       6.765  -2.077  -9.425  0.00  0.00     0.062 H 
BRANCH  32  38
ATOM     38  C   LIG d   1       2.767  -0.466 -11.140  0.00  0.00    -0.021 C 
ATOM     39  H   LIG d   1       2.789   0.623 -11.172  0.00  0.00     0.034 H 
BRANCH  38  40
ATOM     40  C   LIG d   1       3.285  -1.026 -12.466  0.00  0.00    -0.059 C 
ATOM     41  H   LIG d   1       3.250  -0.246 -13.228  0.00  0.00     0.024 H 
ATOM     42  H   LIG d   1       4.314  -1.365 -12.341  0.00  0.00     0.024 H 
ATOM     43  H   LIG d   1       2.661  -1.865 -12.774  0.00  0.00     0.024 H 
ENDBRANCH  38  40
BRANCH  38  44
ATOM     44  C   LIG d   1       1.330  -0.939 -10.913  0.00  0.00    -0.059 C 
ATOM     45  H   LIG d   1       0.834  -1.072 -11.874  0.00  0.00     0.024 H 
ATOM     46  H   LIG d   1       1.340  -1.888 -10.375  0.00  0.00     0.024 H 
ATOM     47  H   LIG d   1       0.790  -0.196 -10.325  0.00  0.00     0.024 H 
ENDBRANCH  38  44
ENDBRANCH  32  38
ENDBRANCH   1  28
BRANCH  19  48
ATOM     48  C   LIG d   1       6.740  -7.281  -6.708  0.00  0.00     0.028 C 
ATOM     49  H   LIG d   1       6.013  -8.065  -6.495  0.00  0.00     0.047 H 
ATOM     50  H   LIG d   1       7.063  -7.357  -7.746  0.00  0.00     0.047 H 
BRANCH  48  51
ATOM     51  C   LIG d   1       7.949  -7.442  -5.785  0.00  0.00    -0.011 C 
ATOM     52  H   LIG d   1       8.764  -7.917  -6.333  0.00  0.00     0.033 H 
ATOM     53  H   LIG d   1       8.272  -6.462  -5.434  0.00  0.00     0.033 H 
BRANCH  51  54
ATOM     54  C   LIG d   1       7.570  -8.300  -4.606  0.00  0.00    -0.046 A 
ATOM     55  C   LIG d   1       6.476  -9.142  -4.686  0.00  0.00    -0.059 A 
ATOM     56  C   LIG d   1       6.129  -9.928  -3.604  0.00  0.00    -0.061 A 
ATOM     57  H   LIG d   1       5.892  -9.182  -5.593  0.00  0.00     0.062 H 
ATOM     58  C   LIG d   1       6.876  -9.875  -2.443  0.00  0.00    -0.062 A 
ATOM     59  H   LIG d   1       5.272 -10.584  -3.666  0.00  0.00     0.062 H 
ATOM     60  C   LIG d   1       7.971  -9.035  -2.363  0.00  0.00    -0.061 A 
ATOM     61  H   LIG d   1       6.605 -10.490  -1.597  0.00  0.00     0.062 H 
ATOM     62  C   LIG d   1       8.321  -8.251  -3.447  0.00  0.00    -0.059 A 
ATOM     63  H   LIG d   1       8.555  -8.994  -1.455  0.00  0.00     0.062 H 
ATOM     64  H   LIG d   1       9.179  -7.599  -3.386  0.00  0.00     0.062 H 
ENDBRANCH  51  54
ENDBRANCH  48  51
ENDBRANCH  19  48
TORSDOF 7
ENDMDL
MODEL 6
REMARK VINA RESULT:      -7.4      3.498      7.553
REMARK  7 active torsions:
REMARK  status: ('A' for Active; 'I' for Inactive)
REMARK    1  A    between atoms: C_1  and  C_2 
REMARK    2  A    between atoms: C_2  and  C_3 
REMARK    3  A    between atoms: C_2  and  C_4 
REMARK    4  A    between atoms: C_7  and  C_10 
REMARK    5  A    between atoms: N_28  and  C_31 
REMARK    6  A    between atoms: C_31  and  C_32 
REMARK    7  A    between atoms: C_32  and  C_33 
ROOT
ATOM      1  C   LIG d   1       5.106  -1.273  -5.419  0.00  0.00     0.094 C 
ATOM      2  H   LIG d   1       4.463  -0.997  -4.584  0.00  0.00     0.062 H 
ATOM      3  C   LIG d   1       5.358  -2.768  -5.413  0.00  0.00     0.046 A 
ATOM      4  C   LIG d   1       6.590  -3.318  -5.450  0.00  0.00    -0.015 A 
ATOM      5  C   LIG d   1       6.405  -4.757  -5.439  0.00  0.00     0.003 A 
ATOM      6  C   LIG d   1       7.307  -5.826  -5.468  0.00  0.00    -0.052 A 
ATOM      7  C   LIG d   1       6.771  -7.090  -5.442  0.00  0.00    -0.061 A 
ATOM      8  C   LIG d   1       5.404  -7.308  -5.390  0.00  0.00    -0.060 A 
ATOM      9  C   LIG d   1       4.489  -6.269  -5.367  0.00  0.00    -0.038 A 
ATOM     10  C   LIG d   1       5.006  -4.975  -5.387  0.00  0.00     0.047 A 
ATOM     11  N   LIG d   1       4.405  -3.750  -5.371  0.00  0.00    -0.356 N 
ATOM     12  H   LIG d   1       3.447  -3.597  -5.337  0.00  0.00     0.166 HD
ATOM     13  C   LIG d   1       7.895  -2.562  -5.485  0.00  0.00     0.002 C 
ATOM     14  C   LIG d   1       7.638  -1.126  -5.956  0.00  0.00     0.109 A 
ATOM     15  H   LIG d   1       7.566  -1.065  -7.042  0.00  0.00     0.060 H 
ATOM     16  N   LIG d   1       6.419  -0.633  -5.277  0.00  0.00    -0.261 N 
ATOM     17  C   LIG d   1       6.772   0.428  -4.548  0.00  0.00     0.313 A 
ATOM     18  O   LIG d   1       5.990   1.099  -3.905  0.00  0.00    -0.252 OA
ATOM     19  N   LIG d   1       8.090   0.667  -4.609  0.00  0.00    -0.224 N 
ATOM     20  C   LIG d   1       8.720  -0.213  -5.415  0.00  0.00     0.244 A 
ATOM     21  O   LIG d   1       9.907  -0.262  -5.657  0.00  0.00    -0.273 OA
ATOM     22  H   LIG d   1       8.374  -5.664  -5.508  0.00  0.00     0.062 H 
ATOM     23  H   LIG d   1       7.436  -7.940  -5.463  0.00  0.00     0.062 H 
ATOM     24  H   LIG d   1       5.039  -8.325  -5.371  0.00  0.00     0.062 H 
ATOM     25  H   LIG d   1       3.426  -6.454  -5.332  0.00  0.00     0.064 H 
ATOM     26  H   LIG d   1       8.332  -2.545  -4.488  0.00  0.00     0.034 H 
ATOM     27  H   LIG d   1       8.581  -3.053  -6.175  0.00  0.00     0.034 H 
ENDROOT
BRANCH   1  28
ATOM     28  C   LIG d   1       4.468  -0.861  -6.721  0.00  0.00    -0.021 A 
ATOM     29  C   LIG d   1       3.384  -0.003  -6.719  0.00  0.00    -0.056 A 
ATOM     30  C   LIG d   1       2.799   0.373  -7.914  0.00  0.00    -0.058 A 
ATOM     31  H   LIG d   1       2.994   0.371  -5.785  0.00  0.00     0.062 H 
ATOM     32  C   LIG d   1       3.299  -0.106  -9.109  0.00  0.00    -0.045 A 
ATOM     33  H   LIG d   1       1.952   1.043  -7.912  0.00  0.00     0.062 H 
ATOM     34  C   LIG d   1       4.385  -0.962  -9.112  0.00  0.00    -0.058 A 
ATOM     35  C   LIG d   1       4.971  -1.337  -7.918  0.00  0.00    -0.056 A 
ATOM     36  H   LIG d   1       4.775  -1.337 -10.046  0.00  0.00     0.062 H 
ATOM     37  H   LIG d   1       5.822  -2.003  -7.919  0.00  0.00     0.062 H 
BRANCH  32  38
ATOM     38  C   LIG d   1       2.662   0.305 -10.412  0.00  0.00    -0.021 C 
ATOM     39  H   LIG d   1       2.107   1.232 -10.268  0.00  0.00     0.034 H 
BRANCH  38  40
ATOM     40  C   LIG d   1       3.748   0.519 -11.467  0.00  0.00    -0.059 C 
ATOM     41  H   LIG d   1       3.684  -0.269 -12.219  0.00  0.00     0.024 H 
ATOM     42  H   LIG d   1       3.606   1.489 -11.945  0.00  0.00     0.024 H 
ATOM     43  H   LIG d   1       4.728   0.489 -10.991  0.00  0.00     0.024 H 
ENDBRANCH  38  40
BRANCH  38  44
ATOM     44  C   LIG d   1       1.704  -0.793 -10.880  0.00  0.00    -0.059 C 
ATOM     45  H   LIG d   1       2.221  -1.455 -11.573  0.00  0.00     0.024 H 
ATOM     46  H   LIG d   1       1.359  -1.366 -10.018  0.00  0.00     0.024 H 
ATOM     47  H   LIG d   1       0.848  -0.340 -11.381  0.00  0.00     0.024 H 
ENDBRANCH  38  44
ENDBRANCH  32  38
ENDBRANCH   1  28
BRANCH  19  48
ATOM     48  C   LIG d   1       8.763   1.751  -3.888  0.00  0.00     0.028 C 
ATOM     49  H   LIG d   1       8.140   2.075  -3.055  0.00  0.00     0.047 H 
ATOM     50  H   LIG d   1       9.721   1.394  -3.509  0.00  0.00     0.047 H 
BRANCH  48  51
ATOM     51  C   LIG d   1       8.997   2.927  -4.838  0.00  0.00    -0.011 C 
ATOM     52  H   LIG d   1       9.784   2.670  -5.548  0.00  0.00     0.033 H 
ATOM     53  H   LIG d   1       8.077   3.144  -5.381  0.00  0.00     0.033 H 
BRANCH  51  54
ATOM     54  C   LIG d   1       9.412   4.139  -4.044  0.00  0.00    -0.046 A 
ATOM     55  C   LIG d   1       9.230   5.405  -4.570  0.00  0.00    -0.059 A 
ATOM     56  C   LIG d   1       9.611   6.516  -3.841  0.00  0.00    -0.061 A 
ATOM     57  H   LIG d   1       8.792   5.524  -5.549  0.00  0.00     0.062 H 
ATOM     58  C   LIG d   1      10.171   6.362  -2.588  0.00  0.00    -0.062 A 
ATOM     59  H   LIG d   1       9.470   7.505  -4.253  0.00  0.00     0.062 H 
ATOM     60  C   LIG d   1      10.353   5.096  -2.062  0.00  0.00    -0.061 A 
ATOM     61  H   LIG d   1      10.469   7.231  -2.018  0.00  0.00     0.062 H 
ATOM     62  C   LIG d   1       9.968   3.985  -2.788  0.00  0.00    -0.059 A 
ATOM     63  H   LIG d   1      10.791   4.976  -1.082  0.00  0.00     0.062 H 
ATOM     64  H   LIG d   1      10.105   2.997  -2.376  0.00  0.00     0.062 H 
ENDBRANCH  51  54
ENDBRANCH  48  51
ENDBRANCH  19  48
TORSDOF 7
ENDMDL
MODEL 7
REMARK VINA RESULT:      -7.3      3.614      7.357
REMARK  7 active torsions:
REMARK  status: ('A' for Active; 'I' for Inactive)
REMARK    1  A    between atoms: C_1  and  C_2 
REMARK    2  A    between atoms: C_2  and  C_3 
REMARK    3  A    between atoms: C_2  and  C_4 
REMARK    4  A    between atoms: C_7  and  C_10 
REMARK    5  A    between atoms: N_28  and  C_31 
REMARK    6  A    between atoms: C_31  and  C_32 
REMARK    7  A    between atoms: C_32  and  C_33 
ROOT
ATOM      1  C   LIG d   1       7.970  -6.858  -5.446  0.00  0.00     0.094 C 
ATOM      2  H   LIG d   1       8.850  -6.217  -5.463  0.00  0.00     0.062 H 
ATOM      3  C   LIG d   1       7.904  -7.691  -6.712  0.00  0.00     0.046 A 
ATOM      4  C   LIG d   1       6.821  -7.745  -7.515  0.00  0.00    -0.015 A 
ATOM      5  C   LIG d   1       7.152  -8.648  -8.601  0.00  0.00     0.003 A 
ATOM      6  C   LIG d   1       6.432  -9.090  -9.716  0.00  0.00    -0.052 A 
ATOM      7  C   LIG d   1       7.071  -9.964 -10.561  0.00  0.00    -0.061 A 
ATOM      8  C   LIG d   1       8.368 -10.395 -10.330  0.00  0.00    -0.060 A 
ATOM      9  C   LIG d   1       9.101  -9.978  -9.232  0.00  0.00    -0.038 A 
ATOM     10  C   LIG d   1       8.478  -9.086  -8.360  0.00  0.00     0.047 A 
ATOM     11  N   LIG d   1       8.901  -8.486  -7.210  0.00  0.00    -0.356 N 
ATOM     12  H   LIG d   1       9.775  -8.606  -6.806  0.00  0.00     0.166 HD
ATOM     13  C   LIG d   1       5.530  -6.993  -7.309  0.00  0.00     0.002 C 
ATOM     14  C   LIG d   1       5.426  -6.550  -5.845  0.00  0.00     0.109 A 
ATOM     15  H   LIG d   1       5.067  -7.356  -5.206  0.00  0.00     0.060 H 
ATOM     16  N   LIG d   1       6.751  -6.040  -5.428  0.00  0.00    -0.261 N 
ATOM     17  C   LIG d   1       6.593  -4.761  -5.081  0.00  0.00     0.313 A 
ATOM     18  O   LIG d   1       7.484  -4.062  -4.642  0.00  0.00    -0.252 OA
ATOM     19  N   LIG d   1       5.336  -4.337  -5.276  0.00  0.00    -0.224 N 
ATOM     20  C   LIG d   1       4.544  -5.322  -5.747  0.00  0.00     0.244 A 
ATOM     21  O   LIG d   1       3.369  -5.241  -6.034  0.00  0.00    -0.273 OA
ATOM     22  H   LIG d   1       5.421  -8.759  -9.903  0.00  0.00     0.062 H 
ATOM     23  H   LIG d   1       6.547 -10.326 -11.432  0.00  0.00     0.062 H 
ATOM     24  H   LIG d   1       8.820 -11.082 -11.029  0.00  0.00     0.062 H 
ATOM     25  H   LIG d   1      10.109 -10.325  -9.062  0.00  0.00     0.064 H 
ATOM     26  H   LIG d   1       5.511  -6.118  -7.957  0.00  0.00     0.034 H 
ATOM     27  H   LIG d   1       4.689  -7.643  -7.552  0.00  0.00     0.034 H 
ENDROOT
BRANCH   1  28
ATOM     28  C   LIG d   1       8.007  -7.757  -4.237  0.00  0.00    -0.021 A 
ATOM     29  C   LIG d   1       7.120  -8.812  -4.132  0.00  0.00    -0.056 A 
ATOM     30  C   LIG d   1       7.155  -9.635  -3.022  0.00  0.00    -0.058 A 
ATOM     31  H   LIG d   1       6.400  -8.992  -4.916  0.00  0.00     0.062 H 
ATOM     32  C   LIG d   1       8.077  -9.404  -2.018  0.00  0.00    -0.045 A 
ATOM     33  H   LIG d   1       6.462 -10.460  -2.940  0.00  0.00     0.062 H 
ATOM     34  C   LIG d   1       8.965  -8.351  -2.124  0.00  0.00    -0.058 A 
ATOM     35  C   LIG d   1       8.933  -7.529  -3.235  0.00  0.00    -0.056 A 
ATOM     36  H   LIG d   1       9.685  -8.170  -1.340  0.00  0.00     0.062 H 
ATOM     37  H   LIG d   1       9.629  -6.707  -3.319  0.00  0.00     0.062 H 
BRANCH  32  38
ATOM     38  C   LIG d   1       8.114 -10.303  -0.809  0.00  0.00    -0.021 C 
ATOM     39  H   LIG d   1       7.624  -9.807   0.028  0.00  0.00     0.034 H 
BRANCH  38  40
ATOM     40  C   LIG d   1       7.388 -11.612  -1.123  0.00  0.00    -0.059 C 
ATOM     41  H   LIG d   1       8.079 -12.306  -1.602  0.00  0.00     0.024 H 
ATOM     42  H   LIG d   1       7.014 -12.053  -0.198  0.00  0.00     0.024 H 
ATOM     43  H   LIG d   1       6.551 -11.412  -1.793  0.00  0.00     0.024 H 
ENDBRANCH  38  40
BRANCH  38  44
ATOM     44  C   LIG d   1       9.569 -10.603  -0.442  0.00  0.00    -0.059 C 
ATOM     45  H   LIG d   1       9.751 -11.674  -0.519  0.00  0.00     0.024 H 
ATOM     46  H   LIG d   1      10.233 -10.071  -1.124  0.00  0.00     0.024 H 
ATOM     47  H   LIG d   1       9.761 -10.275   0.580  0.00  0.00     0.024 H 
ENDBRANCH  38  44
ENDBRANCH  32  38
ENDBRANCH   1  28
BRANCH  19  48
ATOM     48  C   LIG d   1       4.878  -2.970  -5.009  0.00  0.00     0.028 C 
ATOM     49  H   LIG d   1       5.706  -2.275  -5.151  0.00  0.00     0.047 H 
ATOM     50  H   LIG d   1       4.069  -2.718  -5.694  0.00  0.00     0.047 H 
BRANCH  48  51
ATOM     51  C   LIG d   1       4.374  -2.874  -3.567  0.00  0.00    -0.011 C 
ATOM     52  H   LIG d   1       3.444  -3.434  -3.470  0.00  0.00     0.033 H 
ATOM     53  H   LIG d   1       5.121  -3.293  -2.892  0.00  0.00     0.033 H 
BRANCH  51  54
ATOM     54  C   LIG d   1       4.131  -1.429  -3.216  0.00  0.00    -0.046 A 
ATOM     55  C   LIG d   1       4.667  -0.900  -2.055  0.00  0.00    -0.059 A 
ATOM     56  C   LIG d   1       4.444   0.425  -1.733  0.00  0.00    -0.061 A 
ATOM     57  H   LIG d   1       5.257  -1.524  -1.401  0.00  0.00     0.062 H 
ATOM     58  C   LIG d   1       3.687   1.222  -2.571  0.00  0.00    -0.062 A 
ATOM     59  H   LIG d   1       4.861   0.837  -0.826  0.00  0.00     0.062 H 
ATOM     60  C   LIG d   1       3.152   0.694  -3.731  0.00  0.00    -0.061 A 
ATOM     61  H   LIG d   1       3.513   2.258  -2.319  0.00  0.00     0.062 H 
ATOM     62  C   LIG d   1       3.379  -0.631  -4.056  0.00  0.00    -0.059 A 
ATOM     63  H   LIG d   1       2.561   1.317  -4.386  0.00  0.00     0.062 H 
ATOM     64  H   LIG d   1       2.965  -1.042  -4.965  0.00  0.00     0.062 H 
ENDBRANCH  51  54
ENDBRANCH  48  51
ENDBRANCH  19  48
TORSDOF 7
ENDMDL
MODEL 8
REMARK VINA RESULT:      -7.2      3.746      8.093
REMARK  7 active torsions:
REMARK  status: ('A' for Active; 'I' for Inactive)
REMARK    1  A    between atoms: C_1  and  C_2 
REMARK    2  A    between atoms: C_2  and  C_3 
REMARK    3  A    between atoms: C_2  and  C_4 
REMARK    4  A    between atoms: C_7  and  C_10 
REMARK    5  A    between atoms: N_28  and  C_31 
REMARK    6  A    between atoms: C_31  and  C_32 
REMARK    7  A    between atoms: C_32  and  C_33 
ROOT
ATOM      1  C   LIG d   1       3.376  -3.221 -10.387  0.00  0.00     0.094 C 
ATOM      2  H   LIG d   1       4.178  -3.848  -9.998  0.00  0.00     0.062 H 
ATOM      3  C   LIG d   1       3.705  -2.765 -11.795  0.00  0.00     0.046 A 
ATOM      4  C   LIG d   1       3.688  -1.473 -12.185  0.00  0.00    -0.015 A 
ATOM      5  C   LIG d   1       4.047  -1.457 -13.591  0.00  0.00     0.003 A 
ATOM      6  C   LIG d   1       4.187  -0.419 -14.519  0.00  0.00    -0.052 A 
ATOM      7  C   LIG d   1       4.551  -0.774 -15.795  0.00  0.00    -0.061 A 
ATOM      8  C   LIG d   1       4.770  -2.093 -16.158  0.00  0.00    -0.060 A 
ATOM      9  C   LIG d   1       4.633  -3.139 -15.261  0.00  0.00    -0.038 A 
ATOM     10  C   LIG d   1       4.270  -2.807 -13.957  0.00  0.00     0.047 A 
ATOM     11  N   LIG d   1       4.055  -3.570 -12.846  0.00  0.00    -0.356 N 
ATOM     12  H   LIG d   1       4.136  -4.536 -12.806  0.00  0.00     0.166 HD
ATOM     13  C   LIG d   1       3.366  -0.289 -11.308  0.00  0.00     0.002 C 
ATOM     14  C   LIG d   1       2.600  -0.767 -10.068  0.00  0.00     0.109 A 
ATOM     15  H   LIG d   1       1.541  -0.908 -10.280  0.00  0.00     0.060 H 
ATOM     16  N   LIG d   1       3.252  -2.002  -9.578  0.00  0.00    -0.261 N 
ATOM     17  C   LIG d   1       3.682  -1.759  -8.338  0.00  0.00     0.313 A 
ATOM     18  O   LIG d   1       4.219  -2.589  -7.632  0.00  0.00    -0.252 OA
ATOM     19  N   LIG d   1       3.453  -0.492  -7.964  0.00  0.00    -0.224 N 
ATOM     20  C   LIG d   1       2.820   0.207  -8.929  0.00  0.00     0.244 A 
ATOM     21  O   LIG d   1       2.494   1.374  -8.891  0.00  0.00    -0.273 OA
ATOM     22  H   LIG d   1       4.017   0.611 -14.244  0.00  0.00     0.062 H 
ATOM     23  H   LIG d   1       4.668   0.000 -16.538  0.00  0.00     0.062 H 
ATOM     24  H   LIG d   1       5.055  -2.312 -17.176  0.00  0.00     0.062 H 
ATOM     25  H   LIG d   1       4.803  -4.163 -15.559  0.00  0.00     0.064 H 
ATOM     26  H   LIG d   1       4.290   0.198 -10.999  0.00  0.00     0.034 H 
ATOM     27  H   LIG d   1       2.751   0.419 -11.864  0.00  0.00     0.034 H 
ENDROOT
BRANCH   1  28
ATOM     28  C   LIG d   1       2.075  -3.981 -10.380  0.00  0.00    -0.021 A 
ATOM     29  C   LIG d   1       2.066  -5.332 -10.085  0.00  0.00    -0.056 A 
ATOM     30  C   LIG d   1       0.872  -6.029 -10.080  0.00  0.00    -0.058 A 
ATOM     31  H   LIG d   1       2.990  -5.842  -9.861  0.00  0.00     0.062 H 
ATOM     32  C   LIG d   1      -0.312  -5.375 -10.367  0.00  0.00    -0.045 A 
ATOM     33  H   LIG d   1       0.864  -7.084  -9.850  0.00  0.00     0.062 H 
ATOM     34  C   LIG d   1      -0.303  -4.024 -10.660  0.00  0.00    -0.058 A 
ATOM     35  C   LIG d   1       0.890  -3.327 -10.662  0.00  0.00    -0.056 A 
ATOM     36  H   LIG d   1      -1.227  -3.514 -10.884  0.00  0.00     0.062 H 
ATOM     37  H   LIG d   1       0.898  -2.270 -10.887  0.00  0.00     0.062 H 
BRANCH  32  38
ATOM     38  C   LIG d   1      -1.613  -6.136 -10.360  0.00  0.00    -0.021 C 
ATOM     39  H   LIG d   1      -1.593  -6.899 -11.138  0.00  0.00     0.034 H 
BRANCH  38  40
ATOM     40  C   LIG d   1      -1.807  -6.802  -8.997  0.00  0.00    -0.059 C 
ATOM     41  H   LIG d   1      -1.117  -7.641  -8.901  0.00  0.00     0.024 H 
ATOM     42  H   LIG d   1      -1.611  -6.078  -8.206  0.00  0.00     0.024 H 
ATOM     43  H   LIG d   1      -2.833  -7.164  -8.912  0.00  0.00     0.024 H 
ENDBRANCH  38  40
BRANCH  38  44
ATOM     44  C   LIG d   1      -2.769  -5.169 -10.625  0.00  0.00    -0.059 C 
ATOM     45  H   LIG d   1      -3.663  -5.522 -10.111  0.00  0.00     0.024 H 
ATOM     46  H   LIG d   1      -2.506  -4.177 -10.258  0.00  0.00     0.024 H 
ATOM     47  H   LIG d   1      -2.963  -5.119 -11.697  0.00  0.00     0.024 H 
ENDBRANCH  38  44
ENDBRANCH  32  38
ENDBRANCH   1  28
BRANCH  19  48
ATOM     48  C   LIG d   1       3.843   0.065  -6.666  0.00  0.00     0.028 C 
ATOM     49  H   LIG d   1       4.721  -0.463  -6.292  0.00  0.00     0.047 H 
ATOM     50  H   LIG d   1       4.077   1.123  -6.780  0.00  0.00     0.047 H 
BRANCH  48  51
ATOM     51  C   LIG d   1       2.690  -0.097  -5.674  0.00  0.00    -0.011 C 
ATOM     52  H   LIG d   1       2.009   0.749  -5.766  0.00  0.00     0.033 H 
ATOM     53  H   LIG d   1       2.151  -1.020  -5.891  0.00  0.00     0.033 H 
BRANCH  51  54
ATOM     54  C   LIG d   1       3.237  -0.152  -4.271  0.00  0.00    -0.046 A 
ATOM     55  C   LIG d   1       3.577  -1.369  -3.708  0.00  0.00    -0.059 A 
ATOM     56  C   LIG d   1       4.079  -1.418  -2.422  0.00  0.00    -0.061 A 
ATOM     57  H   LIG d   1       3.448  -2.279  -4.274  0.00  0.00     0.062 H 
ATOM     58  C   LIG d   1       4.243  -0.253  -1.699  0.00  0.00    -0.062 A 
ATOM     59  H   LIG d   1       4.342  -2.369  -1.982  0.00  0.00     0.062 H 
ATOM     60  C   LIG d   1       3.905   0.964  -2.261  0.00  0.00    -0.061 A 
ATOM     61  H   LIG d   1       4.636  -0.291  -0.692  0.00  0.00     0.062 H 
ATOM     62  C   LIG d   1       3.407   1.015  -3.550  0.00  0.00    -0.059 A 
ATOM     63  H   LIG d   1       4.034   1.876  -1.696  0.00  0.00     0.062 H 
ATOM     64  H   LIG d   1       3.147   1.965  -3.991  0.00  0.00     0.062 H 
ENDBRANCH  51  54
ENDBRANCH  48  51
ENDBRANCH  19  48
TORSDOF 7
ENDMDL
MODEL 9
REMARK VINA RESULT:      -7.1      7.056     10.455
REMARK  7 active torsions:
REMARK  status: ('A' for Active; 'I' for Inactive)
REMARK    1  A    between atoms: C_1  and  C_2 
REMARK    2  A    between atoms: C_2  and  C_3 
REMARK    3  A    between atoms: C_2  and  C_4 
REMARK    4  A    between atoms: C_7  and  C_10 
REMARK    5  A    between atoms: N_28  and  C_31 
REMARK    6  A    between atoms: C_31  and  C_32 
REMARK    7  A    between atoms: C_32  and  C_33 
ROOT
ATOM      1  C   LIG d   1       9.566   4.793  -3.971  0.00  0.00     0.094 C 
ATOM      2  H   LIG d   1       8.684   4.981  -3.359  0.00  0.00     0.062 H 
ATOM      3  C   LIG d   1       9.583   5.728  -5.165  0.00  0.00     0.046 A 
ATOM      4  C   LIG d   1       9.713   5.308  -6.441  0.00  0.00    -0.015 A 
ATOM      5  C   LIG d   1       9.693   6.495  -7.275  0.00  0.00     0.003 A 
ATOM      6  C   LIG d   1       9.793   6.680  -8.658  0.00  0.00    -0.052 A 
ATOM      7  C   LIG d   1       9.732   7.974  -9.116  0.00  0.00    -0.061 A 
ATOM      8  C   LIG d   1       9.580   9.051  -8.259  0.00  0.00    -0.060 A 
ATOM      9  C   LIG d   1       9.485   8.897  -6.887  0.00  0.00    -0.038 A 
ATOM     10  C   LIG d   1       9.539   7.594  -6.394  0.00  0.00     0.047 A 
ATOM     11  N   LIG d   1       9.475   7.092  -5.126  0.00  0.00    -0.356 N 
ATOM     12  H   LIG d   1       9.370   7.621  -4.320  0.00  0.00     0.166 HD
ATOM     13  C   LIG d   1       9.842   3.874  -6.891  0.00  0.00     0.002 C 
ATOM     14  C   LIG d   1      10.288   3.007  -5.708  0.00  0.00     0.109 A 
ATOM     15  H   LIG d   1      11.365   3.062  -5.552  0.00  0.00     0.060 H 
ATOM     16  N   LIG d   1       9.519   3.431  -4.516  0.00  0.00    -0.261 N 
ATOM     17  C   LIG d   1       8.814   2.375  -4.102  0.00  0.00     0.313 A 
ATOM     18  O   LIG d   1       8.113   2.375  -3.111  0.00  0.00    -0.252 OA
ATOM     19  N   LIG d   1       8.971   1.316  -4.909  0.00  0.00    -0.224 N 
ATOM     20  C   LIG d   1       9.825   1.580  -5.920  0.00  0.00     0.244 A 
ATOM     21  O   LIG d   1      10.154   0.830  -6.814  0.00  0.00    -0.273 OA
ATOM     22  H   LIG d   1       9.911   5.845  -9.333  0.00  0.00     0.062 H 
ATOM     23  H   LIG d   1       9.805   8.155 -10.178  0.00  0.00     0.062 H 
ATOM     24  H   LIG d   1       9.537  10.046  -8.676  0.00  0.00     0.062 H 
ATOM     25  H   LIG d   1       9.372   9.746  -6.229  0.00  0.00     0.064 H 
ATOM     26  H   LIG d   1       8.880   3.520  -7.259  0.00  0.00     0.034 H 
ATOM     27  H   LIG d   1      10.582   3.808  -7.688  0.00  0.00     0.034 H 
ENDROOT
BRANCH   1  28
ATOM     28  C   LIG d   1      10.816   4.978  -3.150  0.00  0.00    -0.021 A 
ATOM     29  C   LIG d   1      10.734   5.035  -1.772  0.00  0.00    -0.056 A 
ATOM     30  C   LIG d   1      11.882   5.206  -1.019  0.00  0.00    -0.058 A 
ATOM     31  H   LIG d   1       9.776   4.947  -1.283  0.00  0.00     0.062 H 
ATOM     32  C   LIG d   1      13.109   5.319  -1.645  0.00  0.00    -0.045 A 
ATOM     33  H   LIG d   1      11.818   5.251   0.058  0.00  0.00     0.062 H 
ATOM     34  C   LIG d   1      13.190   5.260  -3.023  0.00  0.00    -0.058 A 
ATOM     35  C   LIG d   1      12.044   5.085  -3.776  0.00  0.00    -0.056 A 
ATOM     36  H   LIG d   1      14.149   5.347  -3.512  0.00  0.00     0.062 H 
ATOM     37  H   LIG d   1      12.108   5.036  -4.853  0.00  0.00     0.062 H 
BRANCH  32  38
ATOM     38  C   LIG d   1      14.359   5.504  -0.823  0.00  0.00    -0.021 C 
ATOM     39  H   LIG d   1      14.179   5.163   0.196  0.00  0.00     0.034 H 
BRANCH  38  40
ATOM     40  C   LIG d   1      15.500   4.692  -1.439  0.00  0.00    -0.059 C 
ATOM     41  H   LIG d   1      15.955   5.262  -2.250  0.00  0.00     0.024 H 
ATOM     42  H   LIG d   1      16.250   4.483  -0.676  0.00  0.00     0.024 H 
ATOM     43  H   LIG d   1      15.107   3.753  -1.830  0.00  0.00     0.024 H 
ENDBRANCH  38  40
BRANCH  38  44
ATOM     44  C   LIG d   1      14.740   6.986  -0.804  0.00  0.00    -0.059 C 
ATOM     45  H   LIG d   1      15.759   7.105  -1.172  0.00  0.00     0.024 H 
ATOM     46  H   LIG d   1      14.056   7.546  -1.442  0.00  0.00     0.024 H 
ATOM     47  H   LIG d   1      14.676   7.365   0.217  0.00  0.00     0.024 H 
ENDBRANCH  38  44
ENDBRANCH  32  38
ENDBRANCH   1  28
BRANCH  19  48
ATOM     48  C   LIG d   1       8.298   0.028  -4.716  0.00  0.00     0.028 C 
ATOM     49  H   LIG d   1       8.785  -0.732  -5.328  0.00  0.00     0.047 H 
ATOM     50  H   LIG d   1       8.356  -0.259  -3.667  0.00  0.00     0.047 H 
BRANCH  48  51
ATOM     51  C   LIG d   1       6.831   0.153  -5.130  0.00  0.00    -0.011 C 
ATOM     52  H   LIG d   1       6.619   1.185  -5.410  0.00  0.00     0.033 H 
ATOM     53  H   LIG d   1       6.636  -0.501  -5.981  0.00  0.00     0.033 H 
BRANCH  51  54
ATOM     54  C   LIG d   1       5.948  -0.247  -3.976  0.00  0.00    -0.046 A 
ATOM     55  C   LIG d   1       5.478   0.714  -3.100  0.00  0.00    -0.059 A 
ATOM     56  C   LIG d   1       4.668   0.347  -2.042  0.00  0.00    -0.061 A 
ATOM     57  H   LIG d   1       5.745   1.750  -3.242  0.00  0.00     0.062 H 
ATOM     58  C   LIG d   1       4.327  -0.979  -1.861  0.00  0.00    -0.062 A 
ATOM     59  H   LIG d   1       4.303   1.099  -1.357  0.00  0.00     0.062 H 
ATOM     60  C   LIG d   1       4.796  -1.940  -2.737  0.00  0.00    -0.061 A 
ATOM     61  H   LIG d   1       3.693  -1.266  -1.033  0.00  0.00     0.062 H 
ATOM     62  C   LIG d   1       5.602  -1.573  -3.798  0.00  0.00    -0.059 A 
ATOM     63  H   LIG d   1       4.528  -2.977  -2.595  0.00  0.00     0.062 H 
ATOM     64  H   LIG d   1       5.965  -2.323  -4.485  0.00  0.00     0.062 H 
ENDBRANCH  51  54
ENDBRANCH  48  51
ENDBRANCH  19  48
TORSDOF 7
ENDMDL
MODEL 10
REMARK VINA RESULT:      -7.1      1.786      5.692
REMARK  7 active torsions:
REMARK  status: ('A' for Active; 'I' for Inactive)
REMARK    1  A    between atoms: C_1  and  C_2 
REMARK    2  A    between atoms: C_2  and  C_3 
REMARK    3  A    between atoms: C_2  and  C_4 
REMARK    4  A    between atoms: C_7  and  C_10 
REMARK    5  A    between atoms: N_28  and  C_31 
REMARK    6  A    between atoms: C_31  and  C_32 
REMARK    7  A    between atoms: C_32  and  C_33 
ROOT
ATOM      1  C   LIG d   1       6.891  -3.890  -5.951  0.00  0.00     0.094 C 
ATOM      2  H   LIG d   1       7.626  -3.302  -6.500  0.00  0.00     0.062 H 
ATOM      3  C   LIG d   1       7.567  -5.056  -5.257  0.00  0.00     0.046 A 
ATOM      4  C   LIG d   1       7.166  -6.339  -5.390  0.00  0.00    -0.015 A 
ATOM      5  C   LIG d   1       8.055  -7.140  -4.569  0.00  0.00     0.003 A 
ATOM      6  C   LIG d   1       8.121  -8.514  -4.312  0.00  0.00    -0.052 A 
ATOM      7  C   LIG d   1       9.117  -8.938  -3.466  0.00  0.00    -0.061 A 
ATOM      8  C   LIG d   1      10.017  -8.058  -2.889  0.00  0.00    -0.060 A 
ATOM      9  C   LIG d   1       9.970  -6.694  -3.121  0.00  0.00    -0.038 A 
ATOM     10  C   LIG d   1       8.973  -6.235  -3.980  0.00  0.00     0.047 A 
ATOM     11  N   LIG d   1       8.648  -4.984  -4.420  0.00  0.00    -0.356 N 
ATOM     12  H   LIG d   1       9.111  -4.168  -4.175  0.00  0.00     0.166 HD
ATOM     13  C   LIG d   1       6.020  -6.822  -6.242  0.00  0.00     0.002 C 
ATOM     14  C   LIG d   1       5.081  -5.649  -6.547  0.00  0.00     0.109 A 
ATOM     15  H   LIG d   1       4.397  -5.457  -5.722  0.00  0.00     0.060 H 
ATOM     16  N   LIG d   1       5.916  -4.473  -6.880  0.00  0.00    -0.261 N 
ATOM     17  C   LIG d   1       5.612  -4.111  -8.129  0.00  0.00     0.313 A 
ATOM     18  O   LIG d   1       6.087  -3.143  -8.689  0.00  0.00    -0.252 OA
ATOM     19  N   LIG d   1       4.722  -4.940  -8.692  0.00  0.00    -0.224 N 
ATOM     20  C   LIG d   1       4.339  -5.915  -7.841  0.00  0.00     0.244 A 
ATOM     21  O   LIG d   1       3.562  -6.818  -8.066  0.00  0.00    -0.273 OA
ATOM     22  H   LIG d   1       7.423  -9.207  -4.758  0.00  0.00     0.062 H 
ATOM     23  H   LIG d   1       9.199  -9.991  -3.245  0.00  0.00     0.062 H 
ATOM     24  H   LIG d   1      10.779  -8.449  -2.232  0.00  0.00     0.062 H 
ATOM     25  H   LIG d   1      10.675  -6.018  -2.660  0.00  0.00     0.064 H 
ATOM     26  H   LIG d   1       6.407  -7.231  -7.174  0.00  0.00     0.034 H 
ATOM     27  H   LIG d   1       5.470  -7.596  -5.706  0.00  0.00     0.034 H 
ENDROOT
BRANCH   1  28
ATOM     28  C   LIG d   1       6.187  -3.023  -4.939  0.00  0.00    -0.021 A 
ATOM     29  C   LIG d   1       6.799  -1.877  -4.466  0.00  0.00    -0.056 A 
ATOM     30  C   LIG d   1       6.153  -1.083  -3.537  0.00  0.00    -0.058 A 
ATOM     31  H   LIG d   1       7.781  -1.603  -4.821  0.00  0.00     0.062 H 
ATOM     32  C   LIG d   1       4.896  -1.434  -3.083  0.00  0.00    -0.045 A 
ATOM     33  H   LIG d   1       6.631  -0.188  -3.167  0.00  0.00     0.062 H 
ATOM     34  C   LIG d   1       4.283  -2.578  -3.557  0.00  0.00    -0.058 A 
ATOM     35  C   LIG d   1       4.927  -3.371  -4.488  0.00  0.00    -0.056 A 
ATOM     36  H   LIG d   1       3.301  -2.852  -3.202  0.00  0.00     0.062 H 
ATOM     37  H   LIG d   1       4.448  -4.264  -4.862  0.00  0.00     0.062 H 
BRANCH  32  38
ATOM     38  C   LIG d   1       4.192  -0.567  -2.070  0.00  0.00    -0.021 C 
ATOM     39  H   LIG d   1       4.144  -1.089  -1.115  0.00  0.00     0.034 H 
BRANCH  38  40
ATOM     40  C   LIG d   1       4.961   0.744  -1.898  0.00  0.00    -0.059 C 
ATOM     41  H   LIG d   1       5.190   0.894  -0.842  0.00  0.00     0.024 H 
ATOM     42  H   LIG d   1       5.890   0.699  -2.468  0.00  0.00     0.024 H 
ATOM     43  H   LIG d   1       4.352   1.573  -2.260  0.00  0.00     0.024 H 
ENDBRANCH  38  40
BRANCH  38  44
ATOM     44  C   LIG d   1       2.773  -0.265  -2.557  0.00  0.00    -0.059 C 
ATOM     45  H   LIG d   1       2.188  -1.185  -2.567  0.00  0.00     0.024 H 
ATOM     46  H   LIG d   1       2.304   0.456  -1.886  0.00  0.00     0.024 H 
ATOM     47  H   LIG d   1       2.814   0.150  -3.564  0.00  0.00     0.024 H 
ENDBRANCH  38  44
ENDBRANCH  32  38
ENDBRANCH   1  28
BRANCH  19  48
ATOM     48  C   LIG d   1       4.225  -4.805 -10.064  0.00  0.00     0.028 C 
ATOM     49  H   LIG d   1       4.871  -4.124 -10.619  0.00  0.00     0.047 H 
ATOM     50  H   LIG d   1       4.225  -5.781 -10.549  0.00  0.00     0.047 H 
BRANCH  48  51
ATOM     51  C   LIG d   1       2.800  -4.249 -10.038  0.00  0.00    -0.011 C 
ATOM     52  H   LIG d   1       2.205  -4.737 -10.810  0.00  0.00     0.033 H 
ATOM     53  H   LIG d   1       2.354  -4.438  -9.062  0.00  0.00     0.033 H 
BRANCH  51  54
ATOM     54  C   LIG d   1       2.836  -2.764 -10.295  0.00  0.00    -0.046 A 
ATOM     55  C   LIG d   1       3.053  -2.289 -11.575  0.00  0.00    -0.059 A 
ATOM     56  C   LIG d   1       3.086  -0.927 -11.810  0.00  0.00    -0.061 A 
ATOM     57  H   LIG d   1       3.199  -2.981 -12.390  0.00  0.00     0.062 H 
ATOM     58  C   LIG d   1       2.900  -0.041 -10.766  0.00  0.00    -0.062 A 
ATOM     59  H   LIG d   1       3.257  -0.556 -12.810  0.00  0.00     0.062 H 
ATOM     60  C   LIG d   1       2.682  -0.516  -9.486  0.00  0.00    -0.061 A 
ATOM     61  H   LIG d   1       2.925   1.024 -10.950  0.00  0.00     0.062 H 
ATOM     62  C   LIG d   1       2.645  -1.878  -9.252  0.00  0.00    -0.059 A 
ATOM     63  H   LIG d   1       2.536   0.177  -8.670  0.00  0.00     0.062 H 
ATOM     64  H   LIG d   1       2.470  -2.249  -8.253  0.00  0.00     0.062 H 
ENDBRANCH  51  54
ENDBRANCH  48  51
ENDBRANCH  19  48
TORSDOF 7
ENDMDL
