MODEL 1
REMARK VINA RESULT:      -7.0      0.000      0.000
REMARK  9 active torsions:
REMARK  status: ('A' for Active; 'I' for Inactive)
REMARK    1  A    between atoms: C_1  and  C_2 
REMARK    2  A    between atoms: C_6  and  O_26 
REMARK    3  A    between atoms: C_7  and  C_25 
REMARK    4  A    between atoms: C_12  and  C_13 
REMARK    5  A    between atoms: C_13  and  C_14 
REMARK    6  A    between atoms: C_14  and  C_15 
REMARK       I    between atoms: C_15  and  N_17 
REMARK    7  A    between atoms: N_17  and  C_18 
REMARK    8  A    between atoms: C_18  and  C_19 
REMARK    9  A    between atoms: O_26  and  C_27 
ROOT
ATOM      1  C   LIG d   1       9.912   5.567  -3.947  0.00  0.00    -0.030 A 
ATOM      2  C   LIG d   1      10.133   6.412  -2.771  0.00  0.00     0.021 A 
ATOM      3  C   LIG d   1       9.939   7.797  -2.833  0.00  0.00    -0.047 A 
ATOM      4  C   LIG d   1      10.158   8.560  -1.723  0.00  0.00    -0.019 A 
ATOM      5  C   LIG d   1      10.570   7.972  -0.530  0.00  0.00     0.127 A 
ATOM      6  C   LIG d   1      10.765   6.603  -0.451  0.00  0.00     0.034 A 
ATOM      7  C   LIG d   1      10.549   5.811  -1.570  0.00  0.00     0.146 A 
ATOM      8  O   LIG d   1      10.733   4.474  -1.514  0.00  0.00    -0.422 OA
ATOM      9  C   LIG d   1      10.529   3.694  -2.587  0.00  0.00     0.341 A 
ATOM     10  O   LIG d   1      10.708   2.493  -2.490  0.00  0.00    -0.245 OA
ATOM     11  C   LIG d   1      10.111   4.229  -3.823  0.00  0.00     0.041 A 
ATOM     12  H   LIG d   1       9.620   8.259  -3.755  0.00  0.00     0.063 H 
ATOM     13  H   LIG d   1      10.009   9.630  -1.771  0.00  0.00     0.065 H 
ENDROOT
BRANCH  11  14
ATOM     14  C   LIG d   1       9.892   3.320  -5.004  0.00  0.00    -0.012 C 
ATOM     15  H   LIG d   1      10.474   2.407  -4.873  0.00  0.00     0.032 H 
ATOM     16  H   LIG d   1      10.210   3.825  -5.916  0.00  0.00     0.032 H 
BRANCH  14  17
ATOM     17  C   LIG d   1       8.406   2.969  -5.108  0.00  0.00     0.028 C 
ATOM     18  H   LIG d   1       8.092   3.021  -6.150  0.00  0.00     0.036 H 
ATOM     19  H   LIG d   1       7.824   3.675  -4.517  0.00  0.00     0.036 H 
BRANCH  17  20
ATOM     20  C   LIG d   1       8.183   1.573  -4.585  0.00  0.00     0.214 C 
ATOM     21  O   LIG d   1       9.012   0.710  -4.784  0.00  0.00    -0.276 OA
ATOM     22  N   LIG d   1       7.061   1.283  -3.897  0.00  0.00    -0.310 N 
ATOM     23  H   LIG d   1       6.399   1.973  -3.735  0.00  0.00     0.149 HD
BRANCH  22  24
ATOM     24  C   LIG d   1       6.843  -0.074  -3.389  0.00  0.00     0.054 C 
ATOM     25  H   LIG d   1       7.289  -0.795  -4.074  0.00  0.00     0.053 H 
ATOM     26  H   LIG d   1       7.306  -0.173  -2.407  0.00  0.00     0.053 H 
BRANCH  24  27
ATOM     27  C   LIG d   1       5.364  -0.337  -3.276  0.00  0.00     0.058 A 
ATOM     28  N   LIG d   1       4.508   0.528  -3.783  0.00  0.00    -0.258 NA
ATOM     29  C   LIG d   1       3.205   0.337  -3.712  0.00  0.00     0.028 A 
ATOM     30  C   LIG d   1       2.687  -0.781  -3.089  0.00  0.00    -0.044 A 
ATOM     31  H   LIG d   1       2.534   1.066  -4.144  0.00  0.00     0.083 H 
ATOM     32  C   LIG d   1       3.556  -1.711  -2.538  0.00  0.00    -0.059 A 
ATOM     33  H   LIG d   1       1.618  -0.930  -3.029  0.00  0.00     0.063 H 
ATOM     34  C   LIG d   1       4.920  -1.478  -2.636  0.00  0.00    -0.039 A 
ATOM     35  H   LIG d   1       3.181  -2.595  -2.044  0.00  0.00     0.062 H 
ATOM     36  H   LIG d   1       5.626  -2.181  -2.219  0.00  0.00     0.064 H 
ENDBRANCH  24  27
ENDBRANCH  22  24
ENDBRANCH  17  20
ENDBRANCH  14  17
ENDBRANCH  11  14
BRANCH   1  37
ATOM     37  C   LIG d   1       9.473   6.165  -5.259  0.00  0.00    -0.039 C 
ATOM     38  H   LIG d   1      10.115   7.011  -5.505  0.00  0.00     0.028 H 
ATOM     39  H   LIG d   1       9.547   5.414  -6.045  0.00  0.00     0.028 H 
ATOM     40  H   LIG d   1       8.441   6.506  -5.176  0.00  0.00     0.028 H 
ENDBRANCH   1  37
BRANCH   6  41
ATOM     41  C   LIG d   1      11.211   5.975   0.845  0.00  0.00    -0.033 C 
ATOM     42  H   LIG d   1      12.240   5.630   0.746  0.00  0.00     0.028 H 
ATOM     43  H   LIG d   1      11.150   6.713   1.645  0.00  0.00     0.028 H 
ATOM     44  H   LIG d   1      10.564   5.130   1.080  0.00  0.00     0.028 H 
ENDBRANCH   6  41
BRANCH   5  45
ATOM     45  O   LIG d   1      10.783   8.746   0.565  0.00  0.00    -0.495 OA
BRANCH  45  46
ATOM     46  C   LIG d   1      10.463  10.134   0.450  0.00  0.00     0.079 C 
ATOM     47  H   LIG d   1      11.269  10.729   0.879  0.00  0.00     0.066 H 
ATOM     48  H   LIG d   1      10.339  10.392  -0.601  0.00  0.00     0.066 H 
ATOM     49  H   LIG d   1       9.535  10.338   0.986  0.00  0.00     0.066 H 
ENDBRANCH  45  46
ENDBRANCH   5  45
TORSDOF 9
ENDMDL
MODEL 2
REMARK VINA RESULT:      -6.8      4.168      7.085
REMARK  9 active torsions:
REMARK  status: ('A' for Active; 'I' for Inactive)
REMARK    1  A    between atoms: C_1  and  C_2 
REMARK    2  A    between atoms: C_6  and  O_26 
REMARK    3  A    between atoms: C_7  and  C_25 
REMARK    4  A    between atoms: C_12  and  C_13 
REMARK    5  A    between atoms: C_13  and  C_14 
REMARK    6  A    between atoms: C_14  and  C_15 
REMARK       I    between atoms: C_15  and  N_17 
REMARK    7  A    between atoms: N_17  and  C_18 
REMARK    8  A    between atoms: C_18  and  C_19 
REMARK    9  A    between atoms: O_26  and  C_27 
ROOT
ATOM      1  C   LIG d   1       6.898  -1.097  -3.809  0.00  0.00    -0.030 A 
ATOM      2  C   LIG d   1       7.931  -0.271  -4.438  0.00  0.00     0.021 A 
ATOM      3  C   LIG d   1       8.947  -0.850  -5.208  0.00  0.00    -0.047 A 
ATOM      4  C   LIG d   1       9.900  -0.057  -5.778  0.00  0.00    -0.019 A 
ATOM      5  C   LIG d   1       9.868   1.325  -5.600  0.00  0.00     0.127 A 
ATOM      6  C   LIG d   1       8.869   1.914  -4.843  0.00  0.00     0.034 A 
ATOM      7  C   LIG d   1       7.893   1.123  -4.255  0.00  0.00     0.146 A 
ATOM      8  O   LIG d   1       6.910   1.678  -3.513  0.00  0.00    -0.422 OA
ATOM      9  C   LIG d   1       5.958   0.926  -2.938  0.00  0.00     0.341 A 
ATOM     10  O   LIG d   1       5.092   1.470  -2.277  0.00  0.00    -0.245 OA
ATOM     11  C   LIG d   1       5.936  -0.476  -3.079  0.00  0.00     0.041 A 
ATOM     12  H   LIG d   1       8.978  -1.920  -5.348  0.00  0.00     0.063 H 
ATOM     13  H   LIG d   1      10.685  -0.503  -6.371  0.00  0.00     0.065 H 
ENDROOT
BRANCH  11  14
ATOM     14  C   LIG d   1       4.850  -1.285  -2.417  0.00  0.00    -0.012 C 
ATOM     15  H   LIG d   1       4.245  -0.633  -1.786  0.00  0.00     0.032 H 
ATOM     16  H   LIG d   1       5.300  -2.067  -1.807  0.00  0.00     0.032 H 
BRANCH  14  17
ATOM     17  C   LIG d   1       3.964  -1.923  -3.490  0.00  0.00     0.028 C 
ATOM     18  H   LIG d   1       3.270  -2.619  -3.022  0.00  0.00     0.036 H 
ATOM     19  H   LIG d   1       4.589  -2.458  -4.206  0.00  0.00     0.036 H 
BRANCH  17  20
ATOM     20  C   LIG d   1       3.190  -0.846  -4.206  0.00  0.00     0.214 C 
ATOM     21  O   LIG d   1       2.428  -0.133  -3.588  0.00  0.00    -0.276 OA
ATOM     22  N   LIG d   1       3.343  -0.677  -5.534  0.00  0.00    -0.310 N 
ATOM     23  H   LIG d   1       3.955  -1.245  -6.029  0.00  0.00     0.149 HD
BRANCH  22  24
ATOM     24  C   LIG d   1       2.590   0.369  -6.231  0.00  0.00     0.054 C 
ATOM     25  H   LIG d   1       1.654  -0.045  -6.606  0.00  0.00     0.053 H 
ATOM     26  H   LIG d   1       2.376   1.185  -5.541  0.00  0.00     0.053 H 
BRANCH  24  27
ATOM     27  C   LIG d   1       3.405   0.890  -7.386  0.00  0.00     0.058 A 
ATOM     28  N   LIG d   1       4.648   0.480  -7.544  0.00  0.00    -0.258 NA
ATOM     29  C   LIG d   1       5.398   0.905  -8.543  0.00  0.00     0.028 A 
ATOM     30  C   LIG d   1       4.904   1.811  -9.461  0.00  0.00    -0.044 A 
ATOM     31  H   LIG d   1       6.411   0.543  -8.642  0.00  0.00     0.083 H 
ATOM     32  C   LIG d   1       3.603   2.270  -9.326  0.00  0.00    -0.059 A 
ATOM     33  H   LIG d   1       5.524   2.160 -10.275  0.00  0.00     0.063 H 
ATOM     34  C   LIG d   1       2.844   1.797  -8.265  0.00  0.00    -0.039 A 
ATOM     35  H   LIG d   1       3.189   2.979 -10.028  0.00  0.00     0.062 H 
ATOM     36  H   LIG d   1       1.826   2.132  -8.129  0.00  0.00     0.064 H 
ENDBRANCH  24  27
ENDBRANCH  22  24
ENDBRANCH  17  20
ENDBRANCH  14  17
ENDBRANCH  11  14
BRANCH   1  37
ATOM     37  C   LIG d   1       6.902  -2.596  -3.970  0.00  0.00    -0.039 C 
ATOM     38  H   LIG d   1       7.888  -2.986  -3.719  0.00  0.00     0.028 H 
ATOM     39  H   LIG d   1       6.159  -3.035  -3.304  0.00  0.00     0.028 H 
ATOM     40  H   LIG d   1       6.662  -2.851  -5.002  0.00  0.00     0.028 H 
ENDBRANCH   1  37
BRANCH   6  41
ATOM     41  C   LIG d   1       8.843   3.410  -4.658  0.00  0.00    -0.033 C 
ATOM     42  H   LIG d   1       8.044   3.677  -3.967  0.00  0.00     0.028 H 
ATOM     43  H   LIG d   1       9.799   3.742  -4.254  0.00  0.00     0.028 H 
ATOM     44  H   LIG d   1       8.669   3.891  -5.620  0.00  0.00     0.028 H 
ENDBRANCH   6  41
BRANCH   5  45
ATOM     45  O   LIG d   1      10.823   2.100  -6.175  0.00  0.00    -0.495 OA
BRANCH  45  46
ATOM     46  C   LIG d   1      11.819   1.433  -6.952  0.00  0.00     0.079 C 
ATOM     47  H   LIG d   1      12.386   2.168  -7.524  0.00  0.00     0.066 H 
ATOM     48  H   LIG d   1      12.493   0.889  -6.290  0.00  0.00     0.066 H 
ATOM     49  H   LIG d   1      11.338   0.733  -7.636  0.00  0.00     0.066 H 
ENDBRANCH  45  46
ENDBRANCH   5  45
TORSDOF 9
ENDMDL
MODEL 3
REMARK VINA RESULT:      -6.7      5.867      8.536
REMARK  9 active torsions:
REMARK  status: ('A' for Active; 'I' for Inactive)
REMARK    1  A    between atoms: C_1  and  C_2 
REMARK    2  A    between atoms: C_6  and  O_26 
REMARK    3  A    between atoms: C_7  and  C_25 
REMARK    4  A    between atoms: C_12  and  C_13 
REMARK    5  A    between atoms: C_13  and  C_14 
REMARK    6  A    between atoms: C_14  and  C_15 
REMARK       I    between atoms: C_15  and  N_17 
REMARK    7  A    between atoms: N_17  and  C_18 
REMARK    8  A    between atoms: C_18  and  C_19 
REMARK    9  A    between atoms: O_26  and  C_27 
ROOT
ATOM      1  C   LIG d   1       5.310  -1.673  -3.399  0.00  0.00    -0.030 A 
ATOM      2  C   LIG d   1       6.576  -2.009  -4.055  0.00  0.00     0.021 A 
ATOM      3  C   LIG d   1       6.875  -3.330  -4.409  0.00  0.00    -0.047 A 
ATOM      4  C   LIG d   1       8.064  -3.617  -5.014  0.00  0.00    -0.019 A 
ATOM      5  C   LIG d   1       8.981  -2.603  -5.285  0.00  0.00     0.127 A 
ATOM      6  C   LIG d   1       8.700  -1.291  -4.943  0.00  0.00     0.034 A 
ATOM      7  C   LIG d   1       7.497  -0.982  -4.325  0.00  0.00     0.146 A 
ATOM      8  O   LIG d   1       7.205   0.291  -3.984  0.00  0.00    -0.422 OA
ATOM      9  C   LIG d   1       6.045   0.607  -3.385  0.00  0.00     0.341 A 
ATOM     10  O   LIG d   1       5.824   1.769  -3.096  0.00  0.00    -0.245 OA
ATOM     11  C   LIG d   1       5.076  -0.372  -3.086  0.00  0.00     0.041 A 
ATOM     12  H   LIG d   1       6.168  -4.120  -4.202  0.00  0.00     0.063 H 
ATOM     13  H   LIG d   1       8.295  -4.637  -5.287  0.00  0.00     0.065 H 
ENDROOT
BRANCH  11  14
ATOM     14  C   LIG d   1       3.786   0.022  -2.413  0.00  0.00    -0.012 C 
ATOM     15  H   LIG d   1       3.790   1.096  -2.223  0.00  0.00     0.032 H 
ATOM     16  H   LIG d   1       3.689  -0.514  -1.470  0.00  0.00     0.032 H 
BRANCH  14  17
ATOM     17  C   LIG d   1       2.609  -0.330  -3.325  0.00  0.00     0.028 C 
ATOM     18  H   LIG d   1       1.675  -0.050  -2.838  0.00  0.00     0.036 H 
ATOM     19  H   LIG d   1       2.610  -1.403  -3.520  0.00  0.00     0.036 H 
BRANCH  17  20
ATOM     20  C   LIG d   1       2.741   0.417  -4.627  0.00  0.00     0.214 C 
ATOM     21  O   LIG d   1       2.765   1.629  -4.631  0.00  0.00    -0.276 OA
ATOM     22  N   LIG d   1       2.830  -0.263  -5.787  0.00  0.00    -0.310 N 
ATOM     23  H   LIG d   1       2.814  -1.233  -5.784  0.00  0.00     0.149 HD
BRANCH  22  24
ATOM     24  C   LIG d   1       2.958   0.463  -7.054  0.00  0.00     0.054 C 
ATOM     25  H   LIG d   1       2.224   1.268  -7.086  0.00  0.00     0.053 H 
ATOM     26  H   LIG d   1       3.961   0.882  -7.133  0.00  0.00     0.053 H 
BRANCH  24  27
ATOM     27  C   LIG d   1       2.716  -0.483  -8.201  0.00  0.00     0.058 A 
ATOM     28  N   LIG d   1       3.315  -1.658  -8.215  0.00  0.00    -0.258 NA
ATOM     29  C   LIG d   1       3.130  -2.519  -9.196  0.00  0.00     0.028 A 
ATOM     30  C   LIG d   1       2.302  -2.214 -10.259  0.00  0.00    -0.044 A 
ATOM     31  H   LIG d   1       3.636  -3.474  -9.170  0.00  0.00     0.083 H 
ATOM     32  C   LIG d   1       1.659  -0.986 -10.282  0.00  0.00    -0.059 A 
ATOM     33  H   LIG d   1       2.158  -2.922 -11.062  0.00  0.00     0.063 H 
ATOM     34  C   LIG d   1       1.874  -0.108  -9.231  0.00  0.00    -0.039 A 
ATOM     35  H   LIG d   1       1.006  -0.719 -11.100  0.00  0.00     0.062 H 
ATOM     36  H   LIG d   1       1.389   0.858  -9.216  0.00  0.00     0.064 H 
ENDBRANCH  24  27
ENDBRANCH  22  24
ENDBRANCH  17  20
ENDBRANCH  14  17
ENDBRANCH  11  14
BRANCH   1  37
ATOM     37  C   LIG d   1       4.295  -2.740  -3.082  0.00  0.00    -0.039 C 
ATOM     38  H   LIG d   1       3.608  -2.373  -2.320  0.00  0.00     0.028 H 
ATOM     39  H   LIG d   1       3.736  -2.989  -3.984  0.00  0.00     0.028 H 
ATOM     40  H   LIG d   1       4.805  -3.629  -2.712  0.00  0.00     0.028 H 
ENDBRANCH   1  37
BRANCH   6  41
ATOM     41  C   LIG d   1       9.700  -0.202  -5.240  0.00  0.00    -0.033 C 
ATOM     42  H   LIG d   1      10.582  -0.337  -4.614  0.00  0.00     0.028 H 
ATOM     43  H   LIG d   1       9.988  -0.250  -6.290  0.00  0.00     0.028 H 
ATOM     44  H   LIG d   1       9.251   0.769  -5.031  0.00  0.00     0.028 H 
ENDBRANCH   6  41
BRANCH   5  45
ATOM     45  O   LIG d   1      10.159  -2.905  -5.889  0.00  0.00    -0.495 OA
BRANCH  45  46
ATOM     46  C   LIG d   1      11.068  -3.734  -5.161  0.00  0.00     0.079 C 
ATOM     47  H   LIG d   1      11.508  -4.469  -5.835  0.00  0.00     0.066 H 
ATOM     48  H   LIG d   1      11.856  -3.118  -4.729  0.00  0.00     0.066 H 
ATOM     49  H   LIG d   1      10.530  -4.249  -4.364  0.00  0.00     0.066 H 
ENDBRANCH  45  46
ENDBRANCH   5  45
TORSDOF 9
ENDMDL
MODEL 4
REMARK VINA RESULT:      -6.7      7.814     12.386
REMARK  9 active torsions:
REMARK  status: ('A' for Active; 'I' for Inactive)
REMARK    1  A    between atoms: C_1  and  C_2 
REMARK    2  A    between atoms: C_6  and  O_26 
REMARK    3  A    between atoms: C_7  and  C_25 
REMARK    4  A    between atoms: C_12  and  C_13 
REMARK    5  A    between atoms: C_13  and  C_14 
REMARK    6  A    between atoms: C_14  and  C_15 
REMARK       I    between atoms: C_15  and  N_17 
REMARK    7  A    between atoms: N_17  and  C_18 
REMARK    8  A    between atoms: C_18  and  C_19 
REMARK    9  A    between atoms: O_26  and  C_27 
ROOT
ATOM      1  C   LIG d   1       2.322  -0.916 -11.753  0.00  0.00    -0.030 A 
ATOM      2  C   LIG d   1       2.995  -1.351 -12.979  0.00  0.00     0.021 A 
ATOM      3  C   LIG d   1       2.378  -2.247 -13.860  0.00  0.00    -0.047 A 
ATOM      4  C   LIG d   1       3.032  -2.640 -14.992  0.00  0.00    -0.019 A 
ATOM      5  C   LIG d   1       4.307  -2.156 -15.277  0.00  0.00     0.127 A 
ATOM      6  C   LIG d   1       4.930  -1.268 -14.416  0.00  0.00     0.034 A 
ATOM      7  C   LIG d   1       4.282  -0.858 -13.261  0.00  0.00     0.146 A 
ATOM      8  O   LIG d   1       4.873   0.006 -12.408  0.00  0.00    -0.422 OA
ATOM      9  C   LIG d   1       4.260   0.412 -11.285  0.00  0.00     0.341 A 
ATOM     10  O   LIG d   1       4.831   1.193 -10.546  0.00  0.00    -0.245 OA
ATOM     11  C   LIG d   1       2.970  -0.041 -10.941  0.00  0.00     0.041 A 
ATOM     12  H   LIG d   1       1.391  -2.626 -13.645  0.00  0.00     0.063 H 
ATOM     13  H   LIG d   1       2.556  -3.332 -15.673  0.00  0.00     0.065 H 
ENDROOT
BRANCH  11  14
ATOM     14  C   LIG d   1       2.314   0.438  -9.672  0.00  0.00    -0.012 C 
ATOM     15  H   LIG d   1       1.235   0.305  -9.748  0.00  0.00     0.032 H 
ATOM     16  H   LIG d   1       2.541   1.493  -9.521  0.00  0.00     0.032 H 
BRANCH  14  17
ATOM     17  C   LIG d   1       2.847  -0.371  -8.487  0.00  0.00     0.028 C 
ATOM     18  H   LIG d   1       3.871  -0.681  -8.688  0.00  0.00     0.036 H 
ATOM     19  H   LIG d   1       2.222  -1.253  -8.340  0.00  0.00     0.036 H 
BRANCH  17  20
ATOM     20  C   LIG d   1       2.814   0.479  -7.243  0.00  0.00     0.214 C 
ATOM     21  O   LIG d   1       3.064   1.664  -7.311  0.00  0.00    -0.276 OA
ATOM     22  N   LIG d   1       2.507  -0.077  -6.054  0.00  0.00    -0.310 N 
ATOM     23  H   LIG d   1       2.303  -1.024  -5.999  0.00  0.00     0.149 HD
BRANCH  22  24
ATOM     24  C   LIG d   1       2.475   0.750  -4.845  0.00  0.00     0.054 C 
ATOM     25  H   LIG d   1       2.963   1.704  -5.044  0.00  0.00     0.053 H 
ATOM     26  H   LIG d   1       1.441   0.925  -4.551  0.00  0.00     0.053 H 
BRANCH  24  27
ATOM     27  C   LIG d   1       3.200   0.039  -3.732  0.00  0.00     0.058 A 
ATOM     28  N   LIG d   1       3.241  -1.279  -3.718  0.00  0.00    -0.258 NA
ATOM     29  C   LIG d   1       3.868  -1.944  -2.766  0.00  0.00     0.028 A 
ATOM     30  C   LIG d   1       4.500  -1.276  -1.736  0.00  0.00    -0.044 A 
ATOM     31  H   LIG d   1       3.884  -3.024  -2.791  0.00  0.00     0.083 H 
ATOM     32  C   LIG d   1       4.474   0.110  -1.713  0.00  0.00    -0.059 A 
ATOM     33  H   LIG d   1       5.008  -1.825  -0.956  0.00  0.00     0.063 H 
ATOM     34  C   LIG d   1       3.809   0.775  -2.733  0.00  0.00    -0.039 A 
ATOM     35  H   LIG d   1       4.959   0.660  -0.920  0.00  0.00     0.062 H 
ATOM     36  H   LIG d   1       3.769   1.854  -2.747  0.00  0.00     0.064 H 
ENDBRANCH  24  27
ENDBRANCH  22  24
ENDBRANCH  17  20
ENDBRANCH  14  17
ENDBRANCH  11  14
BRANCH   1  37
ATOM     37  C   LIG d   1       0.946  -1.422 -11.405  0.00  0.00    -0.039 C 
ATOM     38  H   LIG d   1       0.983  -2.501 -11.254  0.00  0.00     0.028 H 
ATOM     39  H   LIG d   1       0.602  -0.940 -10.490  0.00  0.00     0.028 H 
ATOM     40  H   LIG d   1       0.257  -1.193 -12.218  0.00  0.00     0.028 H 
ENDBRANCH   1  37
BRANCH   6  41
ATOM     41  C   LIG d   1       6.310  -0.750 -14.734  0.00  0.00    -0.033 C 
ATOM     42  H   LIG d   1       6.387  -0.554 -15.803  0.00  0.00     0.028 H 
ATOM     43  H   LIG d   1       6.487   0.172 -14.181  0.00  0.00     0.028 H 
ATOM     44  H   LIG d   1       7.052  -1.494 -14.446  0.00  0.00     0.028 H 
ENDBRANCH   6  41
BRANCH   5  45
ATOM     45  O   LIG d   1       4.942  -2.557 -16.408  0.00  0.00    -0.495 OA
BRANCH  45  46
ATOM     46  C   LIG d   1       5.318  -3.933 -16.488  0.00  0.00     0.079 C 
ATOM     47  H   LIG d   1       5.765  -4.132 -17.462  0.00  0.00     0.066 H 
ATOM     48  H   LIG d   1       6.040  -4.159 -15.704  0.00  0.00     0.066 H 
ATOM     49  H   LIG d   1       4.434  -4.559 -16.359  0.00  0.00     0.066 H 
ENDBRANCH  45  46
ENDBRANCH   5  45
TORSDOF 9
ENDMDL
MODEL 5
REMARK VINA RESULT:      -6.6      6.802      9.574
REMARK  9 active torsions:
REMARK  status: ('A' for Active; 'I' for Inactive)
REMARK    1  A    between atoms: C_1  and  C_2 
REMARK    2  A    between atoms: C_6  and  O_26 
REMARK    3  A    between atoms: C_7  and  C_25 
REMARK    4  A    between atoms: C_12  and  C_13 
REMARK    5  A    between atoms: C_13  and  C_14 
REMARK    6  A    between atoms: C_14  and  C_15 
REMARK       I    between atoms: C_15  and  N_17 
REMARK    7  A    between atoms: N_17  and  C_18 
REMARK    8  A    between atoms: C_18  and  C_19 
REMARK    9  A    between atoms: O_26  and  C_27 
ROOT
ATOM      1  C   LIG d   1       5.257  -2.661  -7.205  0.00  0.00    -0.030 A 
ATOM      2  C   LIG d   1       5.211  -1.894  -5.958  0.00  0.00     0.021 A 
ATOM      3  C   LIG d   1       5.742  -0.601  -5.887  0.00  0.00    -0.047 A 
ATOM      4  C   LIG d   1       5.691   0.088  -4.710  0.00  0.00    -0.019 A 
ATOM      5  C   LIG d   1       5.112  -0.486  -3.580  0.00  0.00     0.127 A 
ATOM      6  C   LIG d   1       4.581  -1.763  -3.633  0.00  0.00     0.034 A 
ATOM      7  C   LIG d   1       4.625  -2.479  -4.821  0.00  0.00     0.146 A 
ATOM      8  O   LIG d   1       4.113  -3.726  -4.894  0.00  0.00    -0.422 OA
ATOM      9  C   LIG d   1       4.148  -4.432  -6.035  0.00  0.00     0.341 A 
ATOM     10  O   LIG d   1       3.674  -5.554  -6.054  0.00  0.00    -0.245 OA
ATOM     11  C   LIG d   1       4.719  -3.908  -7.212  0.00  0.00     0.041 A 
ATOM     12  H   LIG d   1       6.192  -0.151  -6.759  0.00  0.00     0.063 H 
ATOM     13  H   LIG d   1       6.102   1.086  -4.655  0.00  0.00     0.065 H 
ENDROOT
BRANCH  11  14
ATOM     14  C   LIG d   1       4.740  -4.732  -8.474  0.00  0.00    -0.012 C 
ATOM     15  H   LIG d   1       5.132  -5.725  -8.253  0.00  0.00     0.032 H 
ATOM     16  H   LIG d   1       5.374  -4.247  -9.215  0.00  0.00     0.032 H 
BRANCH  14  17
ATOM     17  C   LIG d   1       3.317  -4.856  -9.024  0.00  0.00     0.028 C 
ATOM     18  H   LIG d   1       2.608  -4.878  -8.198  0.00  0.00     0.036 H 
ATOM     19  H   LIG d   1       3.231  -5.777  -9.602  0.00  0.00     0.036 H 
BRANCH  17  20
ATOM     20  C   LIG d   1       3.018  -3.676  -9.913  0.00  0.00     0.214 C 
ATOM     21  O   LIG d   1       3.605  -3.546 -10.966  0.00  0.00    -0.276 OA
ATOM     22  N   LIG d   1       2.100  -2.765  -9.537  0.00  0.00    -0.310 N 
ATOM     23  H   LIG d   1       1.627  -2.870  -8.696  0.00  0.00     0.149 HD
BRANCH  22  24
ATOM     24  C   LIG d   1       1.810  -1.617 -10.400  0.00  0.00     0.054 C 
ATOM     25  H   LIG d   1       2.177  -1.818 -11.406  0.00  0.00     0.053 H 
ATOM     26  H   LIG d   1       0.733  -1.449 -10.432  0.00  0.00     0.053 H 
BRANCH  24  27
ATOM     27  C   LIG d   1       2.492  -0.391  -9.852  0.00  0.00     0.058 A 
ATOM     28  N   LIG d   1       3.112   0.432 -10.675  0.00  0.00    -0.258 NA
ATOM     29  C   LIG d   1       3.719   1.520 -10.241  0.00  0.00     0.028 A 
ATOM     30  C   LIG d   1       3.735   1.832  -8.896  0.00  0.00    -0.044 A 
ATOM     31  H   LIG d   1       4.214   2.173 -10.946  0.00  0.00     0.083 H 
ATOM     32  C   LIG d   1       3.098   0.988  -7.999  0.00  0.00    -0.059 A 
ATOM     33  H   LIG d   1       4.238   2.722  -8.545  0.00  0.00     0.063 H 
ATOM     34  C   LIG d   1       2.467  -0.144  -8.493  0.00  0.00    -0.039 A 
ATOM     35  H   LIG d   1       3.094   1.205  -6.941  0.00  0.00     0.062 H 
ATOM     36  H   LIG d   1       1.961  -0.824  -7.823  0.00  0.00     0.064 H 
ENDBRANCH  24  27
ENDBRANCH  22  24
ENDBRANCH  17  20
ENDBRANCH  14  17
ENDBRANCH  11  14
BRANCH   1  37
ATOM     37  C   LIG d   1       5.880  -2.079  -8.448  0.00  0.00    -0.039 C 
ATOM     38  H   LIG d   1       6.924  -2.389  -8.509  0.00  0.00     0.028 H 
ATOM     39  H   LIG d   1       5.344  -2.438  -9.327  0.00  0.00     0.028 H 
ATOM     40  H   LIG d   1       5.827  -0.992  -8.408  0.00  0.00     0.028 H 
ENDBRANCH   1  37
BRANCH   6  41
ATOM     41  C   LIG d   1       3.957  -2.375  -2.404  0.00  0.00    -0.033 C 
ATOM     42  H   LIG d   1       2.912  -2.611  -2.607  0.00  0.00     0.028 H 
ATOM     43  H   LIG d   1       4.492  -3.287  -2.141  0.00  0.00     0.028 H 
ATOM     44  H   LIG d   1       4.017  -1.667  -1.578  0.00  0.00     0.028 H 
ENDBRANCH   6  41
BRANCH   5  45
ATOM     45  O   LIG d   1       5.068   0.214  -2.417  0.00  0.00    -0.495 OA
BRANCH  45  46
ATOM     46  C   LIG d   1       4.100   1.261  -2.326  0.00  0.00     0.079 C 
ATOM     47  H   LIG d   1       4.540   2.119  -1.817  0.00  0.00     0.066 H 
ATOM     48  H   LIG d   1       3.786   1.554  -3.328  0.00  0.00     0.066 H 
ATOM     49  H   LIG d   1       3.236   0.908  -1.763  0.00  0.00     0.066 H 
ENDBRANCH  45  46
ENDBRANCH   5  45
TORSDOF 9
ENDMDL
MODEL 6
REMARK VINA RESULT:      -6.5      1.239      1.650
REMARK  9 active torsions:
REMARK  status: ('A' for Active; 'I' for Inactive)
REMARK    1  A    between atoms: C_1  and  C_2 
REMARK    2  A    between atoms: C_6  and  O_26 
REMARK    3  A    between atoms: C_7  and  C_25 
REMARK    4  A    between atoms: C_12  and  C_13 
REMARK    5  A    between atoms: C_13  and  C_14 
REMARK    6  A    between atoms: C_14  and  C_15 
REMARK       I    between atoms: C_15  and  N_17 
REMARK    7  A    between atoms: N_17  and  C_18 
REMARK    8  A    between atoms: C_18  and  C_19 
REMARK    9  A    between atoms: O_26  and  C_27 
ROOT
ATOM      1  C   LIG d   1       9.849   4.918  -5.524  0.00  0.00    -0.030 A 
ATOM      2  C   LIG d   1       9.923   6.087  -4.644  0.00  0.00     0.021 A 
ATOM      3  C   LIG d   1       9.950   7.384  -5.169  0.00  0.00    -0.047 A 
ATOM      4  C   LIG d   1      10.025   8.454  -4.326  0.00  0.00    -0.019 A 
ATOM      5  C   LIG d   1      10.073   8.265  -2.946  0.00  0.00     0.127 A 
ATOM      6  C   LIG d   1      10.047   6.988  -2.410  0.00  0.00     0.034 A 
ATOM      7  C   LIG d   1       9.972   5.889  -3.252  0.00  0.00     0.146 A 
ATOM      8  O   LIG d   1       9.945   4.636  -2.749  0.00  0.00    -0.422 OA
ATOM      9  C   LIG d   1       9.873   3.561  -3.550  0.00  0.00     0.341 A 
ATOM     10  O   LIG d   1       9.851   2.450  -3.052  0.00  0.00    -0.245 OA
ATOM     11  C   LIG d   1       9.820   3.686  -4.953  0.00  0.00     0.041 A 
ATOM     12  H   LIG d   1       9.913   7.537  -6.237  0.00  0.00     0.063 H 
ATOM     13  H   LIG d   1      10.046   9.456  -4.731  0.00  0.00     0.065 H 
ENDROOT
BRANCH  11  14
ATOM     14  C   LIG d   1       9.740   2.455  -5.819  0.00  0.00    -0.012 C 
ATOM     15  H   LIG d   1      10.255   1.630  -5.325  0.00  0.00     0.032 H 
ATOM     16  H   LIG d   1      10.212   2.655  -6.780  0.00  0.00     0.032 H 
BRANCH  14  17
ATOM     17  C   LIG d   1       8.272   2.082  -6.039  0.00  0.00     0.028 C 
ATOM     18  H   LIG d   1       8.094   1.914  -7.100  0.00  0.00     0.036 H 
ATOM     19  H   LIG d   1       7.635   2.894  -5.687  0.00  0.00     0.036 H 
BRANCH  17  20
ATOM     20  C   LIG d   1       7.953   0.825  -5.271  0.00  0.00     0.214 C 
ATOM     21  O   LIG d   1       8.325  -0.252  -5.688  0.00  0.00    -0.276 OA
ATOM     22  N   LIG d   1       7.254   0.897  -4.122  0.00  0.00    -0.310 N 
ATOM     23  H   LIG d   1       6.958   1.758  -3.786  0.00  0.00     0.149 HD
BRANCH  22  24
ATOM     24  C   LIG d   1       6.943  -0.325  -3.375  0.00  0.00     0.054 C 
ATOM     25  H   LIG d   1       7.366  -1.185  -3.894  0.00  0.00     0.053 H 
ATOM     26  H   LIG d   1       7.369  -0.258  -2.374  0.00  0.00     0.053 H 
BRANCH  24  27
ATOM     27  C   LIG d   1       5.448  -0.486  -3.274  0.00  0.00     0.058 A 
ATOM     28  N   LIG d   1       4.657   0.424  -3.807  0.00  0.00    -0.258 NA
ATOM     29  C   LIG d   1       3.343   0.323  -3.748  0.00  0.00     0.028 A 
ATOM     30  C   LIG d   1       2.745  -0.746  -3.110  0.00  0.00    -0.044 A 
ATOM     31  H   LIG d   1       2.728   1.087  -4.200  0.00  0.00     0.083 H 
ATOM     32  C   LIG d   1       3.544  -1.722  -2.533  0.00  0.00    -0.059 A 
ATOM     33  H   LIG d   1       1.669  -0.822  -3.060  0.00  0.00     0.063 H 
ATOM     34  C   LIG d   1       4.921  -1.583  -2.619  0.00  0.00    -0.039 A 
ATOM     35  H   LIG d   1       3.105  -2.569  -2.027  0.00  0.00     0.062 H 
ATOM     36  H   LIG d   1       5.574  -2.324  -2.181  0.00  0.00     0.064 H 
ENDBRANCH  24  27
ENDBRANCH  22  24
ENDBRANCH  17  20
ENDBRANCH  14  17
ENDBRANCH  11  14
BRANCH   1  37
ATOM     37  C   LIG d   1       9.802   5.079  -7.021  0.00  0.00    -0.039 C 
ATOM     38  H   LIG d   1      10.818   5.100  -7.416  0.00  0.00     0.028 H 
ATOM     39  H   LIG d   1       9.259   4.242  -7.461  0.00  0.00     0.028 H 
ATOM     40  H   LIG d   1       9.297   6.012  -7.271  0.00  0.00     0.028 H 
ENDBRANCH   1  37
BRANCH   6  41
ATOM     41  C   LIG d   1      10.100   6.795  -0.915  0.00  0.00    -0.033 C 
ATOM     42  H   LIG d   1       9.644   5.840  -0.656  0.00  0.00     0.028 H 
ATOM     43  H   LIG d   1      11.138   6.805  -0.585  0.00  0.00     0.028 H 
ATOM     44  H   LIG d   1       9.555   7.602  -0.426  0.00  0.00     0.028 H 
ENDBRANCH   6  41
BRANCH   5  45
ATOM     45  O   LIG d   1      10.147   9.341  -2.121  0.00  0.00    -0.495 OA
BRANCH  45  46
ATOM     46  C   LIG d   1       9.570  10.560  -2.592  0.00  0.00     0.079 C 
ATOM     47  H   LIG d   1       9.764  10.665  -3.660  0.00  0.00     0.066 H 
ATOM     48  H   LIG d   1       8.495  10.545  -2.417  0.00  0.00     0.066 H 
ATOM     49  H   LIG d   1      10.013  11.402  -2.058  0.00  0.00     0.066 H 
ENDBRANCH  45  46
ENDBRANCH   5  45
TORSDOF 9
ENDMDL
MODEL 7
REMARK VINA RESULT:      -6.4      5.320      9.656
REMARK  9 active torsions:
REMARK  status: ('A' for Active; 'I' for Inactive)
REMARK    1  A    between atoms: C_1  and  C_2 
REMARK    2  A    between atoms: C_6  and  O_26 
REMARK    3  A    between atoms: C_7  and  C_25 
REMARK    4  A    between atoms: C_12  and  C_13 
REMARK    5  A    between atoms: C_13  and  C_14 
REMARK    6  A    between atoms: C_14  and  C_15 
REMARK       I    between atoms: C_15  and  N_17 
REMARK    7  A    between atoms: N_17  and  C_18 
REMARK    8  A    between atoms: C_18  and  C_19 
REMARK    9  A    between atoms: O_26  and  C_27 
ROOT
ATOM      1  C   LIG d   1       4.166  -1.388  -5.525  0.00  0.00    -0.030 A 
ATOM      2  C   LIG d   1       3.992  -1.043  -6.937  0.00  0.00     0.021 A 
ATOM      3  C   LIG d   1       4.400  -1.920  -7.949  0.00  0.00    -0.047 A 
ATOM      4  C   LIG d   1       4.231  -1.570  -9.257  0.00  0.00    -0.019 A 
ATOM      5  C   LIG d   1       3.653  -0.347  -9.593  0.00  0.00     0.127 A 
ATOM      6  C   LIG d   1       3.242   0.532  -8.604  0.00  0.00     0.034 A 
ATOM      7  C   LIG d   1       3.407   0.193  -7.270  0.00  0.00     0.146 A 
ATOM      8  O   LIG d   1       3.014   1.036  -6.291  0.00  0.00    -0.422 OA
ATOM      9  C   LIG d   1       3.167   0.724  -4.994  0.00  0.00     0.341 A 
ATOM     10  O   LIG d   1       2.796   1.515  -4.146  0.00  0.00    -0.245 OA
ATOM     11  C   LIG d   1       3.744  -0.497  -4.590  0.00  0.00     0.041 A 
ATOM     12  H   LIG d   1       4.849  -2.868  -7.696  0.00  0.00     0.063 H 
ATOM     13  H   LIG d   1       4.547  -2.246 -10.039  0.00  0.00     0.065 H 
ENDROOT
BRANCH  11  14
ATOM     14  C   LIG d   1       3.898  -0.811  -3.124  0.00  0.00    -0.012 C 
ATOM     15  H   LIG d   1       4.362  -1.791  -3.010  0.00  0.00     0.032 H 
ATOM     16  H   LIG d   1       2.919  -0.815  -2.648  0.00  0.00     0.032 H 
BRANCH  14  17
ATOM     17  C   LIG d   1       4.781   0.252  -2.466  0.00  0.00     0.028 C 
ATOM     18  H   LIG d   1       4.822   0.076  -1.392  0.00  0.00     0.036 H 
ATOM     19  H   LIG d   1       4.362   1.240  -2.658  0.00  0.00     0.036 H 
BRANCH  17  20
ATOM     20  C   LIG d   1       6.172   0.176  -3.042  0.00  0.00     0.214 C 
ATOM     21  O   LIG d   1       6.807  -0.854  -2.959  0.00  0.00    -0.276 OA
ATOM     22  N   LIG d   1       6.710   1.253  -3.647  0.00  0.00    -0.310 N 
ATOM     23  H   LIG d   1       6.201   2.076  -3.716  0.00  0.00     0.149 HD
BRANCH  22  24
ATOM     24  C   LIG d   1       8.062   1.179  -4.206  0.00  0.00     0.054 C 
ATOM     25  H   LIG d   1       8.680   1.961  -3.765  0.00  0.00     0.053 H 
ATOM     26  H   LIG d   1       8.495   0.204  -3.984  0.00  0.00     0.053 H 
BRANCH  24  27
ATOM     27  C   LIG d   1       8.000   1.372  -5.699  0.00  0.00     0.058 A 
ATOM     28  N   LIG d   1       8.733   2.309  -6.267  0.00  0.00    -0.258 NA
ATOM     29  C   LIG d   1       8.714   2.510  -7.570  0.00  0.00     0.028 A 
ATOM     30  C   LIG d   1       7.910   1.745  -8.392  0.00  0.00    -0.044 A 
ATOM     31  H   LIG d   1       9.333   3.285  -8.000  0.00  0.00     0.083 H 
ATOM     32  C   LIG d   1       7.121   0.753  -7.831  0.00  0.00    -0.059 A 
ATOM     33  H   LIG d   1       7.895   1.917  -9.459  0.00  0.00     0.063 H 
ATOM     34  C   LIG d   1       7.170   0.568  -6.458  0.00  0.00    -0.039 A 
ATOM     35  H   LIG d   1       6.481   0.139  -8.449  0.00  0.00     0.062 H 
ATOM     36  H   LIG d   1       6.569  -0.196  -5.987  0.00  0.00     0.064 H 
ENDBRANCH  24  27
ENDBRANCH  22  24
ENDBRANCH  17  20
ENDBRANCH  14  17
ENDBRANCH  11  14
BRANCH   1  37
ATOM     37  C   LIG d   1       4.793  -2.697  -5.120  0.00  0.00    -0.039 C 
ATOM     38  H   LIG d   1       5.371  -2.555  -4.206  0.00  0.00     0.028 H 
ATOM     39  H   LIG d   1       4.012  -3.436  -4.943  0.00  0.00     0.028 H 
ATOM     40  H   LIG d   1       5.452  -3.046  -5.915  0.00  0.00     0.028 H 
ENDBRANCH   1  37
BRANCH   6  41
ATOM     41  C   LIG d   1       2.618   1.852  -8.979  0.00  0.00    -0.033 C 
ATOM     42  H   LIG d   1       1.768   1.678  -9.638  0.00  0.00     0.028 H 
ATOM     43  H   LIG d   1       2.280   2.362  -8.076  0.00  0.00     0.028 H 
ATOM     44  H   LIG d   1       3.356   2.470  -9.490  0.00  0.00     0.028 H 
ENDBRANCH   6  41
BRANCH   5  45
ATOM     45  O   LIG d   1       3.491  -0.014 -10.900  0.00  0.00    -0.495 OA
BRANCH  45  46
ATOM     46  C   LIG d   1       2.573  -0.802 -11.660  0.00  0.00     0.079 C 
ATOM     47  H   LIG d   1       1.583  -0.742 -11.209  0.00  0.00     0.066 H 
ATOM     48  H   LIG d   1       2.531  -0.425 -12.682  0.00  0.00     0.066 H 
ATOM     49  H   LIG d   1       2.906  -1.840 -11.669  0.00  0.00     0.066 H 
ENDBRANCH  45  46
ENDBRANCH   5  45
TORSDOF 9
ENDMDL
MODEL 8
REMARK VINA RESULT:      -6.3      1.839      2.661
REMARK  9 active torsions:
REMARK  status: ('A' for Active; 'I' for Inactive)
REMARK    1  A    between atoms: C_1  and  C_2 
REMARK    2  A    between atoms: C_6  and  O_26 
REMARK    3  A    between atoms: C_7  and  C_25 
REMARK    4  A    between atoms: C_12  and  C_13 
REMARK    5  A    between atoms: C_13  and  C_14 
REMARK    6  A    between atoms: C_14  and  C_15 
REMARK       I    between atoms: C_15  and  N_17 
REMARK    7  A    between atoms: N_17  and  C_18 
REMARK    8  A    between atoms: C_18  and  C_19 
REMARK    9  A    between atoms: O_26  and  C_27 
ROOT
ATOM      1  C   LIG d   1      10.308   5.815  -2.887  0.00  0.00    -0.030 A 
ATOM      2  C   LIG d   1      10.230   7.172  -2.341  0.00  0.00     0.021 A 
ATOM      3  C   LIG d   1      10.323   7.400  -0.963  0.00  0.00    -0.047 A 
ATOM      4  C   LIG d   1      10.241   8.674  -0.480  0.00  0.00    -0.019 A 
ATOM      5  C   LIG d   1      10.068   9.749  -1.349  0.00  0.00     0.127 A 
ATOM      6  C   LIG d   1       9.976   9.541  -2.716  0.00  0.00     0.034 A 
ATOM      7  C   LIG d   1      10.056   8.253  -3.224  0.00  0.00     0.146 A 
ATOM      8  O   LIG d   1       9.968   8.029  -4.552  0.00  0.00    -0.422 OA
ATOM      9  C   LIG d   1      10.043   6.789  -5.060  0.00  0.00     0.341 A 
ATOM     10  O   LIG d   1       9.959   6.635  -6.265  0.00  0.00    -0.245 OA
ATOM     11  C   LIG d   1      10.218   5.660  -4.234  0.00  0.00     0.041 A 
ATOM     12  H   LIG d   1      10.456   6.571  -0.284  0.00  0.00     0.063 H 
ATOM     13  H   LIG d   1      10.312   8.850   0.584  0.00  0.00     0.065 H 
ENDROOT
BRANCH  11  14
ATOM     14  C   LIG d   1      10.297   4.283  -4.842  0.00  0.00    -0.012 C 
ATOM     15  H   LIG d   1      10.812   3.612  -4.154  0.00  0.00     0.032 H 
ATOM     16  H   LIG d   1      10.846   4.332  -5.782  0.00  0.00     0.032 H 
BRANCH  14  17
ATOM     17  C   LIG d   1       8.883   3.760  -5.104  0.00  0.00     0.028 C 
ATOM     18  H   LIG d   1       8.741   3.613  -6.174  0.00  0.00     0.036 H 
ATOM     19  H   LIG d   1       8.155   4.483  -4.736  0.00  0.00     0.036 H 
BRANCH  17  20
ATOM     20  C   LIG d   1       8.693   2.448  -4.387  0.00  0.00     0.214 C 
ATOM     21  O   LIG d   1       9.642   1.894  -3.872  0.00  0.00    -0.276 OA
ATOM     22  N   LIG d   1       7.469   1.888  -4.319  0.00  0.00    -0.310 N 
ATOM     23  H   LIG d   1       6.709   2.332  -4.728  0.00  0.00     0.149 HD
BRANCH  22  24
ATOM     24  C   LIG d   1       7.284   0.612  -3.623  0.00  0.00     0.054 C 
ATOM     25  H   LIG d   1       7.527  -0.208  -4.298  0.00  0.00     0.053 H 
ATOM     26  H   LIG d   1       7.939   0.574  -2.753  0.00  0.00     0.053 H 
BRANCH  24  27
ATOM     27  C   LIG d   1       5.850   0.486  -3.177  0.00  0.00     0.058 A 
ATOM     28  N   LIG d   1       5.068   1.548  -3.189  0.00  0.00    -0.258 NA
ATOM     29  C   LIG d   1       3.806   1.484  -2.812  0.00  0.00     0.028 A 
ATOM     30  C   LIG d   1       3.257   0.293  -2.378  0.00  0.00    -0.044 A 
ATOM     31  H   LIG d   1       3.195   2.375  -2.840  0.00  0.00     0.083 H 
ATOM     32  C   LIG d   1       4.049  -0.844  -2.347  0.00  0.00    -0.059 A 
ATOM     33  H   LIG d   1       2.224   0.248  -2.066  0.00  0.00     0.063 H 
ATOM     34  C   LIG d   1       5.371  -0.739  -2.755  0.00  0.00    -0.039 A 
ATOM     35  H   LIG d   1       3.648  -1.789  -2.012  0.00  0.00     0.062 H 
ATOM     36  H   LIG d   1       6.017  -1.605  -2.743  0.00  0.00     0.064 H 
ENDBRANCH  24  27
ENDBRANCH  22  24
ENDBRANCH  17  20
ENDBRANCH  14  17
ENDBRANCH  11  14
BRANCH   1  37
ATOM     37  C   LIG d   1      10.488   4.625  -1.981  0.00  0.00    -0.039 C 
ATOM     38  H   LIG d   1      11.344   4.792  -1.327  0.00  0.00     0.028 H 
ATOM     39  H   LIG d   1       9.591   4.490  -1.376  0.00  0.00     0.028 H 
ATOM     40  H   LIG d   1      10.659   3.732  -2.582  0.00  0.00     0.028 H 
ENDBRANCH   1  37
BRANCH   6  41
ATOM     41  C   LIG d   1       9.789  10.712  -3.648  0.00  0.00    -0.033 C 
ATOM     42  H   LIG d   1       9.823  11.639  -3.077  0.00  0.00     0.028 H 
ATOM     43  H   LIG d   1      10.585  10.713  -4.392  0.00  0.00     0.028 H 
ATOM     44  H   LIG d   1       8.824  10.626  -4.147  0.00  0.00     0.028 H 
ENDBRANCH   6  41
BRANCH   5  45
ATOM     45  O   LIG d   1       9.990  11.011  -0.853  0.00  0.00    -0.495 OA
BRANCH  45  46
ATOM     46  C   LIG d   1      10.412  11.203   0.498  0.00  0.00     0.079 C 
ATOM     47  H   LIG d   1      10.531  10.234   0.983  0.00  0.00     0.066 H 
ATOM     48  H   LIG d   1      11.363  11.735   0.510  0.00  0.00     0.066 H 
ATOM     49  H   LIG d   1       9.662  11.787   1.033  0.00  0.00     0.066 H 
ENDBRANCH  45  46
ENDBRANCH   5  45
TORSDOF 9
ENDMDL
MODEL 9
REMARK VINA RESULT:      -6.3      8.174     12.971
REMARK  9 active torsions:
REMARK  status: ('A' for Active; 'I' for Inactive)
REMARK    1  A    between atoms: C_1  and  C_2 
REMARK    2  A    between atoms: C_6  and  O_26 
REMARK    3  A    between atoms: C_7  and  C_25 
REMARK    4  A    between atoms: C_12  and  C_13 
REMARK    5  A    between atoms: C_13  and  C_14 
REMARK    6  A    between atoms: C_14  and  C_15 
REMARK       I    between atoms: C_15  and  N_17 
REMARK    7  A    between atoms: N_17  and  C_18 
REMARK    8  A    between atoms: C_18  and  C_19 
REMARK    9  A    between atoms: O_26  and  C_27 
ROOT
ATOM      1  C   LIG d   1       7.248  -8.039  -4.408  0.00  0.00    -0.030 A 
ATOM      2  C   LIG d   1       7.637  -8.896  -3.286  0.00  0.00     0.021 A 
ATOM      3  C   LIG d   1       8.885  -8.752  -2.669  0.00  0.00    -0.047 A 
ATOM      4  C   LIG d   1       9.225  -9.568  -1.630  0.00  0.00    -0.019 A 
ATOM      5  C   LIG d   1       8.338 -10.543  -1.178  0.00  0.00     0.127 A 
ATOM      6  C   LIG d   1       7.098 -10.698  -1.776  0.00  0.00     0.034 A 
ATOM      7  C   LIG d   1       6.737  -9.878  -2.835  0.00  0.00     0.146 A 
ATOM      8  O   LIG d   1       5.534 -10.013  -3.432  0.00  0.00    -0.422 OA
ATOM      9  C   LIG d   1       5.169  -9.228  -4.458  0.00  0.00     0.341 A 
ATOM     10  O   LIG d   1       4.073  -9.386  -4.966  0.00  0.00    -0.245 OA
ATOM     11  C   LIG d   1       6.021  -8.224  -4.961  0.00  0.00     0.041 A 
ATOM     12  H   LIG d   1       9.577  -7.999  -3.015  0.00  0.00     0.063 H 
ATOM     13  H   LIG d   1      10.189  -9.458  -1.153  0.00  0.00     0.065 H 
ENDROOT
BRANCH  11  14
ATOM     14  C   LIG d   1       5.575  -7.362  -6.115  0.00  0.00    -0.012 C 
ATOM     15  H   LIG d   1       5.161  -7.994  -6.901  0.00  0.00     0.032 H 
ATOM     16  H   LIG d   1       6.428  -6.808  -6.505  0.00  0.00     0.032 H 
BRANCH  14  17
ATOM     17  C   LIG d   1       4.506  -6.379  -5.632  0.00  0.00     0.028 C 
ATOM     18  H   LIG d   1       4.335  -6.522  -4.566  0.00  0.00     0.036 H 
ATOM     19  H   LIG d   1       3.578  -6.557  -6.176  0.00  0.00     0.036 H 
BRANCH  17  20
ATOM     20  C   LIG d   1       4.972  -4.968  -5.883  0.00  0.00     0.214 C 
ATOM     21  O   LIG d   1       5.964  -4.766  -6.551  0.00  0.00    -0.276 OA
ATOM     22  N   LIG d   1       4.287  -3.930  -5.364  0.00  0.00    -0.310 N 
ATOM     23  H   LIG d   1       3.491  -4.091  -4.832  0.00  0.00     0.149 HD
BRANCH  22  24
ATOM     24  C   LIG d   1       4.740  -2.558  -5.607  0.00  0.00     0.054 C 
ATOM     25  H   LIG d   1       5.824  -2.548  -5.716  0.00  0.00     0.053 H 
ATOM     26  H   LIG d   1       4.279  -2.180  -6.520  0.00  0.00     0.053 H 
BRANCH  24  27
ATOM     27  C   LIG d   1       4.343  -1.685  -4.446  0.00  0.00     0.058 A 
ATOM     28  N   LIG d   1       3.763  -0.523  -4.672  0.00  0.00    -0.258 NA
ATOM     29  C   LIG d   1       3.394   0.273  -3.686  0.00  0.00     0.028 A 
ATOM     30  C   LIG d   1       3.615  -0.084  -2.370  0.00  0.00    -0.044 A 
ATOM     31  H   LIG d   1       2.918   1.216  -3.912  0.00  0.00     0.083 H 
ATOM     32  C   LIG d   1       4.227  -1.296  -2.092  0.00  0.00    -0.059 A 
ATOM     33  H   LIG d   1       3.315   0.574  -1.567  0.00  0.00     0.063 H 
ATOM     34  C   LIG d   1       4.597  -2.108  -3.155  0.00  0.00    -0.039 A 
ATOM     35  H   LIG d   1       4.413  -1.602  -1.073  0.00  0.00     0.062 H 
ATOM     36  H   LIG d   1       5.075  -3.059  -2.975  0.00  0.00     0.064 H 
ENDBRANCH  24  27
ENDBRANCH  22  24
ENDBRANCH  17  20
ENDBRANCH  14  17
ENDBRANCH  11  14
BRANCH   1  37
ATOM     37  C   LIG d   1       8.181  -6.978  -4.932  0.00  0.00    -0.039 C 
ATOM     38  H   LIG d   1       9.108  -6.995  -4.359  0.00  0.00     0.028 H 
ATOM     39  H   LIG d   1       8.400  -7.171  -5.982  0.00  0.00     0.028 H 
ATOM     40  H   LIG d   1       7.712  -5.999  -4.832  0.00  0.00     0.028 H 
ENDBRANCH   1  37
BRANCH   6  41
ATOM     41  C   LIG d   1       6.146 -11.756  -1.279  0.00  0.00    -0.033 C 
ATOM     42  H   LIG d   1       5.248 -11.280  -0.885  0.00  0.00     0.028 H 
ATOM     43  H   LIG d   1       5.876 -12.417  -2.103  0.00  0.00     0.028 H 
ATOM     44  H   LIG d   1       6.627 -12.335  -0.491  0.00  0.00     0.028 H 
ENDBRANCH   6  41
BRANCH   5  45
ATOM     45  O   LIG d   1       8.690 -11.347  -0.141  0.00  0.00    -0.495 OA
BRANCH  45  46
ATOM     46  C   LIG d   1       9.962 -11.104   0.464  0.00  0.00     0.079 C 
ATOM     47  H   LIG d   1      10.234 -11.953   1.091  0.00  0.00     0.066 H 
ATOM     48  H   LIG d   1      10.714 -10.969  -0.312  0.00  0.00     0.066 H 
ATOM     49  H   LIG d   1       9.906 -10.203   1.076  0.00  0.00     0.066 H 
ENDBRANCH  45  46
ENDBRANCH   5  45
TORSDOF 9
ENDMDL
MODEL 10
REMARK VINA RESULT:      -6.2      6.787     10.004
REMARK  9 active torsions:
REMARK  status: ('A' for Active; 'I' for Inactive)
REMARK    1  A    between atoms: C_1  and  C_2 
REMARK    2  A    between atoms: C_6  and  O_26 
REMARK    3  A    between atoms: C_7  and  C_25 
REMARK    4  A    between atoms: C_12  and  C_13 
REMARK    5  A    between atoms: C_13  and  C_14 
REMARK    6  A    between atoms: C_14  and  C_15 
REMARK       I    between atoms: C_15  and  N_17 
REMARK    7  A    between atoms: N_17  and  C_18 
REMARK    8  A    between atoms: C_18  and  C_19 
REMARK    9  A    between atoms: O_26  and  C_27 
ROOT
ATOM      1  C   LIG d   1       6.998  -3.327  -4.945  0.00  0.00    -0.030 A 
ATOM      2  C   LIG d   1       6.383  -2.240  -4.180  0.00  0.00     0.021 A 
ATOM      3  C   LIG d   1       7.113  -1.094  -3.843  0.00  0.00    -0.047 A 
ATOM      4  C   LIG d   1       6.517  -0.099  -3.124  0.00  0.00    -0.019 A 
ATOM      5  C   LIG d   1       5.187  -0.215  -2.724  0.00  0.00     0.127 A 
ATOM      6  C   LIG d   1       4.451  -1.342  -3.050  0.00  0.00     0.034 A 
ATOM      7  C   LIG d   1       5.041  -2.364  -3.779  0.00  0.00     0.146 A 
ATOM      8  O   LIG d   1       4.340  -3.471  -4.106  0.00  0.00    -0.422 OA
ATOM      9  C   LIG d   1       4.896  -4.469  -4.811  0.00  0.00     0.341 A 
ATOM     10  O   LIG d   1       4.226  -5.448  -5.084  0.00  0.00    -0.245 OA
ATOM     11  C   LIG d   1       6.236  -4.411  -5.245  0.00  0.00     0.041 A 
ATOM     12  H   LIG d   1       8.144  -0.998  -4.149  0.00  0.00     0.063 H 
ATOM     13  H   LIG d   1       7.080   0.786  -2.863  0.00  0.00     0.065 H 
ENDROOT
BRANCH  11  14
ATOM     14  C   LIG d   1       6.825  -5.552  -6.034  0.00  0.00    -0.012 C 
ATOM     15  H   LIG d   1       6.494  -6.498  -5.605  0.00  0.00     0.032 H 
ATOM     16  H   LIG d   1       7.912  -5.496  -5.999  0.00  0.00     0.032 H 
BRANCH  14  17
ATOM     17  C   LIG d   1       6.357  -5.460  -7.489  0.00  0.00     0.028 C 
ATOM     18  H   LIG d   1       7.215  -5.282  -8.136  0.00  0.00     0.036 H 
ATOM     19  H   LIG d   1       5.648  -4.638  -7.590  0.00  0.00     0.036 H 
BRANCH  17  20
ATOM     20  C   LIG d   1       5.688  -6.751  -7.884  0.00  0.00     0.214 C 
ATOM     21  O   LIG d   1       5.383  -6.948  -9.041  0.00  0.00    -0.276 OA
ATOM     22  N   LIG d   1       5.428  -7.688  -6.950  0.00  0.00    -0.310 N 
ATOM     23  H   LIG d   1       5.675  -7.533  -6.025  0.00  0.00     0.149 HD
BRANCH  22  24
ATOM     24  C   LIG d   1       4.777  -8.943  -7.333  0.00  0.00     0.054 C 
ATOM     25  H   LIG d   1       3.855  -8.725  -7.872  0.00  0.00     0.053 H 
ATOM     26  H   LIG d   1       5.445  -9.519  -7.974  0.00  0.00     0.053 H 
BRANCH  24  27
ATOM     27  C   LIG d   1       4.457  -9.741  -6.096  0.00  0.00     0.058 A 
ATOM     28  N   LIG d   1       4.354  -9.128  -4.933  0.00  0.00    -0.258 NA
ATOM     29  C   LIG d   1       4.072  -9.785  -3.825  0.00  0.00     0.028 A 
ATOM     30  C   LIG d   1       3.881 -11.153  -3.843  0.00  0.00    -0.044 A 
ATOM     31  H   LIG d   1       3.992  -9.248  -2.891  0.00  0.00     0.083 H 
ATOM     32  C   LIG d   1       3.986 -11.834  -5.047  0.00  0.00    -0.059 A 
ATOM     33  H   LIG d   1       3.654 -11.687  -2.932  0.00  0.00     0.063 H 
ATOM     34  C   LIG d   1       4.281 -11.109  -6.192  0.00  0.00    -0.039 A 
ATOM     35  H   LIG d   1       3.843 -12.904  -5.092  0.00  0.00     0.062 H 
ATOM     36  H   LIG d   1       4.370 -11.606  -7.146  0.00  0.00     0.064 H 
ENDBRANCH  24  27
ENDBRANCH  22  24
ENDBRANCH  17  20
ENDBRANCH  14  17
ENDBRANCH  11  14
BRANCH   1  37
ATOM     37  C   LIG d   1       8.435  -3.244  -5.390  0.00  0.00    -0.039 C 
ATOM     38  H   LIG d   1       8.482  -2.797  -6.383  0.00  0.00     0.028 H 
ATOM     39  H   LIG d   1       8.999  -2.629  -4.688  0.00  0.00     0.028 H 
ATOM     40  H   LIG d   1       8.865  -4.245  -5.423  0.00  0.00     0.028 H 
ENDBRANCH   1  37
BRANCH   6  41
ATOM     41  C   LIG d   1       3.012  -1.457  -2.613  0.00  0.00    -0.033 C 
ATOM     42  H   LIG d   1       2.950  -1.332  -1.532  0.00  0.00     0.028 H 
ATOM     43  H   LIG d   1       2.421  -0.685  -3.104  0.00  0.00     0.028 H 
ATOM     44  H   LIG d   1       2.628  -2.440  -2.888  0.00  0.00     0.028 H 
ENDBRANCH   6  41
BRANCH   5  45
ATOM     45  O   LIG d   1       4.608   0.785  -2.010  0.00  0.00    -0.495 OA
BRANCH  45  46
ATOM     46  C   LIG d   1       3.813   1.724  -2.736  0.00  0.00     0.079 C 
ATOM     47  H   LIG d   1       4.459   2.346  -3.356  0.00  0.00     0.066 H 
ATOM     48  H   LIG d   1       3.107   1.188  -3.371  0.00  0.00     0.066 H 
ATOM     49  H   LIG d   1       3.265   2.354  -2.035  0.00  0.00     0.066 H 
ENDBRANCH  45  46
ENDBRANCH   5  45
TORSDOF 9
ENDMDL
