MODEL 1
REMARK VINA RESULT:      -6.3      0.000      0.000
REMARK  12 active torsions:
REMARK  status: ('A' for Active; 'I' for Inactive)
REMARK    1  A    between atoms: C_1  and  C_2 
REMARK    2  A    between atoms: C_2  and  C_3 
REMARK    3  A    between atoms: C_3  and  CA_4 
REMARK    4  A    between atoms: CA_4  and  C_6 
REMARK    5  A    between atoms: CA_4  and  N_8 
REMARK       I    between atoms: N_8  and  C_9 
REMARK    6  A    between atoms: C_9  and  C_11 
REMARK    7  A    between atoms: C_11  and  C_12 
REMARK    8  A    between atoms: C_13  and  C_31 
REMARK    9  A    between atoms: C_15  and  O_29 
REMARK   10  A    between atoms: C_25  and  C_27 
REMARK   11  A    between atoms: C_25  and  C_28 
REMARK   12  A    between atoms: O_29  and  C_30 
ROOT
ATOM      1  C   LIG d   1       5.949  -5.937  -6.052  0.00  0.00     0.049 A 
ATOM      2  C   LIG d   1       6.998  -5.138  -5.724  0.00  0.00    -0.026 A 
ATOM      3  C   LIG d   1       6.755  -3.972  -4.955  0.00  0.00     0.063 A 
ATOM      4  C   LIG d   1       7.811  -3.119  -4.588  0.00  0.00     0.135 A 
ATOM      5  C   LIG d   1       7.545  -1.992  -3.841  0.00  0.00     0.023 A 
ATOM      6  C   LIG d   1       6.239  -1.691  -3.449  0.00  0.00     0.131 A 
ATOM      7  C   LIG d   1       5.194  -2.521  -3.809  0.00  0.00     0.038 A 
ATOM      8  C   LIG d   1       5.442  -3.666  -4.559  0.00  0.00     0.149 A 
ATOM      9  O   LIG d   1       4.423  -4.482  -4.909  0.00  0.00    -0.421 OA
ATOM     10  C   LIG d   1       4.647  -5.590  -5.637  0.00  0.00     0.341 A 
ATOM     11  O   LIG d   1       3.711  -6.307  -5.939  0.00  0.00    -0.245 OA
ATOM     12  C   LIG d   1       3.772  -2.216  -3.411  0.00  0.00    -0.017 C 
ATOM     13  C   LIG d   1       3.764  -1.206  -2.261  0.00  0.00    -0.009 C 
ATOM     14  C   LIG d   1       4.708  -0.053  -2.627  0.00  0.00     0.105 C 
ATOM     15  O   LIG d   1       6.037  -0.569  -2.709  0.00  0.00    -0.486 OA
ATOM     16  H   LIG d   1       8.355  -1.335  -3.555  0.00  0.00     0.069 H 
ATOM     17  H   LIG d   1       3.280  -3.133  -3.090  0.00  0.00     0.032 H 
ATOM     18  H   LIG d   1       3.239  -1.797  -4.265  0.00  0.00     0.032 H 
ATOM     19  H   LIG d   1       4.109  -1.687  -1.346  0.00  0.00     0.031 H 
ATOM     20  H   LIG d   1       2.754  -0.821  -2.116  0.00  0.00     0.031 H 
ENDROOT
BRANCH   1  21
ATOM     21  C   LIG d   1       6.174  -7.187  -6.863  0.00  0.00     0.056 C 
ATOM     22  H   LIG d   1       5.383  -7.285  -7.606  0.00  0.00     0.041 H 
ATOM     23  H   LIG d   1       7.139  -7.125  -7.365  0.00  0.00     0.041 H 
BRANCH  21  24
ATOM     24  C   LIG d   1       6.159  -8.387  -5.952  0.00  0.00     0.218 C 
ATOM     25  N   LIG d   1       5.019  -9.086  -5.777  0.00  0.00    -0.307 N 
ATOM     26  H   LIG d   1       4.210  -8.816  -6.239  0.00  0.00     0.149 HD
ATOM     27  O   LIG d   1       7.171  -8.724  -5.374  0.00  0.00    -0.275 OA
BRANCH  25  28
ATOM     28  CA  LIG d   1       5.003 -10.251  -4.892  0.00  0.00     0.063 C 
ATOM     29  HA  LIG d   1       6.008 -10.668  -4.821  0.00  0.00     0.056 H 
BRANCH  28  30
ATOM     30  C   LIG d   1       4.528  -9.829  -3.500  0.00  0.00    -0.029 C 
ATOM     31  H   LIG d   1       4.767  -8.778  -3.338  0.00  0.00     0.029 H 
ATOM     32  H   LIG d   1       3.450  -9.972  -3.424  0.00  0.00     0.029 H 
BRANCH  30  33
ATOM     33  C   LIG d   1       5.231 -10.681  -2.441  0.00  0.00    -0.054 C 
ATOM     34  H   LIG d   1       4.552 -10.855  -1.605  0.00  0.00     0.026 H 
ATOM     35  H   LIG d   1       5.521 -11.636  -2.876  0.00  0.00     0.026 H 
BRANCH  33  36
ATOM     36  C   LIG d   1       6.477  -9.947  -1.942  0.00  0.00    -0.065 C 
ATOM     37  H   LIG d   1       6.582 -10.099  -0.867  0.00  0.00     0.023 H 
ATOM     38  H   LIG d   1       7.358 -10.337  -2.451  0.00  0.00     0.023 H 
ATOM     39  H   LIG d   1       6.380  -8.881  -2.150  0.00  0.00     0.023 H 
ENDBRANCH  33  36
ENDBRANCH  30  33
ENDBRANCH  28  30
BRANCH  28  40
ATOM     40  C   LIG d   1       4.066 -11.292  -5.447  0.00  0.00     0.062 C 
ATOM     41  O   LIG d   1       4.376 -11.919  -6.433  0.00  0.00    -0.548 OA
ATOM     42  OXT LIG d   1       2.888 -11.525  -4.847  0.00  0.00    -0.548 OA
ENDBRANCH  28  40
ENDBRANCH  25  28
ENDBRANCH  21  24
ENDBRANCH   1  21
BRANCH   2  43
ATOM     43  C   LIG d   1       8.396  -5.491  -6.164  0.00  0.00    -0.038 C 
ATOM     44  H   LIG d   1       9.013  -4.592  -6.171  0.00  0.00     0.028 H 
ATOM     45  H   LIG d   1       8.822  -6.219  -5.474  0.00  0.00     0.028 H 
ATOM     46  H   LIG d   1       8.364  -5.917  -7.167  0.00  0.00     0.028 H 
ENDBRANCH   2  43
BRANCH   4  47
ATOM     47  O   LIG d   1       9.083  -3.404  -4.966  0.00  0.00    -0.494 OA
BRANCH  47  48
ATOM     48  C   LIG d   1       9.980  -2.301  -5.110  0.00  0.00     0.079 C 
ATOM     49  H   LIG d   1       9.428  -1.367  -5.010  0.00  0.00     0.066 H 
ATOM     50  H   LIG d   1      10.747  -2.355  -4.336  0.00  0.00     0.066 H 
ATOM     51  H   LIG d   1      10.452  -2.342  -6.092  0.00  0.00     0.066 H 
ENDBRANCH  47  48
ENDBRANCH   4  47
BRANCH  14  52
ATOM     52  C   LIG d   1       4.641   1.030  -1.549  0.00  0.00    -0.025 C 
ATOM     53  H   LIG d   1       5.645   1.234  -1.176  0.00  0.00     0.027 H 
ATOM     54  H   LIG d   1       4.219   1.941  -1.974  0.00  0.00     0.027 H 
ATOM     55  H   LIG d   1       4.012   0.687  -0.728  0.00  0.00     0.027 H 
ENDBRANCH  14  52
BRANCH  14  56
ATOM     56  C   LIG d   1       4.300   0.539  -3.979  0.00  0.00    -0.025 C 
ATOM     57  H   LIG d   1       4.916   1.412  -4.193  0.00  0.00     0.027 H 
ATOM     58  H   LIG d   1       4.444  -0.207  -4.760  0.00  0.00     0.027 H 
ATOM     59  H   LIG d   1       3.251   0.833  -3.945  0.00  0.00     0.027 H 
ENDBRANCH  14  56
TORSDOF 12
ENDMDL
MODEL 2
REMARK VINA RESULT:      -6.1      6.188      8.773
REMARK  12 active torsions:
REMARK  status: ('A' for Active; 'I' for Inactive)
REMARK    1  A    between atoms: C_1  and  C_2 
REMARK    2  A    between atoms: C_2  and  C_3 
REMARK    3  A    between atoms: C_3  and  CA_4 
REMARK    4  A    between atoms: CA_4  and  C_6 
REMARK    5  A    between atoms: CA_4  and  N_8 
REMARK       I    between atoms: N_8  and  C_9 
REMARK    6  A    between atoms: C_9  and  C_11 
REMARK    7  A    between atoms: C_11  and  C_12 
REMARK    8  A    between atoms: C_13  and  C_31 
REMARK    9  A    between atoms: C_15  and  O_29 
REMARK   10  A    between atoms: C_25  and  C_27 
REMARK   11  A    between atoms: C_25  and  C_28 
REMARK   12  A    between atoms: O_29  and  C_30 
ROOT
ATOM      1  C   LIG d   1       7.506   0.534  -5.618  0.00  0.00     0.049 A 
ATOM      2  C   LIG d   1       8.002   1.404  -6.536  0.00  0.00    -0.026 A 
ATOM      3  C   LIG d   1       8.783   2.499  -6.087  0.00  0.00     0.063 A 
ATOM      4  C   LIG d   1       9.322   3.422  -7.002  0.00  0.00     0.135 A 
ATOM      5  C   LIG d   1      10.078   4.477  -6.536  0.00  0.00     0.023 A 
ATOM      6  C   LIG d   1      10.309   4.636  -5.169  0.00  0.00     0.131 A 
ATOM      7  C   LIG d   1       9.781   3.737  -4.262  0.00  0.00     0.038 A 
ATOM      8  C   LIG d   1       9.019   2.663  -4.712  0.00  0.00     0.149 A 
ATOM      9  O   LIG d   1       8.504   1.779  -3.828  0.00  0.00    -0.421 OA
ATOM     10  C   LIG d   1       7.763   0.738  -4.248  0.00  0.00     0.341 A 
ATOM     11  O   LIG d   1       7.311  -0.043  -3.430  0.00  0.00    -0.245 OA
ATOM     12  C   LIG d   1      10.004   3.889  -2.779  0.00  0.00    -0.017 C 
ATOM     13  C   LIG d   1      11.187   4.828  -2.529  0.00  0.00    -0.009 C 
ATOM     14  C   LIG d   1      10.997   6.080  -3.396  0.00  0.00     0.105 C 
ATOM     15  O   LIG d   1      11.066   5.692  -4.768  0.00  0.00    -0.486 OA
ATOM     16  H   LIG d   1      10.494   5.186  -7.237  0.00  0.00     0.069 H 
ATOM     17  H   LIG d   1      10.218   2.914  -2.341  0.00  0.00     0.032 H 
ATOM     18  H   LIG d   1       9.107   4.305  -2.319  0.00  0.00     0.032 H 
ATOM     19  H   LIG d   1      12.116   4.329  -2.802  0.00  0.00     0.031 H 
ATOM     20  H   LIG d   1      11.216   5.111  -1.477  0.00  0.00     0.031 H 
ENDROOT
BRANCH   1  21
ATOM     21  C   LIG d   1       6.676  -0.643  -6.064  0.00  0.00     0.056 C 
ATOM     22  H   LIG d   1       6.871  -0.846  -7.117  0.00  0.00     0.041 H 
ATOM     23  H   LIG d   1       6.938  -1.517  -5.469  0.00  0.00     0.041 H 
BRANCH  21  24
ATOM     24  C   LIG d   1       5.215  -0.327  -5.875  0.00  0.00     0.218 C 
ATOM     25  N   LIG d   1       4.640  -0.494  -4.667  0.00  0.00    -0.307 N 
ATOM     26  H   LIG d   1       5.168  -0.816  -3.919  0.00  0.00     0.149 HD
ATOM     27  O   LIG d   1       4.555   0.076  -6.810  0.00  0.00    -0.275 OA
BRANCH  25  28
ATOM     28  CA  LIG d   1       3.220  -0.187  -4.483  0.00  0.00     0.063 C 
ATOM     29  HA  LIG d   1       2.665  -0.489  -5.371  0.00  0.00     0.056 H 
BRANCH  28  30
ATOM     30  C   LIG d   1       2.687  -0.946  -3.266  0.00  0.00    -0.029 C 
ATOM     31  H   LIG d   1       2.425  -0.237  -2.482  0.00  0.00     0.029 H 
ATOM     32  H   LIG d   1       1.803  -1.517  -3.551  0.00  0.00     0.029 H 
BRANCH  30  33
ATOM     33  C   LIG d   1       3.765  -1.902  -2.750  0.00  0.00    -0.054 C 
ATOM     34  H   LIG d   1       3.298  -2.825  -2.405  0.00  0.00     0.026 H 
ATOM     35  H   LIG d   1       4.465  -2.129  -3.553  0.00  0.00     0.026 H 
BRANCH  33  36
ATOM     36  C   LIG d   1       4.515  -1.245  -1.589  0.00  0.00    -0.065 C 
ATOM     37  H   LIG d   1       5.582  -1.449  -1.685  0.00  0.00     0.023 H 
ATOM     38  H   LIG d   1       4.348  -0.168  -1.611  0.00  0.00     0.023 H 
ATOM     39  H   LIG d   1       4.151  -1.650  -0.645  0.00  0.00     0.023 H 
ENDBRANCH  33  36
ENDBRANCH  30  33
ENDBRANCH  28  30
BRANCH  28  40
ATOM     40  C   LIG d   1       3.050   1.294  -4.264  0.00  0.00     0.062 C 
ATOM     41  O   LIG d   1       2.385   1.946  -5.033  0.00  0.00    -0.548 OA
ATOM     42  OXT LIG d   1       3.637   1.890  -3.213  0.00  0.00    -0.548 OA
ENDBRANCH  28  40
ENDBRANCH  25  28
ENDBRANCH  21  24
ENDBRANCH   1  21
BRANCH   2  43
ATOM     43  C   LIG d   1       7.732   1.205  -8.006  0.00  0.00    -0.038 C 
ATOM     44  H   LIG d   1       7.951   2.127  -8.544  0.00  0.00     0.028 H 
ATOM     45  H   LIG d   1       8.364   0.403  -8.386  0.00  0.00     0.028 H 
ATOM     46  H   LIG d   1       6.684   0.940  -8.149  0.00  0.00     0.028 H 
ENDBRANCH   2  43
BRANCH   4  47
ATOM     47  O   LIG d   1       9.100   3.274  -8.332  0.00  0.00    -0.494 OA
BRANCH  47  48
ATOM     48  C   LIG d   1       9.101   4.462  -9.126  0.00  0.00     0.079 C 
ATOM     49  H   LIG d   1       9.847   5.157  -8.741  0.00  0.00     0.066 H 
ATOM     50  H   LIG d   1       9.340   4.208 -10.159  0.00  0.00     0.066 H 
ATOM     51  H   LIG d   1       8.116   4.928  -9.086  0.00  0.00     0.066 H 
ENDBRANCH  47  48
ENDBRANCH   4  47
BRANCH  14  52
ATOM     52  C   LIG d   1      12.104   7.091  -3.091  0.00  0.00    -0.025 C 
ATOM     53  H   LIG d   1      12.767   6.684  -2.326  0.00  0.00     0.027 H 
ATOM     54  H   LIG d   1      12.675   7.291  -3.998  0.00  0.00     0.027 H 
ATOM     55  H   LIG d   1      11.660   8.018  -2.729  0.00  0.00     0.027 H 
ENDBRANCH  14  52
BRANCH  14  56
ATOM     56  C   LIG d   1       9.632   6.708  -3.105  0.00  0.00    -0.025 C 
ATOM     57  H   LIG d   1       9.626   7.740  -3.455  0.00  0.00     0.027 H 
ATOM     58  H   LIG d   1       8.856   6.145  -3.622  0.00  0.00     0.027 H 
ATOM     59  H   LIG d   1       9.443   6.686  -2.031  0.00  0.00     0.027 H 
ENDBRANCH  14  56
TORSDOF 12
ENDMDL
MODEL 3
REMARK VINA RESULT:      -6.0      7.154     10.444
REMARK  12 active torsions:
REMARK  status: ('A' for Active; 'I' for Inactive)
REMARK    1  A    between atoms: C_1  and  C_2 
REMARK    2  A    between atoms: C_2  and  C_3 
REMARK    3  A    between atoms: C_3  and  CA_4 
REMARK    4  A    between atoms: CA_4  and  C_6 
REMARK    5  A    between atoms: CA_4  and  N_8 
REMARK       I    between atoms: N_8  and  C_9 
REMARK    6  A    between atoms: C_9  and  C_11 
REMARK    7  A    between atoms: C_11  and  C_12 
REMARK    8  A    between atoms: C_13  and  C_31 
REMARK    9  A    between atoms: C_15  and  O_29 
REMARK   10  A    between atoms: C_25  and  C_27 
REMARK   11  A    between atoms: C_25  and  C_28 
REMARK   12  A    between atoms: O_29  and  C_30 
ROOT
ATOM      1  C   LIG d   1       9.470   2.712  -5.603  0.00  0.00     0.049 A 
ATOM      2  C   LIG d   1       9.580   3.517  -4.515  0.00  0.00    -0.026 A 
ATOM      3  C   LIG d   1       9.653   4.920  -4.708  0.00  0.00     0.063 A 
ATOM      4  C   LIG d   1       9.762   5.793  -3.610  0.00  0.00     0.135 A 
ATOM      5  C   LIG d   1       9.831   7.152  -3.828  0.00  0.00     0.023 A 
ATOM      6  C   LIG d   1       9.796   7.667  -5.125  0.00  0.00     0.131 A 
ATOM      7  C   LIG d   1       9.694   6.816  -6.211  0.00  0.00     0.038 A 
ATOM      8  C   LIG d   1       9.618   5.442  -6.012  0.00  0.00     0.149 A 
ATOM      9  O   LIG d   1       9.513   4.608  -7.070  0.00  0.00    -0.421 OA
ATOM     10  C   LIG d   1       9.443   3.276  -6.894  0.00  0.00     0.341 A 
ATOM     11  O   LIG d   1       9.349   2.549  -7.866  0.00  0.00    -0.245 OA
ATOM     12  C   LIG d   1       9.666   7.342  -7.624  0.00  0.00    -0.017 C 
ATOM     13  C   LIG d   1       9.319   8.833  -7.613  0.00  0.00    -0.009 C 
ATOM     14  C   LIG d   1      10.206   9.524  -6.569  0.00  0.00     0.105 C 
ATOM     15  O   LIG d   1       9.863   9.015  -5.280  0.00  0.00    -0.486 OA
ATOM     16  H   LIG d   1       9.913   7.825  -2.987  0.00  0.00     0.069 H 
ATOM     17  H   LIG d   1       8.914   6.800  -8.198  0.00  0.00     0.032 H 
ATOM     18  H   LIG d   1      10.645   7.200  -8.081  0.00  0.00     0.032 H 
ATOM     19  H   LIG d   1       8.270   8.965  -7.349  0.00  0.00     0.031 H 
ATOM     20  H   LIG d   1       9.508   9.262  -8.597  0.00  0.00     0.031 H 
ENDROOT
BRANCH   1  21
ATOM     21  C   LIG d   1       9.385   1.216  -5.432  0.00  0.00     0.056 C 
ATOM     22  H   LIG d   1       9.810   0.726  -6.308  0.00  0.00     0.041 H 
ATOM     23  H   LIG d   1       9.941   0.921  -4.544  0.00  0.00     0.041 H 
BRANCH  21  24
ATOM     24  C   LIG d   1       7.942   0.810  -5.280  0.00  0.00     0.218 C 
ATOM     25  N   LIG d   1       7.520   0.237  -4.135  0.00  0.00    -0.307 N 
ATOM     26  H   LIG d   1       8.146   0.088  -3.408  0.00  0.00     0.149 HD
ATOM     27  O   LIG d   1       7.159   0.997  -6.188  0.00  0.00    -0.275 OA
BRANCH  25  28
ATOM     28  CA  LIG d   1       6.118  -0.157  -3.986  0.00  0.00     0.063 C 
ATOM     29  HA  LIG d   1       5.680  -0.322  -4.971  0.00  0.00     0.056 H 
BRANCH  28  30
ATOM     30  C   LIG d   1       6.035  -1.449  -3.170  0.00  0.00    -0.029 C 
ATOM     31  H   LIG d   1       6.883  -2.087  -3.414  0.00  0.00     0.029 H 
ATOM     32  H   LIG d   1       6.054  -1.209  -2.106  0.00  0.00     0.029 H 
BRANCH  30  33
ATOM     33  C   LIG d   1       4.733  -2.180  -3.504  0.00  0.00    -0.054 C 
ATOM     34  H   LIG d   1       4.250  -1.693  -4.352  0.00  0.00     0.026 H 
ATOM     35  H   LIG d   1       4.953  -3.216  -3.759  0.00  0.00     0.026 H 
BRANCH  33  36
ATOM     36  C   LIG d   1       3.800  -2.139  -2.292  0.00  0.00    -0.065 C 
ATOM     37  H   LIG d   1       4.224  -2.739  -1.487  0.00  0.00     0.023 H 
ATOM     38  H   LIG d   1       3.686  -1.108  -1.956  0.00  0.00     0.023 H 
ATOM     39  H   LIG d   1       2.825  -2.540  -2.570  0.00  0.00     0.023 H 
ENDBRANCH  33  36
ENDBRANCH  30  33
ENDBRANCH  28  30
BRANCH  28  40
ATOM     40  C   LIG d   1       5.360   0.935  -3.276  0.00  0.00     0.062 C 
ATOM     41  O   LIG d   1       5.839   1.468  -2.304  0.00  0.00    -0.548 OA
ATOM     42  OXT LIG d   1       4.154   1.316  -3.725  0.00  0.00    -0.548 OA
ENDBRANCH  28  40
ENDBRANCH  25  28
ENDBRANCH  21  24
ENDBRANCH   1  21
BRANCH   2  43
ATOM     43  C   LIG d   1       9.616   2.930  -3.127  0.00  0.00    -0.038 C 
ATOM     44  H   LIG d   1       9.818   1.860  -3.191  0.00  0.00     0.028 H 
ATOM     45  H   LIG d   1      10.401   3.414  -2.547  0.00  0.00     0.028 H 
ATOM     46  H   LIG d   1       8.654   3.090  -2.640  0.00  0.00     0.028 H 
ENDBRANCH   2  43
BRANCH   4  47
ATOM     47  O   LIG d   1       9.797   5.300  -2.346  0.00  0.00    -0.494 OA
BRANCH  47  48
ATOM     48  C   LIG d   1      10.195   6.200  -1.310  0.00  0.00     0.079 C 
ATOM     49  H   LIG d   1      11.271   6.125  -1.155  0.00  0.00     0.066 H 
ATOM     50  H   LIG d   1       9.939   7.220  -1.598  0.00  0.00     0.066 H 
ATOM     51  H   LIG d   1       9.676   5.943  -0.386  0.00  0.00     0.066 H 
ENDBRANCH  47  48
ENDBRANCH   4  47
BRANCH  14  52
ATOM     52  C   LIG d   1       9.965  11.034  -6.607  0.00  0.00    -0.025 C 
ATOM     53  H   LIG d   1       9.402  11.335  -5.724  0.00  0.00     0.027 H 
ATOM     54  H   LIG d   1      10.923  11.556  -6.623  0.00  0.00     0.027 H 
ATOM     55  H   LIG d   1       9.398  11.289  -7.503  0.00  0.00     0.027 H 
ENDBRANCH  14  52
BRANCH  14  56
ATOM     56  C   LIG d   1      11.678   9.229  -6.865  0.00  0.00    -0.025 C 
ATOM     57  H   LIG d   1      12.157   8.837  -5.968  0.00  0.00     0.027 H 
ATOM     58  H   LIG d   1      11.747   8.492  -7.664  0.00  0.00     0.027 H 
ATOM     59  H   LIG d   1      12.178  10.148  -7.173  0.00  0.00     0.027 H 
ENDBRANCH  14  56
TORSDOF 12
ENDMDL
MODEL 4
REMARK VINA RESULT:      -6.0      6.463      9.782
REMARK  12 active torsions:
REMARK  status: ('A' for Active; 'I' for Inactive)
REMARK    1  A    between atoms: C_1  and  C_2 
REMARK    2  A    between atoms: C_2  and  C_3 
REMARK    3  A    between atoms: C_3  and  CA_4 
REMARK    4  A    between atoms: CA_4  and  C_6 
REMARK    5  A    between atoms: CA_4  and  N_8 
REMARK       I    between atoms: N_8  and  C_9 
REMARK    6  A    between atoms: C_9  and  C_11 
REMARK    7  A    between atoms: C_11  and  C_12 
REMARK    8  A    between atoms: C_13  and  C_31 
REMARK    9  A    between atoms: C_15  and  O_29 
REMARK   10  A    between atoms: C_25  and  C_27 
REMARK   11  A    between atoms: C_25  and  C_28 
REMARK   12  A    between atoms: O_29  and  C_30 
ROOT
ATOM      1  C   LIG d   1       8.716   1.352  -5.693  0.00  0.00     0.049 A 
ATOM      2  C   LIG d   1       9.030   2.511  -5.057  0.00  0.00    -0.026 A 
ATOM      3  C   LIG d   1       9.315   3.661  -5.836  0.00  0.00     0.063 A 
ATOM      4  C   LIG d   1       9.640   4.884  -5.220  0.00  0.00     0.135 A 
ATOM      5  C   LIG d   1       9.913   5.986  -6.002  0.00  0.00     0.023 A 
ATOM      6  C   LIG d   1       9.872   5.897  -7.395  0.00  0.00     0.131 A 
ATOM      7  C   LIG d   1       9.557   4.698  -8.009  0.00  0.00     0.038 A 
ATOM      8  C   LIG d   1       9.274   3.576  -7.237  0.00  0.00     0.149 A 
ATOM      9  O   LIG d   1       8.962   2.404  -7.834  0.00  0.00    -0.421 OA
ATOM     10  C   LIG d   1       8.690   1.309  -7.101  0.00  0.00     0.341 A 
ATOM     11  O   LIG d   1       8.412   0.266  -7.665  0.00  0.00    -0.245 OA
ATOM     12  C   LIG d   1       9.516   4.569  -9.510  0.00  0.00    -0.017 C 
ATOM     13  C   LIG d   1       9.416   5.958 -10.145  0.00  0.00    -0.009 C 
ATOM     14  C   LIG d   1      10.474   6.860  -9.496  0.00  0.00     0.105 C 
ATOM     15  O   LIG d   1      10.145   7.016  -8.115  0.00  0.00    -0.486 OA
ATOM     16  H   LIG d   1      10.161   6.927  -5.533  0.00  0.00     0.069 H 
ATOM     17  H   LIG d   1       8.648   3.976  -9.800  0.00  0.00     0.032 H 
ATOM     18  H   LIG d   1      10.425   4.076  -9.856  0.00  0.00     0.032 H 
ATOM     19  H   LIG d   1       8.423   6.372  -9.972  0.00  0.00     0.031 H 
ATOM     20  H   LIG d   1       9.603   5.887 -11.217  0.00  0.00     0.031 H 
ENDROOT
BRANCH   1  21
ATOM     21  C   LIG d   1       8.402   0.112  -4.894  0.00  0.00     0.056 C 
ATOM     22  H   LIG d   1       8.674  -0.770  -5.473  0.00  0.00     0.041 H 
ATOM     23  H   LIG d   1       8.969   0.127  -3.964  0.00  0.00     0.041 H 
BRANCH  21  24
ATOM     24  C   LIG d   1       6.928   0.075  -4.584  0.00  0.00     0.218 C 
ATOM     25  N   LIG d   1       6.511  -0.102  -3.315  0.00  0.00    -0.307 N 
ATOM     26  H   LIG d   1       7.160  -0.203  -2.601  0.00  0.00     0.149 HD
ATOM     27  O   LIG d   1       6.116   0.203  -5.477  0.00  0.00    -0.275 OA
BRANCH  25  28
ATOM     28  CA  LIG d   1       5.078  -0.138  -3.013  0.00  0.00     0.063 C 
ATOM     29  HA  LIG d   1       4.520  -0.346  -3.925  0.00  0.00     0.056 H 
BRANCH  28  30
ATOM     30  C   LIG d   1       4.801  -1.236  -1.984  0.00  0.00    -0.029 C 
ATOM     31  H   LIG d   1       5.738  -1.721  -1.710  0.00  0.00     0.029 H 
ATOM     32  H   LIG d   1       4.346  -0.797  -1.096  0.00  0.00     0.029 H 
BRANCH  30  33
ATOM     33  C   LIG d   1       3.849  -2.271  -2.587  0.00  0.00    -0.054 C 
ATOM     34  H   LIG d   1       3.650  -3.053  -1.853  0.00  0.00     0.026 H 
ATOM     35  H   LIG d   1       2.913  -1.786  -2.862  0.00  0.00     0.026 H 
BRANCH  33  36
ATOM     36  C   LIG d   1       4.490  -2.889  -3.831  0.00  0.00    -0.065 C 
ATOM     37  H   LIG d   1       4.026  -3.854  -4.037  0.00  0.00     0.023 H 
ATOM     38  H   LIG d   1       4.343  -2.226  -4.684  0.00  0.00     0.023 H 
ATOM     39  H   LIG d   1       5.557  -3.029  -3.659  0.00  0.00     0.023 H 
ENDBRANCH  33  36
ENDBRANCH  30  33
ENDBRANCH  28  30
BRANCH  28  40
ATOM     40  C   LIG d   1       4.649   1.193  -2.454  0.00  0.00     0.062 C 
ATOM     41  O   LIG d   1       4.798   1.432  -1.279  0.00  0.00    -0.548 OA
ATOM     42  OXT LIG d   1       4.100   2.116  -3.261  0.00  0.00    -0.548 OA
ENDBRANCH  28  40
ENDBRANCH  25  28
ENDBRANCH  21  24
ENDBRANCH   1  21
BRANCH   2  43
ATOM     43  C   LIG d   1       9.068   2.573  -3.552  0.00  0.00    -0.038 C 
ATOM     44  H   LIG d   1       8.361   1.852  -3.140  0.00  0.00     0.028 H 
ATOM     45  H   LIG d   1      10.073   2.337  -3.202  0.00  0.00     0.028 H 
ATOM     46  H   LIG d   1       8.797   3.576  -3.223  0.00  0.00     0.028 H 
ENDBRANCH   2  43
BRANCH   4  47
ATOM     47  O   LIG d   1       9.684   4.977  -3.867  0.00  0.00    -0.494 OA
BRANCH  47  48
ATOM     48  C   LIG d   1       9.610   6.289  -3.305  0.00  0.00     0.079 C 
ATOM     49  H   LIG d   1      10.373   6.923  -3.757  0.00  0.00     0.066 H 
ATOM     50  H   LIG d   1       8.624   6.712  -3.500  0.00  0.00     0.066 H 
ATOM     51  H   LIG d   1       9.774   6.233  -2.228  0.00  0.00     0.066 H 
ENDBRANCH  47  48
ENDBRANCH   4  47
BRANCH  14  52
ATOM     52  C   LIG d   1      10.479   8.227 -10.182  0.00  0.00    -0.025 C 
ATOM     53  H   LIG d   1      10.120   8.985  -9.486  0.00  0.00     0.027 H 
ATOM     54  H   LIG d   1      11.493   8.473 -10.497  0.00  0.00     0.027 H 
ATOM     55  H   LIG d   1       9.825   8.197 -11.054  0.00  0.00     0.027 H 
ENDBRANCH  14  52
BRANCH  14  56
ATOM     56  C   LIG d   1      11.855   6.213  -9.626  0.00  0.00    -0.025 C 
ATOM     57  H   LIG d   1      12.178   6.254 -10.666  0.00  0.00     0.027 H 
ATOM     58  H   LIG d   1      12.569   6.751  -9.003  0.00  0.00     0.027 H 
ATOM     59  H   LIG d   1      11.801   5.173  -9.302  0.00  0.00     0.027 H 
ENDBRANCH  14  56
TORSDOF 12
ENDMDL
MODEL 5
REMARK VINA RESULT:      -5.9      4.188      5.813
REMARK  12 active torsions:
REMARK  status: ('A' for Active; 'I' for Inactive)
REMARK    1  A    between atoms: C_1  and  C_2 
REMARK    2  A    between atoms: C_2  and  C_3 
REMARK    3  A    between atoms: C_3  and  CA_4 
REMARK    4  A    between atoms: CA_4  and  C_6 
REMARK    5  A    between atoms: CA_4  and  N_8 
REMARK       I    between atoms: N_8  and  C_9 
REMARK    6  A    between atoms: C_9  and  C_11 
REMARK    7  A    between atoms: C_11  and  C_12 
REMARK    8  A    between atoms: C_13  and  C_31 
REMARK    9  A    between atoms: C_15  and  O_29 
REMARK   10  A    between atoms: C_25  and  C_27 
REMARK   11  A    between atoms: C_25  and  C_28 
REMARK   12  A    between atoms: O_29  and  C_30 
ROOT
ATOM      1  C   LIG d   1       4.596  -4.746  -7.741  0.00  0.00     0.049 A 
ATOM      2  C   LIG d   1       4.950  -3.462  -8.010  0.00  0.00    -0.026 A 
ATOM      3  C   LIG d   1       4.964  -2.521  -6.949  0.00  0.00     0.063 A 
ATOM      4  C   LIG d   1       5.329  -1.183  -7.180  0.00  0.00     0.135 A 
ATOM      5  C   LIG d   1       5.333  -0.290  -6.129  0.00  0.00     0.023 A 
ATOM      6  C   LIG d   1       4.977  -0.703  -4.844  0.00  0.00     0.131 A 
ATOM      7  C   LIG d   1       4.612  -2.016  -4.609  0.00  0.00     0.038 A 
ATOM      8  C   LIG d   1       4.606  -2.933  -5.654  0.00  0.00     0.149 A 
ATOM      9  O   LIG d   1       4.254  -4.218  -5.427  0.00  0.00    -0.421 OA
ATOM     10  C   LIG d   1       4.239  -5.116  -6.429  0.00  0.00     0.341 A 
ATOM     11  O   LIG d   1       3.918  -6.267  -6.196  0.00  0.00    -0.245 OA
ATOM     12  C   LIG d   1       4.211  -2.488  -3.234  0.00  0.00    -0.017 C 
ATOM     13  C   LIG d   1       4.696  -1.487  -2.183  0.00  0.00    -0.009 C 
ATOM     14  C   LIG d   1       4.297  -0.078  -2.642  0.00  0.00     0.105 C 
ATOM     15  O   LIG d   1       5.004   0.219  -3.846  0.00  0.00    -0.486 OA
ATOM     16  H   LIG d   1       5.615   0.739  -6.302  0.00  0.00     0.069 H 
ATOM     17  H   LIG d   1       4.659  -3.462  -3.040  0.00  0.00     0.032 H 
ATOM     18  H   LIG d   1       3.125  -2.571  -3.183  0.00  0.00     0.032 H 
ATOM     19  H   LIG d   1       5.779  -1.549  -2.087  0.00  0.00     0.031 H 
ATOM     20  H   LIG d   1       4.228  -1.706  -1.223  0.00  0.00     0.031 H 
ENDROOT
BRANCH   1  21
ATOM     21  C   LIG d   1       4.576  -5.772  -8.846  0.00  0.00     0.056 C 
ATOM     22  H   LIG d   1       5.229  -5.446  -9.655  0.00  0.00     0.041 H 
ATOM     23  H   LIG d   1       4.926  -6.728  -8.459  0.00  0.00     0.041 H 
BRANCH  21  24
ATOM     24  C   LIG d   1       3.169  -5.924  -9.365  0.00  0.00     0.218 C 
ATOM     25  N   LIG d   1       2.640  -4.977 -10.165  0.00  0.00    -0.307 N 
ATOM     26  H   LIG d   1       3.166  -4.198 -10.407  0.00  0.00     0.149 HD
ATOM     27  O   LIG d   1       2.513  -6.899  -9.062  0.00  0.00    -0.275 OA
BRANCH  25  28
ATOM     28  CA  LIG d   1       1.274  -5.124 -10.669  0.00  0.00     0.063 C 
ATOM     29  HA  LIG d   1       0.747  -5.874 -10.079  0.00  0.00     0.056 H 
BRANCH  28  30
ATOM     30  C   LIG d   1       0.543  -3.784 -10.562  0.00  0.00    -0.029 C 
ATOM     31  H   LIG d   1       0.083  -3.545 -11.520  0.00  0.00     0.029 H 
ATOM     32  H   LIG d   1      -0.229  -3.851  -9.794  0.00  0.00     0.029 H 
BRANCH  30  33
ATOM     33  C   LIG d   1       1.541  -2.688 -10.187  0.00  0.00    -0.054 C 
ATOM     34  H   LIG d   1       1.347  -2.352  -9.168  0.00  0.00     0.026 H 
ATOM     35  H   LIG d   1       2.555  -3.082 -10.251  0.00  0.00     0.026 H 
BRANCH  33  36
ATOM     36  C   LIG d   1       1.389  -1.509 -11.151  0.00  0.00    -0.065 C 
ATOM     37  H   LIG d   1       2.134  -1.589 -11.943  0.00  0.00     0.023 H 
ATOM     38  H   LIG d   1       0.391  -1.524 -11.588  0.00  0.00     0.023 H 
ATOM     39  H   LIG d   1       1.535  -0.574 -10.608  0.00  0.00     0.023 H 
ENDBRANCH  33  36
ENDBRANCH  30  33
ENDBRANCH  28  30
BRANCH  28  40
ATOM     40  C   LIG d   1       1.315  -5.560 -12.111  0.00  0.00     0.062 C 
ATOM     41  O   LIG d   1       1.040  -4.775 -12.987  0.00  0.00    -0.548 OA
ATOM     42  OXT LIG d   1       1.658  -6.820 -12.423  0.00  0.00    -0.548 OA
ENDBRANCH  28  40
ENDBRANCH  25  28
ENDBRANCH  21  24
ENDBRANCH   1  21
BRANCH   2  43
ATOM     43  C   LIG d   1       5.328  -3.048  -9.409  0.00  0.00    -0.038 C 
ATOM     44  H   LIG d   1       4.617  -2.306  -9.773  0.00  0.00     0.028 H 
ATOM     45  H   LIG d   1       6.330  -2.620  -9.404  0.00  0.00     0.028 H 
ATOM     46  H   LIG d   1       5.310  -3.921 -10.063  0.00  0.00     0.028 H 
ENDBRANCH   2  43
BRANCH   4  47
ATOM     47  O   LIG d   1       5.676  -0.774  -8.426  0.00  0.00    -0.494 OA
BRANCH  47  48
ATOM     48  C   LIG d   1       6.204   0.548  -8.552  0.00  0.00     0.079 C 
ATOM     49  H   LIG d   1       6.755   0.632  -9.489  0.00  0.00     0.066 H 
ATOM     50  H   LIG d   1       5.385   1.268  -8.546  0.00  0.00     0.066 H 
ATOM     51  H   LIG d   1       6.873   0.754  -7.716  0.00  0.00     0.066 H 
ENDBRANCH  47  48
ENDBRANCH   4  47
BRANCH  14  52
ATOM     52  C   LIG d   1       4.668   0.940  -1.562  0.00  0.00    -0.025 C 
ATOM     53  H   LIG d   1       5.377   1.661  -1.970  0.00  0.00     0.027 H 
ATOM     54  H   LIG d   1       3.770   1.461  -1.229  0.00  0.00     0.027 H 
ATOM     55  H   LIG d   1       5.123   0.424  -0.717  0.00  0.00     0.027 H 
ENDBRANCH  14  52
BRANCH  14  56
ATOM     56  C   LIG d   1       2.790  -0.027  -2.902  0.00  0.00    -0.025 C 
ATOM     57  H   LIG d   1       2.352   0.795  -2.336  0.00  0.00     0.027 H 
ATOM     58  H   LIG d   1       2.610   0.129  -3.965  0.00  0.00     0.027 H 
ATOM     59  H   LIG d   1       2.335  -0.967  -2.590  0.00  0.00     0.027 H 
ENDBRANCH  14  56
TORSDOF 12
ENDMDL
MODEL 6
REMARK VINA RESULT:      -5.9      6.398      9.633
REMARK  12 active torsions:
REMARK  status: ('A' for Active; 'I' for Inactive)
REMARK    1  A    between atoms: C_1  and  C_2 
REMARK    2  A    between atoms: C_2  and  C_3 
REMARK    3  A    between atoms: C_3  and  CA_4 
REMARK    4  A    between atoms: CA_4  and  C_6 
REMARK    5  A    between atoms: CA_4  and  N_8 
REMARK       I    between atoms: N_8  and  C_9 
REMARK    6  A    between atoms: C_9  and  C_11 
REMARK    7  A    between atoms: C_11  and  C_12 
REMARK    8  A    between atoms: C_13  and  C_31 
REMARK    9  A    between atoms: C_15  and  O_29 
REMARK   10  A    between atoms: C_25  and  C_27 
REMARK   11  A    between atoms: C_25  and  C_28 
REMARK   12  A    between atoms: O_29  and  C_30 
ROOT
ATOM      1  C   LIG d   1       8.661   1.422  -5.461  0.00  0.00     0.049 A 
ATOM      2  C   LIG d   1       8.867   1.802  -6.749  0.00  0.00    -0.026 A 
ATOM      3  C   LIG d   1       9.312   3.122  -7.009  0.00  0.00     0.063 A 
ATOM      4  C   LIG d   1       9.544   3.557  -8.326  0.00  0.00     0.135 A 
ATOM      5  C   LIG d   1       9.977   4.848  -8.549  0.00  0.00     0.023 A 
ATOM      6  C   LIG d   1      10.184   5.722  -7.480  0.00  0.00     0.131 A 
ATOM      7  C   LIG d   1       9.956   5.304  -6.182  0.00  0.00     0.038 A 
ATOM      8  C   LIG d   1       9.523   4.005  -5.936  0.00  0.00     0.149 A 
ATOM      9  O   LIG d   1       9.303   3.592  -4.668  0.00  0.00    -0.421 OA
ATOM     10  C   LIG d   1       8.880   2.341  -4.415  0.00  0.00     0.341 A 
ATOM     11  O   LIG d   1       8.689   1.995  -3.263  0.00  0.00    -0.245 OA
ATOM     12  C   LIG d   1      10.160   6.229  -5.009  0.00  0.00    -0.017 C 
ATOM     13  C   LIG d   1      11.030   7.415  -5.433  0.00  0.00    -0.009 C 
ATOM     14  C   LIG d   1      10.471   7.976  -6.746  0.00  0.00     0.105 C 
ATOM     15  O   LIG d   1      10.616   6.980  -7.759  0.00  0.00    -0.486 OA
ATOM     16  H   LIG d   1      10.157   5.184  -9.560  0.00  0.00     0.069 H 
ATOM     17  H   LIG d   1      10.653   5.688  -4.202  0.00  0.00     0.032 H 
ATOM     18  H   LIG d   1       9.193   6.594  -4.664  0.00  0.00     0.032 H 
ATOM     19  H   LIG d   1      12.057   7.083  -5.582  0.00  0.00     0.031 H 
ATOM     20  H   LIG d   1      11.002   8.186  -4.663  0.00  0.00     0.031 H 
ENDROOT
BRANCH   1  21
ATOM     21  C   LIG d   1       8.192   0.023  -5.151  0.00  0.00     0.056 C 
ATOM     22  H   LIG d   1       8.314  -0.604  -6.034  0.00  0.00     0.041 H 
ATOM     23  H   LIG d   1       8.783  -0.384  -4.331  0.00  0.00     0.041 H 
BRANCH  21  24
ATOM     24  C   LIG d   1       6.739   0.057  -4.754  0.00  0.00     0.218 C 
ATOM     25  N   LIG d   1       6.387  -0.135  -3.467  0.00  0.00    -0.307 N 
ATOM     26  H   LIG d   1       7.070  -0.294  -2.797  0.00  0.00     0.149 HD
ATOM     27  O   LIG d   1       5.885   0.256  -5.593  0.00  0.00    -0.275 OA
BRANCH  25  28
ATOM     28  CA  LIG d   1       4.975  -0.103  -3.081  0.00  0.00     0.063 C 
ATOM     29  HA  LIG d   1       4.354  -0.286  -3.958  0.00  0.00     0.056 H 
BRANCH  28  30
ATOM     30  C   LIG d   1       4.707  -1.184  -2.032  0.00  0.00    -0.029 C 
ATOM     31  H   LIG d   1       5.651  -1.638  -1.731  0.00  0.00     0.029 H 
ATOM     32  H   LIG d   1       4.225  -0.736  -1.163  0.00  0.00     0.029 H 
BRANCH  30  33
ATOM     33  C   LIG d   1       3.792  -2.255  -2.627  0.00  0.00    -0.054 C 
ATOM     34  H   LIG d   1       3.566  -3.003  -1.866  0.00  0.00     0.026 H 
ATOM     35  H   LIG d   1       2.865  -1.794  -2.967  0.00  0.00     0.026 H 
BRANCH  33  36
ATOM     36  C   LIG d   1       4.494  -2.926  -3.809  0.00  0.00    -0.065 C 
ATOM     37  H   LIG d   1       4.476  -4.009  -3.675  0.00  0.00     0.023 H 
ATOM     38  H   LIG d   1       3.977  -2.667  -4.733  0.00  0.00     0.023 H 
ATOM     39  H   LIG d   1       5.527  -2.583  -3.861  0.00  0.00     0.023 H 
ENDBRANCH  33  36
ENDBRANCH  30  33
ENDBRANCH  28  30
BRANCH  28  40
ATOM     40  C   LIG d   1       4.643   1.250  -2.505  0.00  0.00     0.062 C 
ATOM     41  O   LIG d   1       4.885   1.489  -1.346  0.00  0.00    -0.548 OA
ATOM     42  OXT LIG d   1       4.077   2.189  -3.280  0.00  0.00    -0.548 OA
ENDBRANCH  28  40
ENDBRANCH  25  28
ENDBRANCH  21  24
ENDBRANCH   1  21
BRANCH   2  43
ATOM     43  C   LIG d   1       8.631   0.834  -7.880  0.00  0.00    -0.038 C 
ATOM     44  H   LIG d   1       8.016   0.006  -7.528  0.00  0.00     0.028 H 
ATOM     45  H   LIG d   1       8.121   1.344  -8.697  0.00  0.00     0.028 H 
ATOM     46  H   LIG d   1       9.588   0.450  -8.234  0.00  0.00     0.028 H 
ENDBRANCH   2  43
BRANCH   4  47
ATOM     47  O   LIG d   1       9.343   2.714  -9.370  0.00  0.00    -0.494 OA
BRANCH  47  48
ATOM     48  C   LIG d   1      10.014   3.023 -10.593  0.00  0.00     0.079 C 
ATOM     49  H   LIG d   1      10.960   2.483 -10.636  0.00  0.00     0.066 H 
ATOM     50  H   LIG d   1       9.388   2.728 -11.435  0.00  0.00     0.066 H 
ATOM     51  H   LIG d   1      10.206   4.096 -10.642  0.00  0.00     0.066 H 
ENDBRANCH  47  48
ENDBRANCH   4  47
BRANCH  14  52
ATOM     52  C   LIG d   1      11.249   9.231  -7.144  0.00  0.00    -0.025 C 
ATOM     53  H   LIG d   1      12.313   8.998  -7.195  0.00  0.00     0.027 H 
ATOM     54  H   LIG d   1      10.906   9.580  -8.118  0.00  0.00     0.027 H 
ATOM     55  H   LIG d   1      11.085  10.011  -6.400  0.00  0.00     0.027 H 
ENDBRANCH  14  52
BRANCH  14  56
ATOM     56  C   LIG d   1       8.990   8.321  -6.571  0.00  0.00    -0.025 C 
ATOM     57  H   LIG d   1       8.395   7.729  -7.267  0.00  0.00     0.027 H 
ATOM     58  H   LIG d   1       8.683   8.098  -5.550  0.00  0.00     0.027 H 
ATOM     59  H   LIG d   1       8.838   9.382  -6.773  0.00  0.00     0.027 H 
ENDBRANCH  14  56
TORSDOF 12
ENDMDL
MODEL 7
REMARK VINA RESULT:      -5.7      5.347      8.619
REMARK  12 active torsions:
REMARK  status: ('A' for Active; 'I' for Inactive)
REMARK    1  A    between atoms: C_1  and  C_2 
REMARK    2  A    between atoms: C_2  and  C_3 
REMARK    3  A    between atoms: C_3  and  CA_4 
REMARK    4  A    between atoms: CA_4  and  C_6 
REMARK    5  A    between atoms: CA_4  and  N_8 
REMARK       I    between atoms: N_8  and  C_9 
REMARK    6  A    between atoms: C_9  and  C_11 
REMARK    7  A    between atoms: C_11  and  C_12 
REMARK    8  A    between atoms: C_13  and  C_31 
REMARK    9  A    between atoms: C_15  and  O_29 
REMARK   10  A    between atoms: C_25  and  C_27 
REMARK   11  A    between atoms: C_25  and  C_28 
REMARK   12  A    between atoms: O_29  and  C_30 
ROOT
ATOM      1  C   LIG d   1       8.567   0.900  -4.719  0.00  0.00     0.049 A 
ATOM      2  C   LIG d   1       9.908   0.733  -4.865  0.00  0.00    -0.026 A 
ATOM      3  C   LIG d   1      10.782   1.672  -4.261  0.00  0.00     0.063 A 
ATOM      4  C   LIG d   1      12.177   1.536  -4.381  0.00  0.00     0.135 A 
ATOM      5  C   LIG d   1      13.003   2.465  -3.784  0.00  0.00     0.023 A 
ATOM      6  C   LIG d   1      12.467   3.535  -3.066  0.00  0.00     0.131 A 
ATOM      7  C   LIG d   1      11.098   3.679  -2.946  0.00  0.00     0.038 A 
ATOM      8  C   LIG d   1      10.247   2.751  -3.537  0.00  0.00     0.149 A 
ATOM      9  O   LIG d   1       8.907   2.886  -3.418  0.00  0.00    -0.421 OA
ATOM     10  C   LIG d   1       8.072   1.999  -3.988  0.00  0.00     0.341 A 
ATOM     11  O   LIG d   1       6.870   2.145  -3.865  0.00  0.00    -0.245 OA
ATOM     12  C   LIG d   1      10.489   4.831  -2.186  0.00  0.00    -0.017 C 
ATOM     13  C   LIG d   1      11.544   5.459  -1.272  0.00  0.00    -0.009 C 
ATOM     14  C   LIG d   1      12.818   5.688  -2.094  0.00  0.00     0.105 C 
ATOM     15  O   LIG d   1      13.330   4.416  -2.494  0.00  0.00    -0.486 OA
ATOM     16  H   LIG d   1      14.075   2.362  -3.873  0.00  0.00     0.069 H 
ATOM     17  H   LIG d   1       9.657   4.470  -1.584  0.00  0.00     0.032 H 
ATOM     18  H   LIG d   1      10.129   5.579  -2.892  0.00  0.00     0.032 H 
ATOM     19  H   LIG d   1      11.758   4.788  -0.441  0.00  0.00     0.031 H 
ATOM     20  H   LIG d   1      11.178   6.412  -0.889  0.00  0.00     0.031 H 
ENDROOT
BRANCH   1  21
ATOM     21  C   LIG d   1       7.611  -0.083  -5.343  0.00  0.00     0.056 C 
ATOM     22  H   LIG d   1       6.821   0.459  -5.863  0.00  0.00     0.041 H 
ATOM     23  H   LIG d   1       8.148  -0.712  -6.052  0.00  0.00     0.041 H 
BRANCH  21  24
ATOM     24  C   LIG d   1       7.003  -0.945  -4.267  0.00  0.00     0.218 C 
ATOM     25  N   LIG d   1       5.802  -0.625  -3.745  0.00  0.00    -0.307 N 
ATOM     26  H   LIG d   1       5.329   0.160  -4.063  0.00  0.00     0.149 HD
ATOM     27  O   LIG d   1       7.595  -1.927  -3.869  0.00  0.00    -0.275 OA
BRANCH  25  28
ATOM     28  CA  LIG d   1       5.211  -1.462  -2.699  0.00  0.00     0.063 C 
ATOM     29  HA  LIG d   1       5.975  -2.120  -2.285  0.00  0.00     0.056 H 
BRANCH  28  30
ATOM     30  C   LIG d   1       4.650  -0.571  -1.589  0.00  0.00    -0.029 C 
ATOM     31  H   LIG d   1       3.596  -0.803  -1.436  0.00  0.00     0.029 H 
ATOM     32  H   LIG d   1       5.199  -0.752  -0.665  0.00  0.00     0.029 H 
BRANCH  30  33
ATOM     33  C   LIG d   1       4.796   0.898  -1.991  0.00  0.00    -0.054 C 
ATOM     34  H   LIG d   1       5.147   1.475  -1.135  0.00  0.00     0.026 H 
ATOM     35  H   LIG d   1       5.517   0.982  -2.804  0.00  0.00     0.026 H 
BRANCH  33  36
ATOM     36  C   LIG d   1       3.440   1.438  -2.451  0.00  0.00    -0.065 C 
ATOM     37  H   LIG d   1       2.643   0.922  -1.914  0.00  0.00     0.023 H 
ATOM     38  H   LIG d   1       3.385   2.506  -2.243  0.00  0.00     0.023 H 
ATOM     39  H   LIG d   1       3.326   1.268  -3.522  0.00  0.00     0.023 H 
ENDBRANCH  33  36
ENDBRANCH  30  33
ENDBRANCH  28  30
BRANCH  28  40
ATOM     40  C   LIG d   1       4.100  -2.292  -3.287  0.00  0.00     0.062 C 
ATOM     41  O   LIG d   1       4.356  -3.319  -3.871  0.00  0.00    -0.548 OA
ATOM     42  OXT LIG d   1       2.824  -1.891  -3.163  0.00  0.00    -0.548 OA
ENDBRANCH  28  40
ENDBRANCH  25  28
ENDBRANCH  21  24
ENDBRANCH   1  21
BRANCH   2  43
ATOM     43  C   LIG d   1      10.454  -0.433  -5.648  0.00  0.00    -0.038 C 
ATOM     44  H   LIG d   1       9.976  -0.469  -6.627  0.00  0.00     0.028 H 
ATOM     45  H   LIG d   1      11.530  -0.315  -5.773  0.00  0.00     0.028 H 
ATOM     46  H   LIG d   1      10.250  -1.359  -5.110  0.00  0.00     0.028 H 
ENDBRANCH   2  43
BRANCH   4  47
ATOM     47  O   LIG d   1      12.705   0.500  -5.079  0.00  0.00    -0.494 OA
BRANCH  47  48
ATOM     48  C   LIG d   1      14.127   0.359  -5.055  0.00  0.00     0.079 C 
ATOM     49  H   LIG d   1      14.478   0.371  -4.023  0.00  0.00     0.066 H 
ATOM     50  H   LIG d   1      14.406  -0.587  -5.522  0.00  0.00     0.066 H 
ATOM     51  H   LIG d   1      14.584   1.183  -5.604  0.00  0.00     0.066 H 
ENDBRANCH  47  48
ENDBRANCH   4  47
BRANCH  14  52
ATOM     52  C   LIG d   1      13.859   6.417  -1.241  0.00  0.00    -0.025 C 
ATOM     53  H   LIG d   1      14.793   5.856  -1.250  0.00  0.00     0.027 H 
ATOM     54  H   LIG d   1      14.028   7.414  -1.647  0.00  0.00     0.027 H 
ATOM     55  H   LIG d   1      13.495   6.499  -0.217  0.00  0.00     0.027 H 
ENDBRANCH  14  52
BRANCH  14  56
ATOM     56  C   LIG d   1      12.490   6.525  -3.333  0.00  0.00    -0.025 C 
ATOM     57  H   LIG d   1      13.414   6.907  -3.767  0.00  0.00     0.027 H 
ATOM     58  H   LIG d   1      11.976   5.903  -4.065  0.00  0.00     0.027 H 
ATOM     59  H   LIG d   1      11.849   7.359  -3.049  0.00  0.00     0.027 H 
ENDBRANCH  14  56
TORSDOF 12
ENDMDL
MODEL 8
REMARK VINA RESULT:      -5.6      1.616      1.846
REMARK  12 active torsions:
REMARK  status: ('A' for Active; 'I' for Inactive)
REMARK    1  A    between atoms: C_1  and  C_2 
REMARK    2  A    between atoms: C_2  and  C_3 
REMARK    3  A    between atoms: C_3  and  CA_4 
REMARK    4  A    between atoms: CA_4  and  C_6 
REMARK    5  A    between atoms: CA_4  and  N_8 
REMARK       I    between atoms: N_8  and  C_9 
REMARK    6  A    between atoms: C_9  and  C_11 
REMARK    7  A    between atoms: C_11  and  C_12 
REMARK    8  A    between atoms: C_13  and  C_31 
REMARK    9  A    between atoms: C_15  and  O_29 
REMARK   10  A    between atoms: C_25  and  C_27 
REMARK   11  A    between atoms: C_25  and  C_28 
REMARK   12  A    between atoms: O_29  and  C_30 
ROOT
ATOM      1  C   LIG d   1       5.528  -5.288  -6.762  0.00  0.00     0.049 A 
ATOM      2  C   LIG d   1       6.305  -4.183  -6.911  0.00  0.00    -0.026 A 
ATOM      3  C   LIG d   1       6.145  -3.108  -6.001  0.00  0.00     0.063 A 
ATOM      4  C   LIG d   1       6.932  -1.947  -6.114  0.00  0.00     0.135 A 
ATOM      5  C   LIG d   1       6.754  -0.917  -5.215  0.00  0.00     0.023 A 
ATOM      6  C   LIG d   1       5.802  -1.017  -4.199  0.00  0.00     0.131 A 
ATOM      7  C   LIG d   1       5.021  -2.152  -4.083  0.00  0.00     0.038 A 
ATOM      8  C   LIG d   1       5.188  -3.204  -4.977  0.00  0.00     0.149 A 
ATOM      9  O   LIG d   1       4.430  -4.318  -4.864  0.00  0.00    -0.421 OA
ATOM     10  C   LIG d   1       4.577  -5.342  -5.723  0.00  0.00     0.341 A 
ATOM     11  O   LIG d   1       3.880  -6.332  -5.598  0.00  0.00    -0.245 OA
ATOM     12  C   LIG d   1       3.977  -2.284  -3.003  0.00  0.00    -0.017 C 
ATOM     13  C   LIG d   1       4.247  -1.261  -1.897  0.00  0.00    -0.009 C 
ATOM     14  C   LIG d   1       4.483   0.106  -2.554  0.00  0.00     0.105 C 
ATOM     15  O   LIG d   1       5.674   0.027  -3.338  0.00  0.00    -0.486 OA
ATOM     16  H   LIG d   1       7.358  -0.025  -5.297  0.00  0.00     0.069 H 
ATOM     17  H   LIG d   1       4.014  -3.289  -2.583  0.00  0.00     0.032 H 
ATOM     18  H   LIG d   1       2.991  -2.105  -3.430  0.00  0.00     0.032 H 
ATOM     19  H   LIG d   1       5.130  -1.554  -1.331  0.00  0.00     0.031 H 
ATOM     20  H   LIG d   1       3.386  -1.203  -1.231  0.00  0.00     0.031 H 
ENDROOT
BRANCH   1  21
ATOM     21  C   LIG d   1       5.677  -6.451  -7.710  0.00  0.00     0.056 C 
ATOM     22  H   LIG d   1       4.706  -6.692  -8.142  0.00  0.00     0.041 H 
ATOM     23  H   LIG d   1       6.373  -6.185  -8.504  0.00  0.00     0.041 H 
BRANCH  21  24
ATOM     24  C   LIG d   1       6.204  -7.646  -6.958  0.00  0.00     0.218 C 
ATOM     25  N   LIG d   1       5.439  -8.747  -6.821  0.00  0.00    -0.307 N 
ATOM     26  H   LIG d   1       4.549  -8.770  -7.207  0.00  0.00     0.149 HD
ATOM     27  O   LIG d   1       7.318  -7.617  -6.476  0.00  0.00    -0.275 OA
BRANCH  25  28
ATOM     28  CA  LIG d   1       5.951  -9.908  -6.092  0.00  0.00     0.063 C 
ATOM     29  HA  LIG d   1       6.770  -9.598  -5.443  0.00  0.00     0.056 H 
BRANCH  28  30
ATOM     30  C   LIG d   1       4.830 -10.513  -5.243  0.00  0.00    -0.029 C 
ATOM     31  H   LIG d   1       3.968 -10.720  -5.876  0.00  0.00     0.029 H 
ATOM     32  H   LIG d   1       5.178 -11.440  -4.787  0.00  0.00     0.029 H 
BRANCH  30  33
ATOM     33  C   LIG d   1       4.431  -9.524  -4.147  0.00  0.00    -0.054 C 
ATOM     34  H   LIG d   1       5.316  -9.230  -3.582  0.00  0.00     0.026 H 
ATOM     35  H   LIG d   1       3.980  -8.641  -4.599  0.00  0.00     0.026 H 
BRANCH  33  36
ATOM     36  C   LIG d   1       3.422 -10.186  -3.205  0.00  0.00    -0.065 C 
ATOM     37  H   LIG d   1       3.030 -11.090  -3.672  0.00  0.00     0.023 H 
ATOM     38  H   LIG d   1       3.916 -10.445  -2.269  0.00  0.00     0.023 H 
ATOM     39  H   LIG d   1       2.603  -9.495  -3.006  0.00  0.00     0.023 H 
ENDBRANCH  33  36
ENDBRANCH  30  33
ENDBRANCH  28  30
BRANCH  28  40
ATOM     40  C   LIG d   1       6.449 -10.938  -7.072  0.00  0.00     0.062 C 
ATOM     41  O   LIG d   1       7.635 -11.139  -7.187  0.00  0.00    -0.548 OA
ATOM     42  OXT LIG d   1       5.576 -11.634  -7.818  0.00  0.00    -0.548 OA
ENDBRANCH  28  40
ENDBRANCH  25  28
ENDBRANCH  21  24
ENDBRANCH   1  21
BRANCH   2  43
ATOM     43  C   LIG d   1       7.323  -4.106  -8.020  0.00  0.00    -0.038 C 
ATOM     44  H   LIG d   1       8.103  -3.395  -7.749  0.00  0.00     0.028 H 
ATOM     45  H   LIG d   1       7.766  -5.090  -8.177  0.00  0.00     0.028 H 
ATOM     46  H   LIG d   1       6.836  -3.777  -8.938  0.00  0.00     0.028 H 
ENDBRANCH   2  43
BRANCH   4  47
ATOM     47  O   LIG d   1       7.858  -1.842  -7.099  0.00  0.00    -0.494 OA
BRANCH  47  48
ATOM     48  C   LIG d   1       8.920  -0.908  -6.895  0.00  0.00     0.079 C 
ATOM     49  H   LIG d   1       8.507   0.047  -6.569  0.00  0.00     0.066 H 
ATOM     50  H   LIG d   1       9.598  -1.291  -6.132  0.00  0.00     0.066 H 
ATOM     51  H   LIG d   1       9.466  -0.768  -7.829  0.00  0.00     0.066 H 
ENDBRANCH  47  48
ENDBRANCH   4  47
BRANCH  14  52
ATOM     52  C   LIG d   1       4.647   1.176  -1.474  0.00  0.00    -0.025 C 
ATOM     53  H   LIG d   1       4.534   2.164  -1.920  0.00  0.00     0.027 H 
ATOM     54  H   LIG d   1       3.888   1.035  -0.704  0.00  0.00     0.027 H 
ATOM     55  H   LIG d   1       5.638   1.092  -1.027  0.00  0.00     0.027 H 
ENDBRANCH  14  52
BRANCH  14  56
ATOM     56  C   LIG d   1       3.296   0.458  -3.453  0.00  0.00    -0.025 C 
ATOM     57  H   LIG d   1       2.966   1.475  -3.236  0.00  0.00     0.027 H 
ATOM     58  H   LIG d   1       3.599   0.391  -4.498  0.00  0.00     0.027 H 
ATOM     59  H   LIG d   1       2.478  -0.238  -3.266  0.00  0.00     0.027 H 
ENDBRANCH  14  56
TORSDOF 12
ENDMDL
MODEL 9
REMARK VINA RESULT:      -5.6      6.108     10.455
REMARK  12 active torsions:
REMARK  status: ('A' for Active; 'I' for Inactive)
REMARK    1  A    between atoms: C_1  and  C_2 
REMARK    2  A    between atoms: C_2  and  C_3 
REMARK    3  A    between atoms: C_3  and  CA_4 
REMARK    4  A    between atoms: CA_4  and  C_6 
REMARK    5  A    between atoms: CA_4  and  N_8 
REMARK       I    between atoms: N_8  and  C_9 
REMARK    6  A    between atoms: C_9  and  C_11 
REMARK    7  A    between atoms: C_11  and  C_12 
REMARK    8  A    between atoms: C_13  and  C_31 
REMARK    9  A    between atoms: C_15  and  O_29 
REMARK   10  A    between atoms: C_25  and  C_27 
REMARK   11  A    between atoms: C_25  and  C_28 
REMARK   12  A    between atoms: O_29  and  C_30 
ROOT
ATOM      1  C   LIG d   1      10.141   1.882  -4.461  0.00  0.00     0.049 A 
ATOM      2  C   LIG d   1       9.652   0.852  -5.200  0.00  0.00    -0.026 A 
ATOM      3  C   LIG d   1       8.320   0.421  -4.972  0.00  0.00     0.063 A 
ATOM      4  C   LIG d   1       7.770  -0.637  -5.717  0.00  0.00     0.135 A 
ATOM      5  C   LIG d   1       6.473  -1.036  -5.474  0.00  0.00     0.023 A 
ATOM      6  C   LIG d   1       5.706  -0.401  -4.495  0.00  0.00     0.131 A 
ATOM      7  C   LIG d   1       6.240   0.637  -3.755  0.00  0.00     0.038 A 
ATOM      8  C   LIG d   1       7.545   1.058  -3.988  0.00  0.00     0.149 A 
ATOM      9  O   LIG d   1       8.069   2.075  -3.270  0.00  0.00    -0.421 OA
ATOM     10  C   LIG d   1       9.331   2.490  -3.481  0.00  0.00     0.341 A 
ATOM     11  O   LIG d   1       9.778   3.409  -2.819  0.00  0.00    -0.245 OA
ATOM     12  C   LIG d   1       5.440   1.335  -2.684  0.00  0.00    -0.017 C 
ATOM     13  C   LIG d   1       3.950   1.043  -2.881  0.00  0.00    -0.009 C 
ATOM     14  C   LIG d   1       3.779  -0.468  -3.086  0.00  0.00     0.105 C 
ATOM     15  O   LIG d   1       4.432  -0.833  -4.302  0.00  0.00    -0.486 OA
ATOM     16  H   LIG d   1       6.046  -1.847  -6.046  0.00  0.00     0.069 H 
ATOM     17  H   LIG d   1       5.610   2.409  -2.745  0.00  0.00     0.032 H 
ATOM     18  H   LIG d   1       5.754   0.973  -1.705  0.00  0.00     0.032 H 
ATOM     19  H   LIG d   1       3.584   1.577  -3.757  0.00  0.00     0.031 H 
ATOM     20  H   LIG d   1       3.394   1.359  -1.998  0.00  0.00     0.031 H 
ENDROOT
BRANCH   1  21
ATOM     21  C   LIG d   1      11.551   2.368  -4.682  0.00  0.00     0.056 C 
ATOM     22  H   LIG d   1      11.993   2.646  -3.725  0.00  0.00     0.041 H 
ATOM     23  H   LIG d   1      12.141   1.575  -5.139  0.00  0.00     0.041 H 
BRANCH  21  24
ATOM     24  C   LIG d   1      11.530   3.569  -5.593  0.00  0.00     0.218 C 
ATOM     25  N   LIG d   1      10.357   4.034  -6.068  0.00  0.00    -0.307 N 
ATOM     26  H   LIG d   1       9.527   3.597  -5.821  0.00  0.00     0.149 HD
ATOM     27  O   LIG d   1      12.569   4.115  -5.901  0.00  0.00    -0.275 OA
BRANCH  25  28
ATOM     28  CA  LIG d   1      10.337   5.200  -6.953  0.00  0.00     0.063 C 
ATOM     29  HA  LIG d   1      11.354   5.441  -7.261  0.00  0.00     0.056 H 
BRANCH  28  30
ATOM     30  C   LIG d   1       9.490   4.888  -8.189  0.00  0.00    -0.029 C 
ATOM     31  H   LIG d   1       8.442   5.086  -7.969  0.00  0.00     0.029 H 
ATOM     32  H   LIG d   1       9.813   5.516  -9.019  0.00  0.00     0.029 H 
BRANCH  30  33
ATOM     33  C   LIG d   1       9.663   3.416  -8.566  0.00  0.00    -0.054 C 
ATOM     34  H   LIG d   1      10.234   3.342  -9.492  0.00  0.00     0.026 H 
ATOM     35  H   LIG d   1      10.196   2.896  -7.770  0.00  0.00     0.026 H 
BRANCH  33  36
ATOM     36  C   LIG d   1       8.288   2.775  -8.762  0.00  0.00    -0.065 C 
ATOM     37  H   LIG d   1       8.264   2.253  -9.720  0.00  0.00     0.023 H 
ATOM     38  H   LIG d   1       8.099   2.065  -7.957  0.00  0.00     0.023 H 
ATOM     39  H   LIG d   1       7.521   3.550  -8.752  0.00  0.00     0.023 H 
ENDBRANCH  33  36
ENDBRANCH  30  33
ENDBRANCH  28  30
BRANCH  28  40
ATOM     40  C   LIG d   1       9.743   6.376  -6.222  0.00  0.00     0.062 C 
ATOM     41  O   LIG d   1       9.757   7.473  -6.728  0.00  0.00    -0.548 OA
ATOM     42  OXT LIG d   1       9.197   6.205  -5.007  0.00  0.00    -0.548 OA
ENDBRANCH  28  40
ENDBRANCH  25  28
ENDBRANCH  21  24
ENDBRANCH   1  21
BRANCH   2  43
ATOM     43  C   LIG d   1      10.506   0.187  -6.248  0.00  0.00    -0.038 C 
ATOM     44  H   LIG d   1       9.932  -0.597  -6.742  0.00  0.00     0.028 H 
ATOM     45  H   LIG d   1      10.822   0.926  -6.984  0.00  0.00     0.028 H 
ATOM     46  H   LIG d   1      11.385  -0.252  -5.774  0.00  0.00     0.028 H 
ENDBRANCH   2  43
BRANCH   4  47
ATOM     47  O   LIG d   1       8.509  -1.260  -6.669  0.00  0.00    -0.494 OA
BRANCH  47  48
ATOM     48  C   LIG d   1       8.069  -2.553  -7.090  0.00  0.00     0.079 C 
ATOM     49  H   LIG d   1       7.165  -2.825  -6.546  0.00  0.00     0.066 H 
ATOM     50  H   LIG d   1       7.857  -2.533  -8.160  0.00  0.00     0.066 H 
ATOM     51  H   LIG d   1       8.850  -3.287  -6.889  0.00  0.00     0.066 H 
ENDBRANCH  47  48
ENDBRANCH   4  47
BRANCH  14  52
ATOM     52  C   LIG d   1       2.291  -0.810  -3.176  0.00  0.00    -0.025 C 
ATOM     53  H   LIG d   1       1.705   0.108  -3.156  0.00  0.00     0.027 H 
ATOM     54  H   LIG d   1       2.097  -1.346  -4.106  0.00  0.00     0.027 H 
ATOM     55  H   LIG d   1       2.011  -1.438  -2.330  0.00  0.00     0.027 H 
ENDBRANCH  14  52
BRANCH  14  56
ATOM     56  C   LIG d   1       4.412  -1.222  -1.914  0.00  0.00    -0.025 C 
ATOM     57  H   LIG d   1       3.896  -2.173  -1.775  0.00  0.00     0.027 H 
ATOM     58  H   LIG d   1       5.464  -1.408  -2.128  0.00  0.00     0.027 H 
ATOM     59  H   LIG d   1       4.324  -0.625  -1.007  0.00  0.00     0.027 H 
ENDBRANCH  14  56
TORSDOF 12
ENDMDL
MODEL 10
REMARK VINA RESULT:      -5.5      3.662      6.221
REMARK  12 active torsions:
REMARK  status: ('A' for Active; 'I' for Inactive)
REMARK    1  A    between atoms: C_1  and  C_2 
REMARK    2  A    between atoms: C_2  and  C_3 
REMARK    3  A    between atoms: C_3  and  CA_4 
REMARK    4  A    between atoms: CA_4  and  C_6 
REMARK    5  A    between atoms: CA_4  and  N_8 
REMARK       I    between atoms: N_8  and  C_9 
REMARK    6  A    between atoms: C_9  and  C_11 
REMARK    7  A    between atoms: C_11  and  C_12 
REMARK    8  A    between atoms: C_13  and  C_31 
REMARK    9  A    between atoms: C_15  and  O_29 
REMARK   10  A    between atoms: C_25  and  C_27 
REMARK   11  A    between atoms: C_25  and  C_28 
REMARK   12  A    between atoms: O_29  and  C_30 
ROOT
ATOM      1  C   LIG d   1       6.148  -3.238  -5.123  0.00  0.00     0.049 A 
ATOM      2  C   LIG d   1       5.671  -2.270  -4.296  0.00  0.00    -0.026 A 
ATOM      3  C   LIG d   1       6.330  -1.015  -4.264  0.00  0.00     0.063 A 
ATOM      4  C   LIG d   1       5.868   0.017  -3.427  0.00  0.00     0.135 A 
ATOM      5  C   LIG d   1       6.528   1.228  -3.416  0.00  0.00     0.023 A 
ATOM      6  C   LIG d   1       7.647   1.435  -4.223  0.00  0.00     0.131 A 
ATOM      7  C   LIG d   1       8.111   0.424  -5.046  0.00  0.00     0.038 A 
ATOM      8  C   LIG d   1       7.456  -0.803  -5.075  0.00  0.00     0.149 A 
ATOM      9  O   LIG d   1       7.904  -1.791  -5.881  0.00  0.00    -0.421 OA
ATOM     10  C   LIG d   1       7.284  -2.984  -5.917  0.00  0.00     0.341 A 
ATOM     11  O   LIG d   1       7.710  -3.857  -6.652  0.00  0.00    -0.245 OA
ATOM     12  C   LIG d   1       9.324   0.614  -5.920  0.00  0.00    -0.017 C 
ATOM     13  C   LIG d   1       9.618   2.108  -6.078  0.00  0.00    -0.009 C 
ATOM     14  C   LIG d   1       9.584   2.753  -4.686  0.00  0.00     0.105 C 
ATOM     15  O   LIG d   1       8.255   2.649  -4.175  0.00  0.00    -0.486 OA
ATOM     16  H   LIG d   1       6.174   2.024  -2.776  0.00  0.00     0.069 H 
ATOM     17  H   LIG d   1       9.137   0.177  -6.901  0.00  0.00     0.032 H 
ATOM     18  H   LIG d   1      10.181   0.122  -5.461  0.00  0.00     0.032 H 
ATOM     19  H   LIG d   1       8.862   2.567  -6.714  0.00  0.00     0.031 H 
ATOM     20  H   LIG d   1      10.604   2.244  -6.521  0.00  0.00     0.031 H 
ENDROOT
BRANCH   1  21
ATOM     21  C   LIG d   1       5.468  -4.582  -5.185  0.00  0.00     0.056 C 
ATOM     22  H   LIG d   1       6.207  -5.351  -5.411  0.00  0.00     0.041 H 
ATOM     23  H   LIG d   1       5.001  -4.797  -4.225  0.00  0.00     0.041 H 
BRANCH  21  24
ATOM     24  C   LIG d   1       4.416  -4.562  -6.264  0.00  0.00     0.218 C 
ATOM     25  N   LIG d   1       4.602  -3.820  -7.373  0.00  0.00    -0.307 N 
ATOM     26  H   LIG d   1       5.414  -3.299  -7.477  0.00  0.00     0.149 HD
ATOM     27  O   LIG d   1       3.401  -5.215  -6.133  0.00  0.00    -0.275 OA
BRANCH  25  28
ATOM     28  CA  LIG d   1       3.580  -3.801  -8.421  0.00  0.00     0.063 C 
ATOM     29  HA  LIG d   1       2.666  -4.263  -8.047  0.00  0.00     0.056 H 
BRANCH  28  30
ATOM     30  C   LIG d   1       3.290  -2.354  -8.826  0.00  0.00    -0.029 C 
ATOM     31  H   LIG d   1       3.422  -2.245  -9.902  0.00  0.00     0.029 H 
ATOM     32  H   LIG d   1       2.265  -2.099  -8.557  0.00  0.00     0.029 H 
BRANCH  30  33
ATOM     33  C   LIG d   1       4.256  -1.418  -8.096  0.00  0.00    -0.054 C 
ATOM     34  H   LIG d   1       4.942  -2.007  -7.487  0.00  0.00     0.026 H 
ATOM     35  H   LIG d   1       4.824  -0.841  -8.825  0.00  0.00     0.026 H 
BRANCH  33  36
ATOM     36  C   LIG d   1       3.463  -0.467  -7.197  0.00  0.00    -0.065 C 
ATOM     37  H   LIG d   1       3.194  -0.981  -6.273  0.00  0.00     0.023 H 
ATOM     38  H   LIG d   1       4.073   0.406  -6.963  0.00  0.00     0.023 H 
ATOM     39  H   LIG d   1       2.557  -0.150  -7.713  0.00  0.00     0.023 H 
ENDBRANCH  33  36
ENDBRANCH  30  33
ENDBRANCH  28  30
BRANCH  28  40
ATOM     40  C   LIG d   1       4.075  -4.568  -9.620  0.00  0.00     0.062 C 
ATOM     41  O   LIG d   1       3.285  -5.077 -10.380  0.00  0.00    -0.548 OA
ATOM     42  OXT LIG d   1       5.394  -4.684  -9.845  0.00  0.00    -0.548 OA
ENDBRANCH  28  40
ENDBRANCH  25  28
ENDBRANCH  21  24
ENDBRANCH   1  21
BRANCH   2  43
ATOM     43  C   LIG d   1       4.461  -2.526  -3.435  0.00  0.00    -0.038 C 
ATOM     44  H   LIG d   1       4.152  -1.597  -2.956  0.00  0.00     0.028 H 
ATOM     45  H   LIG d   1       3.647  -2.904  -4.054  0.00  0.00     0.028 H 
ATOM     46  H   LIG d   1       4.708  -3.264  -2.671  0.00  0.00     0.028 H 
ENDBRANCH   2  43
BRANCH   4  47
ATOM     47  O   LIG d   1       4.781  -0.176  -2.638  0.00  0.00    -0.494 OA
BRANCH  47  48
ATOM     48  C   LIG d   1       4.510   0.821  -1.651  0.00  0.00     0.079 C 
ATOM     49  H   LIG d   1       3.893   1.607  -2.087  0.00  0.00     0.066 H 
ATOM     50  H   LIG d   1       3.980   0.366  -0.813  0.00  0.00     0.066 H 
ATOM     51  H   LIG d   1       5.449   1.248  -1.298  0.00  0.00     0.066 H 
ENDBRANCH  47  48
ENDBRANCH   4  47
BRANCH  14  52
ATOM     52  C   LIG d   1       9.982   4.227  -4.791  0.00  0.00    -0.025 C 
ATOM     53  H   LIG d   1       9.398   4.706  -5.577  0.00  0.00     0.027 H 
ATOM     54  H   LIG d   1       9.790   4.724  -3.840  0.00  0.00     0.027 H 
ATOM     55  H   LIG d   1      11.042   4.300  -5.032  0.00  0.00     0.027 H 
ENDBRANCH  14  52
BRANCH  14  56
ATOM     56  C   LIG d   1      10.553   2.023  -3.754  0.00  0.00    -0.025 C 
ATOM     57  H   LIG d   1      10.605   0.971  -4.037  0.00  0.00     0.027 H 
ATOM     58  H   LIG d   1      11.543   2.470  -3.837  0.00  0.00     0.027 H 
ATOM     59  H   LIG d   1      10.201   2.106  -2.726  0.00  0.00     0.027 H 
ENDBRANCH  14  56
TORSDOF 12
ENDMDL
