MODEL 1
REMARK VINA RESULT:      -5.6      0.000      0.000
REMARK  9 active torsions:
REMARK  status: ('A' for Active; 'I' for Inactive)
REMARK    1  A    between atoms: C_1  and  O_2 
REMARK    2  A    between atoms: O_2  and  C_3 
REMARK    3  A    between atoms: C_5  and  N_13 
REMARK    4  A    between atoms: C_7  and  O_11 
REMARK    5  A    between atoms: C_8  and  O_9 
REMARK    6  A    between atoms: O_9  and  C_10 
REMARK    7  A    between atoms: O_11  and  C_12 
REMARK       I    between atoms: N_13  and  C_14 
REMARK    8  A    between atoms: C_14  and  C_16 
REMARK    9  A    between atoms: C_17  and  C_18 
ROOT
ATOM      1  C   LIG d   1       4.817  -9.478  -7.669  0.00  0.00     0.167 A 
ATOM      2  C   LIG d   1       5.170  -8.226  -7.191  0.00  0.00     0.005 A 
ATOM      3  C   LIG d   1       5.138  -7.970  -5.827  0.00  0.00     0.041 A 
ATOM      4  C   LIG d   1       4.753  -8.966  -4.940  0.00  0.00     0.005 A 
ATOM      5  C   LIG d   1       4.401 -10.220  -5.417  0.00  0.00     0.167 A 
ATOM      6  C   LIG d   1       4.431 -10.477  -6.782  0.00  0.00     0.204 A 
ATOM      7  H   LIG d   1       5.469  -7.450  -7.880  0.00  0.00     0.067 H 
ATOM      8  H   LIG d   1       4.729  -8.766  -3.880  0.00  0.00     0.067 H 
ENDROOT
BRANCH   3   9
ATOM      9  N   LIG d   1       5.496  -6.705  -5.344  0.00  0.00    -0.282 N 
ATOM     10  C   LIG d   1       4.669  -5.655  -5.525  0.00  0.00     0.241 C 
ATOM     11  O   LIG d   1       3.576  -5.823  -6.033  0.00  0.00    -0.271 OA
ATOM     12  H   LIG d   1       6.339  -6.584  -4.880  0.00  0.00     0.155 HD
BRANCH  10  13
ATOM     13  C   LIG d   1       5.087  -4.317  -5.112  0.00  0.00     0.001 C 
ATOM     14  C   LIG d   1       4.440  -3.689  -4.106  0.00  0.00    -0.050 C 
ATOM     15  H   LIG d   1       3.616  -4.176  -3.607  0.00  0.00     0.062 H 
ATOM     16  H   LIG d   1       5.912  -3.830  -5.610  0.00  0.00     0.067 H 
BRANCH  14  17
ATOM     17  C   LIG d   1       4.860  -2.343  -3.691  0.00  0.00    -0.021 A 
ATOM     18  C   LIG d   1       6.035  -1.783  -4.206  0.00  0.00    -0.009 A 
ATOM     19  C   LIG d   1       6.421  -0.516  -3.816  0.00  0.00     0.167 A 
ATOM     20  H   LIG d   1       6.636  -2.340  -4.909  0.00  0.00     0.066 H 
ATOM     21  C   LIG d   1       5.646   0.200  -2.903  0.00  0.00     0.166 A 
ATOM     22  O   LIG d   1       7.500   0.245  -4.164  0.00  0.00    -0.453 OA
ATOM     23  C   LIG d   1       4.483  -0.357  -2.389  0.00  0.00    -0.016 A 
ATOM     24  O   LIG d   1       6.241   1.407  -2.681  0.00  0.00    -0.453 OA
ATOM     25  C   LIG d   1       4.088  -1.618  -2.775  0.00  0.00    -0.051 A 
ATOM     26  H   LIG d   1       3.887   0.200  -1.681  0.00  0.00     0.066 H 
ATOM     27  H   LIG d   1       3.182  -2.047  -2.374  0.00  0.00     0.062 H 
ATOM     28  C   LIG d   1       7.162   1.589  -3.773  0.00  0.00     0.233 C 
ATOM     29  H   LIG d   1       6.681   2.118  -4.595  0.00  0.00     0.117 H 
ATOM     30  H   LIG d   1       8.051   2.125  -3.439  0.00  0.00     0.117 H 
ENDBRANCH  14  17
ENDBRANCH  10  13
ENDBRANCH   3   9
BRANCH   1  31
ATOM     31  O   LIG d   1       4.841  -9.728  -9.005  0.00  0.00    -0.491 OA
BRANCH  31  32
ATOM     32  C   LIG d   1       3.776  -9.184  -9.787  0.00  0.00     0.079 C 
ATOM     33  H   LIG d   1       4.035  -9.241 -10.844  0.00  0.00     0.066 H 
ATOM     34  H   LIG d   1       2.864  -9.755  -9.605  0.00  0.00     0.066 H 
ATOM     35  H   LIG d   1       3.613  -8.144  -9.507  0.00  0.00     0.066 H 
ENDBRANCH  31  32
ENDBRANCH   1  31
BRANCH   5  36
ATOM     36  O   LIG d   1       4.024 -11.196  -4.548  0.00  0.00    -0.491 OA
BRANCH  36  37
ATOM     37  C   LIG d   1       3.264 -10.792  -3.408  0.00  0.00     0.079 C 
ATOM     38  H   LIG d   1       2.205 -10.964  -3.597  0.00  0.00     0.066 H 
ATOM     39  H   LIG d   1       3.576 -11.372  -2.539  0.00  0.00     0.066 H 
ATOM     40  H   LIG d   1       3.432  -9.732  -3.216  0.00  0.00     0.066 H 
ENDBRANCH  36  37
ENDBRANCH   5  36
BRANCH   6  41
ATOM     41  O   LIG d   1       4.084 -11.707  -7.251  0.00  0.00    -0.488 OA
BRANCH  41  42
ATOM     42  C   LIG d   1       5.114 -12.696  -7.305  0.00  0.00     0.079 C 
ATOM     43  H   LIG d   1       5.352 -12.916  -8.345  0.00  0.00     0.066 H 
ATOM     44  H   LIG d   1       6.005 -12.321  -6.800  0.00  0.00     0.066 H 
ATOM     45  H   LIG d   1       4.772 -13.605  -6.810  0.00  0.00     0.066 H 
ENDBRANCH  41  42
ENDBRANCH   6  41
TORSDOF 9
ENDMDL
MODEL 2
REMARK VINA RESULT:      -5.5      4.583      8.072
REMARK  9 active torsions:
REMARK  status: ('A' for Active; 'I' for Inactive)
REMARK    1  A    between atoms: C_1  and  O_2 
REMARK    2  A    between atoms: O_2  and  C_3 
REMARK    3  A    between atoms: C_5  and  N_13 
REMARK    4  A    between atoms: C_7  and  O_11 
REMARK    5  A    between atoms: C_8  and  O_9 
REMARK    6  A    between atoms: O_9  and  C_10 
REMARK    7  A    between atoms: O_11  and  C_12 
REMARK       I    between atoms: N_13  and  C_14 
REMARK    8  A    between atoms: C_14  and  C_16 
REMARK    9  A    between atoms: C_17  and  C_18 
ROOT
ATOM      1  C   LIG d   1       6.796  -3.219  -4.784  0.00  0.00     0.167 A 
ATOM      2  C   LIG d   1       7.538  -2.116  -4.390  0.00  0.00     0.005 A 
ATOM      3  C   LIG d   1       6.920  -1.063  -3.730  0.00  0.00     0.041 A 
ATOM      4  C   LIG d   1       5.559  -1.112  -3.463  0.00  0.00     0.005 A 
ATOM      5  C   LIG d   1       4.815  -2.215  -3.855  0.00  0.00     0.167 A 
ATOM      6  C   LIG d   1       5.432  -3.269  -4.518  0.00  0.00     0.204 A 
ATOM      7  H   LIG d   1       8.597  -2.077  -4.598  0.00  0.00     0.067 H 
ATOM      8  H   LIG d   1       5.079  -0.293  -2.950  0.00  0.00     0.067 H 
ENDROOT
BRANCH   3   9
ATOM      9  N   LIG d   1       7.671   0.050  -3.332  0.00  0.00    -0.282 N 
ATOM     10  C   LIG d   1       7.755   1.129  -4.136  0.00  0.00     0.241 C 
ATOM     11  O   LIG d   1       7.111   1.170  -5.168  0.00  0.00    -0.271 OA
ATOM     12  H   LIG d   1       8.131   0.044  -2.478  0.00  0.00     0.155 HD
BRANCH  10  13
ATOM     13  C   LIG d   1       8.619   2.249  -3.767  0.00  0.00     0.001 C 
ATOM     14  C   LIG d   1       8.729   3.315  -4.589  0.00  0.00    -0.050 C 
ATOM     15  H   LIG d   1       8.179   3.340  -5.517  0.00  0.00     0.062 H 
ATOM     16  H   LIG d   1       9.169   2.225  -2.838  0.00  0.00     0.067 H 
BRANCH  14  17
ATOM     17  C   LIG d   1       9.599   4.442  -4.218  0.00  0.00    -0.021 A 
ATOM     18  C   LIG d   1       9.977   4.627  -2.883  0.00  0.00    -0.009 A 
ATOM     19  C   LIG d   1      10.798   5.683  -2.542  0.00  0.00     0.167 A 
ATOM     20  H   LIG d   1       9.631   3.942  -2.124  0.00  0.00     0.066 H 
ATOM     21  C   LIG d   1      11.240   6.570  -3.525  0.00  0.00     0.166 A 
ATOM     22  O   LIG d   1      11.307   6.078  -1.338  0.00  0.00    -0.453 OA
ATOM     23  C   LIG d   1      10.861   6.388  -4.848  0.00  0.00    -0.016 A 
ATOM     24  O   LIG d   1      12.024   7.517  -2.935  0.00  0.00    -0.453 OA
ATOM     25  C   LIG d   1      10.046   5.335  -5.198  0.00  0.00    -0.051 A 
ATOM     26  H   LIG d   1      11.205   7.077  -5.606  0.00  0.00     0.066 H 
ATOM     27  H   LIG d   1       9.754   5.197  -6.229  0.00  0.00     0.062 H 
ATOM     28  C   LIG d   1      12.392   6.970  -1.655  0.00  0.00     0.233 C 
ATOM     29  H   LIG d   1      13.330   6.420  -1.729  0.00  0.00     0.117 H 
ATOM     30  H   LIG d   1      12.469   7.760  -0.908  0.00  0.00     0.117 H 
ENDBRANCH  14  17
ENDBRANCH  10  13
ENDBRANCH   3   9
BRANCH   1  31
ATOM     31  O   LIG d   1       7.400  -4.247  -5.436  0.00  0.00    -0.491 OA
BRANCH  31  32
ATOM     32  C   LIG d   1       8.307  -5.052  -4.680  0.00  0.00     0.079 C 
ATOM     33  H   LIG d   1       8.969  -4.408  -4.102  0.00  0.00     0.066 H 
ATOM     34  H   LIG d   1       7.744  -5.695  -4.004  0.00  0.00     0.066 H 
ATOM     35  H   LIG d   1       8.898  -5.668  -5.357  0.00  0.00     0.066 H 
ENDBRANCH  31  32
ENDBRANCH   1  31
BRANCH   5  36
ATOM     36  O   LIG d   1       3.481  -2.263  -3.593  0.00  0.00    -0.491 OA
BRANCH  36  37
ATOM     37  C   LIG d   1       2.878  -1.075  -3.078  0.00  0.00     0.079 C 
ATOM     38  H   LIG d   1       3.518  -0.220  -3.291  0.00  0.00     0.066 H 
ATOM     39  H   LIG d   1       1.906  -0.928  -3.549  0.00  0.00     0.066 H 
ATOM     40  H   LIG d   1       2.747  -1.173  -2.000  0.00  0.00     0.066 H 
ENDBRANCH  36  37
ENDBRANCH   5  36
BRANCH   6  41
ATOM     41  O   LIG d   1       4.703  -4.351  -4.904  0.00  0.00    -0.488 OA
BRANCH  41  42
ATOM     42  C   LIG d   1       4.262  -4.385  -6.263  0.00  0.00     0.079 C 
ATOM     43  H   LIG d   1       3.251  -4.790  -6.307  0.00  0.00     0.066 H 
ATOM     44  H   LIG d   1       4.267  -3.375  -6.673  0.00  0.00     0.066 H 
ATOM     45  H   LIG d   1       4.932  -5.017  -6.847  0.00  0.00     0.066 H 
ENDBRANCH  41  42
ENDBRANCH   6  41
TORSDOF 9
ENDMDL
MODEL 3
REMARK VINA RESULT:      -5.3      4.610      8.235
REMARK  9 active torsions:
REMARK  status: ('A' for Active; 'I' for Inactive)
REMARK    1  A    between atoms: C_1  and  O_2 
REMARK    2  A    between atoms: O_2  and  C_3 
REMARK    3  A    between atoms: C_5  and  N_13 
REMARK    4  A    between atoms: C_7  and  O_11 
REMARK    5  A    between atoms: C_8  and  O_9 
REMARK    6  A    between atoms: O_9  and  C_10 
REMARK    7  A    between atoms: O_11  and  C_12 
REMARK       I    between atoms: N_13  and  C_14 
REMARK    8  A    between atoms: C_14  and  C_16 
REMARK    9  A    between atoms: C_17  and  C_18 
ROOT
ATOM      1  C   LIG d   1       4.773  -1.990  -3.857  0.00  0.00     0.167 A 
ATOM      2  C   LIG d   1       5.523  -0.856  -3.588  0.00  0.00     0.005 A 
ATOM      3  C   LIG d   1       6.883  -0.842  -3.864  0.00  0.00     0.041 A 
ATOM      4  C   LIG d   1       7.493  -1.963  -4.411  0.00  0.00     0.005 A 
ATOM      5  C   LIG d   1       6.744  -3.097  -4.682  0.00  0.00     0.167 A 
ATOM      6  C   LIG d   1       5.382  -3.113  -4.404  0.00  0.00     0.204 A 
ATOM      7  H   LIG d   1       5.049   0.016  -3.162  0.00  0.00     0.067 H 
ATOM      8  H   LIG d   1       8.551  -1.952  -4.626  0.00  0.00     0.067 H 
ENDROOT
BRANCH   3   9
ATOM      9  N   LIG d   1       7.641   0.303  -3.593  0.00  0.00    -0.282 N 
ATOM     10  C   LIG d   1       7.748   1.277  -4.520  0.00  0.00     0.241 C 
ATOM     11  O   LIG d   1       7.118   1.200  -5.558  0.00  0.00    -0.271 OA
ATOM     12  H   LIG d   1       8.091   0.396  -2.738  0.00  0.00     0.155 HD
BRANCH  10  13
ATOM     13  C   LIG d   1       8.620   2.424  -4.277  0.00  0.00     0.001 C 
ATOM     14  C   LIG d   1       9.591   2.348  -3.341  0.00  0.00    -0.050 C 
ATOM     15  H   LIG d   1       9.723   1.439  -2.773  0.00  0.00     0.062 H 
ATOM     16  H   LIG d   1       8.490   3.333  -4.846  0.00  0.00     0.067 H 
BRANCH  14  17
ATOM     17  C   LIG d   1      10.469   3.501  -3.096  0.00  0.00    -0.021 A 
ATOM     18  C   LIG d   1       9.952   4.666  -2.515  0.00  0.00    -0.009 A 
ATOM     19  C   LIG d   1      10.782   5.744  -2.283  0.00  0.00     0.167 A 
ATOM     20  H   LIG d   1       8.908   4.718  -2.247  0.00  0.00     0.066 H 
ATOM     21  C   LIG d   1      12.130   5.677  -2.636  0.00  0.00     0.166 A 
ATOM     22  O   LIG d   1      10.535   6.971  -1.737  0.00  0.00    -0.453 OA
ATOM     23  C   LIG d   1      12.641   4.524  -3.217  0.00  0.00    -0.016 A 
ATOM     24  O   LIG d   1      12.724   6.861  -2.311  0.00  0.00    -0.453 OA
ATOM     25  C   LIG d   1      11.822   3.442  -3.448  0.00  0.00    -0.051 A 
ATOM     26  H   LIG d   1      13.685   4.476  -3.490  0.00  0.00     0.066 H 
ATOM     27  H   LIG d   1      12.224   2.546  -3.899  0.00  0.00     0.062 H 
ATOM     28  C   LIG d   1      11.827   7.500  -1.385  0.00  0.00     0.233 C 
ATOM     29  H   LIG d   1      12.083   7.235  -0.359  0.00  0.00     0.117 H 
ATOM     30  H   LIG d   1      11.847   8.582  -1.517  0.00  0.00     0.117 H 
ENDBRANCH  14  17
ENDBRANCH  10  13
ENDBRANCH   3   9
BRANCH   1  31
ATOM     31  O   LIG d   1       3.442  -2.006  -3.580  0.00  0.00    -0.491 OA
BRANCH  31  32
ATOM     32  C   LIG d   1       2.823  -0.749  -3.295  0.00  0.00     0.079 C 
ATOM     33  H   LIG d   1       1.771  -0.907  -3.060  0.00  0.00     0.066 H 
ATOM     34  H   LIG d   1       3.320  -0.286  -2.442  0.00  0.00     0.066 H 
ATOM     35  H   LIG d   1       2.909  -0.096  -4.163  0.00  0.00     0.066 H 
ENDBRANCH  31  32
ENDBRANCH   1  31
BRANCH   5  36
ATOM     36  O   LIG d   1       7.342  -4.195  -5.217  0.00  0.00    -0.491 OA
BRANCH  36  37
ATOM     37  C   LIG d   1       8.462  -4.733  -4.513  0.00  0.00     0.079 C 
ATOM     38  H   LIG d   1       8.111  -5.345  -3.684  0.00  0.00     0.066 H 
ATOM     39  H   LIG d   1       9.057  -5.346  -5.191  0.00  0.00     0.066 H 
ATOM     40  H   LIG d   1       9.075  -3.917  -4.130  0.00  0.00     0.066 H 
ENDBRANCH  36  37
ENDBRANCH   5  36
BRANCH   6  41
ATOM     41  O   LIG d   1       4.646  -4.227  -4.668  0.00  0.00    -0.488 OA
BRANCH  41  42
ATOM     42  C   LIG d   1       4.303  -4.469  -6.035  0.00  0.00     0.079 C 
ATOM     43  H   LIG d   1       4.915  -3.839  -6.679  0.00  0.00     0.066 H 
ATOM     44  H   LIG d   1       4.484  -5.517  -6.275  0.00  0.00     0.066 H 
ATOM     45  H   LIG d   1       3.250  -4.237  -6.192  0.00  0.00     0.066 H 
ENDBRANCH  41  42
ENDBRANCH   6  41
TORSDOF 9
ENDMDL
MODEL 4
REMARK VINA RESULT:      -5.3      1.144      2.921
REMARK  9 active torsions:
REMARK  status: ('A' for Active; 'I' for Inactive)
REMARK    1  A    between atoms: C_1  and  O_2 
REMARK    2  A    between atoms: O_2  and  C_3 
REMARK    3  A    between atoms: C_5  and  N_13 
REMARK    4  A    between atoms: C_7  and  O_11 
REMARK    5  A    between atoms: C_8  and  O_9 
REMARK    6  A    between atoms: O_9  and  C_10 
REMARK    7  A    between atoms: O_11  and  C_12 
REMARK       I    between atoms: N_13  and  C_14 
REMARK    8  A    between atoms: C_14  and  C_16 
REMARK    9  A    between atoms: C_17  and  C_18 
ROOT
ATOM      1  C   LIG d   1       4.378 -10.278  -5.642  0.00  0.00     0.167 A 
ATOM      2  C   LIG d   1       4.605  -8.995  -5.170  0.00  0.00     0.005 A 
ATOM      3  C   LIG d   1       5.420  -8.126  -5.883  0.00  0.00     0.041 A 
ATOM      4  C   LIG d   1       6.006  -8.541  -7.071  0.00  0.00     0.005 A 
ATOM      5  C   LIG d   1       5.779  -9.823  -7.546  0.00  0.00     0.167 A 
ATOM      6  C   LIG d   1       4.965 -10.694  -6.832  0.00  0.00     0.204 A 
ATOM      7  H   LIG d   1       4.150  -8.671  -4.245  0.00  0.00     0.067 H 
ATOM      8  H   LIG d   1       6.639  -7.865  -7.626  0.00  0.00     0.067 H 
ENDROOT
BRANCH   3   9
ATOM      9  N   LIG d   1       5.649  -6.830  -5.406  0.00  0.00    -0.282 N 
ATOM     10  C   LIG d   1       4.841  -5.819  -5.783  0.00  0.00     0.241 C 
ATOM     11  O   LIG d   1       3.862  -6.047  -6.471  0.00  0.00    -0.271 OA
ATOM     12  H   LIG d   1       6.391  -6.660  -4.804  0.00  0.00     0.155 HD
BRANCH  10  13
ATOM     13  C   LIG d   1       5.140  -4.450  -5.367  0.00  0.00     0.001 C 
ATOM     14  C   LIG d   1       4.651  -3.978  -4.200  0.00  0.00    -0.050 C 
ATOM     15  H   LIG d   1       4.039  -4.611  -3.575  0.00  0.00     0.062 H 
ATOM     16  H   LIG d   1       5.752  -3.817  -5.991  0.00  0.00     0.067 H 
BRANCH  14  17
ATOM     17  C   LIG d   1       4.951  -2.601  -3.782  0.00  0.00    -0.021 A 
ATOM     18  C   LIG d   1       3.927  -1.773  -3.305  0.00  0.00    -0.009 A 
ATOM     19  C   LIG d   1       4.216  -0.483  -2.907  0.00  0.00     0.167 A 
ATOM     20  H   LIG d   1       2.916  -2.145  -3.244  0.00  0.00     0.066 H 
ATOM     21  C   LIG d   1       5.524  -0.002  -2.992  0.00  0.00     0.166 A 
ATOM     22  O   LIG d   1       3.419   0.508  -2.412  0.00  0.00    -0.453 OA
ATOM     23  C   LIG d   1       6.537  -0.822  -3.469  0.00  0.00    -0.016 A 
ATOM     24  O   LIG d   1       5.542   1.288  -2.549  0.00  0.00    -0.453 OA
ATOM     25  C   LIG d   1       6.259  -2.112  -3.863  0.00  0.00    -0.051 A 
ATOM     26  H   LIG d   1       7.548  -0.446  -3.533  0.00  0.00     0.066 H 
ATOM     27  H   LIG d   1       7.051  -2.746  -4.233  0.00  0.00     0.062 H 
ATOM     28  C   LIG d   1       4.317   1.459  -1.811  0.00  0.00     0.233 C 
ATOM     29  H   LIG d   1       4.471   1.227  -0.757  0.00  0.00     0.117 H 
ATOM     30  H   LIG d   1       3.937   2.474  -1.929  0.00  0.00     0.117 H 
ENDBRANCH  14  17
ENDBRANCH  10  13
ENDBRANCH   3   9
BRANCH   1  31
ATOM     31  O   LIG d   1       3.586 -11.131  -4.940  0.00  0.00    -0.491 OA
BRANCH  31  32
ATOM     32  C   LIG d   1       3.409 -10.855  -3.549  0.00  0.00     0.079 C 
ATOM     33  H   LIG d   1       4.236 -10.242  -3.191  0.00  0.00     0.066 H 
ATOM     34  H   LIG d   1       2.470 -10.321  -3.401  0.00  0.00     0.066 H 
ATOM     35  H   LIG d   1       3.384 -11.792  -2.993  0.00  0.00     0.066 H 
ENDBRANCH  31  32
ENDBRANCH   1  31
BRANCH   5  36
ATOM     36  O   LIG d   1       6.354 -10.229  -8.710  0.00  0.00    -0.491 OA
BRANCH  36  37
ATOM     37  C   LIG d   1       6.746  -9.209  -9.631  0.00  0.00     0.079 C 
ATOM     38  H   LIG d   1       5.972  -9.085 -10.387  0.00  0.00     0.066 H 
ATOM     39  H   LIG d   1       6.882  -8.270  -9.095  0.00  0.00     0.066 H 
ATOM     40  H   LIG d   1       7.682  -9.493 -10.110  0.00  0.00     0.066 H 
ENDBRANCH  36  37
ENDBRANCH   5  36
BRANCH   6  41
ATOM     41  O   LIG d   1       4.742 -11.954  -7.296  0.00  0.00    -0.488 OA
BRANCH  41  42
ATOM     42  C   LIG d   1       3.633 -12.133  -8.180  0.00  0.00     0.079 C 
ATOM     43  H   LIG d   1       3.952 -12.705  -9.051  0.00  0.00     0.066 H 
ATOM     44  H   LIG d   1       2.839 -12.671  -7.663  0.00  0.00     0.066 H 
ATOM     45  H   LIG d   1       3.263 -11.159  -8.501  0.00  0.00     0.066 H 
ENDBRANCH  41  42
ENDBRANCH   6  41
TORSDOF 9
ENDMDL
MODEL 5
REMARK VINA RESULT:      -5.2      5.556     13.454
REMARK  9 active torsions:
REMARK  status: ('A' for Active; 'I' for Inactive)
REMARK    1  A    between atoms: C_1  and  O_2 
REMARK    2  A    between atoms: O_2  and  C_3 
REMARK    3  A    between atoms: C_5  and  N_13 
REMARK    4  A    between atoms: C_7  and  O_11 
REMARK    5  A    between atoms: C_8  and  O_9 
REMARK    6  A    between atoms: O_9  and  C_10 
REMARK    7  A    between atoms: O_11  and  C_12 
REMARK       I    between atoms: N_13  and  C_14 
REMARK    8  A    between atoms: C_14  and  C_16 
REMARK    9  A    between atoms: C_17  and  C_18 
ROOT
ATOM      1  C   LIG d   1      12.596   5.635  -3.206  0.00  0.00     0.167 A 
ATOM      2  C   LIG d   1      11.911   4.430  -3.212  0.00  0.00     0.005 A 
ATOM      3  C   LIG d   1      10.552   4.402  -2.931  0.00  0.00     0.041 A 
ATOM      4  C   LIG d   1       9.877   5.581  -2.646  0.00  0.00     0.005 A 
ATOM      5  C   LIG d   1      10.559   6.788  -2.641  0.00  0.00     0.167 A 
ATOM      6  C   LIG d   1      11.921   6.817  -2.920  0.00  0.00     0.204 A 
ATOM      7  H   LIG d   1      12.436   3.513  -3.433  0.00  0.00     0.067 H 
ATOM      8  H   LIG d   1       8.820   5.559  -2.428  0.00  0.00     0.067 H 
ENDROOT
BRANCH   3   9
ATOM      9  N   LIG d   1       9.860   3.185  -2.937  0.00  0.00    -0.282 N 
ATOM     10  C   LIG d   1       9.208   2.785  -4.047  0.00  0.00     0.241 C 
ATOM     11  O   LIG d   1       9.290   3.440  -5.070  0.00  0.00    -0.271 OA
ATOM     12  H   LIG d   1       9.850   2.630  -2.141  0.00  0.00     0.155 HD
BRANCH  10  13
ATOM     13  C   LIG d   1       8.403   1.565  -4.022  0.00  0.00     0.001 C 
ATOM     14  C   LIG d   1       7.128   1.607  -3.577  0.00  0.00    -0.050 C 
ATOM     15  H   LIG d   1       6.704   2.542  -3.242  0.00  0.00     0.062 H 
ATOM     16  H   LIG d   1       8.827   0.631  -4.359  0.00  0.00     0.067 H 
BRANCH  14  17
ATOM     17  C   LIG d   1       6.318   0.381  -3.552  0.00  0.00    -0.021 A 
ATOM     18  C   LIG d   1       6.433  -0.558  -4.584  0.00  0.00    -0.009 A 
ATOM     19  C   LIG d   1       5.674  -1.710  -4.552  0.00  0.00     0.167 A 
ATOM     20  H   LIG d   1       7.116  -0.382  -5.401  0.00  0.00     0.066 H 
ATOM     21  C   LIG d   1       4.787  -1.933  -3.497  0.00  0.00     0.166 A 
ATOM     22  O   LIG d   1       5.600  -2.766  -5.414  0.00  0.00    -0.453 OA
ATOM     23  C   LIG d   1       4.670  -1.000  -2.476  0.00  0.00    -0.016 A 
ATOM     24  O   LIG d   1       4.160  -3.127  -3.702  0.00  0.00    -0.453 OA
ATOM     25  C   LIG d   1       5.427   0.150  -2.498  0.00  0.00    -0.051 A 
ATOM     26  H   LIG d   1       3.982  -1.176  -1.663  0.00  0.00     0.066 H 
ATOM     27  H   LIG d   1       5.334   0.873  -1.701  0.00  0.00     0.062 H 
ATOM     28  C   LIG d   1       4.965  -3.824  -4.672  0.00  0.00     0.233 C 
ATOM     29  H   LIG d   1       5.711  -4.444  -4.175  0.00  0.00     0.117 H 
ATOM     30  H   LIG d   1       4.338  -4.429  -5.327  0.00  0.00     0.117 H 
ENDBRANCH  14  17
ENDBRANCH  10  13
ENDBRANCH   3   9
BRANCH   1  31
ATOM     31  O   LIG d   1      13.928   5.662  -3.474  0.00  0.00    -0.491 OA
BRANCH  31  32
ATOM     32  C   LIG d   1      14.620   4.411  -3.452  0.00  0.00     0.079 C 
ATOM     33  H   LIG d   1      13.899   3.596  -3.512  0.00  0.00     0.066 H 
ATOM     34  H   LIG d   1      15.301   4.358  -4.302  0.00  0.00     0.066 H 
ATOM     35  H   LIG d   1      15.188   4.326  -2.526  0.00  0.00     0.066 H 
ENDBRANCH  31  32
ENDBRANCH   1  31
BRANCH   5  36
ATOM     36  O   LIG d   1       9.897   7.942  -2.362  0.00  0.00    -0.491 OA
BRANCH  36  37
ATOM     37  C   LIG d   1       9.350   8.075  -1.049  0.00  0.00     0.079 C 
ATOM     38  H   LIG d   1       9.946   8.784  -0.476  0.00  0.00     0.066 H 
ATOM     39  H   LIG d   1       8.324   8.437  -1.119  0.00  0.00     0.066 H 
ATOM     40  H   LIG d   1       9.360   7.106  -0.552  0.00  0.00     0.066 H 
ENDBRANCH  36  37
ENDBRANCH   5  36
BRANCH   6  41
ATOM     41  O   LIG d   1      12.592   8.000  -2.915  0.00  0.00    -0.488 OA
BRANCH  41  42
ATOM     42  C   LIG d   1      13.156   8.421  -1.670  0.00  0.00     0.079 C 
ATOM     43  H   LIG d   1      13.747   7.610  -1.246  0.00  0.00     0.066 H 
ATOM     44  H   LIG d   1      13.795   9.289  -1.835  0.00  0.00     0.066 H 
ATOM     45  H   LIG d   1      12.355   8.687  -0.980  0.00  0.00     0.066 H 
ENDBRANCH  41  42
ENDBRANCH   6  41
TORSDOF 9
ENDMDL
MODEL 6
REMARK VINA RESULT:      -5.1      6.953     14.725
REMARK  9 active torsions:
REMARK  status: ('A' for Active; 'I' for Inactive)
REMARK    1  A    between atoms: C_1  and  O_2 
REMARK    2  A    between atoms: O_2  and  C_3 
REMARK    3  A    between atoms: C_5  and  N_13 
REMARK    4  A    between atoms: C_7  and  O_11 
REMARK    5  A    between atoms: C_8  and  O_9 
REMARK    6  A    between atoms: O_9  and  C_10 
REMARK    7  A    between atoms: O_11  and  C_12 
REMARK       I    between atoms: N_13  and  C_14 
REMARK    8  A    between atoms: C_14  and  C_16 
REMARK    9  A    between atoms: C_17  and  C_18 
ROOT
ATOM      1  C   LIG d   1      12.698   6.338  -0.374  0.00  0.00     0.167 A 
ATOM      2  C   LIG d   1      12.026   5.356  -1.084  0.00  0.00     0.005 A 
ATOM      3  C   LIG d   1      10.718   5.569  -1.495  0.00  0.00     0.041 A 
ATOM      4  C   LIG d   1      10.081   6.765  -1.196  0.00  0.00     0.005 A 
ATOM      5  C   LIG d   1      10.751   7.750  -0.487  0.00  0.00     0.167 A 
ATOM      6  C   LIG d   1      12.061   7.537  -0.073  0.00  0.00     0.204 A 
ATOM      7  H   LIG d   1      12.521   4.425  -1.317  0.00  0.00     0.067 H 
ATOM      8  H   LIG d   1       9.063   6.930  -1.516  0.00  0.00     0.067 H 
ENDROOT
BRANCH   3   9
ATOM      9  N   LIG d   1      10.039   4.576  -2.214  0.00  0.00    -0.282 N 
ATOM     10  C   LIG d   1      10.078   4.573  -3.561  0.00  0.00     0.241 C 
ATOM     11  O   LIG d   1      10.770   5.382  -4.151  0.00  0.00    -0.271 OA
ATOM     12  H   LIG d   1       9.541   3.892  -1.741  0.00  0.00     0.155 HD
BRANCH  10  13
ATOM     13  C   LIG d   1       9.288   3.599  -4.312  0.00  0.00     0.001 C 
ATOM     14  C   LIG d   1       8.698   2.569  -3.669  0.00  0.00    -0.050 C 
ATOM     15  H   LIG d   1       8.810   2.465  -2.600  0.00  0.00     0.062 H 
ATOM     16  H   LIG d   1       9.175   3.704  -5.381  0.00  0.00     0.067 H 
BRANCH  14  17
ATOM     17  C   LIG d   1       7.904   1.589  -4.424  0.00  0.00    -0.021 A 
ATOM     18  C   LIG d   1       6.932   0.821  -3.772  0.00  0.00    -0.009 A 
ATOM     19  C   LIG d   1       6.185  -0.093  -4.487  0.00  0.00     0.167 A 
ATOM     20  H   LIG d   1       6.765   0.947  -2.713  0.00  0.00     0.066 H 
ATOM     21  C   LIG d   1       6.407  -0.259  -5.856  0.00  0.00     0.166 A 
ATOM     22  O   LIG d   1       5.193  -0.948  -4.101  0.00  0.00    -0.453 OA
ATOM     23  C   LIG d   1       7.374   0.500  -6.501  0.00  0.00    -0.016 A 
ATOM     24  O   LIG d   1       5.554  -1.216  -6.321  0.00  0.00    -0.453 OA
ATOM     25  C   LIG d   1       8.120   1.418  -5.796  0.00  0.00    -0.051 A 
ATOM     26  H   LIG d   1       7.543   0.369  -7.560  0.00  0.00     0.066 H 
ATOM     27  H   LIG d   1       8.871   2.007  -6.303  0.00  0.00     0.062 H 
ATOM     28  C   LIG d   1       4.530  -1.342  -5.316  0.00  0.00     0.233 C 
ATOM     29  H   LIG d   1       3.698  -0.672  -5.532  0.00  0.00     0.117 H 
ATOM     30  H   LIG d   1       4.185  -2.373  -5.248  0.00  0.00     0.117 H 
ENDBRANCH  14  17
ENDBRANCH  10  13
ENDBRANCH   3   9
BRANCH   1  31
ATOM     31  O   LIG d   1      13.977   6.128   0.035  0.00  0.00    -0.491 OA
BRANCH  31  32
ATOM     32  C   LIG d   1      14.974   6.019  -0.984  0.00  0.00     0.079 C 
ATOM     33  H   LIG d   1      14.758   6.730  -1.781  0.00  0.00     0.066 H 
ATOM     34  H   LIG d   1      15.954   6.238  -0.557  0.00  0.00     0.066 H 
ATOM     35  H   LIG d   1      14.973   5.007  -1.388  0.00  0.00     0.066 H 
ENDBRANCH  31  32
ENDBRANCH   1  31
BRANCH   5  36
ATOM     36  O   LIG d   1      10.127   8.922  -0.194  0.00  0.00    -0.491 OA
BRANCH  36  37
ATOM     37  C   LIG d   1       8.780   9.071  -0.648  0.00  0.00     0.079 C 
ATOM     38  H   LIG d   1       8.122   9.213   0.208  0.00  0.00     0.066 H 
ATOM     39  H   LIG d   1       8.712   9.937  -1.305  0.00  0.00     0.066 H 
ATOM     40  H   LIG d   1       8.480   8.176  -1.194  0.00  0.00     0.066 H 
ENDBRANCH  36  37
ENDBRANCH   5  36
BRANCH   6  41
ATOM     41  O   LIG d   1      12.720   8.502   0.624  0.00  0.00    -0.488 OA
BRANCH  41  42
ATOM     42  C   LIG d   1      13.464   9.458  -0.134  0.00  0.00     0.079 C 
ATOM     43  H   LIG d   1      14.459   9.064  -0.339  0.00  0.00     0.066 H 
ATOM     44  H   LIG d   1      12.951   9.655  -1.076  0.00  0.00     0.066 H 
ATOM     45  H   LIG d   1      13.550  10.385   0.433  0.00  0.00     0.066 H 
ENDBRANCH  41  42
ENDBRANCH   6  41
TORSDOF 9
ENDMDL
MODEL 7
REMARK VINA RESULT:      -5.1      7.699     11.589
REMARK  9 active torsions:
REMARK  status: ('A' for Active; 'I' for Inactive)
REMARK    1  A    between atoms: C_1  and  O_2 
REMARK    2  A    between atoms: O_2  and  C_3 
REMARK    3  A    between atoms: C_5  and  N_13 
REMARK    4  A    between atoms: C_7  and  O_11 
REMARK    5  A    between atoms: C_8  and  O_9 
REMARK    6  A    between atoms: O_9  and  C_10 
REMARK    7  A    between atoms: O_11  and  C_12 
REMARK       I    between atoms: N_13  and  C_14 
REMARK    8  A    between atoms: C_14  and  C_16 
REMARK    9  A    between atoms: C_17  and  C_18 
ROOT
ATOM      1  C   LIG d   1       8.723   1.710  -6.455  0.00  0.00     0.167 A 
ATOM      2  C   LIG d   1       9.156   2.809  -5.730  0.00  0.00     0.005 A 
ATOM      3  C   LIG d   1       8.845   2.917  -4.381  0.00  0.00     0.041 A 
ATOM      4  C   LIG d   1       8.100   1.925  -3.758  0.00  0.00     0.005 A 
ATOM      5  C   LIG d   1       7.668   0.825  -4.481  0.00  0.00     0.167 A 
ATOM      6  C   LIG d   1       7.977   0.716  -5.832  0.00  0.00     0.204 A 
ATOM      7  H   LIG d   1       9.735   3.581  -6.215  0.00  0.00     0.067 H 
ATOM      8  H   LIG d   1       7.859   2.010  -2.709  0.00  0.00     0.067 H 
ENDROOT
BRANCH   3   9
ATOM      9  N   LIG d   1       9.283   4.027  -3.649  0.00  0.00    -0.282 N 
ATOM     10  C   LIG d   1      10.257   3.885  -2.727  0.00  0.00     0.241 C 
ATOM     11  O   LIG d   1      10.813   2.811  -2.591  0.00  0.00    -0.271 OA
ATOM     12  H   LIG d   1       8.885   4.898  -3.804  0.00  0.00     0.155 HD
BRANCH  10  13
ATOM     13  C   LIG d   1      10.643   5.021  -1.892  0.00  0.00     0.001 C 
ATOM     14  C   LIG d   1       9.878   6.133  -1.870  0.00  0.00    -0.050 C 
ATOM     15  H   LIG d   1       8.981   6.183  -2.469  0.00  0.00     0.062 H 
ATOM     16  H   LIG d   1      11.539   4.970  -1.291  0.00  0.00     0.067 H 
BRANCH  14  17
ATOM     17  C   LIG d   1      10.266   7.276  -1.030  0.00  0.00    -0.021 A 
ATOM     18  C   LIG d   1      10.834   7.059   0.231  0.00  0.00    -0.009 A 
ATOM     19  C   LIG d   1      11.202   8.135   1.013  0.00  0.00     0.167 A 
ATOM     20  H   LIG d   1      10.987   6.052   0.589  0.00  0.00     0.066 H 
ATOM     21  C   LIG d   1      10.998   9.436   0.551  0.00  0.00     0.166 A 
ATOM     22  O   LIG d   1      11.767   8.197   2.255  0.00  0.00    -0.453 OA
ATOM     23  C   LIG d   1      10.430   9.651  -0.698  0.00  0.00    -0.016 A 
ATOM     24  O   LIG d   1      11.435  10.309   1.503  0.00  0.00    -0.453 OA
ATOM     25  C   LIG d   1      10.065   8.583  -1.486  0.00  0.00    -0.051 A 
ATOM     26  H   LIG d   1      10.274  10.659  -1.051  0.00  0.00     0.066 H 
ATOM     27  H   LIG d   1       9.625   8.755  -2.458  0.00  0.00     0.062 H 
ATOM     28  C   LIG d   1      12.282   9.536   2.374  0.00  0.00     0.233 C 
ATOM     29  H   LIG d   1      13.318   9.579   2.038  0.00  0.00     0.117 H 
ATOM     30  H   LIG d   1      12.198   9.889   3.403  0.00  0.00     0.117 H 
ENDBRANCH  14  17
ENDBRANCH  10  13
ENDBRANCH   3   9
BRANCH   1  31
ATOM     31  O   LIG d   1       9.022   1.607  -7.777  0.00  0.00    -0.491 OA
BRANCH  31  32
ATOM     32  C   LIG d   1       8.308   2.462  -8.673  0.00  0.00     0.079 C 
ATOM     33  H   LIG d   1       8.661   3.486  -8.557  0.00  0.00     0.066 H 
ATOM     34  H   LIG d   1       8.475   2.133  -9.699  0.00  0.00     0.066 H 
ATOM     35  H   LIG d   1       7.242   2.417  -8.447  0.00  0.00     0.066 H 
ENDBRANCH  31  32
ENDBRANCH   1  31
BRANCH   5  36
ATOM     36  O   LIG d   1       6.938  -0.147  -3.870  0.00  0.00    -0.491 OA
BRANCH  36  37
ATOM     37  C   LIG d   1       5.851   0.279  -3.046  0.00  0.00     0.079 C 
ATOM     38  H   LIG d   1       6.233   0.603  -2.079  0.00  0.00     0.066 H 
ATOM     39  H   LIG d   1       5.334   1.108  -3.528  0.00  0.00     0.066 H 
ATOM     40  H   LIG d   1       5.157  -0.549  -2.905  0.00  0.00     0.066 H 
ENDBRANCH  36  37
ENDBRANCH   5  36
BRANCH   6  41
ATOM     41  O   LIG d   1       7.551  -0.363  -6.543  0.00  0.00    -0.488 OA
BRANCH  41  42
ATOM     42  C   LIG d   1       6.244  -0.288  -7.118  0.00  0.00     0.079 C 
ATOM     43  H   LIG d   1       5.698   0.542  -6.669  0.00  0.00     0.066 H 
ATOM     44  H   LIG d   1       6.328  -0.128  -8.193  0.00  0.00     0.066 H 
ATOM     45  H   LIG d   1       5.710  -1.219  -6.929  0.00  0.00     0.066 H 
ENDBRANCH  41  42
ENDBRANCH   6  41
TORSDOF 9
ENDMDL
MODEL 8
REMARK VINA RESULT:      -5.1      7.766     12.204
REMARK  9 active torsions:
REMARK  status: ('A' for Active; 'I' for Inactive)
REMARK    1  A    between atoms: C_1  and  O_2 
REMARK    2  A    between atoms: O_2  and  C_3 
REMARK    3  A    between atoms: C_5  and  N_13 
REMARK    4  A    between atoms: C_7  and  O_11 
REMARK    5  A    between atoms: C_8  and  O_9 
REMARK    6  A    between atoms: O_9  and  C_10 
REMARK    7  A    between atoms: O_11  and  C_12 
REMARK       I    between atoms: N_13  and  C_14 
REMARK    8  A    between atoms: C_14  and  C_16 
REMARK    9  A    between atoms: C_17  and  C_18 
ROOT
ATOM      1  C   LIG d   1      10.652   1.092  -4.701  0.00  0.00     0.167 A 
ATOM      2  C   LIG d   1      10.825   2.242  -3.947  0.00  0.00     0.005 A 
ATOM      3  C   LIG d   1       9.718   2.932  -3.471  0.00  0.00     0.041 A 
ATOM      4  C   LIG d   1       8.439   2.471  -3.749  0.00  0.00     0.005 A 
ATOM      5  C   LIG d   1       8.264   1.321  -4.502  0.00  0.00     0.167 A 
ATOM      6  C   LIG d   1       9.371   0.630  -4.981  0.00  0.00     0.204 A 
ATOM      7  H   LIG d   1      11.820   2.601  -3.730  0.00  0.00     0.067 H 
ATOM      8  H   LIG d   1       7.579   3.009  -3.379  0.00  0.00     0.067 H 
ENDROOT
BRANCH   3   9
ATOM      9  N   LIG d   1       9.893   4.094  -2.709  0.00  0.00    -0.282 N 
ATOM     10  C   LIG d   1       9.826   5.304  -3.299  0.00  0.00     0.241 C 
ATOM     11  O   LIG d   1       9.532   5.391  -4.476  0.00  0.00    -0.271 OA
ATOM     12  H   LIG d   1      10.062   4.027  -1.756  0.00  0.00     0.155 HD
BRANCH  10  13
ATOM     13  C   LIG d   1      10.109   6.511  -2.524  0.00  0.00     0.001 C 
ATOM     14  C   LIG d   1      10.227   6.438  -1.181  0.00  0.00    -0.050 C 
ATOM     15  H   LIG d   1      10.114   5.488  -0.679  0.00  0.00     0.062 H 
ATOM     16  H   LIG d   1      10.223   7.461  -3.025  0.00  0.00     0.067 H 
BRANCH  14  17
ATOM     17  C   LIG d   1      10.511   7.652  -0.401  0.00  0.00    -0.021 A 
ATOM     18  C   LIG d   1      11.244   7.567   0.788  0.00  0.00    -0.009 A 
ATOM     19  C   LIG d   1      11.513   8.710   1.514  0.00  0.00     0.167 A 
ATOM     20  H   LIG d   1      11.602   6.609   1.135  0.00  0.00     0.066 H 
ATOM     21  C   LIG d   1      11.044   9.946   1.067  0.00  0.00     0.166 A 
ATOM     22  O   LIG d   1      12.195   8.899   2.681  0.00  0.00    -0.453 OA
ATOM     23  C   LIG d   1      10.313  10.030  -0.110  0.00  0.00    -0.016 A 
ATOM     24  O   LIG d   1      11.434  10.906   1.955  0.00  0.00    -0.453 OA
ATOM     25  C   LIG d   1      10.045   8.895  -0.842  0.00  0.00    -0.051 A 
ATOM     26  H   LIG d   1       9.951  10.988  -0.452  0.00  0.00     0.066 H 
ATOM     27  H   LIG d   1       9.476   8.965  -1.758  0.00  0.00     0.062 H 
ATOM     28  C   LIG d   1      12.490  10.307   2.729  0.00  0.00     0.233 C 
ATOM     29  H   LIG d   1      13.460  10.511   2.275  0.00  0.00     0.117 H 
ATOM     30  H   LIG d   1      12.464  10.669   3.757  0.00  0.00     0.117 H 
ENDBRANCH  14  17
ENDBRANCH  10  13
ENDBRANCH   3   9
BRANCH   1  31
ATOM     31  O   LIG d   1      11.736   0.420  -5.173  0.00  0.00    -0.491 OA
BRANCH  31  32
ATOM     32  C   LIG d   1      12.536  -0.276  -4.215  0.00  0.00     0.079 C 
ATOM     33  H   LIG d   1      12.671  -1.309  -4.535  0.00  0.00     0.066 H 
ATOM     34  H   LIG d   1      13.509   0.210  -4.134  0.00  0.00     0.066 H 
ATOM     35  H   LIG d   1      12.040  -0.257  -3.244  0.00  0.00     0.066 H 
ENDBRANCH  31  32
ENDBRANCH   1  31
BRANCH   5  36
ATOM     36  O   LIG d   1       7.011   0.870  -4.774  0.00  0.00    -0.491 OA
BRANCH  36  37
ATOM     37  C   LIG d   1       6.270   0.315  -3.686  0.00  0.00     0.079 C 
ATOM     38  H   LIG d   1       5.595   1.069  -3.283  0.00  0.00     0.066 H 
ATOM     39  H   LIG d   1       5.690  -0.538  -4.039  0.00  0.00     0.066 H 
ATOM     40  H   LIG d   1       6.958  -0.012  -2.907  0.00  0.00     0.066 H 
ENDBRANCH  36  37
ENDBRANCH   5  36
BRANCH   6  41
ATOM     41  O   LIG d   1       9.202  -0.500  -5.721  0.00  0.00    -0.488 OA
BRANCH  41  42
ATOM     42  C   LIG d   1       9.138  -1.738  -5.011  0.00  0.00     0.079 C 
ATOM     43  H   LIG d   1       8.098  -2.052  -4.922  0.00  0.00     0.066 H 
ATOM     44  H   LIG d   1       9.701  -2.498  -5.552  0.00  0.00     0.066 H 
ATOM     45  H   LIG d   1       9.565  -1.610  -4.016  0.00  0.00     0.066 H 
ENDBRANCH  41  42
ENDBRANCH   6  41
TORSDOF 9
ENDMDL
MODEL 9
REMARK VINA RESULT:      -5.1      7.568     11.883
REMARK  9 active torsions:
REMARK  status: ('A' for Active; 'I' for Inactive)
REMARK    1  A    between atoms: C_1  and  O_2 
REMARK    2  A    between atoms: O_2  and  C_3 
REMARK    3  A    between atoms: C_5  and  N_13 
REMARK    4  A    between atoms: C_7  and  O_11 
REMARK    5  A    between atoms: C_8  and  O_9 
REMARK    6  A    between atoms: O_9  and  C_10 
REMARK    7  A    between atoms: O_11  and  C_12 
REMARK       I    between atoms: N_13  and  C_14 
REMARK    8  A    between atoms: C_14  and  C_16 
REMARK    9  A    between atoms: C_17  and  C_18 
ROOT
ATOM      1  C   LIG d   1       7.623   0.965  -4.562  0.00  0.00     0.167 A 
ATOM      2  C   LIG d   1       8.053   2.056  -3.823  0.00  0.00     0.005 A 
ATOM      3  C   LIG d   1       8.862   3.018  -4.412  0.00  0.00     0.041 A 
ATOM      4  C   LIG d   1       9.240   2.890  -5.741  0.00  0.00     0.005 A 
ATOM      5  C   LIG d   1       8.809   1.800  -6.483  0.00  0.00     0.167 A 
ATOM      6  C   LIG d   1       8.001   0.835  -5.893  0.00  0.00     0.204 A 
ATOM      7  H   LIG d   1       7.760   2.156  -2.788  0.00  0.00     0.067 H 
ATOM      8  H   LIG d   1       9.869   3.638  -6.199  0.00  0.00     0.067 H 
ENDROOT
BRANCH   3   9
ATOM      9  N   LIG d   1       9.296   4.120  -3.665  0.00  0.00    -0.282 N 
ATOM     10  C   LIG d   1      10.236   3.960  -2.711  0.00  0.00     0.241 C 
ATOM     11  O   LIG d   1      10.768   2.877  -2.557  0.00  0.00    -0.271 OA
ATOM     12  H   LIG d   1       8.919   4.998  -3.833  0.00  0.00     0.155 HD
BRANCH  10  13
ATOM     13  C   LIG d   1      10.615   5.089  -1.864  0.00  0.00     0.001 C 
ATOM     14  C   LIG d   1       9.873   6.218  -1.870  0.00  0.00    -0.050 C 
ATOM     15  H   LIG d   1       8.999   6.285  -2.502  0.00  0.00     0.062 H 
ATOM     16  H   LIG d   1      11.488   5.021  -1.232  0.00  0.00     0.067 H 
BRANCH  14  17
ATOM     17  C   LIG d   1      10.255   7.353  -1.018  0.00  0.00    -0.021 A 
ATOM     18  C   LIG d   1      10.841   7.126   0.233  0.00  0.00    -0.009 A 
ATOM     19  C   LIG d   1      11.202   8.196   1.026  0.00  0.00     0.167 A 
ATOM     20  H   LIG d   1      11.013   6.116   0.573  0.00  0.00     0.066 H 
ATOM     21  C   LIG d   1      10.973   9.501   0.586  0.00  0.00     0.166 A 
ATOM     22  O   LIG d   1      11.781   8.249   2.262  0.00  0.00    -0.453 OA
ATOM     23  C   LIG d   1      10.388   9.725  -0.652  0.00  0.00    -0.016 A 
ATOM     24  O   LIG d   1      11.409  10.366   1.546  0.00  0.00    -0.453 OA
ATOM     25  C   LIG d   1      10.029   8.664  -1.452  0.00  0.00    -0.051 A 
ATOM     26  H   LIG d   1      10.212  10.736  -0.989  0.00  0.00     0.066 H 
ATOM     27  H   LIG d   1       9.574   8.843  -2.416  0.00  0.00     0.062 H 
ATOM     28  C   LIG d   1      12.278   9.593   2.396  0.00  0.00     0.233 C 
ATOM     29  H   LIG d   1      13.309   9.657   2.047  0.00  0.00     0.117 H 
ATOM     30  H   LIG d   1      12.201   9.929   3.430  0.00  0.00     0.117 H 
ENDBRANCH  14  17
ENDBRANCH  10  13
ENDBRANCH   3   9
BRANCH   1  31
ATOM     31  O   LIG d   1       6.836   0.019  -3.983  0.00  0.00    -0.491 OA
BRANCH  31  32
ATOM     32  C   LIG d   1       5.894   0.467  -3.007  0.00  0.00     0.079 C 
ATOM     33  H   LIG d   1       4.956  -0.074  -3.132  0.00  0.00     0.066 H 
ATOM     34  H   LIG d   1       6.290   0.281  -2.008  0.00  0.00     0.066 H 
ATOM     35  H   LIG d   1       5.718   1.535  -3.134  0.00  0.00     0.066 H 
ENDBRANCH  31  32
ENDBRANCH   1  31
BRANCH   5  36
ATOM     36  O   LIG d   1       9.180   1.675  -7.785  0.00  0.00    -0.491 OA
BRANCH  36  37
ATOM     37  C   LIG d   1       8.509   2.506  -8.734  0.00  0.00     0.079 C 
ATOM     38  H   LIG d   1       7.499   2.130  -8.896  0.00  0.00     0.066 H 
ATOM     39  H   LIG d   1       8.459   3.526  -8.352  0.00  0.00     0.066 H 
ATOM     40  H   LIG d   1       9.057   2.497  -9.676  0.00  0.00     0.066 H 
ENDBRANCH  36  37
ENDBRANCH   5  36
BRANCH   6  41
ATOM     41  O   LIG d   1       7.579  -0.236  -6.620  0.00  0.00    -0.488 OA
BRANCH  41  42
ATOM     42  C   LIG d   1       8.415  -1.394  -6.614  0.00  0.00     0.079 C 
ATOM     43  H   LIG d   1       8.627  -1.684  -5.585  0.00  0.00     0.066 H 
ATOM     44  H   LIG d   1       7.907  -2.213  -7.124  0.00  0.00     0.066 H 
ATOM     45  H   LIG d   1       9.350  -1.171  -7.129  0.00  0.00     0.066 H 
ENDBRANCH  41  42
ENDBRANCH   6  41
TORSDOF 9
ENDMDL
MODEL 10
REMARK VINA RESULT:      -5.0      5.514     13.431
REMARK  9 active torsions:
REMARK  status: ('A' for Active; 'I' for Inactive)
REMARK    1  A    between atoms: C_1  and  O_2 
REMARK    2  A    between atoms: O_2  and  C_3 
REMARK    3  A    between atoms: C_5  and  N_13 
REMARK    4  A    between atoms: C_7  and  O_11 
REMARK    5  A    between atoms: C_8  and  O_9 
REMARK    6  A    between atoms: O_9  and  C_10 
REMARK    7  A    between atoms: O_11  and  C_12 
REMARK       I    between atoms: N_13  and  C_14 
REMARK    8  A    between atoms: C_14  and  C_16 
REMARK    9  A    between atoms: C_17  and  C_18 
ROOT
ATOM      1  C   LIG d   1      10.247   6.978  -3.778  0.00  0.00     0.167 A 
ATOM      2  C   LIG d   1       9.536   5.789  -3.729  0.00  0.00     0.005 A 
ATOM      3  C   LIG d   1      10.088   4.674  -3.113  0.00  0.00     0.041 A 
ATOM      4  C   LIG d   1      11.353   4.749  -2.545  0.00  0.00     0.005 A 
ATOM      5  C   LIG d   1      12.065   5.937  -2.591  0.00  0.00     0.167 A 
ATOM      6  C   LIG d   1      11.514   7.054  -3.210  0.00  0.00     0.204 A 
ATOM      7  H   LIG d   1       8.553   5.730  -4.171  0.00  0.00     0.067 H 
ATOM      8  H   LIG d   1      11.782   3.882  -2.066  0.00  0.00     0.067 H 
ENDROOT
BRANCH   3   9
ATOM      9  N   LIG d   1       9.370   3.474  -3.064  0.00  0.00    -0.282 N 
ATOM     10  C   LIG d   1       9.377   2.639  -4.122  0.00  0.00     0.241 C 
ATOM     11  O   LIG d   1      10.075   2.888  -5.088  0.00  0.00    -0.271 OA
ATOM     12  H   LIG d   1       8.866   3.243  -2.267  0.00  0.00     0.155 HD
BRANCH  10  13
ATOM     13  C   LIG d   1       8.546   1.436  -4.110  0.00  0.00     0.001 C 
ATOM     14  C   LIG d   1       7.268   1.504  -3.681  0.00  0.00    -0.050 C 
ATOM     15  H   LIG d   1       6.859   2.446  -3.348  0.00  0.00     0.062 H 
ATOM     16  H   LIG d   1       8.955   0.494  -4.444  0.00  0.00     0.067 H 
BRANCH  14  17
ATOM     17  C   LIG d   1       6.432   0.294  -3.668  0.00  0.00    -0.021 A 
ATOM     18  C   LIG d   1       6.481  -0.604  -4.740  0.00  0.00    -0.009 A 
ATOM     19  C   LIG d   1       5.699  -1.741  -4.721  0.00  0.00     0.167 A 
ATOM     20  H   LIG d   1       7.133  -0.410  -5.579  0.00  0.00     0.066 H 
ATOM     21  C   LIG d   1       4.853  -1.988  -3.638  0.00  0.00     0.166 A 
ATOM     22  O   LIG d   1       5.564  -2.760  -5.620  0.00  0.00    -0.453 OA
ATOM     23  C   LIG d   1       4.801  -1.094  -2.577  0.00  0.00    -0.016 A 
ATOM     24  O   LIG d   1       4.191  -3.159  -3.862  0.00  0.00    -0.453 OA
ATOM     25  C   LIG d   1       5.581   0.040  -2.587  0.00  0.00    -0.051 A 
ATOM     26  H   LIG d   1       4.144  -1.289  -1.742  0.00  0.00     0.066 H 
ATOM     27  H   LIG d   1       5.539   0.732  -1.758  0.00  0.00     0.062 H 
ATOM     28  C   LIG d   1       4.938  -3.833  -4.892  0.00  0.00     0.233 C 
ATOM     29  H   LIG d   1       5.691  -4.488  -4.453  0.00  0.00     0.117 H 
ATOM     30  H   LIG d   1       4.270  -4.399  -5.543  0.00  0.00     0.117 H 
ENDBRANCH  14  17
ENDBRANCH  10  13
ENDBRANCH   3   9
BRANCH   1  31
ATOM     31  O   LIG d   1       9.709   8.067  -4.387  0.00  0.00    -0.491 OA
BRANCH  31  32
ATOM     32  C   LIG d   1       9.596   8.025  -5.812  0.00  0.00     0.079 C 
ATOM     33  H   LIG d   1       9.313   7.020  -6.124  0.00  0.00     0.066 H 
ATOM     34  H   LIG d   1       8.834   8.735  -6.136  0.00  0.00     0.066 H 
ATOM     35  H   LIG d   1      10.553   8.290  -6.260  0.00  0.00     0.066 H 
ENDBRANCH  31  32
ENDBRANCH   1  31
BRANCH   5  36
ATOM     36  O   LIG d   1      13.304   6.010  -2.034  0.00  0.00    -0.491 OA
BRANCH  36  37
ATOM     37  C   LIG d   1      14.283   5.084  -2.507  0.00  0.00     0.079 C 
ATOM     38  H   LIG d   1      14.012   4.076  -2.193  0.00  0.00     0.066 H 
ATOM     39  H   LIG d   1      14.327   5.126  -3.595  0.00  0.00     0.066 H 
ATOM     40  H   LIG d   1      15.257   5.344  -2.094  0.00  0.00     0.066 H 
ENDBRANCH  36  37
ENDBRANCH   5  36
BRANCH   6  41
ATOM     41  O   LIG d   1      12.213   8.221  -3.257  0.00  0.00    -0.488 OA
BRANCH  41  42
ATOM     42  C   LIG d   1      12.013   9.141  -2.182  0.00  0.00     0.079 C 
ATOM     43  H   LIG d   1      11.922  10.151  -2.582  0.00  0.00     0.066 H 
ATOM     44  H   LIG d   1      11.101   8.880  -1.644  0.00  0.00     0.066 H 
ATOM     45  H   LIG d   1      12.863   9.095  -1.501  0.00  0.00     0.066 H 
ENDBRANCH  41  42
ENDBRANCH   6  41
TORSDOF 9
ENDMDL
