MODEL 1
REMARK VINA RESULT:      -6.5      0.000      0.000
REMARK  6 active torsions:
REMARK  status: ('A' for Active; 'I' for Inactive)
REMARK    1  A    between atoms: C_1  and  N_55 
REMARK    2  A    between atoms: C_2  and  N_55 
REMARK    3  A    between atoms: C_3  and  C_4 
REMARK    4  A    between atoms: C_3  and  N_55 
REMARK       I    between atoms: C_4  and  N_6 
REMARK    5  A    between atoms: N_6  and  C_7 
REMARK       I    between atoms: N_21  and  C_23 
REMARK    6  A    between atoms: C_23  and  C_25 
ROOT
ATOM      1  C   LIG d   1       7.599   1.583  -4.559  0.00  0.00     0.099 C 
ATOM      2  C   LIG d   1       6.993   1.350  -3.355  0.00  0.00    -0.034 C 
ATOM      3  C   LIG d   1       6.334   0.132  -3.154  0.00  0.00    -0.040 C 
ATOM      4  C   LIG d   1       6.310  -0.810  -4.132  0.00  0.00     0.027 C 
ATOM      5  N   LIG d   1       6.987  -0.620  -5.291  0.00  0.00    -0.310 N 
ATOM      6  C   LIG d   1       7.556   0.584  -5.549  0.00  0.00     0.273 C 
ATOM      7  O   LIG d   1       8.041   0.800  -6.649  0.00  0.00    -0.266 OA
ATOM      8  C   LIG d   1       7.167  -1.670  -6.293  0.00  0.00     0.031 C 
ATOM      9  C   LIG d   1       6.124  -2.767  -6.172  0.00  0.00    -0.006 C 
ATOM     10  H   LIG d   1       6.463  -3.623  -6.758  0.00  0.00     0.033 H 
ATOM     11  C   LIG d   1       6.001  -3.209  -4.714  0.00  0.00    -0.037 C 
ATOM     12  C   LIG d   1       5.457  -2.035  -3.895  0.00  0.00     0.016 C 
ATOM     13  H   LIG d   1       5.449  -2.288  -2.835  0.00  0.00     0.038 H 
ATOM     14  C   LIG d   1       4.036  -1.718  -4.392  0.00  0.00     0.023 C 
ATOM     15  N   LIG d   1       4.136  -1.375  -5.820  0.00  0.00    -0.297 N 
ATOM     16  C   LIG d   1       4.775  -2.335  -6.728  0.00  0.00     0.019 C 
ATOM     17  C   LIG d   1       3.651  -0.206  -6.283  0.00  0.00     0.247 C 
ATOM     18  O   LIG d   1       3.209   0.620  -5.507  0.00  0.00    -0.270 OA
ATOM     19  H   LIG d   1       7.023   2.094  -2.572  0.00  0.00     0.064 H 
ATOM     20  H   LIG d   1       5.839  -0.060  -2.214  0.00  0.00     0.064 H 
ATOM     21  H   LIG d   1       7.099  -1.227  -7.286  0.00  0.00     0.050 H 
ATOM     22  H   LIG d   1       8.156  -2.110  -6.169  0.00  0.00     0.050 H 
ATOM     23  H   LIG d   1       5.316  -4.054  -4.643  0.00  0.00     0.028 H 
ATOM     24  H   LIG d   1       6.981  -3.500  -4.335  0.00  0.00     0.028 H 
ATOM     25  H   LIG d   1       3.395  -2.591  -4.264  0.00  0.00     0.047 H 
ATOM     26  H   LIG d   1       3.629  -0.873  -3.836  0.00  0.00     0.047 H 
ATOM     27  H   LIG d   1       4.919  -1.868  -7.703  0.00  0.00     0.047 H 
ATOM     28  H   LIG d   1       4.132  -3.208  -6.840  0.00  0.00     0.047 H 
ENDROOT
BRANCH   1  29
ATOM     29  N   LIG d   1       8.249   2.800  -4.804  0.00  0.00    -0.277 N 
ATOM     30  C   LIG d   1       9.476   3.025  -4.294  0.00  0.00     0.263 C 
ATOM     31  O   LIG d   1       9.988   2.204  -3.563  0.00  0.00    -0.270 OA
ATOM     32  H   LIG d   1       7.813   3.483  -5.339  0.00  0.00     0.155 HD
BRANCH  30  33
ATOM     33  C   LIG d   1      10.211   4.296  -4.632  0.00  0.00     0.046 C 
ATOM     34  H   LIG d   1      11.157   4.323  -4.093  0.00  0.00     0.091 H 
ATOM     35  H   LIG d   1      10.403   4.332  -5.705  0.00  0.00     0.091 H 
BRANCH  33  36
ATOM     36  N   LIG d   1       9.384   5.449  -4.216  0.00  0.00     0.237 N 
ATOM     37  H   LIG d   1       8.399   5.161  -4.195  0.00  0.00     0.203 HD
BRANCH  36  38
ATOM     38  C   LIG d   1       9.783   5.895  -2.865  0.00  0.00    -0.043 C 
ATOM     39  H   LIG d   1       9.022   5.626  -2.133  0.00  0.00     0.078 H 
ATOM     40  H   LIG d   1      10.727   5.420  -2.599  0.00  0.00     0.078 H 
ATOM     41  H   LIG d   1       9.911   6.977  -2.873  0.00  0.00     0.078 H 
ENDBRANCH  36  38
BRANCH  36  42
ATOM     42  C   LIG d   1       9.540   6.558  -5.181  0.00  0.00    -0.043 C 
ATOM     43  H   LIG d   1      10.590   6.848  -5.218  0.00  0.00     0.078 H 
ATOM     44  H   LIG d   1       9.223   6.217  -6.166  0.00  0.00     0.078 H 
ATOM     45  H   LIG d   1       8.937   7.414  -4.880  0.00  0.00     0.078 H 
ENDBRANCH  36  42
ENDBRANCH  33  36
ENDBRANCH  30  33
ENDBRANCH   1  29
BRANCH  17  46
ATOM     46  C   LIG d   1       3.655   0.073  -7.733  0.00  0.00     0.037 A 
ATOM     47  C   LIG d   1       2.532  -0.226  -8.508  0.00  0.00    -0.047 A 
ATOM     48  C   LIG d   1       2.541   0.036  -9.861  0.00  0.00    -0.026 A 
ATOM     49  H   LIG d   1       1.658  -0.661  -8.047  0.00  0.00     0.063 H 
ATOM     50  C   LIG d   1       3.663   0.595 -10.454  0.00  0.00     0.123 A 
ATOM     51  H   LIG d   1       1.673  -0.194 -10.461  0.00  0.00     0.065 H 
ATOM     52  C   LIG d   1       4.780   0.894  -9.689  0.00  0.00    -0.026 A 
ATOM     53  F   LIG d   1       3.667   0.850 -11.781  0.00  0.00    -0.205 F 
ATOM     54  C   LIG d   1       4.780   0.641  -8.335  0.00  0.00    -0.047 A 
ATOM     55  H   LIG d   1       5.652   1.330 -10.157  0.00  0.00     0.065 H 
ATOM     56  H   LIG d   1       5.650   0.878  -7.740  0.00  0.00     0.063 H 
ENDBRANCH  17  46
TORSDOF 6
ENDMDL
MODEL 2
REMARK VINA RESULT:      -6.2      2.876      6.778
REMARK  6 active torsions:
REMARK  status: ('A' for Active; 'I' for Inactive)
REMARK    1  A    between atoms: C_1  and  N_55 
REMARK    2  A    between atoms: C_2  and  N_55 
REMARK    3  A    between atoms: C_3  and  C_4 
REMARK    4  A    between atoms: C_3  and  N_55 
REMARK       I    between atoms: C_4  and  N_6 
REMARK    5  A    between atoms: N_6  and  C_7 
REMARK       I    between atoms: N_21  and  C_23 
REMARK    6  A    between atoms: C_23  and  C_25 
ROOT
ATOM      1  C   LIG d   1       4.585  -1.873  -7.437  0.00  0.00     0.099 C 
ATOM      2  C   LIG d   1       4.689  -3.083  -6.807  0.00  0.00    -0.034 C 
ATOM      3  C   LIG d   1       4.645  -3.122  -5.409  0.00  0.00    -0.040 C 
ATOM      4  C   LIG d   1       4.484  -1.981  -4.690  0.00  0.00     0.027 C 
ATOM      5  N   LIG d   1       4.288  -0.794  -5.314  0.00  0.00    -0.310 N 
ATOM      6  C   LIG d   1       4.418  -0.711  -6.662  0.00  0.00     0.273 C 
ATOM      7  O   LIG d   1       4.384   0.382  -7.207  0.00  0.00    -0.266 OA
ATOM      8  C   LIG d   1       3.910   0.428  -4.605  0.00  0.00     0.031 C 
ATOM      9  C   LIG d   1       4.268   0.374  -3.131  0.00  0.00    -0.006 C 
ATOM     10  H   LIG d   1       3.737   1.181  -2.623  0.00  0.00     0.033 H 
ATOM     11  C   LIG d   1       3.800  -0.952  -2.531  0.00  0.00    -0.037 C 
ATOM     12  C   LIG d   1       4.591  -2.087  -3.186  0.00  0.00     0.016 C 
ATOM     13  H   LIG d   1       4.213  -3.052  -2.850  0.00  0.00     0.038 H 
ATOM     14  C   LIG d   1       6.074  -1.920  -2.812  0.00  0.00     0.023 C 
ATOM     15  N   LIG d   1       6.508  -0.606  -3.311  0.00  0.00    -0.297 N 
ATOM     16  C   LIG d   1       5.757   0.585  -2.897  0.00  0.00     0.019 C 
ATOM     17  C   LIG d   1       7.573  -0.498  -4.129  0.00  0.00     0.247 C 
ATOM     18  O   LIG d   1       8.129  -1.499  -4.540  0.00  0.00    -0.270 OA
ATOM     19  H   LIG d   1       4.804  -3.992  -7.379  0.00  0.00     0.064 H 
ATOM     20  H   LIG d   1       4.739  -4.068  -4.898  0.00  0.00     0.064 H 
ATOM     21  H   LIG d   1       4.424   1.275  -5.062  0.00  0.00     0.050 H 
ATOM     22  H   LIG d   1       2.835   0.574  -4.701  0.00  0.00     0.050 H 
ATOM     23  H   LIG d   1       3.980  -0.952  -1.456  0.00  0.00     0.028 H 
ATOM     24  H   LIG d   1       2.735  -1.086  -2.724  0.00  0.00     0.028 H 
ATOM     25  H   LIG d   1       6.189  -1.962  -1.728  0.00  0.00     0.047 H 
ATOM     26  H   LIG d   1       6.665  -2.708  -3.279  0.00  0.00     0.047 H 
ATOM     27  H   LIG d   1       6.096   1.445  -3.476  0.00  0.00     0.047 H 
ATOM     28  H   LIG d   1       5.934   0.773  -1.838  0.00  0.00     0.047 H 
ENDROOT
BRANCH   1  29
ATOM     29  N   LIG d   1       4.650  -1.792  -8.835  0.00  0.00    -0.277 N 
ATOM     30  C   LIG d   1       3.515  -1.737  -9.561  0.00  0.00     0.263 C 
ATOM     31  O   LIG d   1       2.439  -1.832  -9.011  0.00  0.00    -0.270 OA
ATOM     32  H   LIG d   1       5.512  -1.778  -9.281  0.00  0.00     0.155 HD
BRANCH  30  33
ATOM     33  C   LIG d   1       3.585  -1.560 -11.056  0.00  0.00     0.046 C 
ATOM     34  H   LIG d   1       3.900  -2.495 -11.518  0.00  0.00     0.091 H 
ATOM     35  H   LIG d   1       2.602  -1.279 -11.435  0.00  0.00     0.091 H 
BRANCH  33  36
ATOM     36  N   LIG d   1       4.578  -0.509 -11.365  0.00  0.00     0.237 N 
ATOM     37  H   LIG d   1       5.375  -0.605 -10.725  0.00  0.00     0.203 HD
BRANCH  36  38
ATOM     38  C   LIG d   1       5.058  -0.661 -12.754  0.00  0.00    -0.043 C 
ATOM     39  H   LIG d   1       4.240  -0.518 -13.460  0.00  0.00     0.078 H 
ATOM     40  H   LIG d   1       5.835   0.080 -12.944  0.00  0.00     0.078 H 
ATOM     41  H   LIG d   1       5.473  -1.661 -12.877  0.00  0.00     0.078 H 
ENDBRANCH  36  38
BRANCH  36  42
ATOM     42  C   LIG d   1       3.973   0.828 -11.183  0.00  0.00    -0.043 C 
ATOM     43  H   LIG d   1       3.431   1.095 -12.090  0.00  0.00     0.078 H 
ATOM     44  H   LIG d   1       3.281   0.791 -10.343  0.00  0.00     0.078 H 
ATOM     45  H   LIG d   1       4.744   1.572 -10.988  0.00  0.00     0.078 H 
ENDBRANCH  36  42
ENDBRANCH  33  36
ENDBRANCH  30  33
ENDBRANCH   1  29
BRANCH  17  46
ATOM     46  C   LIG d   1       8.066   0.836  -4.529  0.00  0.00     0.037 A 
ATOM     47  C   LIG d   1       8.632   1.687  -3.578  0.00  0.00    -0.047 A 
ATOM     48  C   LIG d   1       9.090   2.931  -3.955  0.00  0.00    -0.026 A 
ATOM     49  H   LIG d   1       8.710   1.372  -2.548  0.00  0.00     0.063 H 
ATOM     50  C   LIG d   1       8.990   3.337  -5.278  0.00  0.00     0.123 A 
ATOM     51  H   LIG d   1       9.528   3.591  -3.221  0.00  0.00     0.065 H 
ATOM     52  C   LIG d   1       8.430   2.495  -6.226  0.00  0.00    -0.026 A 
ATOM     53  F   LIG d   1       9.441   4.557  -5.643  0.00  0.00    -0.205 F 
ATOM     54  C   LIG d   1       7.974   1.247  -5.860  0.00  0.00    -0.047 A 
ATOM     55  H   LIG d   1       8.356   2.817  -7.255  0.00  0.00     0.065 H 
ATOM     56  H   LIG d   1       7.542   0.591  -6.601  0.00  0.00     0.063 H 
ENDBRANCH  17  46
TORSDOF 6
ENDMDL
MODEL 3
REMARK VINA RESULT:      -6.2      4.506      9.080
REMARK  6 active torsions:
REMARK  status: ('A' for Active; 'I' for Inactive)
REMARK    1  A    between atoms: C_1  and  N_55 
REMARK    2  A    between atoms: C_2  and  N_55 
REMARK    3  A    between atoms: C_3  and  C_4 
REMARK    4  A    between atoms: C_3  and  N_55 
REMARK       I    between atoms: C_4  and  N_6 
REMARK    5  A    between atoms: N_6  and  C_7 
REMARK       I    between atoms: N_21  and  C_23 
REMARK    6  A    between atoms: C_23  and  C_25 
ROOT
ATOM      1  C   LIG d   1       1.843  -2.280 -10.211  0.00  0.00     0.099 C 
ATOM      2  C   LIG d   1       1.820  -1.112 -10.922  0.00  0.00    -0.034 C 
ATOM      3  C   LIG d   1       2.954  -0.292 -10.914  0.00  0.00    -0.040 C 
ATOM      4  C   LIG d   1       4.066  -0.659 -10.225  0.00  0.00     0.027 C 
ATOM      5  N   LIG d   1       4.125  -1.858  -9.596  0.00  0.00    -0.310 N 
ATOM      6  C   LIG d   1       3.012  -2.630  -9.510  0.00  0.00     0.273 C 
ATOM      7  O   LIG d   1       3.028  -3.639  -8.823  0.00  0.00    -0.266 OA
ATOM      8  C   LIG d   1       5.354  -2.394  -9.012  0.00  0.00     0.031 C 
ATOM      9  C   LIG d   1       6.373  -1.309  -8.714  0.00  0.00    -0.006 C 
ATOM     10  H   LIG d   1       7.336  -1.788  -8.533  0.00  0.00     0.033 H 
ATOM     11  C   LIG d   1       6.521  -0.389  -9.926  0.00  0.00    -0.037 C 
ATOM     12  C   LIG d   1       5.194   0.343 -10.144  0.00  0.00     0.016 C 
ATOM     13  H   LIG d   1       5.238   0.935 -11.058  0.00  0.00     0.038 H 
ATOM     14  C   LIG d   1       4.933   1.243  -8.923  0.00  0.00     0.023 C 
ATOM     15  N   LIG d   1       4.876   0.371  -7.739  0.00  0.00    -0.297 N 
ATOM     16  C   LIG d   1       6.012  -0.516  -7.466  0.00  0.00     0.019 C 
ATOM     17  C   LIG d   1       3.803   0.387  -6.924  0.00  0.00     0.247 C 
ATOM     18  O   LIG d   1       2.829   1.056  -7.212  0.00  0.00    -0.270 OA
ATOM     19  H   LIG d   1       0.940  -0.826 -11.481  0.00  0.00     0.064 H 
ATOM     20  H   LIG d   1       2.945   0.639 -11.459  0.00  0.00     0.064 H 
ATOM     21  H   LIG d   1       5.108  -2.912  -8.084  0.00  0.00     0.050 H 
ATOM     22  H   LIG d   1       5.793  -3.108  -9.708  0.00  0.00     0.050 H 
ATOM     23  H   LIG d   1       7.314   0.336  -9.741  0.00  0.00     0.028 H 
ATOM     24  H   LIG d   1       6.765  -0.981 -10.808  0.00  0.00     0.028 H 
ATOM     25  H   LIG d   1       5.744   1.964  -8.814  0.00  0.00     0.047 H 
ATOM     26  H   LIG d   1       3.984   1.766  -9.045  0.00  0.00     0.047 H 
ATOM     27  H   LIG d   1       5.747  -1.206  -6.664  0.00  0.00     0.047 H 
ATOM     28  H   LIG d   1       6.870   0.082  -7.156  0.00  0.00     0.047 H 
ENDROOT
BRANCH   1  29
ATOM     29  N   LIG d   1       0.717  -3.114 -10.177  0.00  0.00    -0.277 N 
ATOM     30  C   LIG d   1       0.587  -4.109 -11.077  0.00  0.00     0.263 C 
ATOM     31  O   LIG d   1       1.407  -4.236 -11.962  0.00  0.00    -0.270 OA
ATOM     32  H   LIG d   1       0.030  -2.973  -9.507  0.00  0.00     0.155 HD
BRANCH  30  33
ATOM     33  C   LIG d   1      -0.577  -5.061 -10.985  0.00  0.00     0.046 C 
ATOM     34  H   LIG d   1      -0.557  -5.742 -11.835  0.00  0.00     0.091 H 
ATOM     35  H   LIG d   1      -0.508  -5.631 -10.058  0.00  0.00     0.091 H 
BRANCH  33  36
ATOM     36  N   LIG d   1      -1.833  -4.281 -11.020  0.00  0.00     0.237 N 
ATOM     37  H   LIG d   1      -1.661  -3.353 -10.616  0.00  0.00     0.203 HD
BRANCH  36  38
ATOM     38  C   LIG d   1      -2.287  -4.118 -12.417  0.00  0.00    -0.043 C 
ATOM     39  H   LIG d   1      -1.439  -4.144 -13.101  0.00  0.00     0.078 H 
ATOM     40  H   LIG d   1      -2.976  -4.927 -12.662  0.00  0.00     0.078 H 
ATOM     41  H   LIG d   1      -2.802  -3.163 -12.513  0.00  0.00     0.078 H 
ENDBRANCH  36  38
BRANCH  36  42
ATOM     42  C   LIG d   1      -2.876  -4.965 -10.226  0.00  0.00    -0.043 C 
ATOM     43  H   LIG d   1      -3.842  -4.810 -10.706  0.00  0.00     0.078 H 
ATOM     44  H   LIG d   1      -2.653  -6.031 -10.194  0.00  0.00     0.078 H 
ATOM     45  H   LIG d   1      -2.905  -4.568  -9.212  0.00  0.00     0.078 H 
ENDBRANCH  36  42
ENDBRANCH  33  36
ENDBRANCH  30  33
ENDBRANCH   1  29
BRANCH  17  46
ATOM     46  C   LIG d   1       3.809  -0.407  -5.679  0.00  0.00     0.037 A 
ATOM     47  C   LIG d   1       3.194   0.089  -4.528  0.00  0.00    -0.047 A 
ATOM     48  C   LIG d   1       3.202  -0.656  -3.368  0.00  0.00    -0.026 A 
ATOM     49  H   LIG d   1       2.711   1.055  -4.546  0.00  0.00     0.063 H 
ATOM     50  C   LIG d   1       3.821  -1.897  -3.344  0.00  0.00     0.123 A 
ATOM     51  H   LIG d   1       2.726  -0.274  -2.478  0.00  0.00     0.065 H 
ATOM     52  C   LIG d   1       4.432  -2.395  -4.484  0.00  0.00    -0.026 A 
ATOM     53  F   LIG d   1       3.826  -2.624  -2.205  0.00  0.00    -0.205 F 
ATOM     54  C   LIG d   1       4.425  -1.660  -5.649  0.00  0.00    -0.047 A 
ATOM     55  H   LIG d   1       4.912  -3.363  -4.458  0.00  0.00     0.065 H 
ATOM     56  H   LIG d   1       4.899  -2.051  -6.538  0.00  0.00     0.063 H 
ENDBRANCH  17  46
TORSDOF 6
ENDMDL
MODEL 4
REMARK VINA RESULT:      -6.1      3.394      4.870
REMARK  6 active torsions:
REMARK  status: ('A' for Active; 'I' for Inactive)
REMARK    1  A    between atoms: C_1  and  N_55 
REMARK    2  A    between atoms: C_2  and  N_55 
REMARK    3  A    between atoms: C_3  and  C_4 
REMARK    4  A    between atoms: C_3  and  N_55 
REMARK       I    between atoms: C_4  and  N_6 
REMARK    5  A    between atoms: N_6  and  C_7 
REMARK       I    between atoms: N_21  and  C_23 
REMARK    6  A    between atoms: C_23  and  C_25 
ROOT
ATOM      1  C   LIG d   1      10.748   1.895  -3.812  0.00  0.00     0.099 C 
ATOM      2  C   LIG d   1      11.581   0.877  -4.187  0.00  0.00    -0.034 C 
ATOM      3  C   LIG d   1      11.197   0.044  -5.244  0.00  0.00    -0.040 C 
ATOM      4  C   LIG d   1      10.026   0.254  -5.899  0.00  0.00     0.027 C 
ATOM      5  N   LIG d   1       9.243   1.317  -5.591  0.00  0.00    -0.310 N 
ATOM      6  C   LIG d   1       9.543   2.085  -4.513  0.00  0.00     0.273 C 
ATOM      7  O   LIG d   1       8.762   2.952  -4.152  0.00  0.00    -0.266 OA
ATOM      8  C   LIG d   1       8.081   1.711  -6.386  0.00  0.00     0.031 C 
ATOM      9  C   LIG d   1       7.543   0.567  -7.227  0.00  0.00    -0.006 C 
ATOM     10  H   LIG d   1       6.863   0.984  -7.972  0.00  0.00     0.033 H 
ATOM     11  C   LIG d   1       8.692  -0.120  -7.966  0.00  0.00    -0.037 C 
ATOM     12  C   LIG d   1       9.613  -0.771  -6.930  0.00  0.00     0.016 C 
ATOM     13  H   LIG d   1      10.494  -1.187  -7.419  0.00  0.00     0.038 H 
ATOM     14  C   LIG d   1       8.821  -1.872  -6.203  0.00  0.00     0.023 C 
ATOM     15  N   LIG d   1       7.664  -1.229  -5.562  0.00  0.00    -0.297 N 
ATOM     16  C   LIG d   1       6.754  -0.432  -6.393  0.00  0.00     0.019 C 
ATOM     17  C   LIG d   1       7.443  -1.370  -4.240  0.00  0.00     0.247 C 
ATOM     18  O   LIG d   1       8.254  -1.953  -3.546  0.00  0.00    -0.270 OA
ATOM     19  H   LIG d   1      12.519   0.717  -3.674  0.00  0.00     0.064 H 
ATOM     20  H   LIG d   1      11.838  -0.772  -5.542  0.00  0.00     0.064 H 
ATOM     21  H   LIG d   1       7.294   2.056  -5.716  0.00  0.00     0.050 H 
ATOM     22  H   LIG d   1       8.366   2.529  -7.047  0.00  0.00     0.050 H 
ATOM     23  H   LIG d   1       8.294  -0.884  -8.634  0.00  0.00     0.028 H 
ATOM     24  H   LIG d   1       9.249   0.617  -8.544  0.00  0.00     0.028 H 
ATOM     25  H   LIG d   1       8.480  -2.618  -6.921  0.00  0.00     0.047 H 
ATOM     26  H   LIG d   1       9.450  -2.342  -5.447  0.00  0.00     0.047 H 
ATOM     27  H   LIG d   1       6.055   0.106  -5.751  0.00  0.00     0.047 H 
ATOM     28  H   LIG d   1       6.196  -1.095  -7.054  0.00  0.00     0.047 H 
ENDROOT
BRANCH   1  29
ATOM     29  N   LIG d   1      11.088   2.734  -2.742  0.00  0.00    -0.277 N 
ATOM     30  C   LIG d   1      11.716   3.904  -2.975  0.00  0.00     0.263 C 
ATOM     31  O   LIG d   1      12.053   4.196  -4.102  0.00  0.00    -0.270 OA
ATOM     32  H   LIG d   1      10.873   2.471  -1.832  0.00  0.00     0.155 HD
BRANCH  30  33
ATOM     33  C   LIG d   1      12.001   4.846  -1.834  0.00  0.00     0.046 C 
ATOM     34  H   LIG d   1      12.675   4.365  -1.126  0.00  0.00     0.091 H 
ATOM     35  H   LIG d   1      12.465   5.754  -2.220  0.00  0.00     0.091 H 
BRANCH  33  36
ATOM     36  N   LIG d   1      10.729   5.165  -1.151  0.00  0.00     0.237 N 
ATOM     37  H   LIG d   1      10.206   4.295  -0.997  0.00  0.00     0.203 HD
BRANCH  36  38
ATOM     38  C   LIG d   1      11.003   5.796   0.157  0.00  0.00    -0.043 C 
ATOM     39  H   LIG d   1      10.170   6.431   0.457  0.00  0.00     0.078 H 
ATOM     40  H   LIG d   1      11.153   5.016   0.903  0.00  0.00     0.078 H 
ATOM     41  H   LIG d   1      11.908   6.399   0.076  0.00  0.00     0.078 H 
ENDBRANCH  36  38
BRANCH  36  42
ATOM     42  C   LIG d   1       9.918   6.072  -1.990  0.00  0.00    -0.043 C 
ATOM     43  H   LIG d   1      10.503   6.362  -2.863  0.00  0.00     0.078 H 
ATOM     44  H   LIG d   1       9.020   5.546  -2.313  0.00  0.00     0.078 H 
ATOM     45  H   LIG d   1       9.637   6.962  -1.428  0.00  0.00     0.078 H 
ENDBRANCH  36  42
ENDBRANCH  33  36
ENDBRANCH  30  33
ENDBRANCH   1  29
BRANCH  17  46
ATOM     46  C   LIG d   1       6.216  -0.815  -3.632  0.00  0.00     0.037 A 
ATOM     47  C   LIG d   1       5.102  -1.633  -3.434  0.00  0.00    -0.047 A 
ATOM     48  C   LIG d   1       3.959  -1.111  -2.866  0.00  0.00    -0.026 A 
ATOM     49  H   LIG d   1       5.135  -2.672  -3.724  0.00  0.00     0.063 H 
ATOM     50  C   LIG d   1       3.915   0.224  -2.493  0.00  0.00     0.123 A 
ATOM     51  H   LIG d   1       3.096  -1.742  -2.712  0.00  0.00     0.065 H 
ATOM     52  C   LIG d   1       5.019   1.040  -2.687  0.00  0.00    -0.026 A 
ATOM     53  F   LIG d   1       2.793   0.731  -1.937  0.00  0.00    -0.205 F 
ATOM     54  C   LIG d   1       6.168   0.527  -3.248  0.00  0.00    -0.047 A 
ATOM     55  H   LIG d   1       4.979   2.079  -2.393  0.00  0.00     0.065 H 
ATOM     56  H   LIG d   1       7.029   1.162  -3.395  0.00  0.00     0.063 H 
ENDBRANCH  17  46
TORSDOF 6
ENDMDL
MODEL 5
REMARK VINA RESULT:      -5.9      2.063      2.492
REMARK  6 active torsions:
REMARK  status: ('A' for Active; 'I' for Inactive)
REMARK    1  A    between atoms: C_1  and  N_55 
REMARK    2  A    between atoms: C_2  and  N_55 
REMARK    3  A    between atoms: C_3  and  C_4 
REMARK    4  A    between atoms: C_3  and  N_55 
REMARK       I    between atoms: C_4  and  N_6 
REMARK    5  A    between atoms: N_6  and  C_7 
REMARK       I    between atoms: N_21  and  C_23 
REMARK    6  A    between atoms: C_23  and  C_25 
ROOT
ATOM      1  C   LIG d   1       7.817   1.050  -4.085  0.00  0.00     0.099 C 
ATOM      2  C   LIG d   1       6.907   1.836  -3.434  0.00  0.00    -0.034 C 
ATOM      3  C   LIG d   1       5.720   1.256  -2.974  0.00  0.00    -0.040 C 
ATOM      4  C   LIG d   1       5.483  -0.070  -3.154  0.00  0.00     0.027 C 
ATOM      5  N   LIG d   1       6.422  -0.869  -3.716  0.00  0.00    -0.310 N 
ATOM      6  C   LIG d   1       7.541  -0.320  -4.254  0.00  0.00     0.273 C 
ATOM      7  O   LIG d   1       8.316  -1.022  -4.884  0.00  0.00    -0.266 OA
ATOM      8  C   LIG d   1       6.312  -2.327  -3.754  0.00  0.00     0.031 C 
ATOM      9  C   LIG d   1       4.878  -2.801  -3.602  0.00  0.00    -0.006 C 
ATOM     10  H   LIG d   1       4.895  -3.869  -3.380  0.00  0.00     0.033 H 
ATOM     11  C   LIG d   1       4.215  -2.083  -2.427  0.00  0.00    -0.037 C 
ATOM     12  C   LIG d   1       4.120  -0.592  -2.761  0.00  0.00     0.016 C 
ATOM     13  H   LIG d   1       3.740  -0.038  -1.902  0.00  0.00     0.038 H 
ATOM     14  C   LIG d   1       3.189  -0.427  -3.974  0.00  0.00     0.023 C 
ATOM     15  N   LIG d   1       3.777  -1.189  -5.086  0.00  0.00    -0.297 N 
ATOM     16  C   LIG d   1       4.076  -2.611  -4.882  0.00  0.00     0.019 C 
ATOM     17  C   LIG d   1       4.036  -0.594  -6.268  0.00  0.00     0.247 C 
ATOM     18  O   LIG d   1       3.872   0.605  -6.394  0.00  0.00    -0.270 OA
ATOM     19  H   LIG d   1       7.101   2.888  -3.280  0.00  0.00     0.064 H 
ATOM     20  H   LIG d   1       4.986   1.867  -2.471  0.00  0.00     0.064 H 
ATOM     21  H   LIG d   1       6.703  -2.686  -4.706  0.00  0.00     0.050 H 
ATOM     22  H   LIG d   1       6.909  -2.748  -2.946  0.00  0.00     0.050 H 
ATOM     23  H   LIG d   1       3.215  -2.487  -2.267  0.00  0.00     0.028 H 
ATOM     24  H   LIG d   1       4.815  -2.222  -1.527  0.00  0.00     0.028 H 
ATOM     25  H   LIG d   1       2.200  -0.820  -3.738  0.00  0.00     0.047 H 
ATOM     26  H   LIG d   1       3.115   0.627  -4.244  0.00  0.00     0.047 H 
ATOM     27  H   LIG d   1       4.653  -2.984  -5.729  0.00  0.00     0.047 H 
ATOM     28  H   LIG d   1       3.142  -3.169  -4.811  0.00  0.00     0.047 H 
ENDROOT
BRANCH   1  29
ATOM     29  N   LIG d   1       9.007   1.601  -4.582  0.00  0.00    -0.277 N 
ATOM     30  C   LIG d   1       9.023   2.189  -5.795  0.00  0.00     0.263 C 
ATOM     31  O   LIG d   1       8.027   2.177  -6.487  0.00  0.00    -0.270 OA
ATOM     32  H   LIG d   1       9.819   1.557  -4.053  0.00  0.00     0.155 HD
BRANCH  30  33
ATOM     33  C   LIG d   1      10.278   2.861  -6.290  0.00  0.00     0.046 C 
ATOM     34  H   LIG d   1      11.007   2.908  -5.482  0.00  0.00     0.091 H 
ATOM     35  H   LIG d   1      10.692   2.289  -7.121  0.00  0.00     0.091 H 
BRANCH  33  36
ATOM     36  N   LIG d   1       9.944   4.235  -6.722  0.00  0.00     0.237 N 
ATOM     37  H   LIG d   1       9.053   4.216  -7.232  0.00  0.00     0.203 HD
BRANCH  36  38
ATOM     38  C   LIG d   1       9.804   5.114  -5.543  0.00  0.00    -0.043 C 
ATOM     39  H   LIG d   1       8.856   5.652  -5.577  0.00  0.00     0.078 H 
ATOM     40  H   LIG d   1       9.844   4.506  -4.640  0.00  0.00     0.078 H 
ATOM     41  H   LIG d   1      10.626   5.829  -5.535  0.00  0.00     0.078 H 
ENDBRANCH  36  38
BRANCH  36  42
ATOM     42  C   LIG d   1      11.000   4.753  -7.617  0.00  0.00    -0.043 C 
ATOM     43  H   LIG d   1      10.530   5.293  -8.440  0.00  0.00     0.078 H 
ATOM     44  H   LIG d   1      11.638   5.433  -7.054  0.00  0.00     0.078 H 
ATOM     45  H   LIG d   1      11.599   3.935  -8.015  0.00  0.00     0.078 H 
ENDBRANCH  36  42
ENDBRANCH  33  36
ENDBRANCH  30  33
ENDBRANCH   1  29
BRANCH  17  46
ATOM     46  C   LIG d   1       4.519  -1.396  -7.410  0.00  0.00     0.037 A 
ATOM     47  C   LIG d   1       3.617  -1.870  -8.364  0.00  0.00    -0.047 A 
ATOM     48  C   LIG d   1       4.072  -2.619  -9.428  0.00  0.00    -0.026 A 
ATOM     49  H   LIG d   1       2.564  -1.650  -8.269  0.00  0.00     0.063 H 
ATOM     50  C   LIG d   1       5.424  -2.902  -9.551  0.00  0.00     0.123 A 
ATOM     51  H   LIG d   1       3.375  -2.986 -10.167  0.00  0.00     0.065 H 
ATOM     52  C   LIG d   1       6.324  -2.433  -8.607  0.00  0.00    -0.026 A 
ATOM     53  F   LIG d   1       5.866  -3.637 -10.596  0.00  0.00    -0.205 F 
ATOM     54  C   LIG d   1       5.880  -1.679  -7.542  0.00  0.00    -0.047 A 
ATOM     55  H   LIG d   1       7.376  -2.657  -8.708  0.00  0.00     0.065 H 
ATOM     56  H   LIG d   1       6.583  -1.311  -6.809  0.00  0.00     0.063 H 
ENDBRANCH  17  46
TORSDOF 6
ENDMDL
MODEL 6
REMARK VINA RESULT:      -5.9      4.093      8.844
REMARK  6 active torsions:
REMARK  status: ('A' for Active; 'I' for Inactive)
REMARK    1  A    between atoms: C_1  and  N_55 
REMARK    2  A    between atoms: C_2  and  N_55 
REMARK    3  A    between atoms: C_3  and  C_4 
REMARK    4  A    between atoms: C_3  and  N_55 
REMARK       I    between atoms: C_4  and  N_6 
REMARK    5  A    between atoms: N_6  and  C_7 
REMARK       I    between atoms: N_21  and  C_23 
REMARK    6  A    between atoms: C_23  and  C_25 
ROOT
ATOM      1  C   LIG d   1       8.476   2.294  -4.772  0.00  0.00     0.099 C 
ATOM      2  C   LIG d   1       8.601   2.262  -6.134  0.00  0.00    -0.034 C 
ATOM      3  C   LIG d   1       9.783   2.735  -6.715  0.00  0.00    -0.040 C 
ATOM      4  C   LIG d   1      10.797   3.201  -5.940  0.00  0.00     0.027 C 
ATOM      5  N   LIG d   1      10.712   3.148  -4.589  0.00  0.00    -0.310 N 
ATOM      6  C   LIG d   1       9.546   2.782  -3.999  0.00  0.00     0.273 C 
ATOM      7  O   LIG d   1       9.427   2.872  -2.787  0.00  0.00    -0.266 OA
ATOM      8  C   LIG d   1      11.840   3.444  -3.706  0.00  0.00     0.031 C 
ATOM      9  C   LIG d   1      12.898   4.294  -4.386  0.00  0.00    -0.006 C 
ATOM     10  H   LIG d   1      13.805   4.258  -3.780  0.00  0.00     0.033 H 
ATOM     11  C   LIG d   1      13.224   3.714  -5.763  0.00  0.00    -0.037 C 
ATOM     12  C   LIG d   1      11.978   3.827  -6.644  0.00  0.00     0.016 C 
ATOM     13  H   LIG d   1      12.149   3.335  -7.601  0.00  0.00     0.038 H 
ATOM     14  C   LIG d   1      11.664   5.320  -6.847  0.00  0.00     0.023 C 
ATOM     15  N   LIG d   1      11.434   5.905  -5.516  0.00  0.00    -0.297 N 
ATOM     16  C   LIG d   1      12.475   5.752  -4.494  0.00  0.00     0.019 C 
ATOM     17  C   LIG d   1      10.292   6.566  -5.243  0.00  0.00     0.247 C 
ATOM     18  O   LIG d   1       9.398   6.604  -6.067  0.00  0.00    -0.270 OA
ATOM     19  H   LIG d   1       7.800   1.879  -6.750  0.00  0.00     0.064 H 
ATOM     20  H   LIG d   1       9.890   2.728  -7.789  0.00  0.00     0.064 H 
ATOM     21  H   LIG d   1      11.472   3.976  -2.828  0.00  0.00     0.050 H 
ATOM     22  H   LIG d   1      12.294   2.507  -3.386  0.00  0.00     0.050 H 
ATOM     23  H   LIG d   1      14.044   4.275  -6.212  0.00  0.00     0.028 H 
ATOM     24  H   LIG d   1      13.510   2.667  -5.661  0.00  0.00     0.028 H 
ATOM     25  H   LIG d   1      12.508   5.814  -7.328  0.00  0.00     0.047 H 
ATOM     26  H   LIG d   1      10.769   5.430  -7.460  0.00  0.00     0.047 H 
ATOM     27  H   LIG d   1      12.088   6.088  -3.531  0.00  0.00     0.047 H 
ATOM     28  H   LIG d   1      13.338   6.361  -4.765  0.00  0.00     0.047 H 
ENDROOT
BRANCH   1  29
ATOM     29  N   LIG d   1       7.298   1.852  -4.156  0.00  0.00    -0.277 N 
ATOM     30  C   LIG d   1       7.127   0.541  -3.889  0.00  0.00     0.263 C 
ATOM     31  O   LIG d   1       7.959  -0.264  -4.249  0.00  0.00    -0.270 OA
ATOM     32  H   LIG d   1       6.603   2.489  -3.923  0.00  0.00     0.155 HD
BRANCH  30  33
ATOM     33  C   LIG d   1       5.900   0.077  -3.147  0.00  0.00     0.046 C 
ATOM     34  H   LIG d   1       5.778  -0.996  -3.283  0.00  0.00     0.091 H 
ATOM     35  H   LIG d   1       6.013   0.300  -2.085  0.00  0.00     0.091 H 
BRANCH  33  36
ATOM     36  N   LIG d   1       4.718   0.773  -3.698  0.00  0.00     0.237 N 
ATOM     37  H   LIG d   1       5.034   1.569  -4.265  0.00  0.00     0.203 HD
BRANCH  36  38
ATOM     38  C   LIG d   1       3.945  -0.148  -4.557  0.00  0.00    -0.043 C 
ATOM     39  H   LIG d   1       3.900  -1.141  -4.109  0.00  0.00     0.078 H 
ATOM     40  H   LIG d   1       2.934   0.242  -4.677  0.00  0.00     0.078 H 
ATOM     41  H   LIG d   1       4.427  -0.212  -5.532  0.00  0.00     0.078 H 
ENDBRANCH  36  38
BRANCH  36  42
ATOM     42  C   LIG d   1       3.867   1.274  -2.599  0.00  0.00    -0.043 C 
ATOM     43  H   LIG d   1       2.869   0.847  -2.704  0.00  0.00     0.078 H 
ATOM     44  H   LIG d   1       4.297   0.961  -1.648  0.00  0.00     0.078 H 
ATOM     45  H   LIG d   1       3.803   2.361  -2.630  0.00  0.00     0.078 H 
ENDBRANCH  36  42
ENDBRANCH  33  36
ENDBRANCH  30  33
ENDBRANCH   1  29
BRANCH  17  46
ATOM     46  C   LIG d   1      10.124   7.245  -3.942  0.00  0.00     0.037 A 
ATOM     47  C   LIG d   1      10.503   8.581  -3.795  0.00  0.00    -0.047 A 
ATOM     48  C   LIG d   1      10.345   9.210  -2.579  0.00  0.00    -0.026 A 
ATOM     49  H   LIG d   1      10.919   9.120  -4.633  0.00  0.00     0.063 H 
ATOM     50  C   LIG d   1       9.811   8.519  -1.502  0.00  0.00     0.123 A 
ATOM     51  H   LIG d   1      10.638  10.243  -2.464  0.00  0.00     0.065 H 
ATOM     52  C   LIG d   1       9.433   7.192  -1.643  0.00  0.00    -0.026 A 
ATOM     53  F   LIG d   1       9.658   9.140  -0.312  0.00  0.00    -0.205 F 
ATOM     54  C   LIG d   1       9.581   6.555  -2.856  0.00  0.00    -0.047 A 
ATOM     55  H   LIG d   1       9.016   6.659  -0.800  0.00  0.00     0.065 H 
ATOM     56  H   LIG d   1       9.282   5.523  -2.965  0.00  0.00     0.063 H 
ENDBRANCH  17  46
TORSDOF 6
ENDMDL
MODEL 7
REMARK VINA RESULT:      -5.8      3.381      4.738
REMARK  6 active torsions:
REMARK  status: ('A' for Active; 'I' for Inactive)
REMARK    1  A    between atoms: C_1  and  N_55 
REMARK    2  A    between atoms: C_2  and  N_55 
REMARK    3  A    between atoms: C_3  and  C_4 
REMARK    4  A    between atoms: C_3  and  N_55 
REMARK       I    between atoms: C_4  and  N_6 
REMARK    5  A    between atoms: N_6  and  C_7 
REMARK       I    between atoms: N_21  and  C_23 
REMARK    6  A    between atoms: C_23  and  C_25 
ROOT
ATOM      1  C   LIG d   1      10.839   0.148  -4.894  0.00  0.00     0.099 C 
ATOM      2  C   LIG d   1      11.376  -1.106  -4.998  0.00  0.00    -0.034 C 
ATOM      3  C   LIG d   1      10.644  -2.104  -5.650  0.00  0.00    -0.040 C 
ATOM      4  C   LIG d   1       9.427  -1.828  -6.188  0.00  0.00     0.027 C 
ATOM      5  N   LIG d   1       8.934  -0.566  -6.168  0.00  0.00    -0.310 N 
ATOM      6  C   LIG d   1       9.577   0.399  -5.464  0.00  0.00     0.273 C 
ATOM      7  O   LIG d   1       9.058   1.497  -5.329  0.00  0.00    -0.266 OA
ATOM      8  C   LIG d   1       7.733  -0.166  -6.902  0.00  0.00     0.031 C 
ATOM      9  C   LIG d   1       6.836  -1.347  -7.227  0.00  0.00    -0.006 C 
ATOM     10  H   LIG d   1       6.114  -1.027  -7.980  0.00  0.00     0.033 H 
ATOM     11  C   LIG d   1       7.668  -2.483  -7.821  0.00  0.00    -0.037 C 
ATOM     12  C   LIG d   1       8.636  -2.988  -6.747  0.00  0.00     0.016 C 
ATOM     13  H   LIG d   1       9.310  -3.733  -7.169  0.00  0.00     0.038 H 
ATOM     14  C   LIG d   1       7.810  -3.587  -5.596  0.00  0.00     0.023 C 
ATOM     15  N   LIG d   1       6.941  -2.519  -5.076  0.00  0.00    -0.297 N 
ATOM     16  C   LIG d   1       6.053  -1.820  -6.011  0.00  0.00     0.019 C 
ATOM     17  C   LIG d   1       6.962  -2.190  -3.769  0.00  0.00     0.247 C 
ATOM     18  O   LIG d   1       7.769  -2.711  -3.023  0.00  0.00    -0.270 OA
ATOM     19  H   LIG d   1      12.350  -1.322  -4.581  0.00  0.00     0.064 H 
ATOM     20  H   LIG d   1      11.049  -3.101  -5.727  0.00  0.00     0.064 H 
ATOM     21  H   LIG d   1       7.171   0.547  -6.298  0.00  0.00     0.050 H 
ATOM     22  H   LIG d   1       8.031   0.316  -7.832  0.00  0.00     0.050 H 
ATOM     23  H   LIG d   1       7.011  -3.295  -8.133  0.00  0.00     0.028 H 
ATOM     24  H   LIG d   1       8.230  -2.116  -8.680  0.00  0.00     0.028 H 
ATOM     25  H   LIG d   1       7.201  -4.412  -5.967  0.00  0.00     0.047 H 
ATOM     26  H   LIG d   1       8.475  -3.941  -4.808  0.00  0.00     0.047 H 
ATOM     27  H   LIG d   1       5.607  -0.960  -5.511  0.00  0.00     0.047 H 
ATOM     28  H   LIG d   1       5.261  -2.498  -6.331  0.00  0.00     0.047 H 
ENDROOT
BRANCH   1  29
ATOM     29  N   LIG d   1      11.533   1.166  -4.226  0.00  0.00    -0.277 N 
ATOM     30  C   LIG d   1      12.390   1.955  -4.904  0.00  0.00     0.263 C 
ATOM     31  O   LIG d   1      12.616   1.738  -6.076  0.00  0.00    -0.270 OA
ATOM     32  H   LIG d   1      11.398   1.301  -3.275  0.00  0.00     0.155 HD
BRANCH  30  33
ATOM     33  C   LIG d   1      13.068   3.105  -4.206  0.00  0.00     0.046 C 
ATOM     34  H   LIG d   1      13.751   2.720  -3.450  0.00  0.00     0.091 H 
ATOM     35  H   LIG d   1      13.626   3.695  -4.934  0.00  0.00     0.091 H 
BRANCH  33  36
ATOM     36  N   LIG d   1      12.038   3.937  -3.548  0.00  0.00     0.237 N 
ATOM     37  H   LIG d   1      11.345   3.321  -3.106  0.00  0.00     0.203 HD
BRANCH  36  38
ATOM     38  C   LIG d   1      12.660   4.783  -2.509  0.00  0.00    -0.043 C 
ATOM     39  H   LIG d   1      13.632   4.383  -2.221  0.00  0.00     0.078 H 
ATOM     40  H   LIG d   1      12.785   5.793  -2.902  0.00  0.00     0.078 H 
ATOM     41  H   LIG d   1      12.007   4.812  -1.638  0.00  0.00     0.078 H 
ENDBRANCH  36  38
BRANCH  36  42
ATOM     42  C   LIG d   1      11.356   4.785  -4.550  0.00  0.00    -0.043 C 
ATOM     43  H   LIG d   1      12.028   4.942  -5.394  0.00  0.00     0.078 H 
ATOM     44  H   LIG d   1      10.456   4.275  -4.891  0.00  0.00     0.078 H 
ATOM     45  H   LIG d   1      11.088   5.747  -4.115  0.00  0.00     0.078 H 
ENDBRANCH  36  42
ENDBRANCH  33  36
ENDBRANCH  30  33
ENDBRANCH   1  29
BRANCH  17  46
ATOM     46  C   LIG d   1       6.004  -1.197  -3.242  0.00  0.00     0.037 A 
ATOM     47  C   LIG d   1       4.786  -1.616  -2.703  0.00  0.00    -0.047 A 
ATOM     48  C   LIG d   1       3.895  -0.686  -2.212  0.00  0.00    -0.026 A 
ATOM     49  H   LIG d   1       4.542  -2.667  -2.670  0.00  0.00     0.063 H 
ATOM     50  C   LIG d   1       4.207   0.665  -2.254  0.00  0.00     0.123 A 
ATOM     51  H   LIG d   1       2.953  -1.008  -1.795  0.00  0.00     0.065 H 
ATOM     52  C   LIG d   1       5.416   1.086  -2.787  0.00  0.00    -0.026 A 
ATOM     53  F   LIG d   1       3.331   1.574  -1.772  0.00  0.00    -0.205 F 
ATOM     54  C   LIG d   1       6.315   0.164  -3.275  0.00  0.00    -0.047 A 
ATOM     55  H   LIG d   1       5.653   2.140  -2.816  0.00  0.00     0.065 H 
ATOM     56  H   LIG d   1       7.258   0.493  -3.687  0.00  0.00     0.063 H 
ENDBRANCH  17  46
TORSDOF 6
ENDMDL
MODEL 8
REMARK VINA RESULT:      -5.8      4.218      6.576
REMARK  6 active torsions:
REMARK  status: ('A' for Active; 'I' for Inactive)
REMARK    1  A    between atoms: C_1  and  N_55 
REMARK    2  A    between atoms: C_2  and  N_55 
REMARK    3  A    between atoms: C_3  and  C_4 
REMARK    4  A    between atoms: C_3  and  N_55 
REMARK       I    between atoms: C_4  and  N_6 
REMARK    5  A    between atoms: N_6  and  C_7 
REMARK       I    between atoms: N_21  and  C_23 
REMARK    6  A    between atoms: C_23  and  C_25 
ROOT
ATOM      1  C   LIG d   1       9.021  -3.620  -6.040  0.00  0.00     0.099 C 
ATOM      2  C   LIG d   1       8.503  -4.706  -6.689  0.00  0.00    -0.034 C 
ATOM      3  C   LIG d   1       7.364  -4.539  -7.484  0.00  0.00    -0.040 C 
ATOM      4  C   LIG d   1       6.793  -3.315  -7.624  0.00  0.00     0.027 C 
ATOM      5  N   LIG d   1       7.357  -2.221  -7.057  0.00  0.00    -0.310 N 
ATOM      6  C   LIG d   1       8.405  -2.365  -6.208  0.00  0.00     0.273 C 
ATOM      7  O   LIG d   1       8.820  -1.398  -5.589  0.00  0.00    -0.266 OA
ATOM      8  C   LIG d   1       6.908  -0.857  -7.335  0.00  0.00     0.031 C 
ATOM      9  C   LIG d   1       5.486  -0.813  -7.863  0.00  0.00    -0.006 C 
ATOM     10  H   LIG d   1       5.311   0.177  -8.286  0.00  0.00     0.033 H 
ATOM     11  C   LIG d   1       5.314  -1.843  -8.979  0.00  0.00    -0.037 C 
ATOM     12  C   LIG d   1       5.486  -3.241  -8.379  0.00  0.00     0.016 C 
ATOM     13  H   LIG d   1       5.464  -3.994  -9.168  0.00  0.00     0.038 H 
ATOM     14  C   LIG d   1       4.349  -3.477  -7.369  0.00  0.00     0.023 C 
ATOM     15  N   LIG d   1       4.456  -2.434  -6.337  0.00  0.00    -0.297 N 
ATOM     16  C   LIG d   1       4.461  -1.028  -6.758  0.00  0.00     0.019 C 
ATOM     17  C   LIG d   1       4.548  -2.762  -5.033  0.00  0.00     0.247 C 
ATOM     18  O   LIG d   1       4.638  -3.930  -4.704  0.00  0.00    -0.270 OA
ATOM     19  H   LIG d   1       8.966  -5.678  -6.588  0.00  0.00     0.064 H 
ATOM     20  H   LIG d   1       6.937  -5.391  -7.991  0.00  0.00     0.064 H 
ATOM     21  H   LIG d   1       6.962  -0.273  -6.416  0.00  0.00     0.050 H 
ATOM     22  H   LIG d   1       7.572  -0.410  -8.075  0.00  0.00     0.050 H 
ATOM     23  H   LIG d   1       4.318  -1.751  -9.413  0.00  0.00     0.028 H 
ATOM     24  H   LIG d   1       6.067  -1.678  -9.750  0.00  0.00     0.028 H 
ATOM     25  H   LIG d   1       3.385  -3.402  -7.872  0.00  0.00     0.047 H 
ATOM     26  H   LIG d   1       4.456  -4.461  -6.914  0.00  0.00     0.047 H 
ATOM     27  H   LIG d   1       4.712  -0.396  -5.905  0.00  0.00     0.047 H 
ATOM     28  H   LIG d   1       3.470  -0.758  -7.125  0.00  0.00     0.047 H 
ENDROOT
BRANCH   1  29
ATOM     29  N   LIG d   1      10.147  -3.753  -5.215  0.00  0.00    -0.277 N 
ATOM     30  C   LIG d   1       9.996  -4.074  -3.914  0.00  0.00     0.263 C 
ATOM     31  O   LIG d   1       8.884  -4.174  -3.440  0.00  0.00    -0.270 OA
ATOM     32  H   LIG d   1      11.035  -3.613  -5.580  0.00  0.00     0.155 HD
BRANCH  30  33
ATOM     33  C   LIG d   1      11.208  -4.305  -3.050  0.00  0.00     0.046 C 
ATOM     34  H   LIG d   1      11.717  -3.358  -2.876  0.00  0.00     0.091 H 
ATOM     35  H   LIG d   1      10.898  -4.733  -2.096  0.00  0.00     0.091 H 
BRANCH  33  36
ATOM     36  N   LIG d   1      12.127  -5.225  -3.755  0.00  0.00     0.237 N 
ATOM     37  H   LIG d   1      11.829  -5.308  -4.734  0.00  0.00     0.203 HD
BRANCH  36  38
ATOM     38  C   LIG d   1      13.503  -4.691  -3.716  0.00  0.00    -0.043 C 
ATOM     39  H   LIG d   1      14.188  -5.358  -4.239  0.00  0.00     0.078 H 
ATOM     40  H   LIG d   1      13.517  -3.710  -4.193  0.00  0.00     0.078 H 
ATOM     41  H   LIG d   1      13.816  -4.593  -2.677  0.00  0.00     0.078 H 
ENDBRANCH  36  38
BRANCH  36  42
ATOM     42  C   LIG d   1      12.086  -6.562  -3.125  0.00  0.00    -0.043 C 
ATOM     43  H   LIG d   1      11.048  -6.888  -3.057  0.00  0.00     0.078 H 
ATOM     44  H   LIG d   1      12.646  -7.262  -3.744  0.00  0.00     0.078 H 
ATOM     45  H   LIG d   1      12.521  -6.527  -2.127  0.00  0.00     0.078 H 
ENDBRANCH  36  42
ENDBRANCH  33  36
ENDBRANCH  30  33
ENDBRANCH   1  29
BRANCH  17  46
ATOM     46  C   LIG d   1       4.539  -1.705  -4.002  0.00  0.00     0.037 A 
ATOM     47  C   LIG d   1       5.725  -1.053  -3.656  0.00  0.00    -0.047 A 
ATOM     48  C   LIG d   1       5.712  -0.067  -2.694  0.00  0.00    -0.026 A 
ATOM     49  H   LIG d   1       6.651  -1.322  -4.143  0.00  0.00     0.063 H 
ATOM     50  C   LIG d   1       4.523   0.278  -2.068  0.00  0.00     0.123 A 
ATOM     51  H   LIG d   1       6.628   0.437  -2.425  0.00  0.00     0.065 H 
ATOM     52  C   LIG d   1       3.343  -0.364  -2.408  0.00  0.00    -0.026 A 
ATOM     53  F   LIG d   1       4.515   1.246  -1.124  0.00  0.00    -0.205 F 
ATOM     54  C   LIG d   1       3.344  -1.348  -3.373  0.00  0.00    -0.047 A 
ATOM     55  H   LIG d   1       2.420  -0.090  -1.917  0.00  0.00     0.065 H 
ATOM     56  H   LIG d   1       2.423  -1.845  -3.640  0.00  0.00     0.063 H 
ENDBRANCH  17  46
TORSDOF 6
ENDMDL
MODEL 9
REMARK VINA RESULT:      -5.8      3.692      6.585
REMARK  6 active torsions:
REMARK  status: ('A' for Active; 'I' for Inactive)
REMARK    1  A    between atoms: C_1  and  N_55 
REMARK    2  A    between atoms: C_2  and  N_55 
REMARK    3  A    between atoms: C_3  and  C_4 
REMARK    4  A    between atoms: C_3  and  N_55 
REMARK       I    between atoms: C_4  and  N_6 
REMARK    5  A    between atoms: N_6  and  C_7 
REMARK       I    between atoms: N_21  and  C_23 
REMARK    6  A    between atoms: C_23  and  C_25 
ROOT
ATOM      1  C   LIG d   1       3.977  -0.081  -7.389  0.00  0.00     0.099 C 
ATOM      2  C   LIG d   1       2.902  -0.088  -6.544  0.00  0.00    -0.034 C 
ATOM      3  C   LIG d   1       3.127  -0.166  -5.165  0.00  0.00    -0.040 C 
ATOM      4  C   LIG d   1       4.392  -0.217  -4.673  0.00  0.00     0.027 C 
ATOM      5  N   LIG d   1       5.460  -0.117  -5.502  0.00  0.00    -0.310 N 
ATOM      6  C   LIG d   1       5.274  -0.133  -6.846  0.00  0.00     0.273 C 
ATOM      7  O   LIG d   1       6.241  -0.187  -7.589  0.00  0.00    -0.266 OA
ATOM      8  C   LIG d   1       6.832   0.038  -5.021  0.00  0.00     0.031 C 
ATOM      9  C   LIG d   1       7.001  -0.443  -3.591  0.00  0.00    -0.006 C 
ATOM     10  H   LIG d   1       7.954  -0.067  -3.216  0.00  0.00     0.033 H 
ATOM     11  C   LIG d   1       5.887   0.132  -2.715  0.00  0.00    -0.037 C 
ATOM     12  C   LIG d   1       4.551  -0.447  -3.188  0.00  0.00     0.016 C 
ATOM     13  H   LIG d   1       3.727   0.018  -2.646  0.00  0.00     0.038 H 
ATOM     14  C   LIG d   1       4.572  -1.967  -2.950  0.00  0.00     0.023 C 
ATOM     15  N   LIG d   1       5.698  -2.516  -3.723  0.00  0.00    -0.297 N 
ATOM     16  C   LIG d   1       7.038  -1.962  -3.501  0.00  0.00     0.019 C 
ATOM     17  C   LIG d   1       5.502  -3.507  -4.614  0.00  0.00     0.247 C 
ATOM     18  O   LIG d   1       4.374  -3.893  -4.858  0.00  0.00    -0.270 OA
ATOM     19  H   LIG d   1       1.895  -0.035  -6.934  0.00  0.00     0.064 H 
ATOM     20  H   LIG d   1       2.288  -0.187  -4.486  0.00  0.00     0.064 H 
ATOM     21  H   LIG d   1       7.499  -0.534  -5.666  0.00  0.00     0.050 H 
ATOM     22  H   LIG d   1       7.108   1.090  -5.073  0.00  0.00     0.050 H 
ATOM     23  H   LIG d   1       6.059  -0.144  -1.675  0.00  0.00     0.028 H 
ATOM     24  H   LIG d   1       5.872   1.219  -2.808  0.00  0.00     0.028 H 
ATOM     25  H   LIG d   1       4.715  -2.174  -1.889  0.00  0.00     0.047 H 
ATOM     26  H   LIG d   1       3.637  -2.408  -3.293  0.00  0.00     0.047 H 
ATOM     27  H   LIG d   1       7.720  -2.352  -4.257  0.00  0.00     0.047 H 
ATOM     28  H   LIG d   1       7.391  -2.257  -2.512  0.00  0.00     0.047 H 
ENDROOT
BRANCH   1  29
ATOM     29  N   LIG d   1       3.789  -0.028  -8.777  0.00  0.00    -0.277 N 
ATOM     30  C   LIG d   1       3.863   1.153  -9.423  0.00  0.00     0.263 C 
ATOM     31  O   LIG d   1       4.018   2.179  -8.795  0.00  0.00    -0.270 OA
ATOM     32  H   LIG d   1       3.604  -0.841  -9.273  0.00  0.00     0.155 HD
BRANCH  30  33
ATOM     33  C   LIG d   1       3.750   1.199 -10.925  0.00  0.00     0.046 C 
ATOM     34  H   LIG d   1       2.813   1.679 -11.205  0.00  0.00     0.091 H 
ATOM     35  H   LIG d   1       4.587   1.766 -11.336  0.00  0.00     0.091 H 
BRANCH  33  36
ATOM     36  N   LIG d   1       3.760  -0.185 -11.445  0.00  0.00     0.237 N 
ATOM     37  H   LIG d   1       4.182  -0.803 -10.742  0.00  0.00     0.203 HD
BRANCH  36  38
ATOM     38  C   LIG d   1       2.377  -0.635 -11.708  0.00  0.00    -0.043 C 
ATOM     39  H   LIG d   1       2.069  -0.356 -12.716  0.00  0.00     0.078 H 
ATOM     40  H   LIG d   1       2.330  -1.719 -11.601  0.00  0.00     0.078 H 
ATOM     41  H   LIG d   1       1.709  -0.169 -10.984  0.00  0.00     0.078 H 
ENDBRANCH  36  38
BRANCH  36  42
ATOM     42  C   LIG d   1       4.558  -0.254 -12.687  0.00  0.00    -0.043 C 
ATOM     43  H   LIG d   1       4.538   0.722 -13.174  0.00  0.00     0.078 H 
ATOM     44  H   LIG d   1       5.586  -0.511 -12.433  0.00  0.00     0.078 H 
ATOM     45  H   LIG d   1       4.150  -1.005 -13.362  0.00  0.00     0.078 H 
ENDBRANCH  36  42
ENDBRANCH  33  36
ENDBRANCH  30  33
ENDBRANCH   1  29
BRANCH  17  46
ATOM     46  C   LIG d   1       6.656  -4.126  -5.297  0.00  0.00     0.037 A 
ATOM     47  C   LIG d   1       7.284  -5.242  -4.740  0.00  0.00    -0.047 A 
ATOM     48  C   LIG d   1       8.361  -5.816  -5.381  0.00  0.00    -0.026 A 
ATOM     49  H   LIG d   1       6.926  -5.655  -3.809  0.00  0.00     0.063 H 
ATOM     50  C   LIG d   1       8.821  -5.286  -6.577  0.00  0.00     0.123 A 
ATOM     51  H   LIG d   1       8.847  -6.679  -4.951  0.00  0.00     0.065 H 
ATOM     52  C   LIG d   1       8.201  -4.179  -7.135  0.00  0.00    -0.026 A 
ATOM     53  F   LIG d   1       9.877  -5.852  -7.202  0.00  0.00    -0.205 F 
ATOM     54  C   LIG d   1       7.120  -3.601  -6.505  0.00  0.00    -0.047 A 
ATOM     55  H   LIG d   1       8.563  -3.771  -8.068  0.00  0.00     0.065 H 
ATOM     56  H   LIG d   1       6.635  -2.741  -6.943  0.00  0.00     0.063 H 
ENDBRANCH  17  46
TORSDOF 6
ENDMDL
