MODEL 1
REMARK VINA RESULT:      -5.1      0.000      0.000
REMARK  5 active torsions:
REMARK  status: ('A' for Active; 'I' for Inactive)
REMARK    1  A    between atoms: C_1  and  C_2 
REMARK    2  A    between atoms: C_2  and  C_3 
REMARK    3  A    between atoms: C_3  and  C_4 
REMARK    4  A    between atoms: C_4  and  O_5 
REMARK    5  A    between atoms: O_5  and  C_6 
ROOT
ATOM      1  C   LIG d   1       2.837   0.308  -6.781  0.00  0.00     0.090 C 
ATOM      2  H   LIG d   1       2.230   1.135  -6.412  0.00  0.00     0.070 H 
ATOM      3  H   LIG d   1       2.263  -0.616  -6.726  0.00  0.00     0.070 H 
ENDROOT
BRANCH   1   4
ATOM      4  C   LIG d   1       3.233   0.576  -8.235  0.00  0.00    -0.019 C 
ATOM      5  H   LIG d   1       4.308   0.435  -8.350  0.00  0.00     0.030 H 
ATOM      6  H   LIG d   1       2.704  -0.117  -8.889  0.00  0.00     0.030 H 
BRANCH   4   7
ATOM      7  C   LIG d   1       2.865   2.013  -8.607  0.00  0.00    -0.053 C 
ATOM      8  H   LIG d   1       2.021   2.005  -9.296  0.00  0.00     0.026 H 
ATOM      9  H   LIG d   1       2.593   2.564  -7.707  0.00  0.00     0.026 H 
BRANCH   7  10
ATOM     10  C   LIG d   1       4.063   2.690  -9.276  0.00  0.00    -0.065 C 
ATOM     11  H   LIG d   1       4.858   2.828  -8.544  0.00  0.00     0.023 H 
ATOM     12  H   LIG d   1       4.426   2.065 -10.092  0.00  0.00     0.023 H 
ATOM     13  H   LIG d   1       3.759   3.661  -9.669  0.00  0.00     0.023 H 
ENDBRANCH   7  10
ENDBRANCH   4   7
ENDBRANCH   1   4
BRANCH   1  14
ATOM     14  O   LIG d   1       4.015   0.187  -5.981  0.00  0.00    -0.491 OA
BRANCH  14  15
ATOM     15  C   LIG d   1       3.914  -0.547  -4.842  0.00  0.00     0.134 A 
ATOM     16  C   LIG d   1       4.720  -1.661  -4.659  0.00  0.00     0.059 A 
ATOM     17  C   LIG d   1       4.614  -2.406  -3.499  0.00  0.00    -0.044 A 
ATOM     18 BR   LIG d   1       5.963  -2.160  -5.994  0.00  0.00    -0.046 Br
ATOM     19  C   LIG d   1       3.707  -2.042  -2.522  0.00  0.00    -0.060 A 
ATOM     20  H   LIG d   1       5.243  -3.273  -3.355  0.00  0.00     0.063 H 
ATOM     21  C   LIG d   1       2.902  -0.932  -2.703  0.00  0.00    -0.058 A 
ATOM     22  H   LIG d   1       3.626  -2.625  -1.617  0.00  0.00     0.062 H 
ATOM     23  C   LIG d   1       3.007  -0.181  -3.857  0.00  0.00    -0.019 A 
ATOM     24  H   LIG d   1       2.193  -0.648  -1.938  0.00  0.00     0.062 H 
ATOM     25  H   LIG d   1       2.381   0.689  -3.996  0.00  0.00     0.065 H 
ENDBRANCH  14  15
ENDBRANCH   1  14
TORSDOF 5
ENDMDL
MODEL 2
REMARK VINA RESULT:      -4.8      1.593      4.745
REMARK  5 active torsions:
REMARK  status: ('A' for Active; 'I' for Inactive)
REMARK    1  A    between atoms: C_1  and  C_2 
REMARK    2  A    between atoms: C_2  and  C_3 
REMARK    3  A    between atoms: C_3  and  C_4 
REMARK    4  A    between atoms: C_4  and  O_5 
REMARK    5  A    between atoms: O_5  and  C_6 
ROOT
ATOM      1  C   LIG d   1       2.990   0.045  -3.863  0.00  0.00     0.090 C 
ATOM      2  H   LIG d   1       2.709  -1.008  -3.843  0.00  0.00     0.070 H 
ATOM      3  H   LIG d   1       2.113   0.651  -4.088  0.00  0.00     0.070 H 
ENDROOT
BRANCH   1   4
ATOM      4  C   LIG d   1       3.551   0.449  -2.497  0.00  0.00    -0.019 C 
ATOM      5  H   LIG d   1       4.178   1.333  -2.610  0.00  0.00     0.030 H 
ATOM      6  H   LIG d   1       2.729   0.670  -1.817  0.00  0.00     0.030 H 
BRANCH   4   7
ATOM      7  C   LIG d   1       4.388  -0.700  -1.930  0.00  0.00    -0.053 C 
ATOM      8  H   LIG d   1       5.397  -0.650  -2.338  0.00  0.00     0.026 H 
ATOM      9  H   LIG d   1       4.431  -0.617  -0.845  0.00  0.00     0.026 H 
BRANCH   7  10
ATOM     10  C   LIG d   1       3.748  -2.036  -2.315  0.00  0.00    -0.065 C 
ATOM     11  H   LIG d   1       3.916  -2.227  -3.374  0.00  0.00     0.023 H 
ATOM     12  H   LIG d   1       4.194  -2.836  -1.726  0.00  0.00     0.023 H 
ATOM     13  H   LIG d   1       2.676  -1.994  -2.119  0.00  0.00     0.023 H 
ENDBRANCH   7  10
ENDBRANCH   4   7
ENDBRANCH   1   4
BRANCH   1  14
ATOM     14  O   LIG d   1       3.985   0.253  -4.867  0.00  0.00    -0.491 OA
BRANCH  14  15
ATOM     15  C   LIG d   1       3.741  -0.272  -6.096  0.00  0.00     0.134 A 
ATOM     16  C   LIG d   1       4.471  -1.364  -6.543  0.00  0.00     0.059 A 
ATOM     17  C   LIG d   1       4.221  -1.896  -7.794  0.00  0.00    -0.044 A 
ATOM     18 BR   LIG d   1       5.807  -2.124  -5.442  0.00  0.00    -0.046 Br
ATOM     19  C   LIG d   1       3.243  -1.342  -8.599  0.00  0.00    -0.060 A 
ATOM     20  H   LIG d   1       4.788  -2.747  -8.142  0.00  0.00     0.063 H 
ATOM     21  C   LIG d   1       2.514  -0.254  -8.156  0.00  0.00    -0.058 A 
ATOM     22  H   LIG d   1       3.049  -1.760  -9.576  0.00  0.00     0.062 H 
ATOM     23  C   LIG d   1       2.757   0.278  -6.905  0.00  0.00    -0.019 A 
ATOM     24  H   LIG d   1       1.751   0.178  -8.786  0.00  0.00     0.062 H 
ATOM     25  H   LIG d   1       2.184   1.126  -6.558  0.00  0.00     0.065 H 
ENDBRANCH  14  15
ENDBRANCH   1  14
TORSDOF 5
ENDMDL
MODEL 3
REMARK VINA RESULT:      -4.6      2.940      4.580
REMARK  5 active torsions:
REMARK  status: ('A' for Active; 'I' for Inactive)
REMARK    1  A    between atoms: C_1  and  C_2 
REMARK    2  A    between atoms: C_2  and  C_3 
REMARK    3  A    between atoms: C_3  and  C_4 
REMARK    4  A    between atoms: C_4  and  O_5 
REMARK    5  A    between atoms: O_5  and  C_6 
ROOT
ATOM      1  C   LIG d   1       3.538  -1.676  -2.702  0.00  0.00     0.090 C 
ATOM      2  H   LIG d   1       4.413  -1.385  -2.121  0.00  0.00     0.070 H 
ATOM      3  H   LIG d   1       2.985  -2.446  -2.166  0.00  0.00     0.070 H 
ENDROOT
BRANCH   1   4
ATOM      4  C   LIG d   1       2.638  -0.456  -2.915  0.00  0.00    -0.019 C 
ATOM      5  H   LIG d   1       2.308  -0.425  -3.953  0.00  0.00     0.030 H 
ATOM      6  H   LIG d   1       1.771  -0.526  -2.259  0.00  0.00     0.030 H 
BRANCH   4   7
ATOM      7  C   LIG d   1       3.422   0.818  -2.592  0.00  0.00    -0.053 C 
ATOM      8  H   LIG d   1       3.799   1.256  -3.515  0.00  0.00     0.026 H 
ATOM      9  H   LIG d   1       2.767   1.531  -2.092  0.00  0.00     0.026 H 
BRANCH   7  10
ATOM     10  C   LIG d   1       4.597   0.475  -1.673  0.00  0.00    -0.065 C 
ATOM     11  H   LIG d   1       4.701  -0.608  -1.606  0.00  0.00     0.023 H 
ATOM     12  H   LIG d   1       5.513   0.904  -2.077  0.00  0.00     0.023 H 
ATOM     13  H   LIG d   1       4.411   0.883  -0.679  0.00  0.00     0.023 H 
ENDBRANCH   7  10
ENDBRANCH   4   7
ENDBRANCH   1   4
BRANCH   1  14
ATOM     14  O   LIG d   1       3.957  -2.185  -3.970  0.00  0.00    -0.491 OA
BRANCH  14  15
ATOM     15  C   LIG d   1       5.211  -1.862  -4.381  0.00  0.00     0.134 A 
ATOM     16  C   LIG d   1       5.392  -1.079  -5.512  0.00  0.00     0.059 A 
ATOM     17  C   LIG d   1       6.670  -0.752  -5.928  0.00  0.00    -0.044 A 
ATOM     18 BR   LIG d   1       3.893  -0.457  -6.483  0.00  0.00    -0.046 Br
ATOM     19  C   LIG d   1       7.766  -1.205  -5.218  0.00  0.00    -0.060 A 
ATOM     20  H   LIG d   1       6.811  -0.141  -6.807  0.00  0.00     0.063 H 
ATOM     21  C   LIG d   1       7.588  -1.985  -4.091  0.00  0.00    -0.058 A 
ATOM     22  H   LIG d   1       8.763  -0.948  -5.545  0.00  0.00     0.062 H 
ATOM     23  C   LIG d   1       6.314  -2.310  -3.668  0.00  0.00    -0.019 A 
ATOM     24  H   LIG d   1       8.446  -2.338  -3.537  0.00  0.00     0.062 H 
ATOM     25  H   LIG d   1       6.175  -2.917  -2.785  0.00  0.00     0.065 H 
ENDBRANCH  14  15
ENDBRANCH   1  14
TORSDOF 5
ENDMDL
MODEL 4
REMARK VINA RESULT:      -4.6      1.882      2.423
REMARK  5 active torsions:
REMARK  status: ('A' for Active; 'I' for Inactive)
REMARK    1  A    between atoms: C_1  and  C_2 
REMARK    2  A    between atoms: C_2  and  C_3 
REMARK    3  A    between atoms: C_3  and  C_4 
REMARK    4  A    between atoms: C_4  and  O_5 
REMARK    5  A    between atoms: O_5  and  C_6 
ROOT
ATOM      1  C   LIG d   1       4.102  -0.404  -6.960  0.00  0.00     0.090 C 
ATOM      2  H   LIG d   1       3.202  -1.008  -7.069  0.00  0.00     0.070 H 
ATOM      3  H   LIG d   1       4.980  -1.042  -7.047  0.00  0.00     0.070 H 
ENDROOT
BRANCH   1   4
ATOM      4  C   LIG d   1       4.136   0.663  -8.056  0.00  0.00    -0.019 C 
ATOM      5  H   LIG d   1       4.478   1.608  -7.632  0.00  0.00     0.030 H 
ATOM      6  H   LIG d   1       4.819   0.351  -8.846  0.00  0.00     0.030 H 
BRANCH   4   7
ATOM      7  C   LIG d   1       2.732   0.844  -8.635  0.00  0.00    -0.053 C 
ATOM      8  H   LIG d   1       2.105   1.365  -7.913  0.00  0.00     0.026 H 
ATOM      9  H   LIG d   1       2.790   1.427  -9.554  0.00  0.00     0.026 H 
BRANCH   7  10
ATOM     10  C   LIG d   1       2.126  -0.528  -8.941  0.00  0.00    -0.065 C 
ATOM     11  H   LIG d   1       1.712  -0.953  -8.027  0.00  0.00     0.023 H 
ATOM     12  H   LIG d   1       1.335  -0.420  -9.682  0.00  0.00     0.023 H 
ATOM     13  H   LIG d   1       2.901  -1.189  -9.330  0.00  0.00     0.023 H 
ENDBRANCH   7  10
ENDBRANCH   4   7
ENDBRANCH   1   4
BRANCH   1  14
ATOM     14  O   LIG d   1       4.098   0.229  -5.678  0.00  0.00    -0.491 OA
BRANCH  14  15
ATOM     15  C   LIG d   1       4.112  -0.583  -4.589  0.00  0.00     0.134 A 
ATOM     16  C   LIG d   1       3.877  -0.057  -3.327  0.00  0.00     0.059 A 
ATOM     17  C   LIG d   1       3.892  -0.885  -2.220  0.00  0.00    -0.044 A 
ATOM     18 BR   LIG d   1       3.534   1.791  -3.120  0.00  0.00    -0.046 Br
ATOM     19  C   LIG d   1       4.142  -2.237  -2.370  0.00  0.00    -0.060 A 
ATOM     20  H   LIG d   1       3.707  -0.477  -1.237  0.00  0.00     0.063 H 
ATOM     21  C   LIG d   1       4.377  -2.763  -3.627  0.00  0.00    -0.058 A 
ATOM     22  H   LIG d   1       4.153  -2.882  -1.504  0.00  0.00     0.062 H 
ATOM     23  C   LIG d   1       4.357  -1.940  -4.737  0.00  0.00    -0.019 A 
ATOM     24  H   LIG d   1       4.572  -3.819  -3.743  0.00  0.00     0.062 H 
ATOM     25  H   LIG d   1       4.537  -2.353  -5.719  0.00  0.00     0.065 H 
ENDBRANCH  14  15
ENDBRANCH   1  14
TORSDOF 5
ENDMDL
MODEL 5
REMARK VINA RESULT:      -4.5      4.081      4.881
REMARK  5 active torsions:
REMARK  status: ('A' for Active; 'I' for Inactive)
REMARK    1  A    between atoms: C_1  and  C_2 
REMARK    2  A    between atoms: C_2  and  C_3 
REMARK    3  A    between atoms: C_3  and  C_4 
REMARK    4  A    between atoms: C_4  and  O_5 
REMARK    5  A    between atoms: O_5  and  C_6 
ROOT
ATOM      1  C   LIG d   1       7.488   1.466  -4.339  0.00  0.00     0.090 C 
ATOM      2  H   LIG d   1       6.933   2.380  -4.549  0.00  0.00     0.070 H 
ATOM      3  H   LIG d   1       7.246   0.714  -5.089  0.00  0.00     0.070 H 
ENDROOT
BRANCH   1   4
ATOM      4  C   LIG d   1       8.989   1.760  -4.378  0.00  0.00    -0.019 C 
ATOM      5  H   LIG d   1       9.538   0.901  -3.992  0.00  0.00     0.030 H 
ATOM      6  H   LIG d   1       9.295   1.954  -5.406  0.00  0.00     0.030 H 
BRANCH   4   7
ATOM      7  C   LIG d   1       9.291   2.987  -3.516  0.00  0.00    -0.053 C 
ATOM      8  H   LIG d   1       9.301   3.878  -4.142  0.00  0.00     0.026 H 
ATOM      9  H   LIG d   1       8.522   3.091  -2.750  0.00  0.00     0.026 H 
BRANCH   7  10
ATOM     10  C   LIG d   1      10.656   2.817  -2.847  0.00  0.00    -0.065 C 
ATOM     11  H   LIG d   1      10.532   2.307  -1.892  0.00  0.00     0.023 H 
ATOM     12  H   LIG d   1      11.307   2.227  -3.491  0.00  0.00     0.023 H 
ATOM     13  H   LIG d   1      11.103   3.798  -2.680  0.00  0.00     0.023 H 
ENDBRANCH   7  10
ENDBRANCH   4   7
ENDBRANCH   1   4
BRANCH   1  14
ATOM     14  O   LIG d   1       7.132   0.979  -3.044  0.00  0.00    -0.491 OA
BRANCH  14  15
ATOM     15  C   LIG d   1       5.871   0.497  -2.891  0.00  0.00     0.134 A 
ATOM     16  C   LIG d   1       5.622  -0.859  -3.045  0.00  0.00     0.059 A 
ATOM     17  C   LIG d   1       4.337  -1.347  -2.890  0.00  0.00    -0.044 A 
ATOM     18 BR   LIG d   1       7.038  -2.041  -3.465  0.00  0.00    -0.046 Br
ATOM     19  C   LIG d   1       3.302  -0.485  -2.582  0.00  0.00    -0.060 A 
ATOM     20  H   LIG d   1       4.143  -2.403  -3.009  0.00  0.00     0.063 H 
ATOM     21  C   LIG d   1       3.548   0.867  -2.428  0.00  0.00    -0.058 A 
ATOM     22  H   LIG d   1       2.299  -0.868  -2.461  0.00  0.00     0.062 H 
ATOM     23  C   LIG d   1       4.830   1.359  -2.577  0.00  0.00    -0.019 A 
ATOM     24  H   LIG d   1       2.737   1.539  -2.187  0.00  0.00     0.062 H 
ATOM     25  H   LIG d   1       5.022   2.415  -2.452  0.00  0.00     0.065 H 
ENDBRANCH  14  15
ENDBRANCH   1  14
TORSDOF 5
ENDMDL
MODEL 6
REMARK VINA RESULT:      -4.5      2.574      4.338
REMARK  5 active torsions:
REMARK  status: ('A' for Active; 'I' for Inactive)
REMARK    1  A    between atoms: C_1  and  C_2 
REMARK    2  A    between atoms: C_2  and  C_3 
REMARK    3  A    between atoms: C_3  and  C_4 
REMARK    4  A    between atoms: C_4  and  O_5 
REMARK    5  A    between atoms: O_5  and  C_6 
ROOT
ATOM      1  C   LIG d   1       3.429  -0.081  -5.064  0.00  0.00     0.090 C 
ATOM      2  H   LIG d   1       3.025  -1.068  -5.286  0.00  0.00     0.070 H 
ATOM      3  H   LIG d   1       2.853   0.675  -5.597  0.00  0.00     0.070 H 
ENDROOT
BRANCH   1   4
ATOM      4  C   LIG d   1       3.341   0.180  -3.558  0.00  0.00    -0.019 C 
ATOM      5  H   LIG d   1       4.319   0.487  -3.186  0.00  0.00     0.030 H 
ATOM      6  H   LIG d   1       2.615   0.970  -3.368  0.00  0.00     0.030 H 
BRANCH   4   7
ATOM      7  C   LIG d   1       2.903  -1.100  -2.844  0.00  0.00    -0.053 C 
ATOM      8  H   LIG d   1       2.059  -0.881  -2.191  0.00  0.00     0.026 H 
ATOM      9  H   LIG d   1       2.606  -1.845  -3.582  0.00  0.00     0.026 H 
BRANCH   7  10
ATOM     10  C   LIG d   1       4.066  -1.643  -2.011  0.00  0.00    -0.065 C 
ATOM     11  H   LIG d   1       4.264  -2.677  -2.295  0.00  0.00     0.023 H 
ATOM     12  H   LIG d   1       4.955  -1.040  -2.190  0.00  0.00     0.023 H 
ATOM     13  H   LIG d   1       3.805  -1.601  -0.953  0.00  0.00     0.023 H 
ENDBRANCH   7  10
ENDBRANCH   4   7
ENDBRANCH   1   4
BRANCH   1  14
ATOM     14  O   LIG d   1       4.795  -0.020  -5.479  0.00  0.00    -0.491 OA
BRANCH  14  15
ATOM     15  C   LIG d   1       5.593  -1.062  -5.128  0.00  0.00     0.134 A 
ATOM     16  C   LIG d   1       6.730  -0.840  -4.364  0.00  0.00     0.059 A 
ATOM     17  C   LIG d   1       7.541  -1.902  -4.008  0.00  0.00    -0.044 A 
ATOM     18 BR   LIG d   1       7.169   0.913  -3.807  0.00  0.00    -0.046 Br
ATOM     19  C   LIG d   1       7.219  -3.184  -4.414  0.00  0.00    -0.060 A 
ATOM     20  H   LIG d   1       8.425  -1.731  -3.412  0.00  0.00     0.063 H 
ATOM     21  C   LIG d   1       6.087  -3.408  -5.176  0.00  0.00    -0.058 A 
ATOM     22  H   LIG d   1       7.854  -4.013  -4.135  0.00  0.00     0.062 H 
ATOM     23  C   LIG d   1       5.271  -2.351  -5.529  0.00  0.00    -0.019 A 
ATOM     24  H   LIG d   1       5.838  -4.410  -5.492  0.00  0.00     0.062 H 
ATOM     25  H   LIG d   1       4.384  -2.527  -6.121  0.00  0.00     0.065 H 
ENDBRANCH  14  15
ENDBRANCH   1  14
TORSDOF 5
ENDMDL
MODEL 7
REMARK VINA RESULT:      -4.5      3.378      4.371
REMARK  5 active torsions:
REMARK  status: ('A' for Active; 'I' for Inactive)
REMARK    1  A    between atoms: C_1  and  C_2 
REMARK    2  A    between atoms: C_2  and  C_3 
REMARK    3  A    between atoms: C_3  and  C_4 
REMARK    4  A    between atoms: C_4  and  O_5 
REMARK    5  A    between atoms: O_5  and  C_6 
ROOT
ATOM      1  C   LIG d   1       7.118   0.298  -5.120  0.00  0.00     0.090 C 
ATOM      2  H   LIG d   1       7.392   0.804  -6.045  0.00  0.00     0.070 H 
ATOM      3  H   LIG d   1       7.407  -0.750  -5.180  0.00  0.00     0.070 H 
ENDROOT
BRANCH   1   4
ATOM      4  C   LIG d   1       7.839   0.959  -3.943  0.00  0.00    -0.019 C 
ATOM      5  H   LIG d   1       7.200   0.927  -3.061  0.00  0.00     0.030 H 
ATOM      6  H   LIG d   1       8.767   0.425  -3.740  0.00  0.00     0.030 H 
BRANCH   4   7
ATOM      7  C   LIG d   1       8.154   2.415  -4.292  0.00  0.00    -0.053 C 
ATOM      8  H   LIG d   1       8.357   2.497  -5.359  0.00  0.00     0.026 H 
ATOM      9  H   LIG d   1       7.302   3.043  -4.035  0.00  0.00     0.026 H 
BRANCH   7  10
ATOM     10  C   LIG d   1       9.382   2.875  -3.503  0.00  0.00    -0.065 C 
ATOM     11  H   LIG d   1      10.271   2.779  -4.126  0.00  0.00     0.023 H 
ATOM     12  H   LIG d   1       9.256   3.916  -3.208  0.00  0.00     0.023 H 
ATOM     13  H   LIG d   1       9.494   2.255  -2.613  0.00  0.00     0.023 H 
ENDBRANCH   7  10
ENDBRANCH   4   7
ENDBRANCH   1   4
BRANCH   1  14
ATOM     14  O   LIG d   1       5.705   0.392  -4.925  0.00  0.00    -0.491 OA
BRANCH  14  15
ATOM     15  C   LIG d   1       5.118  -0.586  -4.186  0.00  0.00     0.134 A 
ATOM     16  C   LIG d   1       4.361  -0.254  -3.072  0.00  0.00     0.059 A 
ATOM     17  C   LIG d   1       3.765  -1.250  -2.321  0.00  0.00    -0.044 A 
ATOM     18 BR   LIG d   1       4.143   1.559  -2.580  0.00  0.00    -0.046 Br
ATOM     19  C   LIG d   1       3.923  -2.576  -2.680  0.00  0.00    -0.060 A 
ATOM     20  H   LIG d   1       3.174  -0.993  -1.454  0.00  0.00     0.063 H 
ATOM     21  C   LIG d   1       4.676  -2.909  -3.790  0.00  0.00    -0.058 A 
ATOM     22  H   LIG d   1       3.456  -3.353  -2.092  0.00  0.00     0.062 H 
ATOM     23  C   LIG d   1       5.270  -1.916  -4.547  0.00  0.00    -0.019 A 
ATOM     24  H   LIG d   1       4.799  -3.945  -4.070  0.00  0.00     0.062 H 
ATOM     25  H   LIG d   1       5.855  -2.177  -5.417  0.00  0.00     0.065 H 
ENDBRANCH  14  15
ENDBRANCH   1  14
TORSDOF 5
ENDMDL
MODEL 8
REMARK VINA RESULT:      -4.3      2.318      5.218
REMARK  5 active torsions:
REMARK  status: ('A' for Active; 'I' for Inactive)
REMARK    1  A    between atoms: C_1  and  C_2 
REMARK    2  A    between atoms: C_2  and  C_3 
REMARK    3  A    between atoms: C_3  and  C_4 
REMARK    4  A    between atoms: C_4  and  O_5 
REMARK    5  A    between atoms: O_5  and  C_6 
ROOT
ATOM      1  C   LIG d   1       2.864   0.280  -5.044  0.00  0.00     0.090 C 
ATOM      2  H   LIG d   1       2.252  -0.591  -5.279  0.00  0.00     0.070 H 
ATOM      3  H   LIG d   1       2.226   1.159  -4.955  0.00  0.00     0.070 H 
ENDROOT
BRANCH   1   4
ATOM      4  C   LIG d   1       3.596   0.047  -3.721  0.00  0.00    -0.019 C 
ATOM      5  H   LIG d   1       4.613  -0.291  -3.923  0.00  0.00     0.030 H 
ATOM      6  H   LIG d   1       3.628   0.977  -3.153  0.00  0.00     0.030 H 
BRANCH   4   7
ATOM      7  C   LIG d   1       2.857  -1.021  -2.911  0.00  0.00    -0.053 C 
ATOM      8  H   LIG d   1       2.368  -0.554  -2.057  0.00  0.00     0.026 H 
ATOM      9  H   LIG d   1       2.109  -1.501  -3.541  0.00  0.00     0.026 H 
BRANCH   7  10
ATOM     10  C   LIG d   1       3.857  -2.069  -2.416  0.00  0.00    -0.065 C 
ATOM     11  H   LIG d   1       3.534  -3.058  -2.739  0.00  0.00     0.023 H 
ATOM     12  H   LIG d   1       4.842  -1.856  -2.829  0.00  0.00     0.023 H 
ATOM     13  H   LIG d   1       3.904  -2.039  -1.328  0.00  0.00     0.023 H 
ENDBRANCH   7  10
ENDBRANCH   4   7
ENDBRANCH   1   4
BRANCH   1  14
ATOM     14  O   LIG d   1       3.819   0.488  -6.087  0.00  0.00    -0.491 OA
BRANCH  14  15
ATOM     15  C   LIG d   1       3.752  -0.344  -7.159  0.00  0.00     0.134 A 
ATOM     16  C   LIG d   1       3.338   0.143  -8.391  0.00  0.00     0.059 A 
ATOM     17  C   LIG d   1       3.270  -0.705  -9.481  0.00  0.00    -0.044 A 
ATOM     18 BR   LIG d   1       2.869   1.965  -8.580  0.00  0.00    -0.046 Br
ATOM     19  C   LIG d   1       3.613  -2.037  -9.344  0.00  0.00    -0.060 A 
ATOM     20  H   LIG d   1       2.949  -0.327 -10.440  0.00  0.00     0.063 H 
ATOM     21  C   LIG d   1       4.026  -2.524  -8.117  0.00  0.00    -0.058 A 
ATOM     22  H   LIG d   1       3.559  -2.698 -10.196  0.00  0.00     0.062 H 
ATOM     23  C   LIG d   1       4.101  -1.680  -7.026  0.00  0.00    -0.019 A 
ATOM     24  H   LIG d   1       4.294  -3.565  -8.012  0.00  0.00     0.062 H 
ATOM     25  H   LIG d   1       4.427  -2.060  -6.070  0.00  0.00     0.065 H 
ENDBRANCH  14  15
ENDBRANCH   1  14
TORSDOF 5
ENDMDL
MODEL 9
REMARK VINA RESULT:      -4.3      3.127      4.346
REMARK  5 active torsions:
REMARK  status: ('A' for Active; 'I' for Inactive)
REMARK    1  A    between atoms: C_1  and  C_2 
REMARK    2  A    between atoms: C_2  and  C_3 
REMARK    3  A    between atoms: C_3  and  C_4 
REMARK    4  A    between atoms: C_4  and  O_5 
REMARK    5  A    between atoms: O_5  and  C_6 
ROOT
ATOM      1  C   LIG d   1       4.833  -2.359  -5.586  0.00  0.00     0.090 C 
ATOM      2  H   LIG d   1       5.024  -2.688  -6.607  0.00  0.00     0.070 H 
ATOM      3  H   LIG d   1       3.771  -2.463  -5.364  0.00  0.00     0.070 H 
ENDROOT
BRANCH   1   4
ATOM      4  C   LIG d   1       5.642  -3.219  -4.613  0.00  0.00    -0.019 C 
ATOM      5  H   LIG d   1       5.998  -2.599  -3.790  0.00  0.00     0.030 H 
ATOM      6  H   LIG d   1       5.011  -4.017  -4.221  0.00  0.00     0.030 H 
BRANCH   4   7
ATOM      7  C   LIG d   1       6.839  -3.829  -5.346  0.00  0.00    -0.053 C 
ATOM      8  H   LIG d   1       6.835  -4.910  -5.212  0.00  0.00     0.026 H 
ATOM      9  H   LIG d   1       6.772  -3.594  -6.408  0.00  0.00     0.026 H 
BRANCH   7  10
ATOM     10  C   LIG d   1       8.135  -3.249  -4.776  0.00  0.00    -0.065 C 
ATOM     11  H   LIG d   1       8.988  -3.778  -5.203  0.00  0.00     0.023 H 
ATOM     12  H   LIG d   1       8.203  -2.191  -5.027  0.00  0.00     0.023 H 
ATOM     13  H   LIG d   1       8.140  -3.368  -3.693  0.00  0.00     0.023 H 
ENDBRANCH   7  10
ENDBRANCH   4   7
ENDBRANCH   1   4
BRANCH   1  14
ATOM     14  O   LIG d   1       5.218  -0.990  -5.445  0.00  0.00    -0.491 OA
BRANCH  14  15
ATOM     15  C   LIG d   1       4.816  -0.349  -4.316  0.00  0.00     0.134 A 
ATOM     16  C   LIG d   1       5.728   0.384  -3.572  0.00  0.00     0.059 A 
ATOM     17  C   LIG d   1       5.317   1.035  -2.423  0.00  0.00    -0.044 A 
ATOM     18 BR   LIG d   1       7.533   0.496  -4.128  0.00  0.00    -0.046 Br
ATOM     19  C   LIG d   1       3.999   0.955  -2.017  0.00  0.00    -0.060 A 
ATOM     20  H   LIG d   1       6.027   1.608  -1.844  0.00  0.00     0.063 H 
ATOM     21  C   LIG d   1       3.088   0.225  -2.757  0.00  0.00    -0.058 A 
ATOM     22  H   LIG d   1       3.680   1.464  -1.119  0.00  0.00     0.062 H 
ATOM     23  C   LIG d   1       3.492  -0.423  -3.909  0.00  0.00    -0.019 A 
ATOM     24  H   LIG d   1       2.058   0.163  -2.438  0.00  0.00     0.062 H 
ATOM     25  H   LIG d   1       2.779  -0.990  -4.489  0.00  0.00     0.065 H 
ENDBRANCH  14  15
ENDBRANCH   1  14
TORSDOF 5
ENDMDL
MODEL 10
REMARK VINA RESULT:      -4.2      2.444      4.399
REMARK  5 active torsions:
REMARK  status: ('A' for Active; 'I' for Inactive)
REMARK    1  A    between atoms: C_1  and  C_2 
REMARK    2  A    between atoms: C_2  and  C_3 
REMARK    3  A    between atoms: C_3  and  C_4 
REMARK    4  A    between atoms: C_4  and  O_5 
REMARK    5  A    between atoms: O_5  and  C_6 
ROOT
ATOM      1  C   LIG d   1       5.636  -3.027  -5.854  0.00  0.00     0.090 C 
ATOM      2  H   LIG d   1       6.681  -3.236  -6.085  0.00  0.00     0.070 H 
ATOM      3  H   LIG d   1       5.113  -2.742  -6.766  0.00  0.00     0.070 H 
ENDROOT
BRANCH   1   4
ATOM      4  C   LIG d   1       4.984  -4.279  -5.263  0.00  0.00    -0.019 C 
ATOM      5  H   LIG d   1       5.760  -4.982  -4.957  0.00  0.00     0.030 H 
ATOM      6  H   LIG d   1       4.383  -4.001  -4.397  0.00  0.00     0.030 H 
BRANCH   4   7
ATOM      7  C   LIG d   1       4.090  -4.934  -6.317  0.00  0.00    -0.053 C 
ATOM      8  H   LIG d   1       4.476  -5.924  -6.556  0.00  0.00     0.026 H 
ATOM      9  H   LIG d   1       3.076  -5.023  -5.928  0.00  0.00     0.026 H 
BRANCH   7  10
ATOM     10  C   LIG d   1       4.077  -4.073  -7.582  0.00  0.00    -0.065 C 
ATOM     11  H   LIG d   1       3.775  -3.057  -7.326  0.00  0.00     0.023 H 
ATOM     12  H   LIG d   1       5.074  -4.055  -8.020  0.00  0.00     0.023 H 
ATOM     13  H   LIG d   1       3.371  -4.492  -8.299  0.00  0.00     0.023 H 
ENDBRANCH   7  10
ENDBRANCH   4   7
ENDBRANCH   1   4
BRANCH   1  14
ATOM     14  O   LIG d   1       5.561  -1.959  -4.908  0.00  0.00    -0.491 OA
BRANCH  14  15
ATOM     15  C   LIG d   1       4.459  -1.166  -4.959  0.00  0.00     0.134 A 
ATOM     16  C   LIG d   1       3.703  -0.952  -3.815  0.00  0.00     0.059 A 
ATOM     17  C   LIG d   1       2.581  -0.146  -3.870  0.00  0.00    -0.044 A 
ATOM     18 BR   LIG d   1       4.207  -1.761  -2.182  0.00  0.00    -0.046 Br
ATOM     19  C   LIG d   1       2.213   0.447  -5.063  0.00  0.00    -0.060 A 
ATOM     20  H   LIG d   1       1.993   0.022  -2.979  0.00  0.00     0.063 H 
ATOM     21  C   LIG d   1       2.964   0.236  -6.204  0.00  0.00    -0.058 A 
ATOM     22  H   LIG d   1       1.336   1.077  -5.104  0.00  0.00     0.062 H 
ATOM     23  C   LIG d   1       4.089  -0.565  -6.154  0.00  0.00    -0.019 A 
ATOM     24  H   LIG d   1       2.675   0.699  -7.135  0.00  0.00     0.062 H 
ATOM     25  H   LIG d   1       4.678  -0.727  -7.045  0.00  0.00     0.065 H 
ENDBRANCH  14  15
ENDBRANCH   1  14
TORSDOF 5
ENDMDL
