MODEL 1
REMARK VINA RESULT:      -4.4      0.000      0.000
REMARK  5 active torsions:
REMARK  status: ('A' for Active; 'I' for Inactive)
REMARK    1  A    between atoms: C_1  and  C_2 
REMARK    2  A    between atoms: C_2  and  O_3 
REMARK    3  A    between atoms: O_3  and  C_4 
REMARK    4  A    between atoms: C_4  and  C_6 
REMARK    5  A    between atoms: C_8  and  C_11 
ROOT
ATOM      1  C   LIG d   1       3.585  -0.266  -5.191  0.00  0.00     0.190 A 
ATOM      2  C   LIG d   1       2.634   0.262  -6.107  0.00  0.00     0.014 A 
ATOM      3  C   LIG d   1       3.381   0.642  -7.170  0.00  0.00     0.135 A 
ATOM      4  O   LIG d   1       4.653   0.343  -6.872  0.00  0.00    -0.359 OA
ATOM      5  N   LIG d   1       4.752  -0.160  -5.777  0.00  0.00    -0.071 NA
ATOM      6  H   LIG d   1       1.564   0.344  -5.983  0.00  0.00     0.068 H 
ENDROOT
BRANCH   1   7
ATOM      7  C   LIG d   1       3.311  -0.826  -3.846  0.00  0.00     0.361 C 
ATOM      8  O   LIG d   1       3.547  -1.995  -3.616  0.00  0.00    -0.243 OA
BRANCH   7   9
ATOM      9  O   LIG d   1       2.799  -0.039  -2.880  0.00  0.00    -0.460 OA
BRANCH   9  10
ATOM     10  C   LIG d   1       3.527   1.176  -2.565  0.00  0.00     0.090 C 
ATOM     11  H   LIG d   1       3.913   1.617  -3.484  0.00  0.00     0.070 H 
ATOM     12  H   LIG d   1       2.858   1.884  -2.075  0.00  0.00     0.070 H 
BRANCH  10  13
ATOM     13  C   LIG d   1       4.691   0.846  -1.629  0.00  0.00    -0.031 C 
ATOM     14  H   LIG d   1       5.620   0.816  -2.199  0.00  0.00     0.026 H 
ATOM     15  H   LIG d   1       4.765   1.611  -0.856  0.00  0.00     0.026 H 
ATOM     16  H   LIG d   1       4.519  -0.125  -1.164  0.00  0.00     0.026 H 
ENDBRANCH  10  13
ENDBRANCH   9  10
ENDBRANCH   7   9
ENDBRANCH   1   7
BRANCH   3  17
ATOM     17  C   LIG d   1       2.880   1.278  -8.440  0.00  0.00    -0.004 C 
ATOM     18  H   LIG d   1       3.546   2.093  -8.726  0.00  0.00     0.031 H 
ATOM     19  H   LIG d   1       2.857   0.531  -9.235  0.00  0.00     0.031 H 
ATOM     20  H   LIG d   1       1.876   1.669  -8.280  0.00  0.00     0.031 H 
ENDBRANCH   3  17
TORSDOF 5
ENDMDL
MODEL 2
REMARK VINA RESULT:      -4.2      1.382      1.495
REMARK  5 active torsions:
REMARK  status: ('A' for Active; 'I' for Inactive)
REMARK    1  A    between atoms: C_1  and  C_2 
REMARK    2  A    between atoms: C_2  and  O_3 
REMARK    3  A    between atoms: O_3  and  C_4 
REMARK    4  A    between atoms: C_4  and  C_6 
REMARK    5  A    between atoms: C_8  and  C_11 
ROOT
ATOM      1  C   LIG d   1       3.735  -0.447  -5.214  0.00  0.00     0.190 A 
ATOM      2  C   LIG d   1       3.779  -0.609  -6.626  0.00  0.00     0.014 A 
ATOM      3  C   LIG d   1       3.132   0.482  -7.100  0.00  0.00     0.135 A 
ATOM      4  O   LIG d   1       2.760   1.201  -6.032  0.00  0.00    -0.359 OA
ATOM      5  N   LIG d   1       3.101   0.679  -4.997  0.00  0.00    -0.071 NA
ATOM      6  H   LIG d   1       4.222  -1.416  -7.190  0.00  0.00     0.068 H 
ENDROOT
BRANCH   1   7
ATOM      7  C   LIG d   1       4.295  -1.365  -4.194  0.00  0.00     0.361 C 
ATOM      8  O   LIG d   1       4.041  -2.551  -4.240  0.00  0.00    -0.243 OA
BRANCH   7   9
ATOM      9  O   LIG d   1       5.086  -0.883  -3.215  0.00  0.00    -0.460 OA
BRANCH   9  10
ATOM     10  C   LIG d   1       4.455  -0.599  -1.939  0.00  0.00     0.090 C 
ATOM     11  H   LIG d   1       3.413  -0.915  -1.970  0.00  0.00     0.070 H 
ATOM     12  H   LIG d   1       4.975  -1.140  -1.148  0.00  0.00     0.070 H 
BRANCH  10  13
ATOM     13  C   LIG d   1       4.525   0.904  -1.659  0.00  0.00    -0.031 C 
ATOM     14  H   LIG d   1       5.229   1.090  -0.847  0.00  0.00     0.026 H 
ATOM     15  H   LIG d   1       4.857   1.426  -2.556  0.00  0.00     0.026 H 
ATOM     16  H   LIG d   1       3.537   1.265  -1.373  0.00  0.00     0.026 H 
ENDBRANCH  10  13
ENDBRANCH   9  10
ENDBRANCH   7   9
ENDBRANCH   1   7
BRANCH   3  17
ATOM     17  C   LIG d   1       2.879   0.820  -8.546  0.00  0.00    -0.004 C 
ATOM     18  H   LIG d   1       1.914   0.414  -8.851  0.00  0.00     0.031 H 
ATOM     19  H   LIG d   1       2.873   1.904  -8.669  0.00  0.00     0.031 H 
ATOM     20  H   LIG d   1       3.667   0.390  -9.163  0.00  0.00     0.031 H 
ENDBRANCH   3  17
TORSDOF 5
ENDMDL
MODEL 3
REMARK VINA RESULT:      -4.1      1.668      4.700
REMARK  5 active torsions:
REMARK  status: ('A' for Active; 'I' for Inactive)
REMARK    1  A    between atoms: C_1  and  C_2 
REMARK    2  A    between atoms: C_2  and  O_3 
REMARK    3  A    between atoms: O_3  and  C_4 
REMARK    4  A    between atoms: C_4  and  C_6 
REMARK    5  A    between atoms: C_8  and  C_11 
ROOT
ATOM      1  C   LIG d   1       3.238   0.068  -5.383  0.00  0.00     0.190 A 
ATOM      2  C   LIG d   1       3.745  -1.095  -4.741  0.00  0.00     0.014 A 
ATOM      3  C   LIG d   1       3.648  -0.809  -3.422  0.00  0.00     0.135 A 
ATOM      4  O   LIG d   1       3.119   0.418  -3.333  0.00  0.00    -0.359 OA
ATOM      5  N   LIG d   1       2.894   0.892  -4.423  0.00  0.00    -0.071 NA
ATOM      6  H   LIG d   1       4.126  -1.996  -5.200  0.00  0.00     0.068 H 
ENDROOT
BRANCH   1   7
ATOM      7  C   LIG d   1       3.117   0.301  -6.841  0.00  0.00     0.361 C 
ATOM      8  O   LIG d   1       3.090  -0.641  -7.606  0.00  0.00    -0.243 OA
BRANCH   7   9
ATOM      9  O   LIG d   1       3.040   1.558  -7.319  0.00  0.00    -0.460 OA
BRANCH   9  10
ATOM     10  C   LIG d   1       2.879   1.709  -8.754  0.00  0.00     0.090 C 
ATOM     11  H   LIG d   1       2.962   0.734  -9.233  0.00  0.00     0.070 H 
ATOM     12  H   LIG d   1       1.899   2.136  -8.966  0.00  0.00     0.070 H 
BRANCH  10  13
ATOM     13  C   LIG d   1       3.967   2.640  -9.294  0.00  0.00    -0.031 C 
ATOM     14  H   LIG d   1       4.481   2.155 -10.125  0.00  0.00     0.026 H 
ATOM     15  H   LIG d   1       3.513   3.568  -9.640  0.00  0.00     0.026 H 
ATOM     16  H   LIG d   1       4.683   2.858  -8.502  0.00  0.00     0.026 H 
ENDBRANCH  10  13
ENDBRANCH   9  10
ENDBRANCH   7   9
ENDBRANCH   1   7
BRANCH   3  17
ATOM     17  C   LIG d   1       4.054  -1.699  -2.276  0.00  0.00    -0.004 C 
ATOM     18  H   LIG d   1       3.164  -2.026  -1.737  0.00  0.00     0.031 H 
ATOM     19  H   LIG d   1       4.585  -2.569  -2.663  0.00  0.00     0.031 H 
ATOM     20  H   LIG d   1       4.706  -1.147  -1.600  0.00  0.00     0.031 H 
ENDBRANCH   3  17
TORSDOF 5
ENDMDL
MODEL 4
REMARK VINA RESULT:      -4.1      3.838      5.319
REMARK  5 active torsions:
REMARK  status: ('A' for Active; 'I' for Inactive)
REMARK    1  A    between atoms: C_1  and  C_2 
REMARK    2  A    between atoms: C_2  and  O_3 
REMARK    3  A    between atoms: O_3  and  C_4 
REMARK    4  A    between atoms: C_4  and  C_6 
REMARK    5  A    between atoms: C_8  and  C_11 
ROOT
ATOM      1  C   LIG d   1       6.237   0.828  -3.248  0.00  0.00     0.190 A 
ATOM      2  C   LIG d   1       5.831  -0.531  -3.363  0.00  0.00     0.014 A 
ATOM      3  C   LIG d   1       4.820  -0.645  -2.470  0.00  0.00     0.135 A 
ATOM      4  O   LIG d   1       4.668   0.560  -1.905  0.00  0.00    -0.359 OA
ATOM      5  N   LIG d   1       5.455   1.366  -2.345  0.00  0.00    -0.071 NA
ATOM      6  H   LIG d   1       6.238  -1.295  -4.008  0.00  0.00     0.068 H 
ENDROOT
BRANCH   1   7
ATOM      7  C   LIG d   1       7.322   1.500  -4.001  0.00  0.00     0.361 C 
ATOM      8  O   LIG d   1       7.366   1.411  -5.211  0.00  0.00    -0.243 OA
BRANCH   7   9
ATOM      9  O   LIG d   1       8.261   2.208  -3.343  0.00  0.00    -0.460 OA
BRANCH   9  10
ATOM     10  C   LIG d   1       9.624   2.109  -3.833  0.00  0.00     0.090 C 
ATOM     11  H   LIG d   1       9.914   1.060  -3.893  0.00  0.00     0.070 H 
ATOM     12  H   LIG d   1       9.688   2.561  -4.823  0.00  0.00     0.070 H 
BRANCH  10  13
ATOM     13  C   LIG d   1      10.564   2.845  -2.876  0.00  0.00    -0.031 C 
ATOM     14  H   LIG d   1      11.450   3.176  -3.419  0.00  0.00     0.026 H 
ATOM     15  H   LIG d   1      10.051   3.710  -2.456  0.00  0.00     0.026 H 
ATOM     16  H   LIG d   1      10.862   2.172  -2.071  0.00  0.00     0.026 H 
ENDBRANCH  10  13
ENDBRANCH   9  10
ENDBRANCH   7   9
ENDBRANCH   1   7
BRANCH   3  17
ATOM     17  C   LIG d   1       4.021  -1.887  -2.171  0.00  0.00    -0.004 C 
ATOM     18  H   LIG d   1       3.695  -2.343  -3.106  0.00  0.00     0.031 H 
ATOM     19  H   LIG d   1       4.640  -2.593  -1.618  0.00  0.00     0.031 H 
ATOM     20  H   LIG d   1       3.149  -1.623  -1.573  0.00  0.00     0.031 H 
ENDBRANCH   3  17
TORSDOF 5
ENDMDL
MODEL 5
REMARK VINA RESULT:      -3.9      2.476      3.725
REMARK  5 active torsions:
REMARK  status: ('A' for Active; 'I' for Inactive)
REMARK    1  A    between atoms: C_1  and  C_2 
REMARK    2  A    between atoms: C_2  and  O_3 
REMARK    3  A    between atoms: O_3  and  C_4 
REMARK    4  A    between atoms: C_4  and  C_6 
REMARK    5  A    between atoms: C_8  and  C_11 
ROOT
ATOM      1  C   LIG d   1       4.360  -1.651  -4.816  0.00  0.00     0.190 A 
ATOM      2  C   LIG d   1       5.084  -2.540  -5.658  0.00  0.00     0.014 A 
ATOM      3  C   LIG d   1       5.003  -3.731  -5.021  0.00  0.00     0.135 A 
ATOM      4  O   LIG d   1       4.282  -3.525  -3.911  0.00  0.00    -0.359 OA
ATOM      5  N   LIG d   1       3.930  -2.372  -3.811  0.00  0.00    -0.071 NA
ATOM      6  H   LIG d   1       5.587  -2.316  -6.587  0.00  0.00     0.068 H 
ENDROOT
BRANCH   1   7
ATOM      7  C   LIG d   1       4.134  -0.203  -5.035  0.00  0.00     0.361 C 
ATOM      8  O   LIG d   1       4.119   0.246  -6.163  0.00  0.00    -0.243 OA
BRANCH   7   9
ATOM      9  O   LIG d   1       3.947   0.617  -3.982  0.00  0.00    -0.460 OA
BRANCH   9  10
ATOM     10  C   LIG d   1       5.081   0.829  -3.102  0.00  0.00     0.090 C 
ATOM     11  H   LIG d   1       5.805   0.026  -3.241  0.00  0.00     0.070 H 
ATOM     12  H   LIG d   1       5.549   1.785  -3.336  0.00  0.00     0.070 H 
BRANCH  10  13
ATOM     13  C   LIG d   1       4.604   0.839  -1.648  0.00  0.00    -0.031 C 
ATOM     14  H   LIG d   1       5.430   1.125  -0.996  0.00  0.00     0.026 H 
ATOM     15  H   LIG d   1       3.789   1.554  -1.537  0.00  0.00     0.026 H 
ATOM     16  H   LIG d   1       4.254  -0.157  -1.374  0.00  0.00     0.026 H 
ENDBRANCH  10  13
ENDBRANCH   9  10
ENDBRANCH   7   9
ENDBRANCH   1   7
BRANCH   3  17
ATOM     17  C   LIG d   1       5.605  -5.036  -5.473  0.00  0.00    -0.004 C 
ATOM     18  H   LIG d   1       4.813  -5.772  -5.614  0.00  0.00     0.031 H 
ATOM     19  H   LIG d   1       6.133  -4.885  -6.415  0.00  0.00     0.031 H 
ATOM     20  H   LIG d   1       6.305  -5.395  -4.719  0.00  0.00     0.031 H 
ENDBRANCH   3  17
TORSDOF 5
ENDMDL
MODEL 6
REMARK VINA RESULT:      -3.9      1.810      2.044
REMARK  5 active torsions:
REMARK  status: ('A' for Active; 'I' for Inactive)
REMARK    1  A    between atoms: C_1  and  C_2 
REMARK    2  A    between atoms: C_2  and  O_3 
REMARK    3  A    between atoms: O_3  and  C_4 
REMARK    4  A    between atoms: C_4  and  C_6 
REMARK    5  A    between atoms: C_8  and  C_11 
ROOT
ATOM      1  C   LIG d   1       3.455  -0.007  -6.822  0.00  0.00     0.190 A 
ATOM      2  C   LIG d   1       3.092  -0.852  -7.907  0.00  0.00     0.014 A 
ATOM      3  C   LIG d   1       2.586  -0.000  -8.829  0.00  0.00     0.135 A 
ATOM      4  O   LIG d   1       2.669   1.229  -8.302  0.00  0.00    -0.359 OA
ATOM      5  N   LIG d   1       3.153   1.212  -7.195  0.00  0.00    -0.071 NA
ATOM      6  H   LIG d   1       3.190  -1.925  -7.977  0.00  0.00     0.068 H 
ENDROOT
BRANCH   1   7
ATOM      7  C   LIG d   1       4.059  -0.421  -5.534  0.00  0.00     0.361 C 
ATOM      8  O   LIG d   1       4.369  -1.581  -5.354  0.00  0.00    -0.243 OA
BRANCH   7   9
ATOM      9  O   LIG d   1       4.261   0.489  -4.561  0.00  0.00    -0.460 OA
BRANCH   9  10
ATOM     10  C   LIG d   1       3.256   0.573  -3.517  0.00  0.00     0.090 C 
ATOM     11  H   LIG d   1       2.476   1.271  -3.819  0.00  0.00     0.070 H 
ATOM     12  H   LIG d   1       2.818  -0.413  -3.354  0.00  0.00     0.070 H 
BRANCH  10  13
ATOM     13  C   LIG d   1       3.905   1.061  -2.221  0.00  0.00    -0.031 C 
ATOM     14  H   LIG d   1       4.990   1.013  -2.317  0.00  0.00     0.026 H 
ATOM     15  H   LIG d   1       3.603   2.090  -2.028  0.00  0.00     0.026 H 
ATOM     16  H   LIG d   1       3.586   0.427  -1.394  0.00  0.00     0.026 H 
ENDBRANCH  10  13
ENDBRANCH   9  10
ENDBRANCH   7   9
ENDBRANCH   1   7
BRANCH   3  17
ATOM     17  C   LIG d   1       2.039  -0.363 -10.185  0.00  0.00    -0.004 C 
ATOM     18  H   LIG d   1       2.029  -1.448 -10.294  0.00  0.00     0.031 H 
ATOM     19  H   LIG d   1       1.023   0.021 -10.282  0.00  0.00     0.031 H 
ATOM     20  H   LIG d   1       2.668   0.074 -10.960  0.00  0.00     0.031 H 
ENDBRANCH   3  17
TORSDOF 5
ENDMDL
MODEL 7
REMARK VINA RESULT:      -3.8      2.983      4.104
REMARK  5 active torsions:
REMARK  status: ('A' for Active; 'I' for Inactive)
REMARK    1  A    between atoms: C_1  and  C_2 
REMARK    2  A    between atoms: C_2  and  O_3 
REMARK    3  A    between atoms: O_3  and  C_4 
REMARK    4  A    between atoms: C_4  and  C_6 
REMARK    5  A    between atoms: C_8  and  C_11 
ROOT
ATOM      1  C   LIG d   1       5.778   0.271  -3.159  0.00  0.00     0.190 A 
ATOM      2  C   LIG d   1       7.023  -0.116  -3.728  0.00  0.00     0.014 A 
ATOM      3  C   LIG d   1       7.688   1.053  -3.884  0.00  0.00     0.135 A 
ATOM      4  O   LIG d   1       6.877   2.019  -3.430  0.00  0.00    -0.359 OA
ATOM      5  N   LIG d   1       5.827   1.574  -3.030  0.00  0.00    -0.071 NA
ATOM      6  H   LIG d   1       7.359  -1.111  -3.981  0.00  0.00     0.068 H 
ENDROOT
BRANCH   1   7
ATOM      7  C   LIG d   1       4.654  -0.620  -2.784  0.00  0.00     0.361 C 
ATOM      8  O   LIG d   1       4.385  -0.796  -1.614  0.00  0.00    -0.243 OA
BRANCH   7   9
ATOM      9  O   LIG d   1       3.934  -1.235  -3.742  0.00  0.00    -0.460 OA
BRANCH   9  10
ATOM     10  C   LIG d   1       3.648  -0.473  -4.944  0.00  0.00     0.090 C 
ATOM     11  H   LIG d   1       4.498   0.166  -5.180  0.00  0.00     0.070 H 
ATOM     12  H   LIG d   1       3.466  -1.157  -5.773  0.00  0.00     0.070 H 
BRANCH  10  13
ATOM     13  C   LIG d   1       2.407   0.392  -4.716  0.00  0.00    -0.031 C 
ATOM     14  H   LIG d   1       2.672   1.257  -4.107  0.00  0.00     0.026 H 
ATOM     15  H   LIG d   1       2.017   0.730  -5.676  0.00  0.00     0.026 H 
ATOM     16  H   LIG d   1       1.645  -0.194  -4.201  0.00  0.00     0.026 H 
ENDBRANCH  10  13
ENDBRANCH   9  10
ENDBRANCH   7   9
ENDBRANCH   1   7
BRANCH   3  17
ATOM     17  C   LIG d   1       9.069   1.233  -4.456  0.00  0.00    -0.004 C 
ATOM     18  H   LIG d   1       9.442   0.272  -4.814  0.00  0.00     0.031 H 
ATOM     19  H   LIG d   1       9.030   1.940  -5.285  0.00  0.00     0.031 H 
ATOM     20  H   LIG d   1       9.736   1.616  -3.684  0.00  0.00     0.031 H 
ENDBRANCH   3  17
TORSDOF 5
ENDMDL
MODEL 8
REMARK VINA RESULT:      -3.8      3.416      4.047
REMARK  5 active torsions:
REMARK  status: ('A' for Active; 'I' for Inactive)
REMARK    1  A    between atoms: C_1  and  C_2 
REMARK    2  A    between atoms: C_2  and  O_3 
REMARK    3  A    between atoms: O_3  and  C_4 
REMARK    4  A    between atoms: C_4  and  C_6 
REMARK    5  A    between atoms: C_8  and  C_11 
ROOT
ATOM      1  C   LIG d   1       6.956   0.442  -4.281  0.00  0.00     0.190 A 
ATOM      2  C   LIG d   1       7.765   1.460  -3.706  0.00  0.00     0.014 A 
ATOM      3  C   LIG d   1       8.131   2.222  -4.763  0.00  0.00     0.135 A 
ATOM      4  O   LIG d   1       7.563   1.674  -5.846  0.00  0.00    -0.359 OA
ATOM      5  N   LIG d   1       6.914   0.693  -5.566  0.00  0.00    -0.071 NA
ATOM      6  H   LIG d   1       8.031   1.593  -2.668  0.00  0.00     0.068 H 
ENDROOT
BRANCH   1   7
ATOM      7  C   LIG d   1       6.291  -0.675  -3.570  0.00  0.00     0.361 C 
ATOM      8  O   LIG d   1       6.951  -1.598  -3.137  0.00  0.00    -0.243 OA
BRANCH   7   9
ATOM      9  O   LIG d   1       4.954  -0.669  -3.406  0.00  0.00    -0.460 OA
BRANCH   9  10
ATOM     10  C   LIG d   1       4.457  -0.530  -2.049  0.00  0.00     0.090 C 
ATOM     11  H   LIG d   1       3.434  -0.901  -1.997  0.00  0.00     0.070 H 
ATOM     12  H   LIG d   1       5.087  -1.106  -1.370  0.00  0.00     0.070 H 
BRANCH  10  13
ATOM     13  C   LIG d   1       4.488   0.944  -1.643  0.00  0.00    -0.031 C 
ATOM     14  H   LIG d   1       3.934   1.534  -2.373  0.00  0.00     0.026 H 
ATOM     15  H   LIG d   1       4.031   1.061  -0.660  0.00  0.00     0.026 H 
ATOM     16  H   LIG d   1       5.521   1.289  -1.606  0.00  0.00     0.026 H 
ENDBRANCH  10  13
ENDBRANCH   9  10
ENDBRANCH   7   9
ENDBRANCH   1   7
BRANCH   3  17
ATOM     17  C   LIG d   1       9.006   3.448  -4.729  0.00  0.00    -0.004 C 
ATOM     18  H   LIG d   1       9.645   3.414  -3.846  0.00  0.00     0.031 H 
ATOM     19  H   LIG d   1       9.626   3.477  -5.626  0.00  0.00     0.031 H 
ATOM     20  H   LIG d   1       8.381   4.340  -4.691  0.00  0.00     0.031 H 
ENDBRANCH   3  17
TORSDOF 5
ENDMDL
MODEL 9
REMARK VINA RESULT:      -3.7      1.661      4.924
REMARK  5 active torsions:
REMARK  status: ('A' for Active; 'I' for Inactive)
REMARK    1  A    between atoms: C_1  and  C_2 
REMARK    2  A    between atoms: C_2  and  O_3 
REMARK    3  A    between atoms: O_3  and  C_4 
REMARK    4  A    between atoms: C_4  and  C_6 
REMARK    5  A    between atoms: C_8  and  C_11 
ROOT
ATOM      1  C   LIG d   1       3.635  -0.349  -5.696  0.00  0.00     0.190 A 
ATOM      2  C   LIG d   1       3.292  -0.080  -4.342  0.00  0.00     0.014 A 
ATOM      3  C   LIG d   1       4.092  -0.909  -3.632  0.00  0.00     0.135 A 
ATOM      4  O   LIG d   1       4.832  -1.585  -4.522  0.00  0.00    -0.359 OA
ATOM      5  N   LIG d   1       4.572  -1.264  -5.658  0.00  0.00    -0.071 NA
ATOM      6  H   LIG d   1       2.559   0.619  -3.967  0.00  0.00     0.068 H 
ENDROOT
BRANCH   1   7
ATOM      7  C   LIG d   1       3.055   0.282  -6.904  0.00  0.00     0.361 C 
ATOM      8  O   LIG d   1       3.006   1.492  -6.993  0.00  0.00    -0.243 OA
BRANCH   7   9
ATOM      9  O   LIG d   1       2.579  -0.486  -7.903  0.00  0.00    -0.460 OA
BRANCH   9  10
ATOM     10  C   LIG d   1       2.372   0.157  -9.188  0.00  0.00     0.090 C 
ATOM     11  H   LIG d   1       1.932   1.142  -9.035  0.00  0.00     0.070 H 
ATOM     12  H   LIG d   1       3.329   0.262  -9.700  0.00  0.00     0.070 H 
BRANCH  10  13
ATOM     13  C   LIG d   1       1.431  -0.697 -10.041  0.00  0.00    -0.031 C 
ATOM     14  H   LIG d   1       0.521  -0.906  -9.480  0.00  0.00     0.026 H 
ATOM     15  H   LIG d   1       1.180  -0.160 -10.955  0.00  0.00     0.026 H 
ATOM     16  H   LIG d   1       1.924  -1.636 -10.295  0.00  0.00     0.026 H 
ENDBRANCH  10  13
ENDBRANCH   9  10
ENDBRANCH   7   9
ENDBRANCH   1   7
BRANCH   3  17
ATOM     17  C   LIG d   1       4.142  -1.045  -2.132  0.00  0.00    -0.004 C 
ATOM     18  H   LIG d   1       3.275  -0.552  -1.694  0.00  0.00     0.031 H 
ATOM     19  H   LIG d   1       4.134  -2.102  -1.863  0.00  0.00     0.031 H 
ATOM     20  H   LIG d   1       5.053  -0.582  -1.755  0.00  0.00     0.031 H 
ENDBRANCH   3  17
TORSDOF 5
ENDMDL
MODEL 10
REMARK VINA RESULT:      -3.6      3.931      4.462
REMARK  5 active torsions:
REMARK  status: ('A' for Active; 'I' for Inactive)
REMARK    1  A    between atoms: C_1  and  C_2 
REMARK    2  A    between atoms: C_2  and  O_3 
REMARK    3  A    between atoms: O_3  and  C_4 
REMARK    4  A    between atoms: C_4  and  C_6 
REMARK    5  A    between atoms: C_8  and  C_11 
ROOT
ATOM      1  C   LIG d   1       4.542  -4.015  -5.509  0.00  0.00     0.190 A 
ATOM      2  C   LIG d   1       4.370  -3.861  -6.912  0.00  0.00     0.014 A 
ATOM      3  C   LIG d   1       3.794  -5.023  -7.300  0.00  0.00     0.135 A 
ATOM      4  O   LIG d   1       3.650  -5.767  -6.195  0.00  0.00    -0.359 OA
ATOM      5  N   LIG d   1       4.064  -5.198  -5.212  0.00  0.00    -0.071 NA
ATOM      6  H   LIG d   1       4.640  -3.015  -7.528  0.00  0.00     0.068 H 
ENDROOT
BRANCH   1   7
ATOM      7  C   LIG d   1       5.138  -3.034  -4.572  0.00  0.00     0.361 C 
ATOM      8  O   LIG d   1       6.312  -3.115  -4.273  0.00  0.00    -0.243 OA
BRANCH   7   9
ATOM      9  O   LIG d   1       4.377  -2.053  -4.048  0.00  0.00    -0.460 OA
BRANCH   9  10
ATOM     10  C   LIG d   1       3.973  -2.201  -2.662  0.00  0.00     0.090 C 
ATOM     11  H   LIG d   1       2.895  -2.350  -2.612  0.00  0.00     0.070 H 
ATOM     12  H   LIG d   1       4.480  -3.063  -2.226  0.00  0.00     0.070 H 
BRANCH  10  13
ATOM     13  C   LIG d   1       4.352  -0.940  -1.883  0.00  0.00    -0.031 C 
ATOM     14  H   LIG d   1       3.581  -0.724  -1.143  0.00  0.00     0.026 H 
ATOM     15  H   LIG d   1       5.305  -1.096  -1.379  0.00  0.00     0.026 H 
ATOM     16  H   LIG d   1       4.438  -0.100  -2.573  0.00  0.00     0.026 H 
ENDBRANCH  10  13
ENDBRANCH   9  10
ENDBRANCH   7   9
ENDBRANCH   1   7
BRANCH   3  17
ATOM     17  C   LIG d   1       3.393  -5.406  -8.700  0.00  0.00    -0.004 C 
ATOM     18  H   LIG d   1       2.320  -5.597  -8.732  0.00  0.00     0.031 H 
ATOM     19  H   LIG d   1       3.637  -4.591  -9.383  0.00  0.00     0.031 H 
ATOM     20  H   LIG d   1       3.931  -6.304  -9.001  0.00  0.00     0.031 H 
ENDBRANCH   3  17
TORSDOF 5
ENDMDL
