MODEL 1
REMARK VINA RESULT:      -7.3      0.000      0.000
REMARK  4 active torsions:
REMARK  status: ('A' for Active; 'I' for Inactive)
REMARK    1  A    between atoms: C_6  and  N_7 
REMARK       I    between atoms: N_7  and  C_8 
REMARK    2  A    between atoms: C_8  and  C_10 
REMARK    3  A    between atoms: C_10  and  C_11 
REMARK    4  A    between atoms: C_10  and  C_15 
ROOT
ATOM      1  N   LIG d   1       3.395  -0.260  -5.500  0.00  0.00    -0.284 N 
ATOM      2  C   LIG d   1       4.619  -0.157  -4.945  0.00  0.00     0.252 C 
ATOM      3  O   LIG d   1       5.572   0.147  -5.630  0.00  0.00    -0.273 OA
ATOM      4  H   LIG d   1       2.622  -0.438  -4.942  0.00  0.00     0.155 HD
ENDROOT
BRANCH   1   5
ATOM      5  C   LIG d   1       3.239  -0.109  -6.884  0.00  0.00     0.034 A 
ATOM      6  C   LIG d   1       2.884   1.125  -7.413  0.00  0.00    -0.038 A 
ATOM      7  C   LIG d   1       2.730   1.271  -8.778  0.00  0.00    -0.025 A 
ATOM      8  H   LIG d   1       2.731   1.971  -6.758  0.00  0.00     0.064 H 
ATOM      9  C   LIG d   1       2.929   0.189  -9.618  0.00  0.00     0.123 A 
ATOM     10  H   LIG d   1       2.454   2.231  -9.190  0.00  0.00     0.065 H 
ATOM     11  C   LIG d   1       3.284  -1.042  -9.092  0.00  0.00    -0.025 A 
ATOM     12  F   LIG d   1       2.779   0.334 -10.952  0.00  0.00    -0.205 F 
ATOM     13  C   LIG d   1       3.438  -1.193  -7.727  0.00  0.00    -0.038 A 
ATOM     14  H   LIG d   1       3.439  -1.885  -9.749  0.00  0.00     0.065 H 
ATOM     15  H   LIG d   1       3.714  -2.153  -7.318  0.00  0.00     0.064 H 
ENDBRANCH   1   5
BRANCH   2  16
ATOM     16  C   LIG d   1       4.802  -0.420  -3.472  0.00  0.00     0.289 C 
ATOM     17 BR   LIG d   1       6.596  -1.160  -3.157  0.00  0.00    -0.056 Br
BRANCH  16  18
ATOM     18  C   LIG d   1       4.647   0.890  -2.698  0.00  0.00     0.422 C 
ATOM     19  F   LIG d   1       4.471   0.611  -1.338  0.00  0.00    -0.168 F 
ATOM     20  F   LIG d   1       5.796   1.671  -2.869  0.00  0.00    -0.168 F 
ATOM     21  F   LIG d   1       3.533   1.588  -3.179  0.00  0.00    -0.168 F 
ENDBRANCH  16  18
BRANCH  16  22
ATOM     22  C   LIG d   1       3.746  -1.421  -2.998  0.00  0.00     0.422 C 
ATOM     23  F   LIG d   1       2.511  -0.777  -2.880  0.00  0.00    -0.168 F 
ATOM     24  F   LIG d   1       3.643  -2.463  -3.926  0.00  0.00    -0.168 F 
ATOM     25  F   LIG d   1       4.121  -1.941  -1.754  0.00  0.00    -0.168 F 
ENDBRANCH  16  22
ENDBRANCH   2  16
TORSDOF 4
ENDMDL
MODEL 2
REMARK VINA RESULT:      -7.2      1.286      2.398
REMARK  4 active torsions:
REMARK  status: ('A' for Active; 'I' for Inactive)
REMARK    1  A    between atoms: C_6  and  N_7 
REMARK       I    between atoms: N_7  and  C_8 
REMARK    2  A    between atoms: C_8  and  C_10 
REMARK    3  A    between atoms: C_10  and  C_11 
REMARK    4  A    between atoms: C_10  and  C_15 
ROOT
ATOM      1  N   LIG d   1       3.118  -0.015  -5.653  0.00  0.00    -0.284 N 
ATOM      2  C   LIG d   1       4.270   0.036  -4.956  0.00  0.00     0.252 C 
ATOM      3  O   LIG d   1       5.316   0.262  -5.528  0.00  0.00    -0.273 OA
ATOM      4  H   LIG d   1       2.274  -0.131  -5.188  0.00  0.00     0.155 HD
ENDROOT
BRANCH   1   5
ATOM      5  C   LIG d   1       3.138   0.100  -7.049  0.00  0.00     0.034 A 
ATOM      6  C   LIG d   1       2.896   1.329  -7.648  0.00  0.00    -0.038 A 
ATOM      7  C   LIG d   1       2.916   1.440  -9.025  0.00  0.00    -0.025 A 
ATOM      8  H   LIG d   1       2.696   2.198  -7.039  0.00  0.00     0.064 H 
ATOM      9  C   LIG d   1       3.177   0.327  -9.806  0.00  0.00     0.123 A 
ATOM     10  H   LIG d   1       2.729   2.396  -9.492  0.00  0.00     0.065 H 
ATOM     11  C   LIG d   1       3.419  -0.899  -9.210  0.00  0.00    -0.025 A 
ATOM     12  F   LIG d   1       3.196   0.437 -11.153  0.00  0.00    -0.205 F 
ATOM     13  C   LIG d   1       3.399  -1.015  -7.833  0.00  0.00    -0.038 A 
ATOM     14  H   LIG d   1       3.621  -1.766  -9.822  0.00  0.00     0.065 H 
ATOM     15  H   LIG d   1       3.587  -1.971  -7.369  0.00  0.00     0.064 H 
ENDBRANCH   1   5
BRANCH   2  16
ATOM     16  C   LIG d   1       4.259  -0.190  -3.465  0.00  0.00     0.289 C 
ATOM     17 BR   LIG d   1       2.483  -0.823  -2.911  0.00  0.00    -0.056 Br
BRANCH  16  18
ATOM     18  C   LIG d   1       5.311  -1.239  -3.102  0.00  0.00     0.422 C 
ATOM     19  F   LIG d   1       4.969  -1.843  -1.887  0.00  0.00    -0.168 F 
ATOM     20  F   LIG d   1       5.366  -2.212  -4.107  0.00  0.00    -0.168 F 
ATOM     21  F   LIG d   1       6.562  -0.624  -2.981  0.00  0.00    -0.168 F 
ENDBRANCH  16  18
BRANCH  16  22
ATOM     22  C   LIG d   1       4.580   1.124  -2.749  0.00  0.00     0.422 C 
ATOM     23  F   LIG d   1       5.841   1.578  -3.147  0.00  0.00    -0.168 F 
ATOM     24  F   LIG d   1       3.614   2.081  -3.078  0.00  0.00    -0.168 F 
ATOM     25  F   LIG d   1       4.575   0.914  -1.366  0.00  0.00    -0.168 F 
ENDBRANCH  16  22
ENDBRANCH   2  16
TORSDOF 4
ENDMDL
MODEL 3
REMARK VINA RESULT:      -6.7      2.648      6.350
REMARK  4 active torsions:
REMARK  status: ('A' for Active; 'I' for Inactive)
REMARK    1  A    between atoms: C_6  and  N_7 
REMARK       I    between atoms: N_7  and  C_8 
REMARK    2  A    between atoms: C_8  and  C_10 
REMARK    3  A    between atoms: C_10  and  C_11 
REMARK    4  A    between atoms: C_10  and  C_15 
ROOT
ATOM      1  N   LIG d   1       4.475   0.286  -6.416  0.00  0.00    -0.284 N 
ATOM      2  C   LIG d   1       3.619   0.243  -7.457  0.00  0.00     0.252 C 
ATOM      3  O   LIG d   1       2.588  -0.389  -7.368  0.00  0.00    -0.273 OA
ATOM      4  H   LIG d   1       5.268   0.844  -6.462  0.00  0.00     0.155 HD
ENDROOT
BRANCH   1   5
ATOM      5  C   LIG d   1       4.221  -0.475  -5.269  0.00  0.00     0.034 A 
ATOM      6  C   LIG d   1       3.359   0.008  -4.292  0.00  0.00    -0.038 A 
ATOM      7  C   LIG d   1       3.110  -0.745  -3.160  0.00  0.00    -0.025 A 
ATOM      8  H   LIG d   1       2.882   0.968  -4.418  0.00  0.00     0.064 H 
ATOM      9  C   LIG d   1       3.718  -1.978  -3.000  0.00  0.00     0.123 A 
ATOM     10  H   LIG d   1       2.440  -0.370  -2.400  0.00  0.00     0.065 H 
ATOM     11  C   LIG d   1       4.577  -2.461  -3.973  0.00  0.00    -0.025 A 
ATOM     12  F   LIG d   1       3.474  -2.712  -1.893  0.00  0.00    -0.205 F 
ATOM     13  C   LIG d   1       4.829  -1.712  -5.106  0.00  0.00    -0.038 A 
ATOM     14  H   LIG d   1       5.051  -3.423  -3.846  0.00  0.00     0.065 H 
ATOM     15  H   LIG d   1       5.500  -2.088  -5.864  0.00  0.00     0.064 H 
ENDBRANCH   1   5
BRANCH   2  16
ATOM     16  C   LIG d   1       3.944   0.981  -8.730  0.00  0.00     0.289 C 
ATOM     17 BR   LIG d   1       5.877   1.335  -8.807  0.00  0.00    -0.056 Br
BRANCH  16  18
ATOM     18  C   LIG d   1       3.533   0.128  -9.932  0.00  0.00     0.422 C 
ATOM     19  F   LIG d   1       4.173  -1.114  -9.863  0.00  0.00    -0.168 F 
ATOM     20  F   LIG d   1       2.146  -0.060  -9.917  0.00  0.00    -0.168 F 
ATOM     21  F   LIG d   1       3.902   0.778 -11.114  0.00  0.00    -0.168 F 
ENDBRANCH  16  18
BRANCH  16  22
ATOM     22  C   LIG d   1       3.181   2.307  -8.760  0.00  0.00     0.422 C 
ATOM     23  F   LIG d   1       2.624   2.554  -7.501  0.00  0.00    -0.168 F 
ATOM     24  F   LIG d   1       4.061   3.343  -9.093  0.00  0.00    -0.168 F 
ATOM     25  F   LIG d   1       2.161   2.237  -9.715  0.00  0.00    -0.168 F 
ENDBRANCH  16  22
ENDBRANCH   2  16
TORSDOF 4
ENDMDL
MODEL 4
REMARK VINA RESULT:      -6.7      0.984      1.544
REMARK  4 active torsions:
REMARK  status: ('A' for Active; 'I' for Inactive)
REMARK    1  A    between atoms: C_6  and  N_7 
REMARK       I    between atoms: N_7  and  C_8 
REMARK    2  A    between atoms: C_8  and  C_10 
REMARK    3  A    between atoms: C_10  and  C_11 
REMARK    4  A    between atoms: C_10  and  C_15 
ROOT
ATOM      1  N   LIG d   1       3.317  -0.302  -5.916  0.00  0.00    -0.284 N 
ATOM      2  C   LIG d   1       4.516  -0.070  -5.346  0.00  0.00     0.252 C 
ATOM      3  O   LIG d   1       5.449   0.302  -6.026  0.00  0.00    -0.273 OA
ATOM      4  H   LIG d   1       2.554  -0.535  -5.363  0.00  0.00     0.155 HD
ENDROOT
BRANCH   1   5
ATOM      5  C   LIG d   1       3.171  -0.207  -7.305  0.00  0.00     0.034 A 
ATOM      6  C   LIG d   1       2.813   1.003  -7.885  0.00  0.00    -0.038 A 
ATOM      7  C   LIG d   1       2.670   1.095  -9.256  0.00  0.00    -0.025 A 
ATOM      8  H   LIG d   1       2.650   1.873  -7.266  0.00  0.00     0.064 H 
ATOM      9  C   LIG d   1       2.883  -0.018 -10.051  0.00  0.00     0.123 A 
ATOM     10  H   LIG d   1       2.391   2.036  -9.708  0.00  0.00     0.065 H 
ATOM     11  C   LIG d   1       3.241  -1.225  -9.475  0.00  0.00    -0.025 A 
ATOM     12  F   LIG d   1       2.743   0.073 -11.392  0.00  0.00    -0.205 F 
ATOM     13  C   LIG d   1       3.385  -1.321  -8.104  0.00  0.00    -0.038 A 
ATOM     14  H   LIG d   1       3.406  -2.093 -10.097  0.00  0.00     0.065 H 
ATOM     15  H   LIG d   1       3.663  -2.263  -7.655  0.00  0.00     0.064 H 
ENDBRANCH   1   5
BRANCH   2  16
ATOM     16  C   LIG d   1       4.697  -0.271  -3.863  0.00  0.00     0.289 C 
ATOM     17 BR   LIG d   1       6.365   0.593  -3.284  0.00  0.00    -0.056 Br
BRANCH  16  18
ATOM     18  C   LIG d   1       3.514   0.348  -3.117  0.00  0.00     0.422 C 
ATOM     19  F   LIG d   1       2.343  -0.346  -3.439  0.00  0.00    -0.168 F 
ATOM     20  F   LIG d   1       3.739   0.268  -1.738  0.00  0.00    -0.168 F 
ATOM     21  F   LIG d   1       3.378   1.690  -3.489  0.00  0.00    -0.168 F 
ENDBRANCH  16  18
BRANCH  16  22
ATOM     22  C   LIG d   1       4.766  -1.769  -3.557  0.00  0.00     0.422 C 
ATOM     23  F   LIG d   1       5.572  -1.980  -2.434  0.00  0.00    -0.168 F 
ATOM     24  F   LIG d   1       3.477  -2.252  -3.305  0.00  0.00    -0.168 F 
ATOM     25  F   LIG d   1       5.310  -2.445  -4.655  0.00  0.00    -0.168 F 
ENDBRANCH  16  22
ENDBRANCH   2  16
TORSDOF 4
ENDMDL
MODEL 5
REMARK VINA RESULT:      -6.6      2.638      6.190
REMARK  4 active torsions:
REMARK  status: ('A' for Active; 'I' for Inactive)
REMARK    1  A    between atoms: C_6  and  N_7 
REMARK       I    between atoms: N_7  and  C_8 
REMARK    2  A    between atoms: C_8  and  C_10 
REMARK    3  A    between atoms: C_10  and  C_11 
REMARK    4  A    between atoms: C_10  and  C_15 
ROOT
ATOM      1  N   LIG d   1       3.263  -0.371  -6.565  0.00  0.00    -0.284 N 
ATOM      2  C   LIG d   1       4.162   0.213  -7.381  0.00  0.00     0.252 C 
ATOM      3  O   LIG d   1       5.248   0.542  -6.953  0.00  0.00    -0.273 OA
ATOM      4  H   LIG d   1       2.420  -0.694  -6.922  0.00  0.00     0.155 HD
ENDROOT
BRANCH   1   5
ATOM      5  C   LIG d   1       3.546  -0.514  -5.201  0.00  0.00     0.034 A 
ATOM      6  C   LIG d   1       3.039   0.401  -4.287  0.00  0.00    -0.038 A 
ATOM      7  C   LIG d   1       3.319   0.258  -2.942  0.00  0.00    -0.025 A 
ATOM      8  H   LIG d   1       2.423   1.220  -4.627  0.00  0.00     0.064 H 
ATOM      9  C   LIG d   1       4.104  -0.795  -2.505  0.00  0.00     0.123 A 
ATOM     10  H   LIG d   1       2.924   0.969  -2.230  0.00  0.00     0.065 H 
ATOM     11  C   LIG d   1       4.610  -1.708  -3.414  0.00  0.00    -0.025 A 
ATOM     12  F   LIG d   1       4.377  -0.933  -1.189  0.00  0.00    -0.205 F 
ATOM     13  C   LIG d   1       4.333  -1.569  -4.761  0.00  0.00    -0.038 A 
ATOM     14  H   LIG d   1       5.223  -2.529  -3.072  0.00  0.00     0.065 H 
ATOM     15  H   LIG d   1       4.728  -2.281  -5.470  0.00  0.00     0.064 H 
ENDBRANCH   1   5
BRANCH   2  16
ATOM     16  C   LIG d   1       3.817   0.459  -8.828  0.00  0.00     0.289 C 
ATOM     17 BR   LIG d   1       2.074  -0.355  -9.234  0.00  0.00    -0.056 Br
BRANCH  16  18
ATOM     18  C   LIG d   1       3.750   1.965  -9.087  0.00  0.00     0.422 C 
ATOM     19  F   LIG d   1       5.004   2.536  -8.848  0.00  0.00    -0.168 F 
ATOM     20  F   LIG d   1       3.379   2.194 -10.417  0.00  0.00    -0.168 F 
ATOM     21  F   LIG d   1       2.804   2.544  -8.233  0.00  0.00    -0.168 F 
ENDBRANCH  16  18
BRANCH  16  22
ATOM     22  C   LIG d   1       4.892  -0.165  -9.722  0.00  0.00     0.422 C 
ATOM     23  F   LIG d   1       5.991   0.696  -9.800  0.00  0.00    -0.168 F 
ATOM     24  F   LIG d   1       5.295  -1.389  -9.178  0.00  0.00    -0.168 F 
ATOM     25  F   LIG d   1       4.370  -0.373 -11.003  0.00  0.00    -0.168 F 
ENDBRANCH  16  22
ENDBRANCH   2  16
TORSDOF 4
ENDMDL
MODEL 6
REMARK VINA RESULT:      -6.4      3.747      5.133
REMARK  4 active torsions:
REMARK  status: ('A' for Active; 'I' for Inactive)
REMARK    1  A    between atoms: C_6  and  N_7 
REMARK       I    between atoms: N_7  and  C_8 
REMARK    2  A    between atoms: C_8  and  C_10 
REMARK    3  A    between atoms: C_10  and  C_11 
REMARK    4  A    between atoms: C_10  and  C_15 
ROOT
ATOM      1  N   LIG d   1       6.518   0.406  -4.857  0.00  0.00    -0.284 N 
ATOM      2  C   LIG d   1       5.995   0.443  -3.616  0.00  0.00     0.252 C 
ATOM      3  O   LIG d   1       6.643   0.899  -2.697  0.00  0.00    -0.273 OA
ATOM      4  H   LIG d   1       5.978   0.102  -5.603  0.00  0.00     0.155 HD
ENDROOT
BRANCH   1   5
ATOM      5  C   LIG d   1       7.843   0.806  -5.070  0.00  0.00     0.034 A 
ATOM      6  C   LIG d   1       8.146   2.152  -5.231  0.00  0.00    -0.038 A 
ATOM      7  C   LIG d   1       9.453   2.544  -5.442  0.00  0.00    -0.025 A 
ATOM      8  H   LIG d   1       7.360   2.891  -5.187  0.00  0.00     0.064 H 
ATOM      9  C   LIG d   1      10.461   1.597  -5.493  0.00  0.00     0.123 A 
ATOM     10  H   LIG d   1       9.690   3.591  -5.566  0.00  0.00     0.065 H 
ATOM     11  C   LIG d   1      10.162   0.254  -5.333  0.00  0.00    -0.025 A 
ATOM     12  F   LIG d   1      11.740   1.982  -5.699  0.00  0.00    -0.205 F 
ATOM     13  C   LIG d   1       8.855  -0.143  -5.122  0.00  0.00    -0.038 A 
ATOM     14  H   LIG d   1      10.950  -0.484  -5.374  0.00  0.00     0.065 H 
ATOM     15  H   LIG d   1       8.622  -1.189  -4.999  0.00  0.00     0.064 H 
ENDBRANCH   1   5
BRANCH   2  16
ATOM     16  C   LIG d   1       4.604  -0.083  -3.369  0.00  0.00     0.289 C 
ATOM     17 BR   LIG d   1       3.668  -0.291  -5.085  0.00  0.00    -0.056 Br
BRANCH  16  18
ATOM     18  C   LIG d   1       4.690  -1.439  -2.666  0.00  0.00     0.422 C 
ATOM     19  F   LIG d   1       4.576  -1.256  -1.284  0.00  0.00    -0.168 F 
ATOM     20  F   LIG d   1       3.651  -2.263  -3.114  0.00  0.00    -0.168 F 
ATOM     21  F   LIG d   1       5.919  -2.039  -2.958  0.00  0.00    -0.168 F 
ENDBRANCH  16  18
BRANCH  16  22
ATOM     22  C   LIG d   1       3.836   0.903  -2.485  0.00  0.00     0.422 C 
ATOM     23  F   LIG d   1       3.762   2.144  -3.125  0.00  0.00    -0.168 F 
ATOM     24  F   LIG d   1       2.544   0.416  -2.260  0.00  0.00    -0.168 F 
ATOM     25  F   LIG d   1       4.499   1.047  -1.262  0.00  0.00    -0.168 F 
ENDBRANCH  16  22
ENDBRANCH   2  16
TORSDOF 4
ENDMDL
MODEL 7
REMARK VINA RESULT:      -6.2      2.001      2.759
REMARK  4 active torsions:
REMARK  status: ('A' for Active; 'I' for Inactive)
REMARK    1  A    between atoms: C_6  and  N_7 
REMARK       I    between atoms: N_7  and  C_8 
REMARK    2  A    between atoms: C_8  and  C_10 
REMARK    3  A    between atoms: C_10  and  C_11 
REMARK    4  A    between atoms: C_10  and  C_15 
ROOT
ATOM      1  N   LIG d   1       4.207  -1.688  -5.499  0.00  0.00    -0.284 N 
ATOM      2  C   LIG d   1       4.694  -0.638  -4.809  0.00  0.00     0.252 C 
ATOM      3  O   LIG d   1       5.475   0.125  -5.336  0.00  0.00    -0.273 OA
ATOM      4  H   LIG d   1       3.533  -2.261  -5.101  0.00  0.00     0.155 HD
ENDROOT
BRANCH   1   5
ATOM      5  C   LIG d   1       4.673  -1.951  -6.794  0.00  0.00     0.034 A 
ATOM      6  C   LIG d   1       5.825  -2.705  -6.977  0.00  0.00    -0.038 A 
ATOM      7  C   LIG d   1       6.282  -2.964  -8.255  0.00  0.00    -0.025 A 
ATOM      8  H   LIG d   1       6.360  -3.092  -6.123  0.00  0.00     0.064 H 
ATOM      9  C   LIG d   1       5.594  -2.473  -9.350  0.00  0.00     0.123 A 
ATOM     10  H   LIG d   1       7.178  -3.550  -8.399  0.00  0.00     0.065 H 
ATOM     11  C   LIG d   1       4.445  -1.721  -9.169  0.00  0.00    -0.025 A 
ATOM     12  F   LIG d   1       6.043  -2.726 -10.599  0.00  0.00    -0.205 F 
ATOM     13  C   LIG d   1       3.984  -1.460  -7.893  0.00  0.00    -0.038 A 
ATOM     14  H   LIG d   1       3.910  -1.338 -10.026  0.00  0.00     0.065 H 
ATOM     15  H   LIG d   1       3.089  -0.873  -7.753  0.00  0.00     0.064 H 
ENDBRANCH   1   5
BRANCH   2  16
ATOM     16  C   LIG d   1       4.269  -0.414  -3.380  0.00  0.00     0.289 C 
ATOM     17 BR   LIG d   1       4.028  -2.149  -2.488  0.00  0.00    -0.056 Br
BRANCH  16  18
ATOM     18  C   LIG d   1       5.346   0.390  -2.649  0.00  0.00     0.422 C 
ATOM     19  F   LIG d   1       6.584  -0.242  -2.800  0.00  0.00    -0.168 F 
ATOM     20  F   LIG d   1       5.411   1.680  -3.189  0.00  0.00    -0.168 F 
ATOM     21  F   LIG d   1       5.026   0.471  -1.289  0.00  0.00    -0.168 F 
ENDBRANCH  16  18
BRANCH  16  22
ATOM     22  C   LIG d   1       2.949   0.360  -3.356  0.00  0.00     0.422 C 
ATOM     23  F   LIG d   1       2.840   1.132  -4.517  0.00  0.00    -0.168 F 
ATOM     24  F   LIG d   1       1.882  -0.542  -3.294  0.00  0.00    -0.168 F 
ATOM     25  F   LIG d   1       2.919   1.197  -2.235  0.00  0.00    -0.168 F 
ENDBRANCH  16  22
ENDBRANCH   2  16
TORSDOF 4
ENDMDL
MODEL 8
REMARK VINA RESULT:      -6.0      2.754      3.589
REMARK  4 active torsions:
REMARK  status: ('A' for Active; 'I' for Inactive)
REMARK    1  A    between atoms: C_6  and  N_7 
REMARK       I    between atoms: N_7  and  C_8 
REMARK    2  A    between atoms: C_8  and  C_10 
REMARK    3  A    between atoms: C_10  and  C_11 
REMARK    4  A    between atoms: C_10  and  C_15 
ROOT
ATOM      1  N   LIG d   1       6.189  -0.529  -5.083  0.00  0.00    -0.284 N 
ATOM      2  C   LIG d   1       4.921  -0.201  -4.766  0.00  0.00     0.252 C 
ATOM      3  O   LIG d   1       4.157   0.175  -5.631  0.00  0.00    -0.273 OA
ATOM      4  H   LIG d   1       6.780  -0.892  -4.405  0.00  0.00     0.155 HD
ENDROOT
BRANCH   1   5
ATOM      5  C   LIG d   1       6.653  -0.346  -6.392  0.00  0.00     0.034 A 
ATOM      6  C   LIG d   1       7.311   0.828  -6.738  0.00  0.00    -0.038 A 
ATOM      7  C   LIG d   1       7.768   1.006  -8.029  0.00  0.00    -0.025 A 
ATOM      8  H   LIG d   1       7.468   1.598  -5.997  0.00  0.00     0.064 H 
ATOM      9  C   LIG d   1       7.571   0.017  -8.977  0.00  0.00     0.123 A 
ATOM     10  H   LIG d   1       8.280   1.919  -8.299  0.00  0.00     0.065 H 
ATOM     11  C   LIG d   1       6.915  -1.153  -8.634  0.00  0.00    -0.025 A 
ATOM     12  F   LIG d   1       8.018   0.194 -10.240  0.00  0.00    -0.205 F 
ATOM     13  C   LIG d   1       6.456  -1.336  -7.344  0.00  0.00    -0.038 A 
ATOM     14  H   LIG d   1       6.762  -1.924  -9.376  0.00  0.00     0.065 H 
ATOM     15  H   LIG d   1       5.945  -2.248  -7.077  0.00  0.00     0.064 H 
ENDBRANCH   1   5
BRANCH   2  16
ATOM     16  C   LIG d   1       4.451  -0.302  -3.337  0.00  0.00     0.289 C 
ATOM     17 BR   LIG d   1       2.499  -0.529  -3.304  0.00  0.00    -0.056 Br
BRANCH  16  18
ATOM     18  C   LIG d   1       5.117  -1.505  -2.667  0.00  0.00     0.422 C 
ATOM     19  F   LIG d   1       4.957  -2.637  -3.473  0.00  0.00    -0.168 F 
ATOM     20  F   LIG d   1       6.481  -1.246  -2.493  0.00  0.00    -0.168 F 
ATOM     21  F   LIG d   1       4.524  -1.733  -1.420  0.00  0.00    -0.168 F 
ENDBRANCH  16  18
BRANCH  16  22
ATOM     22  C   LIG d   1       4.829   0.976  -2.585  0.00  0.00     0.422 C 
ATOM     23  F   LIG d   1       6.156   1.312  -2.873  0.00  0.00    -0.168 F 
ATOM     24  F   LIG d   1       3.986   2.018  -2.986  0.00  0.00    -0.168 F 
ATOM     25  F   LIG d   1       4.690   0.766  -1.209  0.00  0.00    -0.168 F 
ENDBRANCH  16  22
ENDBRANCH   2  16
TORSDOF 4
ENDMDL
MODEL 9
REMARK VINA RESULT:      -5.9      3.363      4.656
REMARK  4 active torsions:
REMARK  status: ('A' for Active; 'I' for Inactive)
REMARK    1  A    between atoms: C_6  and  N_7 
REMARK       I    between atoms: N_7  and  C_8 
REMARK    2  A    between atoms: C_8  and  C_10 
REMARK    3  A    between atoms: C_10  and  C_11 
REMARK    4  A    between atoms: C_10  and  C_15 
ROOT
ATOM      1  N   LIG d   1       4.120  -2.825  -5.400  0.00  0.00    -0.284 N 
ATOM      2  C   LIG d   1       4.902  -2.171  -4.519  0.00  0.00     0.252 C 
ATOM      3  O   LIG d   1       6.027  -2.566  -4.296  0.00  0.00    -0.273 OA
ATOM      4  H   LIG d   1       3.244  -2.473  -5.627  0.00  0.00     0.155 HD
ENDROOT
BRANCH   1   5
ATOM      5  C   LIG d   1       4.569  -4.015  -5.987  0.00  0.00     0.034 A 
ATOM      6  C   LIG d   1       5.132  -3.993  -7.257  0.00  0.00    -0.038 A 
ATOM      7  C   LIG d   1       5.574  -5.167  -7.834  0.00  0.00    -0.025 A 
ATOM      8  H   LIG d   1       5.227  -3.059  -7.791  0.00  0.00     0.064 H 
ATOM      9  C   LIG d   1       5.458  -6.364  -7.149  0.00  0.00     0.123 A 
ATOM     10  H   LIG d   1       6.013  -5.151  -8.822  0.00  0.00     0.065 H 
ATOM     11  C   LIG d   1       4.897  -6.388  -5.883  0.00  0.00    -0.025 A 
ATOM     12  F   LIG d   1       5.891  -7.512  -7.715  0.00  0.00    -0.205 F 
ATOM     13  C   LIG d   1       4.453  -5.215  -5.301  0.00  0.00    -0.038 A 
ATOM     14  H   LIG d   1       4.806  -7.323  -5.349  0.00  0.00     0.065 H 
ATOM     15  H   LIG d   1       4.015  -5.234  -4.315  0.00  0.00     0.064 H 
ENDBRANCH   1   5
BRANCH   2  16
ATOM     16  C   LIG d   1       4.378  -0.948  -3.810  0.00  0.00     0.289 C 
ATOM     17 BR   LIG d   1       3.089  -0.021  -4.969  0.00  0.00    -0.056 Br
BRANCH  16  18
ATOM     18  C   LIG d   1       3.688  -1.369  -2.512  0.00  0.00     0.422 C 
ATOM     19  F   LIG d   1       4.311  -0.742  -1.427  0.00  0.00    -0.168 F 
ATOM     20  F   LIG d   1       2.341  -0.992  -2.557  0.00  0.00    -0.168 F 
ATOM     21  F   LIG d   1       3.778  -2.757  -2.364  0.00  0.00    -0.168 F 
ENDBRANCH  16  18
BRANCH  16  22
ATOM     22  C   LIG d   1       5.542  -0.008  -3.488  0.00  0.00     0.422 C 
ATOM     23  F   LIG d   1       6.218   0.320  -4.668  0.00  0.00    -0.168 F 
ATOM     24  F   LIG d   1       5.048   1.158  -2.894  0.00  0.00    -0.168 F 
ATOM     25  F   LIG d   1       6.424  -0.643  -2.607  0.00  0.00    -0.168 F 
ENDBRANCH  16  22
ENDBRANCH   2  16
TORSDOF 4
ENDMDL
