MODEL 1
REMARK VINA RESULT:      -7.3      0.000      0.000
REMARK  7 active torsions:
REMARK  status: ('A' for Active; 'I' for Inactive)
REMARK    1  A    between atoms: C_4  and  O_20 
REMARK    2  A    between atoms: C_5  and  C_7 
REMARK    3  A    between atoms: N_8  and  C_9 
REMARK    4  A    between atoms: C_9  and  C_10 
REMARK    5  A    between atoms: C_10  and  N_11 
REMARK    6  A    between atoms: C_12  and  C_13 
REMARK    7  A    between atoms: C_18  and  O_19 
ROOT
ATOM      1  C   LIG d   1       3.831  -0.392  -6.281  0.00  0.00     0.162 C 
ATOM      2  H   LIG d   1       3.821  -1.482  -6.308  0.00  0.00     0.104 H 
ATOM      3  H   LIG d   1       4.526  -0.054  -5.511  0.00  0.00     0.104 H 
ENDROOT
BRANCH   1   4
ATOM      4  C   LIG d   1       4.275   0.148  -7.642  0.00  0.00     0.098 C 
ATOM      5  H   LIG d   1       3.947  -0.533  -8.427  0.00  0.00     0.057 H 
ATOM      6  H   LIG d   1       5.361   0.230  -7.663  0.00  0.00     0.057 H 
BRANCH   4   7
ATOM      7  N   LIG d   1       3.681   1.469  -7.860  0.00  0.00    -0.285 NA
ATOM      8  C   LIG d   1       3.004   1.704  -8.938  0.00  0.00     0.033 C 
ATOM      9  H   LIG d   1       2.624   2.697  -9.131  0.00  0.00     0.083 H 
BRANCH   8  10
ATOM     10  C   LIG d   1       2.752   0.617  -9.901  0.00  0.00     0.034 A 
ATOM     11  C   LIG d   1       3.627   0.409 -10.975  0.00  0.00     0.125 A 
ATOM     12  C   LIG d   1       3.380  -0.616 -11.875  0.00  0.00    -0.019 A 
ATOM     13  C   LIG d   1       2.276  -1.428 -11.713  0.00  0.00    -0.058 A 
ATOM     14  H   LIG d   1       4.054  -0.779 -12.704  0.00  0.00     0.065 H 
ATOM     15  C   LIG d   1       1.407  -1.226 -10.653  0.00  0.00    -0.061 A 
ATOM     16  H   LIG d   1       2.087  -2.225 -12.416  0.00  0.00     0.062 H 
ATOM     17  C   LIG d   1       1.637  -0.211  -9.748  0.00  0.00    -0.050 A 
ATOM     18  H   LIG d   1       0.543  -1.863 -10.537  0.00  0.00     0.062 H 
ATOM     19  H   LIG d   1       0.958  -0.057  -8.924  0.00  0.00     0.062 H 
BRANCH  11  20
ATOM     20  O   LIG d   1       4.713   1.208 -11.133  0.00  0.00    -0.506 OA
ATOM     21  H   LIG d   1       5.557   0.757 -10.990  0.00  0.00     0.292 HD
ENDBRANCH  11  20
ENDBRANCH   8  10
ENDBRANCH   4   7
ENDBRANCH   1   4
BRANCH   1  22
ATOM     22  N   LIG d   1       2.486   0.100  -5.974  0.00  0.00    -0.245 N 
ATOM     23  C   LIG d   1       2.039   0.051  -4.760  0.00  0.00     0.175 C 
ATOM     24  H   LIG d   1       0.983   0.166  -4.569  0.00  0.00     0.138 H 
ATOM     25  H   LIG d   1       1.929   0.464  -6.681  0.00  0.00     0.445 HD
BRANCH  23  26
ATOM     26  C   LIG d   1       2.972  -0.163  -3.640  0.00  0.00     0.079 A 
ATOM     27  C   LIG d   1       3.652   0.922  -3.070  0.00  0.00     0.130 A 
ATOM     28  C   LIG d   1       4.522   0.710  -2.012  0.00  0.00    -0.019 A 
ATOM     29  C   LIG d   1       4.728  -0.568  -1.530  0.00  0.00    -0.058 A 
ATOM     30  H   LIG d   1       5.045   1.544  -1.568  0.00  0.00     0.065 H 
ATOM     31  C   LIG d   1       4.061  -1.645  -2.093  0.00  0.00    -0.061 A 
ATOM     32  H   LIG d   1       5.410  -0.729  -0.709  0.00  0.00     0.062 H 
ATOM     33  C   LIG d   1       3.188  -1.451  -3.141  0.00  0.00    -0.045 A 
ATOM     34  H   LIG d   1       4.228  -2.640  -1.709  0.00  0.00     0.062 H 
ATOM     35  H   LIG d   1       2.671  -2.293  -3.578  0.00  0.00     0.063 H 
BRANCH  27  36
ATOM     36  O   LIG d   1       3.454   2.176  -3.550  0.00  0.00    -0.506 OA
ATOM     37  H   LIG d   1       2.860   2.715  -3.009  0.00  0.00     0.292 HD
ENDBRANCH  27  36
ENDBRANCH  23  26
ENDBRANCH   1  22
TORSDOF 7
ENDMDL
MODEL 2
REMARK VINA RESULT:      -7.1      0.569      7.303
REMARK  7 active torsions:
REMARK  status: ('A' for Active; 'I' for Inactive)
REMARK    1  A    between atoms: C_4  and  O_20 
REMARK    2  A    between atoms: C_5  and  C_7 
REMARK    3  A    between atoms: N_8  and  C_9 
REMARK    4  A    between atoms: C_9  and  C_10 
REMARK    5  A    between atoms: C_10  and  N_11 
REMARK    6  A    between atoms: C_12  and  C_13 
REMARK    7  A    between atoms: C_18  and  O_19 
ROOT
ATOM      1  C   LIG d   1       4.676   0.017  -7.755  0.00  0.00     0.162 C 
ATOM      2  H   LIG d   1       5.722  -0.270  -7.861  0.00  0.00     0.104 H 
ATOM      3  H   LIG d   1       4.057  -0.628  -8.380  0.00  0.00     0.104 H 
ENDROOT
BRANCH   1   4
ATOM      4  C   LIG d   1       4.251  -0.129  -6.292  0.00  0.00     0.098 C 
ATOM      5  H   LIG d   1       4.968   0.388  -5.653  0.00  0.00     0.057 H 
ATOM      6  H   LIG d   1       4.226  -1.186  -6.027  0.00  0.00     0.057 H 
BRANCH   4   7
ATOM      7  N   LIG d   1       2.921   0.454  -6.109  0.00  0.00    -0.285 NA
ATOM      8  C   LIG d   1       2.380   0.476  -4.933  0.00  0.00     0.033 C 
ATOM      9  H   LIG d   1       1.372   0.843  -4.809  0.00  0.00     0.083 H 
BRANCH   8  10
ATOM     10  C   LIG d   1       3.140  -0.002  -3.764  0.00  0.00     0.034 A 
ATOM     11  C   LIG d   1       3.880   0.900  -2.988  0.00  0.00     0.125 A 
ATOM     12  C   LIG d   1       4.592   0.440  -1.891  0.00  0.00    -0.019 A 
ATOM     13  C   LIG d   1       4.570  -0.901  -1.565  0.00  0.00    -0.058 A 
ATOM     14  H   LIG d   1       5.163   1.133  -1.290  0.00  0.00     0.065 H 
ATOM     15  C   LIG d   1       3.840  -1.797  -2.328  0.00  0.00    -0.061 A 
ATOM     16  H   LIG d   1       5.126  -1.254  -0.709  0.00  0.00     0.062 H 
ATOM     17  C   LIG d   1       3.127  -1.357  -3.424  0.00  0.00    -0.050 A 
ATOM     18  H   LIG d   1       3.833  -2.844  -2.069  0.00  0.00     0.062 H 
ATOM     19  H   LIG d   1       2.560  -2.058  -4.016  0.00  0.00     0.062 H 
BRANCH  11  20
ATOM     20  O   LIG d   1       3.900   2.219  -3.309  0.00  0.00    -0.506 OA
ATOM     21  H   LIG d   1       3.432   2.785  -2.679  0.00  0.00     0.292 HD
ENDBRANCH  11  20
ENDBRANCH   8  10
ENDBRANCH   4   7
ENDBRANCH   1   4
BRANCH   1  22
ATOM     22  N   LIG d   1       4.507   1.410  -8.176  0.00  0.00    -0.245 N 
ATOM     23  C   LIG d   1       3.947   1.681  -9.311  0.00  0.00     0.175 C 
ATOM     24  H   LIG d   1       4.047   2.666  -9.741  0.00  0.00     0.138 H 
ATOM     25  H   LIG d   1       4.815   2.131  -7.604  0.00  0.00     0.445 HD
BRANCH  23  26
ATOM     26  C   LIG d   1       3.172   0.645 -10.016  0.00  0.00     0.079 A 
ATOM     27  C   LIG d   1       3.639   0.117 -11.228  0.00  0.00     0.130 A 
ATOM     28  C   LIG d   1       2.906  -0.862 -11.879  0.00  0.00    -0.019 A 
ATOM     29  C   LIG d   1       1.714  -1.308 -11.342  0.00  0.00    -0.058 A 
ATOM     30  H   LIG d   1       3.264  -1.274 -12.811  0.00  0.00     0.065 H 
ATOM     31  C   LIG d   1       1.246  -0.786 -10.146  0.00  0.00    -0.061 A 
ATOM     32  H   LIG d   1       1.144  -2.067 -11.855  0.00  0.00     0.062 H 
ATOM     33  C   LIG d   1       1.966   0.183  -9.482  0.00  0.00    -0.045 A 
ATOM     34  H   LIG d   1       0.314  -1.141  -9.733  0.00  0.00     0.062 H 
ATOM     35  H   LIG d   1       1.597   0.588  -8.550  0.00  0.00     0.063 H 
BRANCH  27  36
ATOM     36  O   LIG d   1       4.807   0.561 -11.758  0.00  0.00    -0.506 OA
ATOM     37  H   LIG d   1       4.871   0.449 -12.716  0.00  0.00     0.292 HD
ENDBRANCH  27  36
ENDBRANCH  23  26
ENDBRANCH   1  22
TORSDOF 7
ENDMDL
MODEL 3
REMARK VINA RESULT:      -7.0      2.251      3.343
REMARK  7 active torsions:
REMARK  status: ('A' for Active; 'I' for Inactive)
REMARK    1  A    between atoms: C_4  and  O_20 
REMARK    2  A    between atoms: C_5  and  C_7 
REMARK    3  A    between atoms: N_8  and  C_9 
REMARK    4  A    between atoms: C_9  and  C_10 
REMARK    5  A    between atoms: C_10  and  N_11 
REMARK    6  A    between atoms: C_12  and  C_13 
REMARK    7  A    between atoms: C_18  and  O_19 
ROOT
ATOM      1  C   LIG d   1       6.349  -0.484  -5.958  0.00  0.00     0.162 C 
ATOM      2  H   LIG d   1       7.200   0.199  -5.953  0.00  0.00     0.104 H 
ATOM      3  H   LIG d   1       5.493  -0.002  -5.486  0.00  0.00     0.104 H 
ENDROOT
BRANCH   1   4
ATOM      4  C   LIG d   1       5.998  -0.851  -7.402  0.00  0.00     0.098 C 
ATOM      5  H   LIG d   1       6.855  -1.332  -7.872  0.00  0.00     0.057 H 
ATOM      6  H   LIG d   1       5.742   0.054  -7.953  0.00  0.00     0.057 H 
BRANCH   4   7
ATOM      7  N   LIG d   1       4.856  -1.767  -7.408  0.00  0.00    -0.285 NA
ATOM      8  C   LIG d   1       3.743  -1.411  -7.966  0.00  0.00     0.033 C 
ATOM      9  H   LIG d   1       2.881  -2.059  -7.910  0.00  0.00     0.083 H 
BRANCH   8  10
ATOM     10  C   LIG d   1       3.654  -0.122  -8.675  0.00  0.00     0.034 A 
ATOM     11  C   LIG d   1       3.291   1.040  -7.983  0.00  0.00     0.125 A 
ATOM     12  C   LIG d   1       3.210   2.247  -8.660  0.00  0.00    -0.019 A 
ATOM     13  C   LIG d   1       3.487   2.302 -10.011  0.00  0.00    -0.058 A 
ATOM     14  H   LIG d   1       2.930   3.145  -8.129  0.00  0.00     0.065 H 
ATOM     15  C   LIG d   1       3.847   1.155 -10.701  0.00  0.00    -0.061 A 
ATOM     16  H   LIG d   1       3.423   3.244 -10.535  0.00  0.00     0.062 H 
ATOM     17  C   LIG d   1       3.932  -0.054 -10.042  0.00  0.00    -0.050 A 
ATOM     18  H   LIG d   1       4.057   1.207 -11.758  0.00  0.00     0.062 H 
ATOM     19  H   LIG d   1       4.213  -0.945 -10.583  0.00  0.00     0.062 H 
BRANCH  11  20
ATOM     20  O   LIG d   1       3.019   0.985  -6.654  0.00  0.00    -0.506 OA
ATOM     21  H   LIG d   1       2.277   0.407  -6.428  0.00  0.00     0.292 HD
ENDBRANCH  11  20
ENDBRANCH   8  10
ENDBRANCH   4   7
ENDBRANCH   1   4
BRANCH   1  22
ATOM     22  N   LIG d   1       6.695  -1.699  -5.216  0.00  0.00    -0.245 N 
ATOM     23  C   LIG d   1       6.326  -1.832  -3.983  0.00  0.00     0.175 C 
ATOM     24  H   LIG d   1       6.784  -2.586  -3.360  0.00  0.00     0.138 H 
ATOM     25  H   LIG d   1       7.202  -2.405  -5.648  0.00  0.00     0.445 HD
BRANCH  23  26
ATOM     26  C   LIG d   1       5.280  -0.954  -3.428  0.00  0.00     0.079 A 
ATOM     27  C   LIG d   1       3.930  -1.196  -3.714  0.00  0.00     0.130 A 
ATOM     28  C   LIG d   1       2.955  -0.368  -3.182  0.00  0.00    -0.019 A 
ATOM     29  C   LIG d   1       3.314   0.700  -2.383  0.00  0.00    -0.058 A 
ATOM     30  H   LIG d   1       1.912  -0.554  -3.396  0.00  0.00     0.065 H 
ATOM     31  C   LIG d   1       4.648   0.947  -2.100  0.00  0.00    -0.061 A 
ATOM     32  H   LIG d   1       2.551   1.345  -1.974  0.00  0.00     0.062 H 
ATOM     33  C   LIG d   1       5.630   0.129  -2.616  0.00  0.00    -0.045 A 
ATOM     34  H   LIG d   1       4.919   1.783  -1.474  0.00  0.00     0.062 H 
ATOM     35  H   LIG d   1       6.669   0.325  -2.394  0.00  0.00     0.063 H 
BRANCH  27  36
ATOM     36  O   LIG d   1       3.579  -2.242  -4.506  0.00  0.00    -0.506 OA
ATOM     37  H   LIG d   1       2.642  -2.474  -4.458  0.00  0.00     0.292 HD
ENDBRANCH  27  36
ENDBRANCH  23  26
ENDBRANCH   1  22
TORSDOF 7
ENDMDL
MODEL 4
REMARK VINA RESULT:      -7.0      2.135      7.143
REMARK  7 active torsions:
REMARK  status: ('A' for Active; 'I' for Inactive)
REMARK    1  A    between atoms: C_4  and  O_20 
REMARK    2  A    between atoms: C_5  and  C_7 
REMARK    3  A    between atoms: N_8  and  C_9 
REMARK    4  A    between atoms: C_9  and  C_10 
REMARK    5  A    between atoms: C_10  and  N_11 
REMARK    6  A    between atoms: C_12  and  C_13 
REMARK    7  A    between atoms: C_18  and  O_19 
ROOT
ATOM      1  C   LIG d   1       4.740  -1.310  -7.073  0.00  0.00     0.162 C 
ATOM      2  H   LIG d   1       4.888  -0.883  -8.066  0.00  0.00     0.104 H 
ATOM      3  H   LIG d   1       4.831  -2.395  -7.127  0.00  0.00     0.104 H 
ENDROOT
BRANCH   1   4
ATOM      4  C   LIG d   1       5.799  -0.756  -6.117  0.00  0.00     0.098 C 
ATOM      5  H   LIG d   1       5.341  -0.019  -5.457  0.00  0.00     0.057 H 
ATOM      6  H   LIG d   1       6.594  -0.282  -6.693  0.00  0.00     0.057 H 
BRANCH   4   7
ATOM      7  N   LIG d   1       6.356  -1.849  -5.320  0.00  0.00    -0.285 NA
ATOM      8  C   LIG d   1       6.169  -1.878  -4.039  0.00  0.00     0.033 C 
ATOM      9  H   LIG d   1       6.638  -2.646  -3.442  0.00  0.00     0.083 H 
BRANCH   8  10
ATOM     10  C   LIG d   1       5.316  -0.862  -3.397  0.00  0.00     0.034 A 
ATOM     11  C   LIG d   1       3.930  -1.047  -3.327  0.00  0.00     0.125 A 
ATOM     12  C   LIG d   1       3.137  -0.084  -2.721  0.00  0.00    -0.019 A 
ATOM     13  C   LIG d   1       3.713   1.051  -2.189  0.00  0.00    -0.058 A 
ATOM     14  H   LIG d   1       2.067  -0.224  -2.665  0.00  0.00     0.065 H 
ATOM     15  C   LIG d   1       5.084   1.240  -2.255  0.00  0.00    -0.061 A 
ATOM     16  H   LIG d   1       3.092   1.799  -1.717  0.00  0.00     0.062 H 
ATOM     17  C   LIG d   1       5.888   0.292  -2.855  0.00  0.00    -0.050 A 
ATOM     18  H   LIG d   1       5.525   2.133  -1.841  0.00  0.00     0.062 H 
ATOM     19  H   LIG d   1       6.955   0.443  -2.905  0.00  0.00     0.062 H 
BRANCH  11  20
ATOM     20  O   LIG d   1       3.364  -2.165  -3.850  0.00  0.00    -0.506 OA
ATOM     21  H   LIG d   1       3.806  -2.986  -3.594  0.00  0.00     0.292 HD
ENDBRANCH  11  20
ENDBRANCH   8  10
ENDBRANCH   4   7
ENDBRANCH   1   4
BRANCH   1  22
ATOM     22  N   LIG d   1       3.406  -0.955  -6.584  0.00  0.00    -0.245 N 
ATOM     23  C   LIG d   1       2.716  -0.042  -7.188  0.00  0.00     0.175 C 
ATOM     24  H   LIG d   1       1.862   0.402  -6.698  0.00  0.00     0.138 H 
ATOM     25  H   LIG d   1       3.038  -1.405  -5.806  0.00  0.00     0.445 HD
BRANCH  23  26
ATOM     26  C   LIG d   1       3.096   0.393  -8.544  0.00  0.00     0.079 A 
ATOM     27  C   LIG d   1       2.817  -0.421  -9.650  0.00  0.00     0.130 A 
ATOM     28  C   LIG d   1       3.173   0.001 -10.921  0.00  0.00    -0.019 A 
ATOM     29  C   LIG d   1       3.811   1.213 -11.095  0.00  0.00    -0.058 A 
ATOM     30  H   LIG d   1       2.956  -0.622 -11.777  0.00  0.00     0.065 H 
ATOM     31  C   LIG d   1       4.094   2.019 -10.004  0.00  0.00    -0.061 A 
ATOM     32  H   LIG d   1       4.091   1.535 -12.087  0.00  0.00     0.062 H 
ATOM     33  C   LIG d   1       3.741   1.618  -8.734  0.00  0.00    -0.045 A 
ATOM     34  H   LIG d   1       4.592   2.965 -10.150  0.00  0.00     0.062 H 
ATOM     35  H   LIG d   1       3.963   2.249  -7.886  0.00  0.00     0.063 H 
BRANCH  27  36
ATOM     36  O   LIG d   1       2.195  -1.615  -9.476  0.00  0.00    -0.506 OA
ATOM     37  H   LIG d   1       1.239  -1.546  -9.351  0.00  0.00     0.292 HD
ENDBRANCH  27  36
ENDBRANCH  23  26
ENDBRANCH   1  22
TORSDOF 7
ENDMDL
MODEL 5
REMARK VINA RESULT:      -6.6      1.862      7.407
REMARK  7 active torsions:
REMARK  status: ('A' for Active; 'I' for Inactive)
REMARK    1  A    between atoms: C_4  and  O_20 
REMARK    2  A    between atoms: C_5  and  C_7 
REMARK    3  A    between atoms: N_8  and  C_9 
REMARK    4  A    between atoms: C_9  and  C_10 
REMARK    5  A    between atoms: C_10  and  N_11 
REMARK    6  A    between atoms: C_12  and  C_13 
REMARK    7  A    between atoms: C_18  and  O_19 
ROOT
ATOM      1  C   LIG d   1       4.415  -0.201  -7.399  0.00  0.00     0.162 C 
ATOM      2  H   LIG d   1       5.429   0.199  -7.355  0.00  0.00     0.104 H 
ATOM      3  H   LIG d   1       4.250  -0.666  -8.371  0.00  0.00     0.104 H 
ENDROOT
BRANCH   1   4
ATOM      4  C   LIG d   1       4.231  -1.245  -6.295  0.00  0.00     0.098 C 
ATOM      5  H   LIG d   1       3.434  -1.933  -6.576  0.00  0.00     0.057 H 
ATOM      6  H   LIG d   1       3.966  -0.745  -5.364  0.00  0.00     0.057 H 
BRANCH   4   7
ATOM      7  N   LIG d   1       5.478  -1.989  -6.114  0.00  0.00    -0.285 NA
ATOM      8  C   LIG d   1       6.125  -1.907  -4.995  0.00  0.00     0.033 C 
ATOM      9  H   LIG d   1       7.079  -2.400  -4.886  0.00  0.00     0.083 H 
BRANCH   8  10
ATOM     10  C   LIG d   1       5.557  -1.140  -3.871  0.00  0.00     0.034 A 
ATOM     11  C   LIG d   1       4.590  -1.720  -3.040  0.00  0.00     0.125 A 
ATOM     12  C   LIG d   1       4.062  -0.989  -1.986  0.00  0.00    -0.019 A 
ATOM     13  C   LIG d   1       4.490   0.303  -1.758  0.00  0.00    -0.058 A 
ATOM     14  H   LIG d   1       3.317  -1.433  -1.343  0.00  0.00     0.065 H 
ATOM     15  C   LIG d   1       5.447   0.881  -2.577  0.00  0.00    -0.061 A 
ATOM     16  H   LIG d   1       4.076   0.869  -0.936  0.00  0.00     0.062 H 
ATOM     17  C   LIG d   1       5.981   0.169  -3.630  0.00  0.00    -0.050 A 
ATOM     18  H   LIG d   1       5.771   1.894  -2.394  0.00  0.00     0.062 H 
ATOM     19  H   LIG d   1       6.726   0.622  -4.266  0.00  0.00     0.062 H 
BRANCH  11  20
ATOM     20  O   LIG d   1       4.171  -2.991  -3.265  0.00  0.00    -0.506 OA
ATOM     21  H   LIG d   1       3.211  -3.103  -3.217  0.00  0.00     0.292 HD
ENDBRANCH  11  20
ENDBRANCH   8  10
ENDBRANCH   4   7
ENDBRANCH   1   4
BRANCH   1  22
ATOM     22  N   LIG d   1       3.453   0.886  -7.208  0.00  0.00    -0.245 N 
ATOM     23  C   LIG d   1       2.836   1.392  -8.228  0.00  0.00     0.175 C 
ATOM     24  H   LIG d   1       2.332   2.342  -8.138  0.00  0.00     0.138 H 
ATOM     25  H   LIG d   1       3.276   1.229  -6.318  0.00  0.00     0.445 HD
BRANCH  23  26
ATOM     26  C   LIG d   1       2.823   0.670  -9.513  0.00  0.00     0.079 A 
ATOM     27  C   LIG d   1       3.822   0.910 -10.467  0.00  0.00     0.130 A 
ATOM     28  C   LIG d   1       3.803   0.221 -11.669  0.00  0.00    -0.019 A 
ATOM     29  C   LIG d   1       2.799  -0.690 -11.931  0.00  0.00    -0.058 A 
ATOM     30  H   LIG d   1       4.573   0.400 -12.406  0.00  0.00     0.065 H 
ATOM     31  C   LIG d   1       1.807  -0.927 -10.992  0.00  0.00    -0.061 A 
ATOM     32  H   LIG d   1       2.786  -1.221 -12.871  0.00  0.00     0.062 H 
ATOM     33  C   LIG d   1       1.813  -0.255  -9.789  0.00  0.00    -0.045 A 
ATOM     34  H   LIG d   1       1.026  -1.641 -11.205  0.00  0.00     0.062 H 
ATOM     35  H   LIG d   1       1.038  -0.443  -9.060  0.00  0.00     0.063 H 
BRANCH  27  36
ATOM     36  O   LIG d   1       4.805   1.811 -10.212  0.00  0.00    -0.506 OA
ATOM     37  H   LIG d   1       5.059   1.861  -9.280  0.00  0.00     0.292 HD
ENDBRANCH  27  36
ENDBRANCH  23  26
ENDBRANCH   1  22
TORSDOF 7
ENDMDL
MODEL 6
REMARK VINA RESULT:      -6.4      2.514      7.299
REMARK  7 active torsions:
REMARK  status: ('A' for Active; 'I' for Inactive)
REMARK    1  A    between atoms: C_4  and  O_20 
REMARK    2  A    between atoms: C_5  and  C_7 
REMARK    3  A    between atoms: N_8  and  C_9 
REMARK    4  A    between atoms: C_9  and  C_10 
REMARK    5  A    between atoms: C_10  and  N_11 
REMARK    6  A    between atoms: C_12  and  C_13 
REMARK    7  A    between atoms: C_18  and  O_19 
ROOT
ATOM      1  C   LIG d   1       6.203   0.106  -7.780  0.00  0.00     0.162 C 
ATOM      2  H   LIG d   1       7.114  -0.356  -8.163  0.00  0.00     0.104 H 
ATOM      3  H   LIG d   1       5.336  -0.353  -8.254  0.00  0.00     0.104 H 
ENDROOT
BRANCH   1   4
ATOM      4  C   LIG d   1       6.125  -0.098  -6.265  0.00  0.00     0.098 C 
ATOM      5  H   LIG d   1       5.735  -1.094  -6.054  0.00  0.00     0.057 H 
ATOM      6  H   LIG d   1       5.463   0.651  -5.832  0.00  0.00     0.057 H 
BRANCH   4   7
ATOM      7  N   LIG d   1       7.462   0.037  -5.685  0.00  0.00    -0.285 NA
ATOM      8  C   LIG d   1       7.608   0.095  -4.400  0.00  0.00     0.033 C 
ATOM      9  H   LIG d   1       8.586   0.264  -3.975  0.00  0.00     0.083 H 
BRANCH   8  10
ATOM     10  C   LIG d   1       6.438  -0.070  -3.518  0.00  0.00     0.034 A 
ATOM     11  C   LIG d   1       5.954  -1.351  -3.222  0.00  0.00     0.125 A 
ATOM     12  C   LIG d   1       4.853  -1.494  -2.392  0.00  0.00    -0.019 A 
ATOM     13  C   LIG d   1       4.237  -0.379  -1.860  0.00  0.00    -0.058 A 
ATOM     14  H   LIG d   1       4.477  -2.480  -2.161  0.00  0.00     0.065 H 
ATOM     15  C   LIG d   1       4.712   0.890  -2.150  0.00  0.00    -0.061 A 
ATOM     16  H   LIG d   1       3.380  -0.496  -1.214  0.00  0.00     0.062 H 
ATOM     17  C   LIG d   1       5.807   1.051  -2.974  0.00  0.00    -0.050 A 
ATOM     18  H   LIG d   1       4.222   1.756  -1.734  0.00  0.00     0.062 H 
ATOM     19  H   LIG d   1       6.173   2.041  -3.198  0.00  0.00     0.062 H 
BRANCH  11  20
ATOM     20  O   LIG d   1       6.560  -2.447  -3.745  0.00  0.00    -0.506 OA
ATOM     21  H   LIG d   1       6.177  -2.747  -4.581  0.00  0.00     0.292 HD
ENDBRANCH  11  20
ENDBRANCH   8  10
ENDBRANCH   4   7
ENDBRANCH   1   4
BRANCH   1  22
ATOM     22  N   LIG d   1       6.221   1.540  -8.079  0.00  0.00    -0.245 N 
ATOM     23  C   LIG d   1       5.479   2.013  -9.028  0.00  0.00     0.175 C 
ATOM     24  H   LIG d   1       5.670   3.000  -9.423  0.00  0.00     0.138 H 
ATOM     25  H   LIG d   1       6.790   2.136  -7.566  0.00  0.00     0.445 HD
BRANCH  23  26
ATOM     26  C   LIG d   1       4.373   1.204  -9.571  0.00  0.00     0.079 A 
ATOM     27  C   LIG d   1       3.204   1.014  -8.822  0.00  0.00     0.130 A 
ATOM     28  C   LIG d   1       2.168   0.257  -9.346  0.00  0.00    -0.019 A 
ATOM     29  C   LIG d   1       2.293  -0.318 -10.595  0.00  0.00    -0.058 A 
ATOM     30  H   LIG d   1       1.263   0.111  -8.774  0.00  0.00     0.065 H 
ATOM     31  C   LIG d   1       3.449  -0.137 -11.338  0.00  0.00    -0.061 A 
ATOM     32  H   LIG d   1       1.484  -0.911 -10.997  0.00  0.00     0.062 H 
ATOM     33  C   LIG d   1       4.486   0.619 -10.835  0.00  0.00    -0.045 A 
ATOM     34  H   LIG d   1       3.537  -0.589 -12.314  0.00  0.00     0.062 H 
ATOM     35  H   LIG d   1       5.386   0.757 -11.417  0.00  0.00     0.063 H 
BRANCH  27  36
ATOM     36  O   LIG d   1       3.086   1.574  -7.591  0.00  0.00    -0.506 OA
ATOM     37  H   LIG d   1       2.232   1.998  -7.433  0.00  0.00     0.292 HD
ENDBRANCH  27  36
ENDBRANCH  23  26
ENDBRANCH   1  22
TORSDOF 7
ENDMDL
MODEL 7
REMARK VINA RESULT:      -6.4      2.513      3.213
REMARK  7 active torsions:
REMARK  status: ('A' for Active; 'I' for Inactive)
REMARK    1  A    between atoms: C_4  and  O_20 
REMARK    2  A    between atoms: C_5  and  C_7 
REMARK    3  A    between atoms: N_8  and  C_9 
REMARK    4  A    between atoms: C_9  and  C_10 
REMARK    5  A    between atoms: C_10  and  N_11 
REMARK    6  A    between atoms: C_12  and  C_13 
REMARK    7  A    between atoms: C_18  and  O_19 
ROOT
ATOM      1  C   LIG d   1       6.080  -0.077  -6.304  0.00  0.00     0.162 C 
ATOM      2  H   LIG d   1       5.520   0.759  -5.885  0.00  0.00     0.104 H 
ATOM      3  H   LIG d   1       5.565  -1.011  -6.075  0.00  0.00     0.104 H 
ENDROOT
BRANCH   1   4
ATOM      4  C   LIG d   1       6.183   0.088  -7.822  0.00  0.00     0.098 C 
ATOM      5  H   LIG d   1       5.299  -0.340  -8.295  0.00  0.00     0.057 H 
ATOM      6  H   LIG d   1       7.073  -0.428  -8.183  0.00  0.00     0.057 H 
BRANCH   4   7
ATOM      7  N   LIG d   1       6.274   1.511  -8.153  0.00  0.00    -0.285 NA
ATOM      8  C   LIG d   1       5.447   2.033  -9.001  0.00  0.00     0.033 C 
ATOM      9  H   LIG d   1       5.557   3.066  -9.296  0.00  0.00     0.083 H 
BRANCH   8  10
ATOM     10  C   LIG d   1       4.354   1.217  -9.561  0.00  0.00     0.034 A 
ATOM     11  C   LIG d   1       3.189   0.993  -8.818  0.00  0.00     0.125 A 
ATOM     12  C   LIG d   1       2.168   0.223  -9.355  0.00  0.00    -0.019 A 
ATOM     13  C   LIG d   1       2.301  -0.318 -10.617  0.00  0.00    -0.058 A 
ATOM     14  H   LIG d   1       1.268   0.048  -8.784  0.00  0.00     0.065 H 
ATOM     15  C   LIG d   1       3.452  -0.099 -11.357  0.00  0.00    -0.061 A 
ATOM     16  H   LIG d   1       1.503  -0.917 -11.032  0.00  0.00     0.062 H 
ATOM     17  C   LIG d   1       4.477   0.664 -10.838  0.00  0.00    -0.050 A 
ATOM     18  H   LIG d   1       3.549  -0.530 -12.342  0.00  0.00     0.062 H 
ATOM     19  H   LIG d   1       5.372   0.832 -11.417  0.00  0.00     0.062 H 
BRANCH  11  20
ATOM     20  O   LIG d   1       3.059   1.526  -7.576  0.00  0.00    -0.506 OA
ATOM     21  H   LIG d   1       2.540   2.342  -7.551  0.00  0.00     0.292 HD
ENDBRANCH  11  20
ENDBRANCH   8  10
ENDBRANCH   4   7
ENDBRANCH   1   4
BRANCH   1  22
ATOM     22  N   LIG d   1       7.424  -0.106  -5.723  0.00  0.00    -0.245 N 
ATOM     23  C   LIG d   1       7.582   0.052  -4.448  0.00  0.00     0.175 C 
ATOM     24  H   LIG d   1       8.557   0.287  -4.050  0.00  0.00     0.138 H 
ATOM     25  H   LIG d   1       8.197  -0.244  -6.293  0.00  0.00     0.445 HD
BRANCH  23  26
ATOM     26  C   LIG d   1       6.430  -0.088  -3.540  0.00  0.00     0.079 A 
ATOM     27  C   LIG d   1       5.926  -1.358  -3.229  0.00  0.00     0.130 A 
ATOM     28  C   LIG d   1       4.846  -1.478  -2.369  0.00  0.00    -0.019 A 
ATOM     29  C   LIG d   1       4.261  -0.349  -1.830  0.00  0.00    -0.058 A 
ATOM     30  H   LIG d   1       4.457  -2.456  -2.123  0.00  0.00     0.065 H 
ATOM     31  C   LIG d   1       4.752   0.910  -2.138  0.00  0.00    -0.061 A 
ATOM     32  H   LIG d   1       3.417  -0.447  -1.164  0.00  0.00     0.062 H 
ATOM     33  C   LIG d   1       5.830   1.047  -2.986  0.00  0.00    -0.045 A 
ATOM     34  H   LIG d   1       4.289   1.787  -1.711  0.00  0.00     0.062 H 
ATOM     35  H   LIG d   1       6.209   2.030  -3.225  0.00  0.00     0.063 H 
BRANCH  27  36
ATOM     36  O   LIG d   1       6.498  -2.466  -3.765  0.00  0.00    -0.506 OA
ATOM     37  H   LIG d   1       5.903  -3.227  -3.822  0.00  0.00     0.292 HD
ENDBRANCH  27  36
ENDBRANCH  23  26
ENDBRANCH   1  22
TORSDOF 7
ENDMDL
MODEL 8
REMARK VINA RESULT:      -6.4      2.180      2.851
REMARK  7 active torsions:
REMARK  status: ('A' for Active; 'I' for Inactive)
REMARK    1  A    between atoms: C_4  and  O_20 
REMARK    2  A    between atoms: C_5  and  C_7 
REMARK    3  A    between atoms: N_8  and  C_9 
REMARK    4  A    between atoms: C_9  and  C_10 
REMARK    5  A    between atoms: C_10  and  N_11 
REMARK    6  A    between atoms: C_12  and  C_13 
REMARK    7  A    between atoms: C_18  and  O_19 
ROOT
ATOM      1  C   LIG d   1       6.249  -1.046  -5.705  0.00  0.00     0.162 C 
ATOM      2  H   LIG d   1       7.274  -1.415  -5.755  0.00  0.00     0.104 H 
ATOM      3  H   LIG d   1       6.136  -0.404  -4.832  0.00  0.00     0.104 H 
ENDROOT
BRANCH   1   4
ATOM      4  C   LIG d   1       5.932  -0.246  -6.971  0.00  0.00     0.098 C 
ATOM      5  H   LIG d   1       4.939   0.195  -6.882  0.00  0.00     0.057 H 
ATOM      6  H   LIG d   1       5.958  -0.910  -7.835  0.00  0.00     0.057 H 
BRANCH   4   7
ATOM      7  N   LIG d   1       6.926   0.815  -7.139  0.00  0.00    -0.285 NA
ATOM      8  C   LIG d   1       6.900   1.566  -8.194  0.00  0.00     0.033 C 
ATOM      9  H   LIG d   1       7.674   2.302  -8.351  0.00  0.00     0.083 H 
BRANCH   8  10
ATOM     10  C   LIG d   1       5.815   1.413  -9.180  0.00  0.00     0.034 A 
ATOM     11  C   LIG d   1       5.887   0.413 -10.158  0.00  0.00     0.125 A 
ATOM     12  C   LIG d   1       4.861   0.278 -11.081  0.00  0.00    -0.019 A 
ATOM     13  C   LIG d   1       3.773   1.127 -11.034  0.00  0.00    -0.058 A 
ATOM     14  H   LIG d   1       4.913  -0.492 -11.836  0.00  0.00     0.065 H 
ATOM     15  C   LIG d   1       3.697   2.117 -10.068  0.00  0.00    -0.061 A 
ATOM     16  H   LIG d   1       2.976   1.018 -11.754  0.00  0.00     0.062 H 
ATOM     17  C   LIG d   1       4.709   2.266  -9.143  0.00  0.00    -0.050 A 
ATOM     18  H   LIG d   1       2.845   2.779 -10.042  0.00  0.00     0.062 H 
ATOM     19  H   LIG d   1       4.646   3.039  -8.393  0.00  0.00     0.062 H 
BRANCH  11  20
ATOM     20  O   LIG d   1       6.957  -0.421 -10.202  0.00  0.00    -0.506 OA
ATOM     21  H   LIG d   1       6.794  -1.292  -9.813  0.00  0.00     0.292 HD
ENDBRANCH  11  20
ENDBRANCH   8  10
ENDBRANCH   4   7
ENDBRANCH   1   4
BRANCH   1  22
ATOM     22  N   LIG d   1       5.327  -2.180  -5.600  0.00  0.00    -0.245 N 
ATOM     23  C   LIG d   1       4.506  -2.256  -4.602  0.00  0.00     0.175 C 
ATOM     24  H   LIG d   1       4.015  -3.191  -4.378  0.00  0.00     0.138 H 
ATOM     25  H   LIG d   1       5.331  -2.874  -6.278  0.00  0.00     0.445 HD
BRANCH  23  26
ATOM     26  C   LIG d   1       4.242  -1.068  -3.772  0.00  0.00     0.079 A 
ATOM     27  C   LIG d   1       3.386  -0.060  -4.235  0.00  0.00     0.130 A 
ATOM     28  C   LIG d   1       3.140   1.051  -3.442  0.00  0.00    -0.019 A 
ATOM     29  C   LIG d   1       3.746   1.169  -2.208  0.00  0.00    -0.058 A 
ATOM     30  H   LIG d   1       2.476   1.828  -3.794  0.00  0.00     0.065 H 
ATOM     31  C   LIG d   1       4.598   0.177  -1.748  0.00  0.00    -0.061 A 
ATOM     32  H   LIG d   1       3.555   2.038  -1.596  0.00  0.00     0.062 H 
ATOM     33  C   LIG d   1       4.848  -0.937  -2.520  0.00  0.00    -0.045 A 
ATOM     34  H   LIG d   1       5.067   0.277  -0.781  0.00  0.00     0.062 H 
ATOM     35  H   LIG d   1       5.513  -1.708  -2.158  0.00  0.00     0.063 H 
BRANCH  27  36
ATOM     36  O   LIG d   1       2.795  -0.174  -5.452  0.00  0.00    -0.506 OA
ATOM     37  H   LIG d   1       2.662   0.670  -5.905  0.00  0.00     0.292 HD
ENDBRANCH  27  36
ENDBRANCH  23  26
ENDBRANCH   1  22
TORSDOF 7
ENDMDL
MODEL 9
REMARK VINA RESULT:      -6.4      2.045      2.468
REMARK  7 active torsions:
REMARK  status: ('A' for Active; 'I' for Inactive)
REMARK    1  A    between atoms: C_4  and  O_20 
REMARK    2  A    between atoms: C_5  and  C_7 
REMARK    3  A    between atoms: N_8  and  C_9 
REMARK    4  A    between atoms: C_9  and  C_10 
REMARK    5  A    between atoms: C_10  and  N_11 
REMARK    6  A    between atoms: C_12  and  C_13 
REMARK    7  A    between atoms: C_18  and  O_19 
ROOT
ATOM      1  C   LIG d   1       5.785  -1.091  -6.247  0.00  0.00     0.162 C 
ATOM      2  H   LIG d   1       6.559  -0.839  -6.973  0.00  0.00     0.104 H 
ATOM      3  H   LIG d   1       5.703  -0.291  -5.511  0.00  0.00     0.104 H 
ENDROOT
BRANCH   1   4
ATOM      4  C   LIG d   1       4.446  -1.262  -6.967  0.00  0.00     0.098 C 
ATOM      5  H   LIG d   1       4.069  -2.271  -6.796  0.00  0.00     0.057 H 
ATOM      6  H   LIG d   1       4.586  -1.103  -8.036  0.00  0.00     0.057 H 
BRANCH   4   7
ATOM      7  N   LIG d   1       3.485  -0.286  -6.449  0.00  0.00    -0.285 NA
ATOM      8  C   LIG d   1       2.893   0.532  -7.258  0.00  0.00     0.033 C 
ATOM      9  H   LIG d   1       2.237   1.297  -6.869  0.00  0.00     0.083 H 
BRANCH   8  10
ATOM     10  C   LIG d   1       3.115   0.420  -8.711  0.00  0.00     0.034 A 
ATOM     11  C   LIG d   1       4.187   1.091  -9.315  0.00  0.00     0.125 A 
ATOM     12  C   LIG d   1       4.386   0.978 -10.682  0.00  0.00    -0.019 A 
ATOM     13  C   LIG d   1       3.531   0.207 -11.445  0.00  0.00    -0.058 A 
ATOM     14  H   LIG d   1       5.211   1.494 -11.151  0.00  0.00     0.065 H 
ATOM     15  C   LIG d   1       2.470  -0.458 -10.853  0.00  0.00    -0.061 A 
ATOM     16  H   LIG d   1       3.690   0.122 -12.510  0.00  0.00     0.062 H 
ATOM     17  C   LIG d   1       2.257  -0.357  -9.494  0.00  0.00    -0.050 A 
ATOM     18  H   LIG d   1       1.804  -1.054 -11.458  0.00  0.00     0.062 H 
ATOM     19  H   LIG d   1       1.429  -0.876  -9.037  0.00  0.00     0.062 H 
BRANCH  11  20
ATOM     20  O   LIG d   1       5.027   1.847  -8.564  0.00  0.00    -0.506 OA
ATOM     21  H   LIG d   1       5.790   2.188  -9.050  0.00  0.00     0.292 HD
ENDBRANCH  11  20
ENDBRANCH   8  10
ENDBRANCH   4   7
ENDBRANCH   1   4
BRANCH   1  22
ATOM     22  N   LIG d   1       6.140  -2.341  -5.571  0.00  0.00    -0.245 N 
ATOM     23  C   LIG d   1       6.096  -2.414  -4.279  0.00  0.00     0.175 C 
ATOM     24  H   LIG d   1       6.591  -3.225  -3.767  0.00  0.00     0.138 H 
ATOM     25  H   LIG d   1       6.408  -3.115  -6.091  0.00  0.00     0.445 HD
BRANCH  23  26
ATOM     26  C   LIG d   1       5.371  -1.389  -3.507  0.00  0.00     0.079 A 
ATOM     27  C   LIG d   1       6.034  -0.232  -3.074  0.00  0.00     0.130 A 
ATOM     28  C   LIG d   1       5.340   0.728  -2.355  0.00  0.00    -0.019 A 
ATOM     29  C   LIG d   1       4.005   0.540  -2.056  0.00  0.00    -0.058 A 
ATOM     30  H   LIG d   1       5.846   1.623  -2.022  0.00  0.00     0.065 H 
ATOM     31  C   LIG d   1       3.347  -0.604  -2.478  0.00  0.00    -0.061 A 
ATOM     32  H   LIG d   1       3.470   1.289  -1.491  0.00  0.00     0.062 H 
ATOM     33  C   LIG d   1       4.019  -1.566  -3.200  0.00  0.00    -0.045 A 
ATOM     34  H   LIG d   1       2.303  -0.742  -2.241  0.00  0.00     0.062 H 
ATOM     35  H   LIG d   1       3.503  -2.457  -3.527  0.00  0.00     0.063 H 
BRANCH  27  36
ATOM     36  O   LIG d   1       7.348  -0.052  -3.362  0.00  0.00    -0.506 OA
ATOM     37  H   LIG d   1       7.561   0.832  -3.688  0.00  0.00     0.292 HD
ENDBRANCH  27  36
ENDBRANCH  23  26
ENDBRANCH   1  22
TORSDOF 7
ENDMDL
