MODEL 1
REMARK VINA RESULT:      -5.9      0.000      0.000
REMARK  2 active torsions:
REMARK  status: ('A' for Active; 'I' for Inactive)
REMARK    1  A    between atoms: CB_1  and  CA_2 
REMARK       I    between atoms: N_9  and  C_16 
REMARK    2  A    between atoms: C_16  and  C_18 
ROOT
ATOM      1  C   UNK d   1       3.460   0.011  -9.430  0.00  0.00     0.037 A 
ATOM      2  C   UNK d   1       2.192  -0.394  -9.009  0.00  0.00    -0.048 A 
ATOM      3  C   UNK d   1       1.293  -0.902  -9.920  0.00  0.00    -0.044 A 
ATOM      4  C   UNK d   1       1.651  -1.011 -11.266  0.00  0.00     0.052 A 
ATOM      5  C   UNK d   1       2.920  -0.607 -11.687  0.00  0.00    -0.044 A 
ATOM      6  C   UNK d   1       3.818  -0.099 -10.774  0.00  0.00    -0.048 A 
ATOM      7  C   UNK d   1       0.719  -1.545 -12.213  0.00  0.00     0.099 C 
ATOM      8  N   UNK d   1      -0.020  -1.969 -12.965  0.00  0.00    -0.191 NA
ATOM      9  H   UNK d   1       1.915  -0.309  -7.968  0.00  0.00     0.062 H 
ATOM     10  H   UNK d   1       0.312  -1.215  -9.596  0.00  0.00     0.063 H 
ATOM     11  H   UNK d   1       3.197  -0.692 -12.727  0.00  0.00     0.063 H 
ATOM     12  H   UNK d   1       4.799   0.214 -11.099  0.00  0.00     0.062 H 
ENDROOT
BRANCH   1  13
ATOM     13  C   UNK d   1       4.425   0.556  -8.449  0.00  0.00     0.247 C 
ATOM     14  N   UNK d   1       5.177  -0.281  -7.707  0.00  0.00    -0.294 N 
ATOM     15  C   UNK d   1       5.099  -1.732  -7.922  0.00  0.00     0.031 C 
ATOM     16  C   UNK d   1       6.078   0.253  -6.671  0.00  0.00     0.042 C 
ATOM     17  C   UNK d   1       4.808  -2.429  -6.588  0.00  0.00     0.031 C 
ATOM     18  H   UNK d   1       4.300  -1.953  -8.629  0.00  0.00     0.048 H 
ATOM     19  H   UNK d   1       6.047  -2.093  -8.318  0.00  0.00     0.048 H 
ATOM     20  N   UNK d   1       5.770  -1.904  -5.601  0.00  0.00    -0.285 N 
ATOM     21  H   UNK d   1       4.937  -3.507  -6.695  0.00  0.00     0.048 H 
ATOM     22  H   UNK d   1       3.789  -2.207  -6.269  0.00  0.00     0.048 H 
ATOM     23  C   ALA d   2       6.653  -2.718  -5.014  0.00  0.00     0.236 C 
ATOM     24  C   UNK d   1       5.753  -0.460  -5.356  0.00  0.00     0.118 C 
ATOM     25  CA  ALA d   2       7.912  -2.179  -4.393  0.00  0.00     0.097 C 
ATOM     26  O   ALA d   2       6.435  -3.910  -4.982  0.00  0.00    -0.274 OA
ATOM     27  HA  ALA d   2       8.687  -2.100  -5.156  0.00  0.00     0.059 H 
ATOM     28  N   ALA d   2       7.668  -0.860  -3.815  0.00  0.00    -0.303 N 
ATOM     29  C   UNK d   1       6.684  -0.066  -4.260  0.00  0.00     0.236 C 
ATOM     30  H   ALA d   2       8.232  -0.551  -3.089  0.00  0.00     0.149 HD
ATOM     31  O   UNK d   1       6.543   1.024  -3.747  0.00  0.00    -0.274 OA
ATOM     32  H   UNK d   1       4.741  -0.186  -5.061  0.00  0.00     0.061 H 
ATOM     33  H   UNK d   1       7.114   0.061  -6.949  0.00  0.00     0.049 H 
ATOM     34  H   UNK d   1       5.918   1.325  -6.560  0.00  0.00     0.049 H 
ATOM     35  O   UNK d   1       4.538   1.758  -8.312  0.00  0.00    -0.270 OA
BRANCH  25  36
ATOM     36  CB  ALA d   2       8.380  -3.135  -3.294  0.00  0.00    -0.038 C 
ATOM     37  HB1 ALA d   2       8.010  -4.138  -3.503  0.00  0.00     0.025 H 
ATOM     38  HB2 ALA d   2       9.469  -3.148  -3.263  0.00  0.00     0.025 H 
ATOM     39  HB3 ALA d   2       7.994  -2.799  -2.331  0.00  0.00     0.025 H 
ENDBRANCH  25  36
ENDBRANCH   1  13
TORSDOF 2
ENDMDL
MODEL 2
REMARK VINA RESULT:      -5.7      8.779     12.752
REMARK  2 active torsions:
REMARK  status: ('A' for Active; 'I' for Inactive)
REMARK    1  A    between atoms: CB_1  and  CA_2 
REMARK       I    between atoms: N_9  and  C_16 
REMARK    2  A    between atoms: C_16  and  C_18 
ROOT
ATOM      1  C   UNK d   1      10.461   7.985  -0.333  0.00  0.00     0.037 A 
ATOM      2  C   UNK d   1      11.538   8.551   0.351  0.00  0.00    -0.048 A 
ATOM      3  C   UNK d   1      11.512   9.883   0.698  0.00  0.00    -0.044 A 
ATOM      4  C   UNK d   1      10.406  10.669   0.363  0.00  0.00     0.052 A 
ATOM      5  C   UNK d   1       9.328  10.103  -0.322  0.00  0.00    -0.044 A 
ATOM      6  C   UNK d   1       9.356   8.770  -0.667  0.00  0.00    -0.048 A 
ATOM      7  C   UNK d   1      10.375  12.053   0.728  0.00  0.00     0.099 C 
ATOM      8  N   UNK d   1      10.351  13.152   1.018  0.00  0.00    -0.191 NA
ATOM      9  H   UNK d   1      12.393   7.943   0.611  0.00  0.00     0.062 H 
ATOM     10  H   UNK d   1      12.345  10.321   1.227  0.00  0.00     0.063 H 
ATOM     11  H   UNK d   1       8.473  10.710  -0.580  0.00  0.00     0.063 H 
ATOM     12  H   UNK d   1       8.523   8.332  -1.197  0.00  0.00     0.062 H 
ENDROOT
BRANCH   1  13
ATOM     13  C   UNK d   1      10.490   6.553  -0.704  0.00  0.00     0.247 C 
ATOM     14  N   UNK d   1      10.587   6.195  -2.000  0.00  0.00    -0.294 N 
ATOM     15  C   UNK d   1      10.741   7.220  -3.041  0.00  0.00     0.031 C 
ATOM     16  C   UNK d   1      10.533   4.773  -2.382  0.00  0.00     0.042 C 
ATOM     17  C   UNK d   1       9.662   7.023  -4.113  0.00  0.00     0.031 C 
ATOM     18  H   UNK d   1      10.635   8.209  -2.597  0.00  0.00     0.048 H 
ATOM     19  H   UNK d   1      11.725   7.128  -3.499  0.00  0.00     0.048 H 
ATOM     20  N   UNK d   1       9.687   5.600  -4.501  0.00  0.00    -0.285 N 
ATOM     21  H   UNK d   1       9.879   7.648  -4.979  0.00  0.00     0.048 H 
ATOM     22  H   UNK d   1       8.684   7.280  -3.704  0.00  0.00     0.048 H 
ATOM     23  C   ALA d   2       9.983   5.244  -5.755  0.00  0.00     0.236 C 
ATOM     24  C   UNK d   1       9.442   4.616  -3.445  0.00  0.00     0.118 C 
ATOM     25  CA  ALA d   2      10.472   3.858  -6.074  0.00  0.00     0.097 C 
ATOM     26  O   ALA d   2       9.856   6.052  -6.650  0.00  0.00    -0.274 OA
ATOM     27  HA  ALA d   2      11.554   3.817  -5.943  0.00  0.00     0.059 H 
ATOM     28  N   ALA d   2       9.842   2.883  -5.188  0.00  0.00    -0.303 N 
ATOM     29  C   UNK d   1       9.376   3.225  -3.978  0.00  0.00     0.236 C 
ATOM     30  H   ALA d   2       9.757   1.963  -5.483  0.00  0.00     0.149 HD
ATOM     31  O   UNK d   1       8.877   2.364  -3.286  0.00  0.00    -0.274 OA
ATOM     32  H   UNK d   1       8.483   4.853  -2.987  0.00  0.00     0.061 H 
ATOM     33  H   UNK d   1      11.494   4.464  -2.791  0.00  0.00     0.049 H 
ATOM     34  H   UNK d   1      10.289   4.166  -1.510  0.00  0.00     0.049 H 
ATOM     35  O   UNK d   1      10.426   5.700   0.159  0.00  0.00    -0.270 OA
BRANCH  25  36
ATOM     36  CB  ALA d   2      10.124   3.523  -7.526  0.00  0.00    -0.038 C 
ATOM     37  HB1 ALA d   2      10.159   4.431  -8.126  0.00  0.00     0.025 H 
ATOM     38  HB2 ALA d   2      10.844   2.803  -7.914  0.00  0.00     0.025 H 
ATOM     39  HB3 ALA d   2       9.123   3.096  -7.570  0.00  0.00     0.025 H 
ENDBRANCH  25  36
ENDBRANCH   1  13
TORSDOF 2
ENDMDL
MODEL 3
REMARK VINA RESULT:      -5.7      7.963     10.971
REMARK  2 active torsions:
REMARK  status: ('A' for Active; 'I' for Inactive)
REMARK    1  A    between atoms: CB_1  and  CA_2 
REMARK       I    between atoms: N_9  and  C_16 
REMARK    2  A    between atoms: C_16  and  C_18 
ROOT
ATOM      1  C   UNK d   1       9.736   4.355  -4.340  0.00  0.00     0.037 A 
ATOM      2  C   UNK d   1      10.490   3.962  -5.448  0.00  0.00    -0.048 A 
ATOM      3  C   UNK d   1      10.647   2.625  -5.736  0.00  0.00    -0.044 A 
ATOM      4  C   UNK d   1      10.052   1.661  -4.919  0.00  0.00     0.052 A 
ATOM      5  C   UNK d   1       9.297   2.054  -3.811  0.00  0.00    -0.044 A 
ATOM      6  C   UNK d   1       9.141   3.392  -3.524  0.00  0.00    -0.048 A 
ATOM      7  C   UNK d   1      10.210   0.270  -5.221  0.00  0.00     0.099 C 
ATOM      8  N   UNK d   1      10.335  -0.834  -5.461  0.00  0.00    -0.191 NA
ATOM      9  H   UNK d   1      10.950   4.708  -6.080  0.00  0.00     0.062 H 
ATOM     10  H   UNK d   1      11.230   2.321  -6.592  0.00  0.00     0.063 H 
ATOM     11  H   UNK d   1       8.836   1.308  -3.179  0.00  0.00     0.063 H 
ATOM     12  H   UNK d   1       8.558   3.696  -2.668  0.00  0.00     0.062 H 
ENDROOT
BRANCH   1  13
ATOM     13  C   UNK d   1       9.568   5.792  -4.033  0.00  0.00     0.247 C 
ATOM     14  N   UNK d   1      10.205   6.334  -2.976  0.00  0.00    -0.294 N 
ATOM     15  C   UNK d   1      11.128   5.521  -2.173  0.00  0.00     0.031 C 
ATOM     16  C   UNK d   1       9.976   7.744  -2.615  0.00  0.00     0.042 C 
ATOM     17  C   UNK d   1      10.730   5.608  -0.695  0.00  0.00     0.031 C 
ATOM     18  H   UNK d   1      11.080   4.484  -2.502  0.00  0.00     0.048 H 
ATOM     19  H   UNK d   1      12.144   5.896  -2.296  0.00  0.00     0.048 H 
ATOM     20  N   UNK d   1      10.569   7.038  -0.370  0.00  0.00    -0.285 N 
ATOM     21  H   UNK d   1      11.511   5.172  -0.072  0.00  0.00     0.048 H 
ATOM     22  H   UNK d   1       9.789   5.082  -0.534  0.00  0.00     0.048 H 
ATOM     23  C   ALA d   2      11.350   7.618   0.547  0.00  0.00     0.236 C 
ATOM     24  C   UNK d   1       9.574   7.789  -1.139  0.00  0.00     0.118 C 
ATOM     25  CA  ALA d   2      11.545   9.108   0.570  0.00  0.00     0.097 C 
ATOM     26  O   ALA d   2      11.911   6.930   1.373  0.00  0.00    -0.274 OA
ATOM     27  HA  ALA d   2      12.357   9.378  -0.105  0.00  0.00     0.059 H 
ATOM     28  N   ALA d   2      10.322   9.786   0.148  0.00  0.00    -0.303 N 
ATOM     29  C   UNK d   1       9.420   9.186  -0.642  0.00  0.00     0.236 C 
ATOM     30  H   ALA d   2      10.157  10.693   0.448  0.00  0.00     0.149 HD
ATOM     31  O   UNK d   1       8.432   9.809  -0.969  0.00  0.00    -0.274 OA
ATOM     32  H   UNK d   1       8.617   7.280  -1.030  0.00  0.00     0.061 H 
ATOM     33  H   UNK d   1      10.891   8.317  -2.766  0.00  0.00     0.049 H 
ATOM     34  H   UNK d   1       9.176   8.156  -3.229  0.00  0.00     0.049 H 
ATOM     35  O   UNK d   1       8.853   6.484  -4.731  0.00  0.00    -0.270 OA
BRANCH  25  36
ATOM     36  CB  ALA d   2      11.903   9.548   1.992  0.00  0.00    -0.038 C 
ATOM     37  HB1 ALA d   2      11.019   9.479   2.626  0.00  0.00     0.025 H 
ATOM     38  HB2 ALA d   2      12.684   8.900   2.386  0.00  0.00     0.025 H 
ATOM     39  HB3 ALA d   2      12.258  10.578   1.976  0.00  0.00     0.025 H 
ENDBRANCH  25  36
ENDBRANCH   1  13
TORSDOF 2
ENDMDL
MODEL 4
REMARK VINA RESULT:      -5.6     11.468     13.977
REMARK  2 active torsions:
REMARK  status: ('A' for Active; 'I' for Inactive)
REMARK    1  A    between atoms: CB_1  and  CA_2 
REMARK       I    between atoms: N_9  and  C_16 
REMARK    2  A    between atoms: C_16  and  C_18 
ROOT
ATOM      1  C   UNK d   1      11.133   6.775  -2.526  0.00  0.00     0.037 A 
ATOM      2  C   UNK d   1       9.959   6.962  -1.794  0.00  0.00    -0.048 A 
ATOM      3  C   UNK d   1       9.943   6.715  -0.439  0.00  0.00    -0.044 A 
ATOM      4  C   UNK d   1      11.104   6.276   0.202  0.00  0.00     0.052 A 
ATOM      5  C   UNK d   1      12.279   6.090  -0.529  0.00  0.00    -0.044 A 
ATOM      6  C   UNK d   1      12.293   6.338  -1.885  0.00  0.00    -0.048 A 
ATOM      7  C   UNK d   1      11.091   6.025   1.612  0.00  0.00     0.099 C 
ATOM      8  N   UNK d   1      11.080   5.825   2.731  0.00  0.00    -0.191 NA
ATOM      9  H   UNK d   1       9.060   7.301  -2.290  0.00  0.00     0.062 H 
ATOM     10  H   UNK d   1       9.035   6.858   0.126  0.00  0.00     0.063 H 
ATOM     11  H   UNK d   1      13.177   5.752  -0.033  0.00  0.00     0.063 H 
ATOM     12  H   UNK d   1      13.201   6.194  -2.450  0.00  0.00     0.062 H 
ENDROOT
BRANCH   1  13
ATOM     13  C   UNK d   1      11.148   7.042  -3.980  0.00  0.00     0.247 C 
ATOM     14  N   UNK d   1      11.019   8.304  -4.436  0.00  0.00    -0.294 N 
ATOM     15  C   UNK d   1      10.942   9.426  -3.491  0.00  0.00     0.031 C 
ATOM     16  C   UNK d   1      10.949   8.567  -5.883  0.00  0.00     0.042 C 
ATOM     17  C   UNK d   1       9.693  10.263  -3.795  0.00  0.00     0.031 C 
ATOM     18  H   UNK d   1      10.882   9.042  -2.473  0.00  0.00     0.048 H 
ATOM     19  H   UNK d   1      11.828  10.051  -3.594  0.00  0.00     0.048 H 
ATOM     20  N   UNK d   1       9.699  10.546  -5.242  0.00  0.00    -0.285 N 
ATOM     21  H   UNK d   1       9.725  11.197  -3.233  0.00  0.00     0.048 H 
ATOM     22  H   UNK d   1       8.798   9.700  -3.530  0.00  0.00     0.048 H 
ATOM     23  C   ALA d   2       9.774  11.805  -5.687  0.00  0.00     0.236 C 
ATOM     24  C   UNK d   1       9.690   9.396  -6.148  0.00  0.00     0.118 C 
ATOM     25  CA  ALA d   2      10.249  12.109  -7.081  0.00  0.00     0.097 C 
ATOM     26  O   ALA d   2       9.456  12.716  -4.954  0.00  0.00    -0.274 OA
ATOM     27  HA  ALA d   2      11.337  12.178  -7.087  0.00  0.00     0.059 H 
ATOM     28  N   ALA d   2       9.828  11.055  -8.000  0.00  0.00    -0.303 N 
ATOM     29  C   UNK d   1       9.579   9.807  -7.577  0.00  0.00     0.236 C 
ATOM     30  H   ALA d   2       9.725  11.262  -8.942  0.00  0.00     0.149 HD
ATOM     31  O   UNK d   1       9.247   8.974  -8.393  0.00  0.00    -0.274 OA
ATOM     32  H   UNK d   1       8.822   8.786  -5.899  0.00  0.00     0.061 H 
ATOM     33  H   UNK d   1      11.831   9.124  -6.200  0.00  0.00     0.049 H 
ATOM     34  H   UNK d   1      10.893   7.624  -6.427  0.00  0.00     0.049 H 
ATOM     35  O   UNK d   1      11.275   6.123  -4.766  0.00  0.00    -0.270 OA
BRANCH  25  36
ATOM     36  CB  ALA d   2       9.654  13.444  -7.536  0.00  0.00    -0.038 C 
ATOM     37  HB1 ALA d   2      10.458  14.153  -7.727  0.00  0.00     0.025 H 
ATOM     38  HB2 ALA d   2       9.078  13.292  -8.448  0.00  0.00     0.025 H 
ATOM     39  HB3 ALA d   2       9.002  13.836  -6.755  0.00  0.00     0.025 H 
ENDBRANCH  25  36
ENDBRANCH   1  13
TORSDOF 2
ENDMDL
MODEL 5
REMARK VINA RESULT:      -5.5      9.353     12.622
REMARK  2 active torsions:
REMARK  status: ('A' for Active; 'I' for Inactive)
REMARK    1  A    between atoms: CB_1  and  CA_2 
REMARK       I    between atoms: N_9  and  C_16 
REMARK    2  A    between atoms: C_16  and  C_18 
ROOT
ATOM      1  C   UNK d   1      10.838   4.878  -2.257  0.00  0.00     0.037 A 
ATOM      2  C   UNK d   1       9.944   3.914  -2.727  0.00  0.00    -0.048 A 
ATOM      3  C   UNK d   1      10.402   2.859  -3.485  0.00  0.00    -0.044 A 
ATOM      4  C   UNK d   1      11.763   2.755  -3.785  0.00  0.00     0.052 A 
ATOM      5  C   UNK d   1      12.657   3.719  -3.314  0.00  0.00    -0.044 A 
ATOM      6  C   UNK d   1      12.197   4.773  -2.556  0.00  0.00    -0.048 A 
ATOM      7  C   UNK d   1      12.241   1.656  -4.568  0.00  0.00     0.099 C 
ATOM      8  N   UNK d   1      12.620   0.784  -5.190  0.00  0.00    -0.191 NA
ATOM      9  H   UNK d   1       8.892   3.994  -2.495  0.00  0.00     0.062 H 
ATOM     10  H   UNK d   1       9.711   2.115  -3.849  0.00  0.00     0.063 H 
ATOM     11  H   UNK d   1      13.709   3.638  -3.545  0.00  0.00     0.063 H 
ATOM     12  H   UNK d   1      12.889   5.518  -2.192  0.00  0.00     0.062 H 
ENDROOT
BRANCH   1  13
ATOM     13  C   UNK d   1      10.345   6.009  -1.442  0.00  0.00     0.247 C 
ATOM     14  N   UNK d   1       9.956   7.152  -2.041  0.00  0.00    -0.294 N 
ATOM     15  C   UNK d   1       9.947   7.252  -3.507  0.00  0.00     0.031 C 
ATOM     16  C   UNK d   1       9.543   8.311  -1.231  0.00  0.00     0.042 C 
ATOM     17  C   UNK d   1      10.750   8.485  -3.938  0.00  0.00     0.031 C 
ATOM     18  H   UNK d   1      10.396   6.357  -3.936  0.00  0.00     0.048 H 
ATOM     19  H   UNK d   1       8.920   7.349  -3.858  0.00  0.00     0.048 H 
ATOM     20  N   UNK d   1      10.261   9.625  -3.140  0.00  0.00    -0.285 N 
ATOM     21  H   UNK d   1      10.593   8.680  -4.999  0.00  0.00     0.048 H 
ATOM     22  H   UNK d   1      11.810   8.322  -3.743  0.00  0.00     0.048 H 
ATOM     23  C   ALA d   2       9.690  10.677  -3.738  0.00  0.00     0.236 C 
ATOM     24  C   UNK d   1      10.370   9.517  -1.684  0.00  0.00     0.118 C 
ATOM     25  CA  ALA d   2       8.782  11.603  -2.977  0.00  0.00     0.097 C 
ATOM     26  O   ALA d   2       9.906  10.885  -4.912  0.00  0.00    -0.274 OA
ATOM     27  HA  ALA d   2       7.767  11.207  -2.990  0.00  0.00     0.059 H 
ATOM     28  N   ALA d   2       9.233  11.731  -1.594  0.00  0.00    -0.303 N 
ATOM     29  C   UNK d   1       9.954  10.772  -0.995  0.00  0.00     0.236 C 
ATOM     30  H   ALA d   2       9.006  12.531  -1.095  0.00  0.00     0.149 HD
ATOM     31  O   UNK d   1      10.285  10.933   0.160  0.00  0.00    -0.274 OA
ATOM     32  H   UNK d   1      11.414   9.324  -1.443  0.00  0.00     0.061 H 
ATOM     33  H   UNK d   1       8.483   8.511  -1.386  0.00  0.00     0.049 H 
ATOM     34  H   UNK d   1       9.731   8.109  -0.176  0.00  0.00     0.049 H 
ATOM     35  O   UNK d   1      10.292   5.909  -0.232  0.00  0.00    -0.270 OA
BRANCH  25  36
ATOM     36  CB  ALA d   2       8.797  12.981  -3.644  0.00  0.00    -0.038 C 
ATOM     37  HB1 ALA d   2       7.788  13.393  -3.648  0.00  0.00     0.025 H 
ATOM     38  HB2 ALA d   2       9.459  13.645  -3.089  0.00  0.00     0.025 H 
ATOM     39  HB3 ALA d   2       9.154  12.885  -4.669  0.00  0.00     0.025 H 
ENDBRANCH  25  36
ENDBRANCH   1  13
TORSDOF 2
ENDMDL
MODEL 6
REMARK VINA RESULT:      -5.4      1.591      2.102
REMARK  2 active torsions:
REMARK  status: ('A' for Active; 'I' for Inactive)
REMARK    1  A    between atoms: CB_1  and  CA_2 
REMARK       I    between atoms: N_9  and  C_16 
REMARK    2  A    between atoms: C_16  and  C_18 
ROOT
ATOM      1  C   UNK d   1       2.547  -0.573 -10.516  0.00  0.00     0.037 A 
ATOM      2  C   UNK d   1       3.364  -0.507 -11.646  0.00  0.00    -0.048 A 
ATOM      3  C   UNK d   1       3.020  -1.196 -12.788  0.00  0.00    -0.044 A 
ATOM      4  C   UNK d   1       1.852  -1.962 -12.813  0.00  0.00     0.052 A 
ATOM      5  C   UNK d   1       1.034  -2.028 -11.683  0.00  0.00    -0.044 A 
ATOM      6  C   UNK d   1       1.381  -1.337 -10.542  0.00  0.00    -0.048 A 
ATOM      7  C   UNK d   1       1.489  -2.675 -14.002  0.00  0.00     0.099 C 
ATOM      8  N   UNK d   1       1.202  -3.240 -14.944  0.00  0.00    -0.191 NA
ATOM      9  H   UNK d   1       4.268   0.086 -11.627  0.00  0.00     0.062 H 
ATOM     10  H   UNK d   1       3.651  -1.145 -13.662  0.00  0.00     0.063 H 
ATOM     11  H   UNK d   1       0.131  -2.620 -11.703  0.00  0.00     0.063 H 
ATOM     12  H   UNK d   1       0.749  -1.389  -9.668  0.00  0.00     0.062 H 
ENDROOT
BRANCH   1  13
ATOM     13  C   UNK d   1       2.919   0.169  -9.291  0.00  0.00     0.247 C 
ATOM     14  N   UNK d   1       3.811  -0.358  -8.429  0.00  0.00    -0.294 N 
ATOM     15  C   UNK d   1       4.476  -1.631  -8.739  0.00  0.00     0.031 C 
ATOM     16  C   UNK d   1       4.122   0.337  -7.168  0.00  0.00     0.042 C 
ATOM     17  C   UNK d   1       4.289  -2.601  -7.567  0.00  0.00     0.031 C 
ATOM     18  H   UNK d   1       4.038  -2.060  -9.639  0.00  0.00     0.048 H 
ATOM     19  H   UNK d   1       5.539  -1.457  -8.897  0.00  0.00     0.048 H 
ATOM     20  N   UNK d   1       4.666  -1.878  -6.337  0.00  0.00    -0.285 N 
ATOM     21  H   UNK d   1       4.932  -3.472  -7.697  0.00  0.00     0.048 H 
ATOM     22  H   UNK d   1       3.246  -2.914  -7.509  0.00  0.00     0.048 H 
ATOM     23  C   ALA d   2       5.691  -2.300  -5.589  0.00  0.00     0.236 C 
ATOM     24  C   UNK d   1       3.918  -0.660  -6.024  0.00  0.00     0.118 C 
ATOM     25  CA  ALA d   2       6.390  -1.371  -4.636  0.00  0.00     0.097 C 
ATOM     26  O   ALA d   2       6.063  -3.450  -5.683  0.00  0.00    -0.274 OA
ATOM     27  HA  ALA d   2       7.170  -0.826  -5.168  0.00  0.00     0.059 H 
ATOM     28  N   ALA d   2       5.439  -0.420  -4.066  0.00  0.00    -0.303 N 
ATOM     29  C   UNK d   1       4.308  -0.085  -4.704  0.00  0.00     0.236 C 
ATOM     30  H   ALA d   2       5.630  -0.020  -3.204  0.00  0.00     0.149 HD
ATOM     31  O   UNK d   1       3.568   0.722  -4.184  0.00  0.00    -0.274 OA
ATOM     32  H   UNK d   1       2.861  -0.920  -5.984  0.00  0.00     0.061 H 
ATOM     33  H   UNK d   1       5.157   0.677  -7.180  0.00  0.00     0.049 H 
ATOM     34  H   UNK d   1       3.454   1.188  -7.041  0.00  0.00     0.049 H 
ATOM     35  O   UNK d   1       2.418   1.252  -9.061  0.00  0.00    -0.270 OA
BRANCH  25  36
ATOM     36  CB  ALA d   2       7.024  -2.190  -3.509  0.00  0.00    -0.038 C 
ATOM     37  HB1 ALA d   2       6.364  -2.185  -2.642  0.00  0.00     0.025 H 
ATOM     38  HB2 ALA d   2       7.175  -3.215  -3.846  0.00  0.00     0.025 H 
ATOM     39  HB3 ALA d   2       7.984  -1.752  -3.236  0.00  0.00     0.025 H 
ENDBRANCH  25  36
ENDBRANCH   1  13
TORSDOF 2
ENDMDL
MODEL 7
REMARK VINA RESULT:      -5.4      7.621     10.401
REMARK  2 active torsions:
REMARK  status: ('A' for Active; 'I' for Inactive)
REMARK    1  A    between atoms: CB_1  and  CA_2 
REMARK       I    between atoms: N_9  and  C_16 
REMARK    2  A    between atoms: C_16  and  C_18 
ROOT
ATOM      1  C   UNK d   1       9.866   3.552  -4.613  0.00  0.00     0.037 A 
ATOM      2  C   UNK d   1      10.611   4.070  -5.673  0.00  0.00    -0.048 A 
ATOM      3  C   UNK d   1      10.271   3.762  -6.971  0.00  0.00    -0.044 A 
ATOM      4  C   UNK d   1       9.178   2.930  -7.226  0.00  0.00     0.052 A 
ATOM      5  C   UNK d   1       8.432   2.412  -6.166  0.00  0.00    -0.044 A 
ATOM      6  C   UNK d   1       8.774   2.722  -4.867  0.00  0.00    -0.048 A 
ATOM      7  C   UNK d   1       8.819   2.614  -8.576  0.00  0.00     0.099 C 
ATOM      8  N   UNK d   1       8.534   2.363  -9.647  0.00  0.00    -0.191 NA
ATOM      9  H   UNK d   1      11.457   4.714  -5.476  0.00  0.00     0.062 H 
ATOM     10  H   UNK d   1      10.848   4.162  -7.791  0.00  0.00     0.063 H 
ATOM     11  H   UNK d   1       7.586   1.769  -6.363  0.00  0.00     0.063 H 
ATOM     12  H   UNK d   1       8.197   2.321  -4.047  0.00  0.00     0.062 H 
ENDROOT
BRANCH   1  13
ATOM     13  C   UNK d   1      10.233   3.885  -3.219  0.00  0.00     0.247 C 
ATOM     14  N   UNK d   1      10.025   5.130  -2.746  0.00  0.00    -0.294 N 
ATOM     15  C   UNK d   1       9.363   6.138  -3.585  0.00  0.00     0.031 C 
ATOM     16  C   UNK d   1      10.464   5.490  -1.387  0.00  0.00     0.042 C 
ATOM     17  C   UNK d   1      10.235   7.397  -3.651  0.00  0.00     0.031 C 
ATOM     18  H   UNK d   1       9.222   5.741  -4.589  0.00  0.00     0.048 H 
ATOM     19  H   UNK d   1       8.395   6.392  -3.154  0.00  0.00     0.048 H 
ATOM     20  N   UNK d   1      10.601   7.748  -2.266  0.00  0.00    -0.285 N 
ATOM     21  H   UNK d   1       9.675   8.215  -4.105  0.00  0.00     0.048 H 
ATOM     22  H   UNK d   1      11.135   7.194  -4.233  0.00  0.00     0.048 H 
ATOM     23  C   ALA d   2      10.214   8.913  -1.736  0.00  0.00     0.236 C 
ATOM     24  C   UNK d   1      11.336   6.744  -1.495  0.00  0.00     0.118 C 
ATOM     25  CA  ALA d   2      10.148   9.105  -0.246  0.00  0.00     0.097 C 
ATOM     26  O   ALA d   2       9.910   9.830  -2.469  0.00  0.00    -0.274 OA
ATOM     27  HA  ALA d   2       9.180   8.764   0.121  0.00  0.00     0.059 H 
ATOM     28  N   ALA d   2      11.209   8.344   0.410  0.00  0.00    -0.303 N 
ATOM     29  C   UNK d   1      11.750   7.255  -0.156  0.00  0.00     0.236 C 
ATOM     30  H   ALA d   2      11.531   8.633   1.277  0.00  0.00     0.149 HD
ATOM     31  O   UNK d   1      12.616   6.659   0.447  0.00  0.00    -0.274 OA
ATOM     32  H   UNK d   1      12.234   6.487  -2.055  0.00  0.00     0.061 H 
ATOM     33  H   UNK d   1       9.596   5.697  -0.761  0.00  0.00     0.049 H 
ATOM     34  H   UNK d   1      11.043   4.673  -0.958  0.00  0.00     0.049 H 
ATOM     35  O   UNK d   1      10.724   3.036  -2.500  0.00  0.00    -0.270 OA
BRANCH  25  36
ATOM     36  CB  ALA d   2      10.318  10.591   0.079  0.00  0.00    -0.038 C 
ATOM     37  HB1 ALA d   2      10.347  10.725   1.159  0.00  0.00     0.025 H 
ATOM     38  HB2 ALA d   2      11.247  10.954  -0.358  0.00  0.00     0.025 H 
ATOM     39  HB3 ALA d   2       9.479  11.151  -0.334  0.00  0.00     0.025 H 
ENDBRANCH  25  36
ENDBRANCH   1  13
TORSDOF 2
ENDMDL
MODEL 8
REMARK VINA RESULT:      -5.4     10.238     11.492
REMARK  2 active torsions:
REMARK  status: ('A' for Active; 'I' for Inactive)
REMARK    1  A    between atoms: CB_1  and  CA_2 
REMARK       I    between atoms: N_9  and  C_16 
REMARK    2  A    between atoms: C_16  and  C_18 
ROOT
ATOM      1  C   UNK d   1      10.416   9.191  -6.553  0.00  0.00     0.037 A 
ATOM      2  C   UNK d   1      11.494   9.228  -7.439  0.00  0.00    -0.048 A 
ATOM      3  C   UNK d   1      11.353   8.738  -8.718  0.00  0.00    -0.044 A 
ATOM      4  C   UNK d   1      10.129   8.203  -9.128  0.00  0.00     0.052 A 
ATOM      5  C   UNK d   1       9.050   8.167  -8.242  0.00  0.00    -0.044 A 
ATOM      6  C   UNK d   1       9.193   8.658  -6.963  0.00  0.00    -0.048 A 
ATOM      7  C   UNK d   1       9.979   7.699 -10.460  0.00  0.00     0.099 C 
ATOM      8  N   UNK d   1       9.860   7.299 -11.517  0.00  0.00    -0.191 NA
ATOM      9  H   UNK d   1      12.441   9.641  -7.121  0.00  0.00     0.062 H 
ATOM     10  H   UNK d   1      12.186   8.766  -9.403  0.00  0.00     0.063 H 
ATOM     11  H   UNK d   1       8.103   7.755  -8.560  0.00  0.00     0.063 H 
ATOM     12  H   UNK d   1       8.359   8.630  -6.278  0.00  0.00     0.062 H 
ENDROOT
BRANCH   1  13
ATOM     13  C   UNK d   1      10.569   9.719  -5.179  0.00  0.00     0.247 C 
ATOM     14  N   UNK d   1      10.823   8.876  -4.158  0.00  0.00    -0.294 N 
ATOM     15  C   UNK d   1      11.025   7.444  -4.415  0.00  0.00     0.031 C 
ATOM     16  C   UNK d   1      10.894   9.384  -2.778  0.00  0.00     0.042 C 
ATOM     17  C   UNK d   1      10.079   6.629  -3.525  0.00  0.00     0.031 C 
ATOM     18  H   UNK d   1      10.815   7.228  -5.462  0.00  0.00     0.048 H 
ATOM     19  H   UNK d   1      12.056   7.175  -4.187  0.00  0.00     0.048 H 
ATOM     20  N   UNK d   1      10.229   7.136  -2.148  0.00  0.00    -0.285 N 
ATOM     21  H   UNK d   1      10.349   5.573  -3.563  0.00  0.00     0.048 H 
ATOM     22  H   UNK d   1       9.050   6.762  -3.861  0.00  0.00     0.048 H 
ATOM     23  C   ALA d   2      10.676   6.337  -1.175  0.00  0.00     0.236 C 
ATOM     24  C   UNK d   1       9.933   8.553  -1.924  0.00  0.00     0.118 C 
ATOM     25  CA  ALA d   2      11.278   6.904   0.081  0.00  0.00     0.097 C 
ATOM     26  O   ALA d   2      10.597   5.134  -1.308  0.00  0.00    -0.274 OA
ATOM     27  HA  ALA d   2      12.340   7.090  -0.078  0.00  0.00     0.059 H 
ATOM     28  N   ALA d   2      10.617   8.156   0.438  0.00  0.00    -0.303 N 
ATOM     29  C   UNK d   1      10.006   8.919  -0.480  0.00  0.00     0.236 C 
ATOM     30  H   ALA d   2      10.618   8.444   1.364  0.00  0.00     0.149 HD
ATOM     31  O   UNK d   1       9.488   9.955  -0.120  0.00  0.00    -0.274 OA
ATOM     32  H   UNK d   1       8.918   8.739  -2.273  0.00  0.00     0.061 H 
ATOM     33  H   UNK d   1      11.910   9.280  -2.398  0.00  0.00     0.049 H 
ATOM     34  H   UNK d   1      10.596  10.432  -2.755  0.00  0.00     0.049 H 
ATOM     35  O   UNK d   1      10.465  10.912  -4.971  0.00  0.00    -0.270 OA
BRANCH  25  36
ATOM     36  CB  ALA d   2      11.106   5.897   1.221  0.00  0.00    -0.038 C 
ATOM     37  HB1 ALA d   2      10.172   5.353   1.086  0.00  0.00     0.025 H 
ATOM     38  HB2 ALA d   2      11.939   5.197   1.215  0.00  0.00     0.025 H 
ATOM     39  HB3 ALA d   2      11.083   6.427   2.173  0.00  0.00     0.025 H 
ENDBRANCH  25  36
ENDBRANCH   1  13
TORSDOF 2
ENDMDL
MODEL 9
REMARK VINA RESULT:      -5.3     13.410     14.967
REMARK  2 active torsions:
REMARK  status: ('A' for Active; 'I' for Inactive)
REMARK    1  A    between atoms: CB_1  and  CA_2 
REMARK       I    between atoms: N_9  and  C_16 
REMARK    2  A    between atoms: C_16  and  C_18 
ROOT
ATOM      1  C   UNK d   1      -6.186   5.839 -15.270  0.00  0.00     0.037 A 
ATOM      2  C   UNK d   1      -6.391   4.768 -16.141  0.00  0.00    -0.048 A 
ATOM      3  C   UNK d   1      -6.780   3.542 -15.647  0.00  0.00    -0.044 A 
ATOM      4  C   UNK d   1      -6.968   3.372 -14.273  0.00  0.00     0.052 A 
ATOM      5  C   UNK d   1      -6.764   4.444 -13.402  0.00  0.00    -0.044 A 
ATOM      6  C   UNK d   1      -6.376   5.670 -13.898  0.00  0.00    -0.048 A 
ATOM      7  C   UNK d   1      -7.379   2.100 -13.760  0.00  0.00     0.099 C 
ATOM      8  N   UNK d   1      -7.704   1.090 -13.352  0.00  0.00    -0.191 NA
ATOM      9  H   UNK d   1      -6.245   4.899 -17.204  0.00  0.00     0.062 H 
ATOM     10  H   UNK d   1      -6.937   2.713 -16.321  0.00  0.00     0.063 H 
ATOM     11  H   UNK d   1      -6.911   4.313 -12.340  0.00  0.00     0.063 H 
ATOM     12  H   UNK d   1      -6.217   6.498 -13.224  0.00  0.00     0.062 H 
ENDROOT
BRANCH   1  13
ATOM     13  C   UNK d   1      -5.769   7.155 -15.802  0.00  0.00     0.247 C 
ATOM     14  N   UNK d   1      -4.460   7.465 -15.884  0.00  0.00    -0.294 N 
ATOM     15  C   UNK d   1      -3.441   6.471 -15.519  0.00  0.00     0.031 C 
ATOM     16  C   UNK d   1      -4.042   8.803 -16.334  0.00  0.00     0.042 C 
ATOM     17  C   UNK d   1      -2.486   7.079 -14.485  0.00  0.00     0.031 C 
ATOM     18  H   UNK d   1      -3.926   5.593 -15.094  0.00  0.00     0.048 H 
ATOM     19  H   UNK d   1      -2.878   6.185 -16.406  0.00  0.00     0.048 H 
ATOM     20  N   UNK d   1      -2.052   8.388 -15.007  0.00  0.00    -0.285 N 
ATOM     21  H   UNK d   1      -1.621   6.428 -14.349  0.00  0.00     0.048 H 
ATOM     22  H   UNK d   1      -3.005   7.210 -13.535  0.00  0.00     0.048 H 
ATOM     23  C   ALA d   2      -0.763   8.619 -15.275  0.00  0.00     0.236 C 
ATOM     24  C   UNK d   1      -3.097   9.378 -15.275  0.00  0.00     0.118 C 
ATOM     25  CA  ALA d   2      -0.350   9.716 -16.218  0.00  0.00     0.097 C 
ATOM     26  O   ALA d   2       0.087   7.932 -14.751  0.00  0.00    -0.274 OA
ATOM     27  HA  ALA d   2      -0.363   9.338 -17.240  0.00  0.00     0.059 H 
ATOM     28  N   ALA d   2      -1.267  10.848 -16.110  0.00  0.00    -0.303 N 
ATOM     29  C   UNK d   1      -2.530  10.695 -15.686  0.00  0.00     0.236 C 
ATOM     30  H   ALA d   2      -0.955  11.733 -16.350  0.00  0.00     0.149 HD
ATOM     31  O   UNK d   1      -3.245  11.673 -15.633  0.00  0.00    -0.274 OA
ATOM     32  H   UNK d   1      -3.663   9.521 -14.356  0.00  0.00     0.061 H 
ATOM     33  H   UNK d   1      -3.522   8.726 -17.289  0.00  0.00     0.049 H 
ATOM     34  H   UNK d   1      -4.915   9.447 -16.439  0.00  0.00     0.049 H 
ATOM     35  O   UNK d   1      -6.608   7.957 -16.165  0.00  0.00    -0.270 OA
BRANCH  25  36
ATOM     36  CB  ALA d   2       1.066  10.176 -15.865  0.00  0.00    -0.038 C 
ATOM     37  HB1 ALA d   2       1.325  11.047 -16.467  0.00  0.00     0.025 H 
ATOM     38  HB2 ALA d   2       1.109  10.438 -14.809  0.00  0.00     0.025 H 
ATOM     39  HB3 ALA d   2       1.771   9.371 -16.069  0.00  0.00     0.025 H 
ENDBRANCH  25  36
ENDBRANCH   1  13
TORSDOF 2
ENDMDL
MODEL 10
REMARK VINA RESULT:      -5.3      8.609     12.163
REMARK  2 active torsions:
REMARK  status: ('A' for Active; 'I' for Inactive)
REMARK    1  A    between atoms: CB_1  and  CA_2 
REMARK       I    between atoms: N_9  and  C_16 
REMARK    2  A    between atoms: C_16  and  C_18 
ROOT
ATOM      1  C   UNK d   1      10.234   5.514  -3.813  0.00  0.00     0.037 A 
ATOM      2  C   UNK d   1       9.383   6.421  -3.178  0.00  0.00    -0.048 A 
ATOM      3  C   UNK d   1       9.657   6.842  -1.896  0.00  0.00    -0.044 A 
ATOM      4  C   UNK d   1      10.787   6.360  -1.231  0.00  0.00     0.052 A 
ATOM      5  C   UNK d   1      11.639   5.453  -1.866  0.00  0.00    -0.044 A 
ATOM      6  C   UNK d   1      11.363   5.033  -3.149  0.00  0.00    -0.048 A 
ATOM      7  C   UNK d   1      11.077   6.802   0.100  0.00  0.00     0.099 C 
ATOM      8  N   UNK d   1      11.306   7.153   1.157  0.00  0.00    -0.191 NA
ATOM      9  H   UNK d   1       8.509   6.793  -3.693  0.00  0.00     0.062 H 
ATOM     10  H   UNK d   1       8.999   7.543  -1.405  0.00  0.00     0.063 H 
ATOM     11  H   UNK d   1      12.513   5.081  -1.352  0.00  0.00     0.063 H 
ATOM     12  H   UNK d   1      12.021   4.332  -3.640  0.00  0.00     0.062 H 
ENDROOT
BRANCH   1  13
ATOM     13  C   UNK d   1       9.938   5.063  -5.190  0.00  0.00     0.247 C 
ATOM     14  N   UNK d   1      10.279   5.836  -6.240  0.00  0.00    -0.294 N 
ATOM     15  C   UNK d   1      11.013   7.091  -6.027  0.00  0.00     0.031 C 
ATOM     16  C   UNK d   1       9.913   5.432  -7.609  0.00  0.00     0.042 C 
ATOM     17  C   UNK d   1      10.267   8.241  -6.713  0.00  0.00     0.031 C 
ATOM     18  H   UNK d   1      11.088   7.291  -4.959  0.00  0.00     0.048 H 
ATOM     19  H   UNK d   1      12.012   7.005  -6.453  0.00  0.00     0.048 H 
ATOM     20  N   UNK d   1       9.974   7.810  -8.093  0.00  0.00    -0.285 N 
ATOM     21  H   UNK d   1      10.891   9.134  -6.727  0.00  0.00     0.048 H 
ATOM     22  H   UNK d   1       9.337   8.446  -6.182  0.00  0.00     0.048 H 
ATOM     23  C   ALA d   2      10.486   8.473  -9.134  0.00  0.00     0.236 C 
ATOM     24  C   UNK d   1       9.165   6.601  -8.257  0.00  0.00     0.118 C 
ATOM     25  CA  ALA d   2      10.610   7.823 -10.484  0.00  0.00     0.097 C 
ATOM     26  O   ALA d   2      10.859   9.618  -8.987  0.00  0.00    -0.274 OA
ATOM     27  HA  ALA d   2      11.550   7.273 -10.537  0.00  0.00     0.059 H 
ATOM     28  N   ALA d   2       9.498   6.902 -10.706  0.00  0.00    -0.303 N 
ATOM     29  C   UNK d   1       8.839   6.333  -9.687  0.00  0.00     0.236 C 
ATOM     30  H   ALA d   2       9.229   6.697 -11.615  0.00  0.00     0.149 HD
ATOM     31  O   UNK d   1       7.935   5.566  -9.939  0.00  0.00    -0.274 OA
ATOM     32  H   UNK d   1       8.232   6.750  -7.715  0.00  0.00     0.061 H 
ATOM     33  H   UNK d   1      10.813   5.208  -8.181  0.00  0.00     0.049 H 
ATOM     34  H   UNK d   1       9.268   4.554  -7.574  0.00  0.00     0.049 H 
ATOM     35  O   UNK d   1       9.386   3.996  -5.376  0.00  0.00    -0.270 OA
BRANCH  25  36
ATOM     36  CB  ALA d   2      10.595   8.905 -11.567  0.00  0.00    -0.038 C 
ATOM     37  HB1 ALA d   2       9.761   9.583 -11.391  0.00  0.00     0.025 H 
ATOM     38  HB2 ALA d   2      11.531   9.462 -11.536  0.00  0.00     0.025 H 
ATOM     39  HB3 ALA d   2      10.483   8.438 -12.546  0.00  0.00     0.025 H 
ENDBRANCH  25  36
ENDBRANCH   1  13
TORSDOF 2
ENDMDL
