MODEL 1
REMARK VINA RESULT:      -4.0      0.000      0.000
REMARK  7 active torsions:
REMARK  status: ('A' for Active; 'I' for Inactive)
REMARK    1  A    between atoms: C1_1  and  C2_2 
REMARK    2  A    between atoms: C1_1  and  C6_9 
REMARK    3  A    between atoms: C2_2  and  S1_3 
REMARK    4  A    between atoms: S1_3  and  C3_4 
REMARK    5  A    between atoms: C3_4  and  C4_5 
REMARK    6  A    between atoms: C4_5  and  C5_7 
REMARK    7  A    between atoms: C4_5  and  N1_20 
ROOT
ATOM      1  C3  <1> d           4.533  -1.188  -5.238  0.00  0.00     0.042 C 
ATOM      2  H6  <1> d           5.517  -0.757  -5.055  0.00  0.00     0.044 H 
ATOM      3  H7  <1> d           4.636  -2.074  -5.865  0.00  0.00     0.044 H 
ENDROOT
BRANCH   1   4
ATOM      4  S1  <1> d           3.773  -1.652  -3.658  0.00  0.00    -0.154 SA
BRANCH   4   5
ATOM      5  C2  <1> d           4.941  -1.041  -2.412  0.00  0.00    -0.001 C 
ATOM      6  H4  <1> d           5.044  -1.780  -1.617  0.00  0.00     0.038 H 
ATOM      7  H5  <1> d           5.913  -0.871  -2.877  0.00  0.00     0.038 H 
BRANCH   5   8
ATOM      8  C1  <1> d           4.420   0.271  -1.824  0.00  0.00    -0.004 C 
ATOM      9  H2  <1> d           3.339   0.209  -1.698  0.00  0.00     0.033 H 
ATOM     10  H3  <1> d           4.889   0.446  -0.855  0.00  0.00     0.033 H 
BRANCH   8  11
ATOM     11  C6  <1> d           4.754   1.407  -2.756  0.00  0.00     0.043 C 
ATOM     12  O2  <1> d           3.871   2.103  -3.201  0.00  0.00    -0.550 OA
ATOM     13  O4  <1> d           6.031   1.649  -3.090  0.00  0.00    -0.550 OA
ENDBRANCH   8  11
ENDBRANCH   5   8
ENDBRANCH   4   5
ENDBRANCH   1   4
BRANCH   1  14
ATOM     14  C4  <1> d           3.650  -0.160  -5.948  0.00  0.00     0.025 C 
ATOM     15  H1  <1> d           4.175   0.792  -6.005  0.00  0.00     0.092 H 
BRANCH  14  16
ATOM     16  C5  <1> d           3.334  -0.644  -7.340  0.00  0.00     0.090 C 
ATOM     17  O1  <1> d           3.823  -1.670  -7.748  0.00  0.00    -0.544 OA
ATOM     18  O3  <1> d           2.510   0.067  -8.126  0.00  0.00    -0.544 OA
ENDBRANCH  14  16
BRANCH  14  19
ATOM     19  N1  <1> d           2.410   0.021  -5.173  0.00  0.00     0.226 N 
ATOM     20  H8  <1> d           2.609  -0.044  -4.176  0.00  0.00     0.200 HD
ATOM     21  H9  <1> d           2.000   0.931  -5.378  0.00  0.00     0.200 HD
ATOM     22  H10 <1> d           1.740  -0.714  -5.429  0.00  0.00     0.200 HD
ENDBRANCH  14  19
ENDBRANCH   1  14
TORSDOF 7
ENDMDL
MODEL 2
REMARK VINA RESULT:      -3.9      2.008      2.398
REMARK  7 active torsions:
REMARK  status: ('A' for Active; 'I' for Inactive)
REMARK    1  A    between atoms: C1_1  and  C2_2 
REMARK    2  A    between atoms: C1_1  and  C6_9 
REMARK    3  A    between atoms: C2_2  and  S1_3 
REMARK    4  A    between atoms: S1_3  and  C3_4 
REMARK    5  A    between atoms: C3_4  and  C4_5 
REMARK    6  A    between atoms: C4_5  and  C5_7 
REMARK    7  A    between atoms: C4_5  and  N1_20 
ROOT
ATOM      1  C3  <1> d           4.794  -2.156  -4.717  0.00  0.00     0.042 C 
ATOM      2  H6  <1> d           4.837  -3.212  -4.983  0.00  0.00     0.044 H 
ATOM      3  H7  <1> d           3.817  -1.753  -4.987  0.00  0.00     0.044 H 
ENDROOT
BRANCH   1   4
ATOM      4  S1  <1> d           5.051  -1.972  -2.931  0.00  0.00    -0.154 SA
BRANCH   4   5
ATOM      5  C2  <1> d           3.789  -0.772  -2.426  0.00  0.00    -0.001 C 
ATOM      6  H4  <1> d           3.245  -0.426  -3.306  0.00  0.00     0.038 H 
ATOM      7  H5  <1> d           3.094  -1.244  -1.732  0.00  0.00     0.038 H 
BRANCH   5   8
ATOM      8  C1  <1> d           4.462   0.420  -1.743  0.00  0.00    -0.004 C 
ATOM      9  H2  <1> d           3.774   0.863  -1.023  0.00  0.00     0.033 H 
ATOM     10  H3  <1> d           5.360   0.082  -1.225  0.00  0.00     0.033 H 
BRANCH   8  11
ATOM     11  C6  <1> d           4.837   1.448  -2.779  0.00  0.00     0.043 C 
ATOM     12  O2  <1> d           5.991   1.573  -3.117  0.00  0.00    -0.550 OA
ATOM     13  O4  <1> d           3.890   2.224  -3.329  0.00  0.00    -0.550 OA
ENDBRANCH   8  11
ENDBRANCH   5   8
ENDBRANCH   4   5
ENDBRANCH   1   4
BRANCH   1  14
ATOM     14  C4  <1> d           5.886  -1.395  -5.472  0.00  0.00     0.025 C 
ATOM     15  H1  <1> d           6.336  -2.050  -6.217  0.00  0.00     0.092 H 
BRANCH  14  16
ATOM     16  C5  <1> d           5.282  -0.196  -6.156  0.00  0.00     0.090 C 
ATOM     17  O1  <1> d           4.118   0.077  -5.980  0.00  0.00    -0.544 OA
ATOM     18  O3  <1> d           6.038   0.568  -6.960  0.00  0.00    -0.544 OA
ENDBRANCH  14  16
BRANCH  14  19
ATOM     19  N1  <1> d           6.923  -0.974  -4.514  0.00  0.00     0.226 N 
ATOM     20  H8  <1> d           7.116   0.020  -4.624  0.00  0.00     0.200 HD
ATOM     21  H9  <1> d           6.614  -1.156  -3.561  0.00  0.00     0.200 HD
ATOM     22  H10 <1> d           7.785  -1.504  -4.694  0.00  0.00     0.200 HD
ENDBRANCH  14  19
ENDBRANCH   1  14
TORSDOF 7
ENDMDL
MODEL 3
REMARK VINA RESULT:      -3.8      2.612      5.694
REMARK  7 active torsions:
REMARK  status: ('A' for Active; 'I' for Inactive)
REMARK    1  A    between atoms: C1_1  and  C2_2 
REMARK    2  A    between atoms: C1_1  and  C6_9 
REMARK    3  A    between atoms: C2_2  and  S1_3 
REMARK    4  A    between atoms: S1_3  and  C3_4 
REMARK    5  A    between atoms: C3_4  and  C4_5 
REMARK    6  A    between atoms: C4_5  and  C5_7 
REMARK    7  A    between atoms: C4_5  and  N1_20 
ROOT
ATOM      1  C3  <1> d           2.582   0.388  -5.416  0.00  0.00     0.042 C 
ATOM      2  H6  <1> d           2.455   1.468  -5.332  0.00  0.00     0.044 H 
ATOM      3  H7  <1> d           1.608  -0.097  -5.360  0.00  0.00     0.044 H 
ENDROOT
BRANCH   1   4
ATOM      4  S1  <1> d           3.364  -0.007  -7.005  0.00  0.00    -0.154 SA
BRANCH   4   5
ATOM      5  C2  <1> d           3.027   1.448  -8.034  0.00  0.00    -0.001 C 
ATOM      6  H4  <1> d           2.139   1.959  -7.661  0.00  0.00     0.038 H 
ATOM      7  H5  <1> d           3.879   2.126  -7.996  0.00  0.00     0.038 H 
BRANCH   5   8
ATOM      8  C1  <1> d           2.791   1.006  -9.480  0.00  0.00    -0.004 C 
ATOM      9  H2  <1> d           2.610  -0.068  -9.508  0.00  0.00     0.033 H 
ATOM     10  H3  <1> d           1.923   1.530  -9.882  0.00  0.00     0.033 H 
BRANCH   8  11
ATOM     11  C6  <1> d           4.005   1.334 -10.310  0.00  0.00     0.043 C 
ATOM     12  O2  <1> d           4.095   0.915 -11.441  0.00  0.00    -0.550 OA
ATOM     13  O4  <1> d           4.986   2.091  -9.796  0.00  0.00    -0.550 OA
ENDBRANCH   8  11
ENDBRANCH   5   8
ENDBRANCH   4   5
ENDBRANCH   1   4
BRANCH   1  14
ATOM     14  C4  <1> d           3.468  -0.111  -4.273  0.00  0.00     0.025 C 
ATOM     15  H1  <1> d           4.478  -0.282  -4.644  0.00  0.00     0.092 H 
BRANCH  14  16
ATOM     16  C5  <1> d           3.504   0.922  -3.177  0.00  0.00     0.090 C 
ATOM     17  O1  <1> d           3.494   0.576  -2.019  0.00  0.00    -0.544 OA
ATOM     18  O3  <1> d           3.548   2.228  -3.487  0.00  0.00    -0.544 OA
ENDBRANCH  14  16
BRANCH  14  19
ATOM     19  N1  <1> d           2.922  -1.382  -3.765  0.00  0.00     0.226 N 
ATOM     20  H8  <1> d           2.835  -1.344  -2.751  0.00  0.00     0.200 HD
ATOM     21  H9  <1> d           2.007  -1.558  -4.177  0.00  0.00     0.200 HD
ATOM     22  H10 <1> d           3.556  -2.148  -4.019  0.00  0.00     0.200 HD
ENDBRANCH  14  19
ENDBRANCH   1  14
TORSDOF 7
ENDMDL
MODEL 4
REMARK VINA RESULT:      -3.7      2.743      3.228
REMARK  7 active torsions:
REMARK  status: ('A' for Active; 'I' for Inactive)
REMARK    1  A    between atoms: C1_1  and  C2_2 
REMARK    2  A    between atoms: C1_1  and  C6_9 
REMARK    3  A    between atoms: C2_2  and  S1_3 
REMARK    4  A    between atoms: S1_3  and  C3_4 
REMARK    5  A    between atoms: C3_4  and  C4_5 
REMARK    6  A    between atoms: C4_5  and  C5_7 
REMARK    7  A    between atoms: C4_5  and  N1_20 
ROOT
ATOM      1  C3  <1> d           4.640  -2.593  -4.820  0.00  0.00     0.042 C 
ATOM      2  H6  <1> d           5.491  -2.751  -4.158  0.00  0.00     0.044 H 
ATOM      3  H7  <1> d           3.733  -2.958  -4.338  0.00  0.00     0.044 H 
ENDROOT
BRANCH   1   4
ATOM      4  S1  <1> d           4.467  -0.821  -5.170  0.00  0.00    -0.154 SA
BRANCH   4   5
ATOM      5  C2  <1> d           3.019  -0.321  -4.201  0.00  0.00    -0.001 C 
ATOM      6  H4  <1> d           2.684   0.663  -4.529  0.00  0.00     0.038 H 
ATOM      7  H5  <1> d           2.216  -1.044  -4.346  0.00  0.00     0.038 H 
BRANCH   5   8
ATOM      8  C1  <1> d           3.392  -0.264  -2.718  0.00  0.00    -0.004 C 
ATOM      9  H2  <1> d           2.500  -0.422  -2.112  0.00  0.00     0.033 H 
ATOM     10  H3  <1> d           4.124  -1.041  -2.498  0.00  0.00     0.033 H 
BRANCH   8  11
ATOM     11  C6  <1> d           3.983   1.086  -2.401  0.00  0.00     0.043 C 
ATOM     12  O2  <1> d           3.748   2.032  -3.115  0.00  0.00    -0.550 OA
ATOM     13  O4  <1> d           4.768   1.238  -1.323  0.00  0.00    -0.550 OA
ENDBRANCH   8  11
ENDBRANCH   5   8
ENDBRANCH   4   5
ENDBRANCH   1   4
BRANCH   1  14
ATOM     14  C4  <1> d           4.864  -3.353  -6.129  0.00  0.00     0.025 C 
ATOM     15  H1  <1> d           5.888  -3.201  -6.466  0.00  0.00     0.092 H 
BRANCH  14  16
ATOM     16  C5  <1> d           4.623  -4.823  -5.904  0.00  0.00     0.090 C 
ATOM     17  O1  <1> d           5.515  -5.526  -5.491  0.00  0.00    -0.544 OA
ATOM     18  O3  <1> d           3.416  -5.352  -6.163  0.00  0.00    -0.544 OA
ENDBRANCH  14  16
BRANCH  14  19
ATOM     19  N1  <1> d           3.939  -2.830  -7.150  0.00  0.00     0.226 N 
ATOM     20  H8  <1> d           3.034  -2.628  -6.730  0.00  0.00     0.200 HD
ATOM     21  H9  <1> d           4.319  -1.978  -7.561  0.00  0.00     0.200 HD
ATOM     22  H10 <1> d           3.818  -3.533  -7.888  0.00  0.00     0.200 HD
ENDBRANCH  14  19
ENDBRANCH   1  14
TORSDOF 7
ENDMDL
MODEL 5
REMARK VINA RESULT:      -3.7      2.622      4.671
REMARK  7 active torsions:
REMARK  status: ('A' for Active; 'I' for Inactive)
REMARK    1  A    between atoms: C1_1  and  C2_2 
REMARK    2  A    between atoms: C1_1  and  C6_9 
REMARK    3  A    between atoms: C2_2  and  S1_3 
REMARK    4  A    between atoms: S1_3  and  C3_4 
REMARK    5  A    between atoms: C3_4  and  C4_5 
REMARK    6  A    between atoms: C4_5  and  C5_7 
REMARK    7  A    between atoms: C4_5  and  N1_20 
ROOT
ATOM      1  C3  <1> d           2.997   0.278  -5.243  0.00  0.00     0.042 C 
ATOM      2  H6  <1> d           3.029   1.359  -5.383  0.00  0.00     0.044 H 
ATOM      3  H7  <1> d           1.982  -0.081  -5.418  0.00  0.00     0.044 H 
ENDROOT
BRANCH   1   4
ATOM      4  S1  <1> d           4.130  -0.518  -6.415  0.00  0.00    -0.154 SA
BRANCH   4   5
ATOM      5  C2  <1> d           5.334  -1.364  -5.356  0.00  0.00    -0.001 C 
ATOM      6  H4  <1> d           6.302  -0.868  -5.438  0.00  0.00     0.038 H 
ATOM      7  H5  <1> d           4.996  -1.329  -4.320  0.00  0.00     0.038 H 
BRANCH   5   8
ATOM      8  C1  <1> d           5.469  -2.821  -5.800  0.00  0.00    -0.004 C 
ATOM      9  H2  <1> d           5.085  -2.930  -6.814  0.00  0.00     0.033 H 
ATOM     10  H3  <1> d           6.520  -3.112  -5.777  0.00  0.00     0.033 H 
BRANCH   8  11
ATOM     11  C6  <1> d           4.683  -3.706  -4.866  0.00  0.00     0.043 C 
ATOM     12  O2  <1> d           4.365  -3.299  -3.773  0.00  0.00    -0.550 OA
ATOM     13  O4  <1> d           4.336  -4.945  -5.248  0.00  0.00    -0.550 OA
ENDBRANCH   8  11
ENDBRANCH   5   8
ENDBRANCH   4   5
ENDBRANCH   1   4
BRANCH   1  14
ATOM     14  C4  <1> d           3.419  -0.063  -3.812  0.00  0.00     0.025 C 
ATOM     15  H1  <1> d           4.389  -0.558  -3.828  0.00  0.00     0.092 H 
BRANCH  14  16
ATOM     16  C5  <1> d           3.515   1.204  -3.001  0.00  0.00     0.090 C 
ATOM     17  O1  <1> d           3.720   1.145  -1.812  0.00  0.00    -0.544 OA
ATOM     18  O3  <1> d           3.372   2.396  -3.600  0.00  0.00    -0.544 OA
ENDBRANCH  14  16
BRANCH  14  19
ATOM     19  N1  <1> d           2.424  -0.976  -3.225  0.00  0.00     0.226 N 
ATOM     20  H8  <1> d           2.332  -0.798  -2.226  0.00  0.00     0.200 HD
ATOM     21  H9  <1> d           1.520  -0.845  -3.676  0.00  0.00     0.200 HD
ATOM     22  H10 <1> d           2.731  -1.947  -3.365  0.00  0.00     0.200 HD
ENDBRANCH  14  19
ENDBRANCH   1  14
TORSDOF 7
ENDMDL
MODEL 6
REMARK VINA RESULT:      -3.6      2.811      3.222
REMARK  7 active torsions:
REMARK  status: ('A' for Active; 'I' for Inactive)
REMARK    1  A    between atoms: C1_1  and  C2_2 
REMARK    2  A    between atoms: C1_1  and  C6_9 
REMARK    3  A    between atoms: C2_2  and  S1_3 
REMARK    4  A    between atoms: S1_3  and  C3_4 
REMARK    5  A    between atoms: C3_4  and  C4_5 
REMARK    6  A    between atoms: C4_5  and  C5_7 
REMARK    7  A    between atoms: C4_5  and  N1_20 
ROOT
ATOM      1  C3  <1> d           6.568  -1.598  -4.193  0.00  0.00     0.042 C 
ATOM      2  H6  <1> d           7.466  -2.208  -4.093  0.00  0.00     0.044 H 
ATOM      3  H7  <1> d           6.085  -1.502  -3.220  0.00  0.00     0.044 H 
ENDROOT
BRANCH   1   4
ATOM      4  S1  <1> d           7.019   0.047  -4.809  0.00  0.00    -0.154 SA
BRANCH   4   5
ATOM      5  C2  <1> d           6.518   1.168  -3.474  0.00  0.00    -0.001 C 
ATOM      6  H4  <1> d           7.389   1.430  -2.874  0.00  0.00     0.038 H 
ATOM      7  H5  <1> d           6.087   2.074  -3.902  0.00  0.00     0.038 H 
BRANCH   5   8
ATOM      8  C1  <1> d           5.479   0.477  -2.591  0.00  0.00    -0.004 C 
ATOM      9  H2  <1> d           5.521  -0.600  -2.753  0.00  0.00     0.033 H 
ATOM     10  H3  <1> d           5.691   0.694  -1.543  0.00  0.00     0.033 H 
BRANCH   8  11
ATOM     11  C6  <1> d           4.103   0.985  -2.940  0.00  0.00     0.043 C 
ATOM     12  O2  <1> d           3.709   0.925  -4.081  0.00  0.00    -0.550 OA
ATOM     13  O4  <1> d           3.316   1.502  -1.985  0.00  0.00    -0.550 OA
ENDBRANCH   8  11
ENDBRANCH   5   8
ENDBRANCH   4   5
ENDBRANCH   1   4
BRANCH   1  14
ATOM     14  C4  <1> d           5.606  -2.266  -5.177  0.00  0.00     0.025 C 
ATOM     15  H1  <1> d           6.173  -2.855  -5.897  0.00  0.00     0.092 H 
BRANCH  14  16
ATOM     16  C5  <1> d           4.662  -3.168  -4.423  0.00  0.00     0.090 C 
ATOM     17  O1  <1> d           4.448  -4.288  -4.823  0.00  0.00    -0.544 OA
ATOM     18  O3  <1> d           4.058  -2.726  -3.308  0.00  0.00    -0.544 OA
ENDBRANCH  14  16
BRANCH  14  19
ATOM     19  N1  <1> d           4.855  -1.221  -5.895  0.00  0.00     0.226 N 
ATOM     20  H8  <1> d           4.638  -1.534  -6.840  0.00  0.00     0.200 HD
ATOM     21  H9  <1> d           3.990  -1.010  -5.401  0.00  0.00     0.200 HD
ATOM     22  H10 <1> d           5.428  -0.370  -5.948  0.00  0.00     0.200 HD
ENDBRANCH  14  19
ENDBRANCH   1  14
TORSDOF 7
ENDMDL
MODEL 7
REMARK VINA RESULT:      -3.6      2.481      3.050
REMARK  7 active torsions:
REMARK  status: ('A' for Active; 'I' for Inactive)
REMARK    1  A    between atoms: C1_1  and  C2_2 
REMARK    2  A    between atoms: C1_1  and  C6_9 
REMARK    3  A    between atoms: C2_2  and  S1_3 
REMARK    4  A    between atoms: S1_3  and  C3_4 
REMARK    5  A    between atoms: C3_4  and  C4_5 
REMARK    6  A    between atoms: C4_5  and  C5_7 
REMARK    7  A    between atoms: C4_5  and  N1_20 
ROOT
ATOM      1  C3  <1> d           2.897  -0.167  -7.433  0.00  0.00     0.042 C 
ATOM      2  H6  <1> d           2.479  -1.129  -7.730  0.00  0.00     0.044 H 
ATOM      3  H7  <1> d           2.089   0.553  -7.298  0.00  0.00     0.044 H 
ENDROOT
BRANCH   1   4
ATOM      4  S1  <1> d           3.804  -0.357  -5.873  0.00  0.00    -0.154 SA
BRANCH   4   5
ATOM      5  C2  <1> d           2.660   0.281  -4.619  0.00  0.00    -0.001 C 
ATOM      6  H4  <1> d           2.948   1.297  -4.348  0.00  0.00     0.038 H 
ATOM      7  H5  <1> d           1.646   0.286  -5.020  0.00  0.00     0.038 H 
BRANCH   5   8
ATOM      8  C1  <1> d           2.713  -0.612  -3.378  0.00  0.00    -0.004 C 
ATOM      9  H2  <1> d           1.706  -0.751  -2.987  0.00  0.00     0.033 H 
ATOM     10  H3  <1> d           3.136  -1.581  -3.646  0.00  0.00     0.033 H 
BRANCH   8  11
ATOM     11  C6  <1> d           3.576   0.039  -2.327  0.00  0.00     0.043 C 
ATOM     12  O2  <1> d           4.374  -0.624  -1.705  0.00  0.00    -0.550 OA
ATOM     13  O4  <1> d           3.460   1.353  -2.083  0.00  0.00    -0.550 OA
ENDBRANCH   8  11
ENDBRANCH   5   8
ENDBRANCH   4   5
ENDBRANCH   1   4
BRANCH   1  14
ATOM     14  C4  <1> d           3.850   0.334  -8.520  0.00  0.00     0.025 C 
ATOM     15  H1  <1> d           3.674  -0.221  -9.441  0.00  0.00     0.092 H 
BRANCH  14  16
ATOM     16  C5  <1> d           3.609   1.801  -8.763  0.00  0.00     0.090 C 
ATOM     17  O1  <1> d           4.163   2.361  -9.680  0.00  0.00    -0.544 OA
ATOM     18  O3  <1> d           2.778   2.486  -7.962  0.00  0.00    -0.544 OA
ENDBRANCH  14  16
BRANCH  14  19
ATOM     19  N1  <1> d           5.238   0.106  -8.081  0.00  0.00     0.226 N 
ATOM     20  H8  <1> d           5.315  -0.800  -7.621  0.00  0.00     0.200 HD
ATOM     21  H9  <1> d           5.866   0.133  -8.882  0.00  0.00     0.200 HD
ATOM     22  H10 <1> d           5.508   0.842  -7.418  0.00  0.00     0.200 HD
ENDBRANCH  14  19
ENDBRANCH   1  14
TORSDOF 7
ENDMDL
MODEL 8
REMARK VINA RESULT:      -3.6      2.821      5.448
REMARK  7 active torsions:
REMARK  status: ('A' for Active; 'I' for Inactive)
REMARK    1  A    between atoms: C1_1  and  C2_2 
REMARK    2  A    between atoms: C1_1  and  C6_9 
REMARK    3  A    between atoms: C2_2  and  S1_3 
REMARK    4  A    between atoms: S1_3  and  C3_4 
REMARK    5  A    between atoms: C3_4  and  C4_5 
REMARK    6  A    between atoms: C4_5  and  C5_7 
REMARK    7  A    between atoms: C4_5  and  N1_20 
ROOT
ATOM      1  C3  <1> d           3.787  -1.723  -2.699  0.00  0.00     0.042 C 
ATOM      2  H6  <1> d           3.181  -2.617  -2.848  0.00  0.00     0.044 H 
ATOM      3  H7  <1> d           4.230  -1.746  -1.703  0.00  0.00     0.044 H 
ENDROOT
BRANCH   1   4
ATOM      4  S1  <1> d           5.106  -1.672  -3.944  0.00  0.00    -0.154 SA
BRANCH   4   5
ATOM      5  C2  <1> d           4.638  -2.960  -5.132  0.00  0.00    -0.001 C 
ATOM      6  H4  <1> d           3.690  -3.405  -4.831  0.00  0.00     0.038 H 
ATOM      7  H5  <1> d           4.534  -2.520  -6.124  0.00  0.00     0.038 H 
BRANCH   5   8
ATOM      8  C1  <1> d           5.720  -4.041  -5.164  0.00  0.00    -0.004 C 
ATOM      9  H2  <1> d           6.471  -3.783  -5.911  0.00  0.00     0.033 H 
ATOM     10  H3  <1> d           6.193  -4.111  -4.184  0.00  0.00     0.033 H 
BRANCH   8  11
ATOM     11  C6  <1> d           5.096  -5.367  -5.516  0.00  0.00     0.043 C 
ATOM     12  O2  <1> d           3.951  -5.598  -5.204  0.00  0.00    -0.550 OA
ATOM     13  O4  <1> d           5.810  -6.291  -6.177  0.00  0.00    -0.550 OA
ENDBRANCH   8  11
ENDBRANCH   5   8
ENDBRANCH   4   5
ENDBRANCH   1   4
BRANCH   1  14
ATOM     14  C4  <1> d           2.905  -0.481  -2.837  0.00  0.00     0.025 C 
ATOM     15  H1  <1> d           2.098  -0.525  -2.107  0.00  0.00     0.092 H 
BRANCH  14  16
ATOM     16  C5  <1> d           3.735   0.754  -2.594  0.00  0.00     0.090 C 
ATOM     17  O1  <1> d           3.708   1.665  -3.388  0.00  0.00    -0.544 OA
ATOM     18  O3  <1> d           4.503   0.841  -1.497  0.00  0.00    -0.544 OA
ENDBRANCH  14  16
BRANCH  14  19
ATOM     19  N1  <1> d           2.327  -0.453  -4.192  0.00  0.00     0.226 N 
ATOM     20  H8  <1> d           2.742  -1.186  -4.764  0.00  0.00     0.200 HD
ATOM     21  H9  <1> d           1.319  -0.592  -4.144  0.00  0.00     0.200 HD
ATOM     22  H10 <1> d           2.519   0.458  -4.624  0.00  0.00     0.200 HD
ENDBRANCH  14  19
ENDBRANCH   1  14
TORSDOF 7
ENDMDL
MODEL 9
REMARK VINA RESULT:      -3.5      1.919      5.021
REMARK  7 active torsions:
REMARK  status: ('A' for Active; 'I' for Inactive)
REMARK    1  A    between atoms: C1_1  and  C2_2 
REMARK    2  A    between atoms: C1_1  and  C6_9 
REMARK    3  A    between atoms: C2_2  and  S1_3 
REMARK    4  A    between atoms: S1_3  and  C3_4 
REMARK    5  A    between atoms: C3_4  and  C4_5 
REMARK    6  A    between atoms: C4_5  and  C5_7 
REMARK    7  A    between atoms: C4_5  and  N1_20 
ROOT
ATOM      1  C3  <1> d           5.484  -0.739  -4.417  0.00  0.00     0.042 C 
ATOM      2  H6  <1> d           5.808  -1.733  -4.727  0.00  0.00     0.044 H 
ATOM      3  H7  <1> d           6.175   0.007  -4.811  0.00  0.00     0.044 H 
ENDROOT
BRANCH   1   4
ATOM      4  S1  <1> d           3.818  -0.418  -5.060  0.00  0.00    -0.154 SA
BRANCH   4   5
ATOM      5  C2  <1> d           4.000  -0.590  -6.856  0.00  0.00    -0.001 C 
ATOM      6  H4  <1> d           4.919  -0.100  -7.177  0.00  0.00     0.038 H 
ATOM      7  H5  <1> d           4.042  -1.648  -7.118  0.00  0.00     0.038 H 
BRANCH   5   8
ATOM      8  C1  <1> d           2.805   0.061  -7.554  0.00  0.00    -0.004 C 
ATOM      9  H2  <1> d           2.360  -0.648  -8.253  0.00  0.00     0.033 H 
ATOM     10  H3  <1> d           2.063   0.351  -6.810  0.00  0.00     0.033 H 
BRANCH   8  11
ATOM     11  C6  <1> d           3.267   1.284  -8.305  0.00  0.00     0.043 C 
ATOM     12  O2  <1> d           2.466   1.964  -8.903  0.00  0.00    -0.550 OA
ATOM     13  O4  <1> d           4.566   1.619  -8.308  0.00  0.00    -0.550 OA
ENDBRANCH   8  11
ENDBRANCH   5   8
ENDBRANCH   4   5
ENDBRANCH   1   4
BRANCH   1  14
ATOM     14  C4  <1> d           5.466  -0.663  -2.890  0.00  0.00     0.025 C 
ATOM     15  H1  <1> d           6.374  -1.114  -2.492  0.00  0.00     0.092 H 
BRANCH  14  16
ATOM     16  C5  <1> d           5.393   0.780  -2.459  0.00  0.00     0.090 C 
ATOM     17  O1  <1> d           4.736   1.090  -1.493  0.00  0.00    -0.544 OA
ATOM     18  O3  <1> d           6.057   1.720  -3.150  0.00  0.00    -0.544 OA
ENDBRANCH  14  16
BRANCH  14  19
ATOM     19  N1  <1> d           4.299  -1.409  -2.387  0.00  0.00     0.226 N 
ATOM     20  H8  <1> d           4.429  -1.640  -1.404  0.00  0.00     0.200 HD
ATOM     21  H9  <1> d           3.454  -0.851  -2.495  0.00  0.00     0.200 HD
ATOM     22  H10 <1> d           4.197  -2.279  -2.925  0.00  0.00     0.200 HD
ENDBRANCH  14  19
ENDBRANCH   1  14
TORSDOF 7
ENDMDL
MODEL 10
REMARK VINA RESULT:      -3.4      2.715      4.994
REMARK  7 active torsions:
REMARK  status: ('A' for Active; 'I' for Inactive)
REMARK    1  A    between atoms: C1_1  and  C2_2 
REMARK    2  A    between atoms: C1_1  and  C6_9 
REMARK    3  A    between atoms: C2_2  and  S1_3 
REMARK    4  A    between atoms: S1_3  and  C3_4 
REMARK    5  A    between atoms: C3_4  and  C4_5 
REMARK    6  A    between atoms: C4_5  and  C5_7 
REMARK    7  A    between atoms: C4_5  and  N1_20 
ROOT
ATOM      1  C3  <1> d           4.799  -0.433  -4.823  0.00  0.00     0.042 C 
ATOM      2  H6  <1> d           5.678  -0.996  -4.507  0.00  0.00     0.044 H 
ATOM      3  H7  <1> d           4.993   0.634  -4.713  0.00  0.00     0.044 H 
ENDROOT
BRANCH   1   4
ATOM      4  S1  <1> d           4.435  -0.806  -6.561  0.00  0.00    -0.154 SA
BRANCH   4   5
ATOM      5  C2  <1> d           2.862   0.042  -6.872  0.00  0.00    -0.001 C 
ATOM      6  H4  <1> d           2.046  -0.539  -6.442  0.00  0.00     0.038 H 
ATOM      7  H5  <1> d           2.885   1.031  -6.413  0.00  0.00     0.038 H 
BRANCH   5   8
ATOM      8  C1  <1> d           2.648   0.183  -8.379  0.00  0.00    -0.004 C 
ATOM      9  H2  <1> d           3.283  -0.529  -8.906  0.00  0.00     0.033 H 
ATOM     10  H3  <1> d           1.603  -0.016  -8.618  0.00  0.00     0.033 H 
BRANCH   8  11
ATOM     11  C6  <1> d           3.002   1.584  -8.808  0.00  0.00     0.043 C 
ATOM     12  O2  <1> d           2.878   2.503  -8.033  0.00  0.00    -0.550 OA
ATOM     13  O4  <1> d           3.456   1.812 -10.051  0.00  0.00    -0.550 OA
ENDBRANCH   8  11
ENDBRANCH   5   8
ENDBRANCH   4   5
ENDBRANCH   1   4
BRANCH   1  14
ATOM     14  C4  <1> d           3.602  -0.827  -3.955  0.00  0.00     0.025 C 
ATOM     15  H1  <1> d           2.796  -1.190  -4.591  0.00  0.00     0.092 H 
BRANCH  14  16
ATOM     16  C5  <1> d           4.013  -1.913  -2.995  0.00  0.00     0.090 C 
ATOM     17  O1  <1> d           4.081  -3.059  -3.373  0.00  0.00    -0.544 OA
ATOM     18  O3  <1> d           4.303  -1.608  -1.720  0.00  0.00    -0.544 OA
ENDBRANCH  14  16
BRANCH  14  19
ATOM     19  N1  <1> d           3.135   0.361  -3.219  0.00  0.00     0.226 N 
ATOM     20  H8  <1> d           2.306   0.746  -3.667  0.00  0.00     0.200 HD
ATOM     21  H9  <1> d           2.914   0.110  -2.256  0.00  0.00     0.200 HD
ATOM     22  H10 <1> d           3.876   1.072  -3.218  0.00  0.00     0.200 HD
ENDBRANCH  14  19
ENDBRANCH   1  14
TORSDOF 7
ENDMDL
