MODEL 1
REMARK VINA RESULT:      -5.9      0.000      0.000
REMARK  0 active torsions:
REMARK  status: ('A' for Active; 'I' for Inactive)
ROOT
ATOM      1  C   LIG d   1       4.341   0.558  -1.635  0.00  0.00    -0.043 A 
ATOM      2  C   LIG d   1       4.516  -0.777  -1.846  0.00  0.00    -0.051 A 
ATOM      3  C   LIG d   1       4.519  -1.245  -3.180  0.00  0.00     0.001 A 
ATOM      4  C   LIG d   1       4.692  -2.596  -3.471  0.00  0.00    -0.043 A 
ATOM      5  C   LIG d   1       4.689  -3.017  -4.799  0.00  0.00     0.001 A 
ATOM      6  C   LIG d   1       4.862  -4.379  -5.136  0.00  0.00    -0.051 A 
ATOM      7  C   LIG d   1       4.848  -4.719  -6.456  0.00  0.00    -0.043 A 
ATOM      8  C   LIG d   1       4.667  -3.747  -7.439  0.00  0.00     0.028 A 
ATOM      9  N   LIG d   1       4.505  -2.480  -7.154  0.00  0.00    -0.255 NA
ATOM     10  C   LIG d   1       4.504  -2.048  -5.883  0.00  0.00     0.073 A 
ATOM     11  C   LIG d   1       4.336  -0.696  -5.589  0.00  0.00    -0.010 A 
ATOM     12  C   LIG d   1       4.334  -0.271  -4.262  0.00  0.00     0.073 A 
ATOM     13  N   LIG d   1       4.168   1.025  -3.954  0.00  0.00    -0.255 NA
ATOM     14  C   LIG d   1       4.169   1.431  -2.709  0.00  0.00     0.028 A 
ATOM     15  H   LIG d   1       4.335   0.944  -0.627  0.00  0.00     0.063 H 
ATOM     16  H   LIG d   1       4.648  -1.458  -1.019  0.00  0.00     0.062 H 
ATOM     17  H   LIG d   1       4.828  -3.312  -2.674  0.00  0.00     0.063 H 
ATOM     18  H   LIG d   1       5.001  -5.127  -4.370  0.00  0.00     0.062 H 
ATOM     19  H   LIG d   1       4.979  -5.752  -6.742  0.00  0.00     0.063 H 
ATOM     20  H   LIG d   1       4.662  -4.051  -8.475  0.00  0.00     0.083 H 
ATOM     21  H   LIG d   1       4.205   0.020  -6.387  0.00  0.00     0.066 H 
ATOM     22  H   LIG d   1       4.033   2.482  -2.507  0.00  0.00     0.083 H 
ENDROOT
TORSDOF 0
ENDMDL
MODEL 2
REMARK VINA RESULT:      -5.8      0.084      4.765
REMARK  0 active torsions:
REMARK  status: ('A' for Active; 'I' for Inactive)
ROOT
ATOM      1  C   LIG d   1       4.839  -4.621  -6.545  0.00  0.00    -0.043 A 
ATOM      2  C   LIG d   1       4.866  -4.312  -5.218  0.00  0.00    -0.051 A 
ATOM      3  C   LIG d   1       4.690  -2.959  -4.847  0.00  0.00     0.001 A 
ATOM      4  C   LIG d   1       4.706  -2.569  -3.510  0.00  0.00    -0.043 A 
ATOM      5  C   LIG d   1       4.529  -1.226  -3.185  0.00  0.00     0.001 A 
ATOM      6  C   LIG d   1       4.538  -0.790  -1.841  0.00  0.00    -0.051 A 
ATOM      7  C   LIG d   1       4.359   0.539  -1.597  0.00  0.00    -0.043 A 
ATOM      8  C   LIG d   1       4.174   1.436  -2.648  0.00  0.00     0.028 A 
ATOM      9  N   LIG d   1       4.162   1.059  -3.901  0.00  0.00    -0.255 NA
ATOM     10  C   LIG d   1       4.329  -0.229  -4.241  0.00  0.00     0.073 A 
ATOM     11  C   LIG d   1       4.309  -0.622  -5.578  0.00  0.00    -0.010 A 
ATOM     12  C   LIG d   1       4.490  -1.965  -5.907  0.00  0.00     0.073 A 
ATOM     13  N   LIG d   1       4.480  -2.367  -7.187  0.00  0.00    -0.255 NA
ATOM     14  C   LIG d   1       4.645  -3.627  -7.503  0.00  0.00     0.028 A 
ATOM     15  H   LIG d   1       4.970  -5.646  -6.858  0.00  0.00     0.063 H 
ATOM     16  H   LIG d   1       5.017  -5.077  -4.472  0.00  0.00     0.062 H 
ATOM     17  H   LIG d   1       4.854  -3.302  -2.731  0.00  0.00     0.063 H 
ATOM     18  H   LIG d   1       4.683  -1.490  -1.031  0.00  0.00     0.062 H 
ATOM     19  H   LIG d   1       4.361   0.900  -0.579  0.00  0.00     0.063 H 
ATOM     20  H   LIG d   1       4.035   2.482  -2.419  0.00  0.00     0.083 H 
ATOM     21  H   LIG d   1       4.157   0.110  -6.356  0.00  0.00     0.066 H 
ATOM     22  H   LIG d   1       4.630  -3.906  -8.546  0.00  0.00     0.083 H 
ENDROOT
TORSDOF 0
ENDMDL
MODEL 3
REMARK VINA RESULT:      -5.6      2.194      2.560
REMARK  0 active torsions:
REMARK  status: ('A' for Active; 'I' for Inactive)
ROOT
ATOM      1  C   LIG d   1       3.922   0.849  -2.254  0.00  0.00    -0.043 A 
ATOM      2  C   LIG d   1       5.218   0.435  -2.352  0.00  0.00    -0.051 A 
ATOM      3  C   LIG d   1       5.483  -0.760  -3.059  0.00  0.00     0.001 A 
ATOM      4  C   LIG d   1       6.781  -1.243  -3.200  0.00  0.00    -0.043 A 
ATOM      5  C   LIG d   1       7.001  -2.426  -3.903  0.00  0.00     0.001 A 
ATOM      6  C   LIG d   1       8.304  -2.949  -4.068  0.00  0.00    -0.051 A 
ATOM      7  C   LIG d   1       8.444  -4.109  -4.768  0.00  0.00    -0.043 A 
ATOM      8  C   LIG d   1       7.330  -4.757  -5.302  0.00  0.00     0.028 A 
ATOM      9  N   LIG d   1       6.114  -4.294  -5.163  0.00  0.00    -0.255 NA
ATOM     10  C   LIG d   1       5.875  -3.158  -4.491  0.00  0.00     0.073 A 
ATOM     11  C   LIG d   1       4.577  -2.670  -4.352  0.00  0.00    -0.010 A 
ATOM     12  C   LIG d   1       4.353  -1.489  -3.645  0.00  0.00     0.073 A 
ATOM     13  N   LIG d   1       3.111  -1.003  -3.494  0.00  0.00    -0.255 NA
ATOM     14  C   LIG d   1       2.894   0.107  -2.835  0.00  0.00     0.028 A 
ATOM     15  H   LIG d   1       3.690   1.758  -1.721  0.00  0.00     0.063 H 
ATOM     16  H   LIG d   1       6.018   1.004  -1.904  0.00  0.00     0.062 H 
ATOM     17  H   LIG d   1       7.612  -0.705  -2.766  0.00  0.00     0.063 H 
ATOM     18  H   LIG d   1       9.162  -2.443  -3.652  0.00  0.00     0.062 H 
ATOM     19  H   LIG d   1       9.428  -4.531  -4.911  0.00  0.00     0.063 H 
ATOM     20  H   LIG d   1       7.477  -5.674  -5.851  0.00  0.00     0.083 H 
ATOM     21  H   LIG d   1       3.747  -3.205  -4.789  0.00  0.00     0.066 H 
ATOM     22  H   LIG d   1       1.879   0.463  -2.738  0.00  0.00     0.083 H 
ENDROOT
TORSDOF 0
ENDMDL
MODEL 4
REMARK VINA RESULT:      -5.6      1.913      5.062
REMARK  0 active torsions:
REMARK  status: ('A' for Active; 'I' for Inactive)
ROOT
ATOM      1  C   LIG d   1       6.440  -4.937  -5.451  0.00  0.00    -0.043 A 
ATOM      2  C   LIG d   1       5.285  -4.324  -5.069  0.00  0.00    -0.051 A 
ATOM      3  C   LIG d   1       5.379  -3.073  -4.417  0.00  0.00     0.001 A 
ATOM      4  C   LIG d   1       4.241  -2.389  -3.999  0.00  0.00    -0.043 A 
ATOM      5  C   LIG d   1       4.376  -1.159  -3.360  0.00  0.00     0.001 A 
ATOM      6  C   LIG d   1       3.246  -0.433  -2.920  0.00  0.00    -0.051 A 
ATOM      7  C   LIG d   1       3.453   0.764  -2.303  0.00  0.00    -0.043 A 
ATOM      8  C   LIG d   1       4.746   1.251  -2.112  0.00  0.00     0.028 A 
ATOM      9  N   LIG d   1       5.809   0.599  -2.508  0.00  0.00    -0.255 NA
ATOM     10  C   LIG d   1       5.707  -0.587  -3.127  0.00  0.00     0.073 A 
ATOM     11  C   LIG d   1       6.844  -1.272  -3.551  0.00  0.00    -0.010 A 
ATOM     12  C   LIG d   1       6.712  -2.506  -4.187  0.00  0.00     0.073 A 
ATOM     13  N   LIG d   1       7.793  -3.186  -4.599  0.00  0.00    -0.255 NA
ATOM     14  C   LIG d   1       7.677  -4.343  -5.201  0.00  0.00     0.028 A 
ATOM     15  H   LIG d   1       6.398  -5.893  -5.952  0.00  0.00     0.063 H 
ATOM     16  H   LIG d   1       4.324  -4.779  -5.259  0.00  0.00     0.062 H 
ATOM     17  H   LIG d   1       3.260  -2.809  -4.169  0.00  0.00     0.063 H 
ATOM     18  H   LIG d   1       2.247  -0.816  -3.070  0.00  0.00     0.062 H 
ATOM     19  H   LIG d   1       2.608   1.340  -1.957  0.00  0.00     0.063 H 
ATOM     20  H   LIG d   1       4.875   2.203  -1.619  0.00  0.00     0.083 H 
ATOM     21  H   LIG d   1       7.824  -0.850  -3.385  0.00  0.00     0.066 H 
ATOM     22  H   LIG d   1       8.573  -4.856  -5.516  0.00  0.00     0.083 H 
ENDROOT
TORSDOF 0
ENDMDL
MODEL 5
REMARK VINA RESULT:      -5.6      2.457      4.799
REMARK  0 active torsions:
REMARK  status: ('A' for Active; 'I' for Inactive)
ROOT
ATOM      1  C   LIG d   1       3.336   1.236  -9.330  0.00  0.00    -0.043 A 
ATOM      2  C   LIG d   1       2.767   1.304  -8.093  0.00  0.00    -0.051 A 
ATOM      3  C   LIG d   1       3.248   0.430  -7.091  0.00  0.00     0.001 A 
ATOM      4  C   LIG d   1       2.715   0.444  -5.804  0.00  0.00    -0.043 A 
ATOM      5  C   LIG d   1       3.216  -0.434  -4.845  0.00  0.00     0.001 A 
ATOM      6  C   LIG d   1       2.702  -0.451  -3.529  0.00  0.00    -0.051 A 
ATOM      7  C   LIG d   1       3.240  -1.335  -2.642  0.00  0.00    -0.043 A 
ATOM      8  C   LIG d   1       4.266  -2.196  -3.031  0.00  0.00     0.028 A 
ATOM      9  N   LIG d   1       4.759  -2.201  -4.243  0.00  0.00    -0.255 NA
ATOM     10  C   LIG d   1       4.295  -1.366  -5.186  0.00  0.00     0.073 A 
ATOM     11  C   LIG d   1       4.830  -1.374  -6.472  0.00  0.00    -0.010 A 
ATOM     12  C   LIG d   1       4.328  -0.500  -7.436  0.00  0.00     0.073 A 
ATOM     13  N   LIG d   1       4.823  -0.494  -8.684  0.00  0.00    -0.255 NA
ATOM     14  C   LIG d   1       4.360   0.326  -9.593  0.00  0.00     0.028 A 
ATOM     15  H   LIG d   1       2.989   1.891 -10.114  0.00  0.00     0.063 H 
ATOM     16  H   LIG d   1       1.973   2.005  -7.884  0.00  0.00     0.062 H 
ATOM     17  H   LIG d   1       1.919   1.129  -5.552  0.00  0.00     0.063 H 
ATOM     18  H   LIG d   1       1.906   0.218  -3.234  0.00  0.00     0.062 H 
ATOM     19  H   LIG d   1       2.867  -1.370  -1.629  0.00  0.00     0.063 H 
ATOM     20  H   LIG d   1       4.670  -2.884  -2.303  0.00  0.00     0.083 H 
ATOM     21  H   LIG d   1       5.628  -2.056  -6.723  0.00  0.00     0.066 H 
ATOM     22  H   LIG d   1       4.787   0.298 -10.583  0.00  0.00     0.083 H 
ENDROOT
TORSDOF 0
ENDMDL
MODEL 6
REMARK VINA RESULT:      -5.6      2.278      4.981
REMARK  0 active torsions:
REMARK  status: ('A' for Active; 'I' for Inactive)
ROOT
ATOM      1  C   LIG d   1       8.577  -4.056  -4.865  0.00  0.00    -0.043 A 
ATOM      2  C   LIG d   1       8.416  -2.888  -4.181  0.00  0.00    -0.051 A 
ATOM      3  C   LIG d   1       7.100  -2.419  -3.967  0.00  0.00     0.001 A 
ATOM      4  C   LIG d   1       6.860  -1.234  -3.275  0.00  0.00    -0.043 A 
ATOM      5  C   LIG d   1       5.548  -0.806  -3.085  0.00  0.00     0.001 A 
ATOM      6  C   LIG d   1       5.262   0.391  -2.389  0.00  0.00    -0.051 A 
ATOM      7  C   LIG d   1       3.955   0.749  -2.241  0.00  0.00    -0.043 A 
ATOM      8  C   LIG d   1       2.936  -0.046  -2.764  0.00  0.00     0.028 A 
ATOM      9  N   LIG d   1       3.174  -1.158  -3.412  0.00  0.00    -0.255 NA
ATOM     10  C   LIG d   1       4.428  -1.594  -3.608  0.00  0.00     0.073 A 
ATOM     11  C   LIG d   1       4.671  -2.781  -4.296  0.00  0.00    -0.010 A 
ATOM     12  C   LIG d   1       5.983  -3.211  -4.492  0.00  0.00     0.073 A 
ATOM     13  N   LIG d   1       6.242  -4.349  -5.155  0.00  0.00    -0.255 NA
ATOM     14  C   LIG d   1       7.471  -4.761  -5.339  0.00  0.00     0.028 A 
ATOM     15  H   LIG d   1       9.571  -4.439  -5.043  0.00  0.00     0.063 H 
ATOM     16  H   LIG d   1       9.269  -2.338  -3.813  0.00  0.00     0.062 H 
ATOM     17  H   LIG d   1       7.684  -0.652  -2.890  0.00  0.00     0.063 H 
ATOM     18  H   LIG d   1       6.056   1.003  -1.987  0.00  0.00     0.062 H 
ATOM     19  H   LIG d   1       3.707   1.658  -1.713  0.00  0.00     0.063 H 
ATOM     20  H   LIG d   1       1.912   0.267  -2.628  0.00  0.00     0.083 H 
ATOM     21  H   LIG d   1       3.847  -3.366  -4.677  0.00  0.00     0.066 H 
ATOM     22  H   LIG d   1       7.634  -5.682  -5.878  0.00  0.00     0.083 H 
ENDROOT
TORSDOF 0
ENDMDL
MODEL 7
REMARK VINA RESULT:      -5.4      2.102      3.231
REMARK  0 active torsions:
REMARK  status: ('A' for Active; 'I' for Inactive)
ROOT
ATOM      1  C   LIG d   1       3.855  -0.347  -2.078  0.00  0.00    -0.043 A 
ATOM      2  C   LIG d   1       3.236   0.282  -3.116  0.00  0.00    -0.051 A 
ATOM      3  C   LIG d   1       3.489  -0.188  -4.425  0.00  0.00     0.001 A 
ATOM      4  C   LIG d   1       2.891   0.406  -5.534  0.00  0.00    -0.043 A 
ATOM      5  C   LIG d   1       3.166  -0.087  -6.808  0.00  0.00     0.001 A 
ATOM      6  C   LIG d   1       2.580   0.488  -7.958  0.00  0.00    -0.051 A 
ATOM      7  C   LIG d   1       2.894  -0.046  -9.172  0.00  0.00    -0.043 A 
ATOM      8  C   LIG d   1       3.769  -1.128  -9.268  0.00  0.00     0.028 A 
ATOM      9  N   LIG d   1       4.325  -1.678  -8.219  0.00  0.00    -0.255 NA
ATOM     10  C   LIG d   1       4.077  -1.223  -6.981  0.00  0.00     0.073 A 
ATOM     11  C   LIG d   1       4.670  -1.818  -5.870  0.00  0.00    -0.010 A 
ATOM     12  C   LIG d   1       4.401  -1.324  -4.594  0.00  0.00     0.073 A 
ATOM     13  N   LIG d   1       4.964  -1.878  -3.509  0.00  0.00    -0.255 NA
ATOM     14  C   LIG d   1       4.712  -1.422  -2.307  0.00  0.00     0.028 A 
ATOM     15  H   LIG d   1       3.680  -0.010  -1.067  0.00  0.00     0.063 H 
ATOM     16  H   LIG d   1       2.572   1.116  -2.945  0.00  0.00     0.062 H 
ATOM     17  H   LIG d   1       2.220   1.243  -5.408  0.00  0.00     0.063 H 
ATOM     18  H   LIG d   1       1.904   1.326  -7.877  0.00  0.00     0.062 H 
ATOM     19  H   LIG d   1       2.460   0.373 -10.068  0.00  0.00     0.063 H 
ATOM     20  H   LIG d   1       3.996  -1.526 -10.245  0.00  0.00     0.083 H 
ATOM     21  H   LIG d   1       5.338  -2.658  -5.996  0.00  0.00     0.066 H 
ATOM     22  H   LIG d   1       5.187  -1.898  -1.462  0.00  0.00     0.083 H 
ENDROOT
TORSDOF 0
ENDMDL
MODEL 8
REMARK VINA RESULT:      -5.4      3.162      5.212
REMARK  0 active torsions:
REMARK  status: ('A' for Active; 'I' for Inactive)
ROOT
ATOM      1  C   LIG d   1       9.359  -3.029  -5.369  0.00  0.00    -0.043 A 
ATOM      2  C   LIG d   1       8.232  -3.180  -4.618  0.00  0.00    -0.051 A 
ATOM      3  C   LIG d   1       7.555  -2.014  -4.192  0.00  0.00     0.001 A 
ATOM      4  C   LIG d   1       6.397  -2.092  -3.423  0.00  0.00    -0.043 A 
ATOM      5  C   LIG d   1       5.760  -0.919  -3.023  0.00  0.00     0.001 A 
ATOM      6  C   LIG d   1       4.582  -0.955  -2.242  0.00  0.00    -0.051 A 
ATOM      7  C   LIG d   1       4.012   0.231  -1.888  0.00  0.00    -0.043 A 
ATOM      8  C   LIG d   1       4.579   1.440  -2.288  0.00  0.00     0.028 A 
ATOM      9  N   LIG d   1       5.668   1.501  -3.011  0.00  0.00    -0.255 NA
ATOM     10  C   LIG d   1       6.302   0.387  -3.409  0.00  0.00     0.073 A 
ATOM     11  C   LIG d   1       7.458   0.462  -4.183  0.00  0.00    -0.010 A 
ATOM     12  C   LIG d   1       8.101  -0.709  -4.581  0.00  0.00     0.073 A 
ATOM     13  N   LIG d   1       9.219  -0.663  -5.323  0.00  0.00    -0.255 NA
ATOM     14  C   LIG d   1       9.826  -1.759  -5.703  0.00  0.00     0.028 A 
ATOM     15  H   LIG d   1       9.897  -3.902  -5.708  0.00  0.00     0.063 H 
ATOM     16  H   LIG d   1       7.866  -4.161  -4.355  0.00  0.00     0.062 H 
ATOM     17  H   LIG d   1       5.997  -3.053  -3.137  0.00  0.00     0.063 H 
ATOM     18  H   LIG d   1       4.148  -1.895  -1.934  0.00  0.00     0.062 H 
ATOM     19  H   LIG d   1       3.112   0.233  -1.291  0.00  0.00     0.063 H 
ATOM     20  H   LIG d   1       4.102   2.361  -1.990  0.00  0.00     0.083 H 
ATOM     21  H   LIG d   1       7.856   1.423  -4.472  0.00  0.00     0.066 H 
ATOM     22  H   LIG d   1      10.723  -1.675  -6.299  0.00  0.00     0.083 H 
ENDROOT
TORSDOF 0
ENDMDL
MODEL 9
REMARK VINA RESULT:      -5.2      3.440      4.518
REMARK  0 active torsions:
REMARK  status: ('A' for Active; 'I' for Inactive)
ROOT
ATOM      1  C   LIG d   1       9.373   2.163  -4.604  0.00  0.00    -0.043 A 
ATOM      2  C   LIG d   1       8.205   2.206  -3.902  0.00  0.00    -0.051 A 
ATOM      3  C   LIG d   1       7.424   1.030  -3.836  0.00  0.00     0.001 A 
ATOM      4  C   LIG d   1       6.220   1.000  -3.137  0.00  0.00    -0.043 A 
ATOM      5  C   LIG d   1       5.480  -0.180  -3.097  0.00  0.00     0.001 A 
ATOM      6  C   LIG d   1       4.253  -0.251  -2.398  0.00  0.00    -0.051 A 
ATOM      7  C   LIG d   1       3.583  -1.438  -2.400  0.00  0.00    -0.043 A 
ATOM      8  C   LIG d   1       4.097  -2.544  -3.076  0.00  0.00     0.028 A 
ATOM      9  N   LIG d   1       5.230  -2.504  -3.730  0.00  0.00    -0.255 NA
ATOM     10  C   LIG d   1       5.963  -1.381  -3.785  0.00  0.00     0.073 A 
ATOM     11  C   LIG d   1       7.170  -1.350  -4.480  0.00  0.00    -0.010 A 
ATOM     12  C   LIG d   1       7.911  -0.170  -4.526  0.00  0.00     0.073 A 
ATOM     13  N   LIG d   1       9.075  -0.114  -5.194  0.00  0.00    -0.255 NA
ATOM     14  C   LIG d   1       9.778   0.989  -5.238  0.00  0.00     0.028 A 
ATOM     15  H   LIG d   1       9.989   3.047  -4.670  0.00  0.00     0.063 H 
ATOM     16  H   LIG d   1       7.885   3.113  -3.410  0.00  0.00     0.062 H 
ATOM     17  H   LIG d   1       5.863   1.884  -2.630  0.00  0.00     0.063 H 
ATOM     18  H   LIG d   1       3.860   0.609  -1.877  0.00  0.00     0.062 H 
ATOM     19  H   LIG d   1       2.644  -1.521  -1.874  0.00  0.00     0.063 H 
ATOM     20  H   LIG d   1       3.540  -3.468  -3.057  0.00  0.00     0.083 H 
ATOM     21  H   LIG d   1       7.529  -2.235  -4.983  0.00  0.00     0.066 H 
ATOM     22  H   LIG d   1      10.708   0.990  -5.786  0.00  0.00     0.083 H 
ENDROOT
TORSDOF 0
ENDMDL
MODEL 10
REMARK VINA RESULT:      -5.1      3.233      4.672
REMARK  0 active torsions:
REMARK  status: ('A' for Active; 'I' for Inactive)
ROOT
ATOM      1  C   LIG d   1       3.914  -1.886  -2.269  0.00  0.00    -0.043 A 
ATOM      2  C   LIG d   1       4.556  -0.688  -2.160  0.00  0.00    -0.051 A 
ATOM      3  C   LIG d   1       5.565  -0.386  -3.102  0.00  0.00     0.001 A 
ATOM      4  C   LIG d   1       6.262   0.819  -3.053  0.00  0.00    -0.043 A 
ATOM      5  C   LIG d   1       7.251   1.078  -4.000  0.00  0.00     0.001 A 
ATOM      6  C   LIG d   1       7.980   2.288  -3.985  0.00  0.00    -0.051 A 
ATOM      7  C   LIG d   1       8.932   2.475  -4.942  0.00  0.00    -0.043 A 
ATOM      8  C   LIG d   1       9.174   1.495  -5.904  0.00  0.00     0.028 A 
ATOM      9  N   LIG d   1       8.513   0.367  -5.941  0.00  0.00    -0.255 NA
ATOM     10  C   LIG d   1       7.556   0.092  -5.041  0.00  0.00     0.073 A 
ATOM     11  C   LIG d   1       6.854  -1.111  -5.091  0.00  0.00    -0.010 A 
ATOM     12  C   LIG d   1       5.868  -1.376  -4.142  0.00  0.00     0.073 A 
ATOM     13  N   LIG d   1       5.181  -2.530  -4.166  0.00  0.00    -0.255 NA
ATOM     14  C   LIG d   1       4.251  -2.783  -3.281  0.00  0.00     0.028 A 
ATOM     15  H   LIG d   1       3.139  -2.143  -1.563  0.00  0.00     0.063 H 
ATOM     16  H   LIG d   1       4.300   0.011  -1.378  0.00  0.00     0.062 H 
ATOM     17  H   LIG d   1       6.039   1.546  -2.287  0.00  0.00     0.063 H 
ATOM     18  H   LIG d   1       7.789   3.043  -3.236  0.00  0.00     0.062 H 
ATOM     19  H   LIG d   1       9.505   3.391  -4.954  0.00  0.00     0.063 H 
ATOM     20  H   LIG d   1       9.936   1.676  -6.648  0.00  0.00     0.083 H 
ATOM     21  H   LIG d   1       7.075  -1.836  -5.860  0.00  0.00     0.066 H 
ATOM     22  H   LIG d   1       3.724  -3.724  -3.338  0.00  0.00     0.083 H 
ENDROOT
TORSDOF 0
ENDMDL
