MODEL 1
REMARK VINA RESULT:      -7.8      0.000      0.000
REMARK  7 active torsions:
REMARK  status: ('A' for Active; 'I' for Inactive)
REMARK    1  A    between atoms: C_1  and  C_2 
REMARK    2  A    between atoms: C_2  and  C_3 
REMARK    3  A    between atoms: C_2  and  C_4 
REMARK    4  A    between atoms: C_7  and  C_10 
REMARK    5  A    between atoms: N_29  and  C_32 
REMARK    6  A    between atoms: C_32  and  C_33 
REMARK    7  A    between atoms: C_33  and  C_34 
ROOT
ATOM      1  C   LIG d   1       8.986   0.448  -4.877  0.00  0.00     0.092 C 
ATOM      2  H   LIG d   1       9.750  -0.290  -4.633  0.00  0.00     0.062 H 
ATOM      3  C   LIG d   1       9.459   1.829  -4.484  0.00  0.00     0.046 A 
ATOM      4  C   LIG d   1       9.394   2.900  -5.302  0.00  0.00    -0.015 A 
ATOM      5  C   LIG d   1       9.930   4.028  -4.567  0.00  0.00     0.003 A 
ATOM      6  C   LIG d   1      10.110   5.375  -4.896  0.00  0.00    -0.052 A 
ATOM      7  C   LIG d   1      10.663   6.181  -3.931  0.00  0.00    -0.061 A 
ATOM      8  C   LIG d   1      11.029   5.694  -2.686  0.00  0.00    -0.060 A 
ATOM      9  C   LIG d   1      10.860   4.367  -2.334  0.00  0.00    -0.038 A 
ATOM     10  C   LIG d   1      10.302   3.525  -3.294  0.00  0.00     0.047 A 
ATOM     11  N   LIG d   1      10.002   2.193  -3.280  0.00  0.00    -0.356 N 
ATOM     12  H   LIG d   1      10.151   1.595  -2.531  0.00  0.00     0.166 HD
ATOM     13  C   LIG d   1       8.860   2.874  -6.712  0.00  0.00     0.002 C 
ATOM     14  C   LIG d   1       8.024   1.600  -6.901  0.00  0.00     0.107 A 
ATOM     15  H   LIG d   1       7.087   1.724  -6.359  0.00  0.00     0.060 H 
ATOM     16  N   LIG d   1       8.748   0.461  -6.337  0.00  0.00    -0.276 N 
ATOM     17  C   LIG d   1       9.202  -0.554  -7.076  0.00  0.00     0.234 A 
ATOM     18  O   LIG d   1       9.850  -1.413  -6.518  0.00  0.00    -0.274 OA
ATOM     19  C   LIG d   1       8.963  -0.702  -8.543  0.00  0.00     0.091 A 
ATOM     20  N   LIG d   1       8.148   0.377  -9.076  0.00  0.00    -0.291 N 
ATOM     21  C   LIG d   1       7.720   1.409  -8.352  0.00  0.00     0.237 A 
ATOM     22  O   LIG d   1       7.042   2.248  -8.904  0.00  0.00    -0.274 OA
ATOM     23  H   LIG d   1       9.829   5.764  -5.864  0.00  0.00     0.062 H 
ATOM     24  H   LIG d   1      10.816   7.228  -4.150  0.00  0.00     0.062 H 
ATOM     25  H   LIG d   1      11.458   6.375  -1.967  0.00  0.00     0.062 H 
ATOM     26  H   LIG d   1      11.148   4.001  -1.360  0.00  0.00     0.064 H 
ATOM     27  H   LIG d   1       8.235   3.750  -6.882  0.00  0.00     0.034 H 
ATOM     28  H   LIG d   1       9.691   2.872  -7.417  0.00  0.00     0.034 H 
ATOM     29  H   LIG d   1       9.924  -0.709  -9.059  0.00  0.00     0.056 H 
ATOM     30  H   LIG d   1       8.458  -1.650  -8.726  0.00  0.00     0.056 H 
ENDROOT
BRANCH   1  31
ATOM     31  C   LIG d   1       7.706   0.119  -4.153  0.00  0.00    -0.021 A 
ATOM     32  C   LIG d   1       7.317  -1.199  -3.999  0.00  0.00    -0.056 A 
ATOM     33  C   LIG d   1       6.144  -1.501  -3.335  0.00  0.00    -0.058 A 
ATOM     34  H   LIG d   1       7.932  -1.994  -4.398  0.00  0.00     0.062 H 
ATOM     35  C   LIG d   1       5.357  -0.484  -2.825  0.00  0.00    -0.045 A 
ATOM     36  H   LIG d   1       5.840  -2.530  -3.215  0.00  0.00     0.062 H 
ATOM     37  C   LIG d   1       5.746   0.833  -2.979  0.00  0.00    -0.058 A 
ATOM     38  C   LIG d   1       6.922   1.135  -3.639  0.00  0.00    -0.056 A 
ATOM     39  H   LIG d   1       5.131   1.627  -2.580  0.00  0.00     0.062 H 
ATOM     40  H   LIG d   1       7.227   2.164  -3.757  0.00  0.00     0.062 H 
BRANCH  35  41
ATOM     41  C   LIG d   1       4.076  -0.813  -2.103  0.00  0.00    -0.021 C 
ATOM     42  H   LIG d   1       4.195  -0.604  -1.040  0.00  0.00     0.034 H 
BRANCH  41  43
ATOM     43  C   LIG d   1       2.940   0.042  -2.666  0.00  0.00    -0.059 C 
ATOM     44  H   LIG d   1       2.494  -0.464  -3.523  0.00  0.00     0.024 H 
ATOM     45  H   LIG d   1       2.181   0.190  -1.899  0.00  0.00     0.024 H 
ATOM     46  H   LIG d   1       3.333   1.009  -2.980  0.00  0.00     0.024 H 
ENDBRANCH  41  43
BRANCH  41  47
ATOM     47  C   LIG d   1       3.746  -2.294  -2.299  0.00  0.00    -0.059 C 
ATOM     48  H   LIG d   1       3.329  -2.445  -3.294  0.00  0.00     0.024 H 
ATOM     49  H   LIG d   1       4.655  -2.886  -2.192  0.00  0.00     0.024 H 
ATOM     50  H   LIG d   1       3.020  -2.606  -1.548  0.00  0.00     0.024 H 
ENDBRANCH  41  47
ENDBRANCH  35  41
ENDBRANCH   1  31
BRANCH  20  51
ATOM     51  C   LIG d   1       7.776   0.326 -10.492  0.00  0.00     0.019 C 
ATOM     52  H   LIG d   1       7.272   1.251 -10.769  0.00  0.00     0.047 H 
ATOM     53  H   LIG d   1       8.673   0.205 -11.100  0.00  0.00     0.047 H 
BRANCH  51  54
ATOM     54  C   LIG d   1       6.836  -0.858 -10.730  0.00  0.00    -0.012 C 
ATOM     55  H   LIG d   1       6.864  -1.138 -11.783  0.00  0.00     0.033 H 
ATOM     56  H   LIG d   1       7.155  -1.703 -10.120  0.00  0.00     0.033 H 
BRANCH  54  57
ATOM     57  C   LIG d   1       5.431  -0.468 -10.352  0.00  0.00    -0.046 A 
ATOM     58  C   LIG d   1       4.778   0.528 -11.052  0.00  0.00    -0.059 A 
ATOM     59  C   LIG d   1       3.488   0.886 -10.705  0.00  0.00    -0.061 A 
ATOM     60  H   LIG d   1       5.273   1.028 -11.871  0.00  0.00     0.062 H 
ATOM     61  C   LIG d   1       2.851   0.248  -9.656  0.00  0.00    -0.062 A 
ATOM     62  H   LIG d   1       2.977   1.665 -11.253  0.00  0.00     0.062 H 
ATOM     63  C   LIG d   1       3.505  -0.749  -8.957  0.00  0.00    -0.061 A 
ATOM     64  H   LIG d   1       1.844   0.527  -9.385  0.00  0.00     0.062 H 
ATOM     65  C   LIG d   1       4.792  -1.110  -9.307  0.00  0.00    -0.059 A 
ATOM     66  H   LIG d   1       3.007  -1.248  -8.137  0.00  0.00     0.062 H 
ATOM     67  H   LIG d   1       5.301  -1.891  -8.762  0.00  0.00     0.062 H 
ENDBRANCH  54  57
ENDBRANCH  51  54
ENDBRANCH  20  51
TORSDOF 7
ENDMDL
MODEL 2
REMARK VINA RESULT:      -7.6      3.021      6.179
REMARK  7 active torsions:
REMARK  status: ('A' for Active; 'I' for Inactive)
REMARK    1  A    between atoms: C_1  and  C_2 
REMARK    2  A    between atoms: C_2  and  C_3 
REMARK    3  A    between atoms: C_2  and  C_4 
REMARK    4  A    between atoms: C_7  and  C_10 
REMARK    5  A    between atoms: N_29  and  C_32 
REMARK    6  A    between atoms: C_32  and  C_33 
REMARK    7  A    between atoms: C_33  and  C_34 
ROOT
ATOM      1  C   LIG d   1      11.029   3.125  -5.546  0.00  0.00     0.092 C 
ATOM      2  H   LIG d   1      12.068   2.801  -5.584  0.00  0.00     0.062 H 
ATOM      3  C   LIG d   1      10.698   3.939  -6.777  0.00  0.00     0.046 A 
ATOM      4  C   LIG d   1       9.605   3.727  -7.539  0.00  0.00    -0.015 A 
ATOM      5  C   LIG d   1       9.637   4.706  -8.608  0.00  0.00     0.003 A 
ATOM      6  C   LIG d   1       8.779   4.966  -9.680  0.00  0.00    -0.052 A 
ATOM      7  C   LIG d   1       9.130   5.996 -10.519  0.00  0.00    -0.061 A 
ATOM      8  C   LIG d   1      10.277   6.748 -10.322  0.00  0.00    -0.060 A 
ATOM      9  C   LIG d   1      11.142   6.512  -9.268  0.00  0.00    -0.038 A 
ATOM     10  C   LIG d   1      10.811   5.473  -8.401  0.00  0.00     0.047 A 
ATOM     11  N   LIG d   1      11.426   4.981  -7.285  0.00  0.00    -0.356 N 
ATOM     12  H   LIG d   1      12.255   5.319  -6.910  0.00  0.00     0.166 HD
ATOM     13  C   LIG d   1       8.576   2.654  -7.287  0.00  0.00     0.002 C 
ATOM     14  C   LIG d   1       8.719   2.161  -5.840  0.00  0.00     0.107 A 
ATOM     15  H   LIG d   1       8.335   2.935  -5.176  0.00  0.00     0.060 H 
ATOM     16  N   LIG d   1      10.135   1.946  -5.543  0.00  0.00    -0.276 N 
ATOM     17  C   LIG d   1      10.651   0.744  -5.276  0.00  0.00     0.234 A 
ATOM     18  O   LIG d   1      11.850   0.667  -5.113  0.00  0.00    -0.274 OA
ATOM     19  C   LIG d   1       9.850  -0.513  -5.165  0.00  0.00     0.091 A 
ATOM     20  N   LIG d   1       8.429  -0.272  -5.351  0.00  0.00    -0.291 N 
ATOM     21  C   LIG d   1       7.912   0.917  -5.650  0.00  0.00     0.237 A 
ATOM     22  O   LIG d   1       6.708   0.999  -5.778  0.00  0.00    -0.274 OA
ATOM     23  H   LIG d   1       7.883   4.385  -9.843  0.00  0.00     0.062 H 
ATOM     24  H   LIG d   1       8.490   6.226 -11.359  0.00  0.00     0.062 H 
ATOM     25  H   LIG d   1      10.502   7.545 -11.014  0.00  0.00     0.062 H 
ATOM     26  H   LIG d   1      12.032   7.106  -9.125  0.00  0.00     0.064 H 
ATOM     27  H   LIG d   1       7.577   3.063  -7.436  0.00  0.00     0.034 H 
ATOM     28  H   LIG d   1       8.738   1.824  -7.973  0.00  0.00     0.034 H 
ATOM     29  H   LIG d   1      10.193  -1.218  -5.922  0.00  0.00     0.056 H 
ATOM     30  H   LIG d   1      10.008  -0.948  -4.179  0.00  0.00     0.056 H 
ENDROOT
BRANCH   1  31
ATOM     31  C   LIG d   1      10.793   3.949  -4.307  0.00  0.00    -0.021 A 
ATOM     32  C   LIG d   1       9.961   5.052  -4.358  0.00  0.00    -0.056 A 
ATOM     33  C   LIG d   1       9.744   5.807  -3.222  0.00  0.00    -0.058 A 
ATOM     34  H   LIG d   1       9.479   5.323  -5.287  0.00  0.00     0.062 H 
ATOM     35  C   LIG d   1      10.360   5.460  -2.033  0.00  0.00    -0.045 A 
ATOM     36  H   LIG d   1       9.094   6.669  -3.262  0.00  0.00     0.062 H 
ATOM     37  C   LIG d   1      11.191   4.358  -1.982  0.00  0.00    -0.058 A 
ATOM     38  C   LIG d   1      11.405   3.600  -3.117  0.00  0.00    -0.056 A 
ATOM     39  H   LIG d   1      11.672   4.087  -1.053  0.00  0.00     0.062 H 
ATOM     40  H   LIG d   1      12.052   2.735  -3.077  0.00  0.00     0.062 H 
BRANCH  35  41
ATOM     41  C   LIG d   1      10.125   6.286  -0.794  0.00  0.00    -0.021 C 
ATOM     42  H   LIG d   1       9.178   5.996  -0.339  0.00  0.00     0.034 H 
BRANCH  41  43
ATOM     43  C   LIG d   1      11.262   6.046   0.201  0.00  0.00    -0.059 C 
ATOM     44  H   LIG d   1      10.845   5.839   1.187  0.00  0.00     0.024 H 
ATOM     45  H   LIG d   1      11.858   5.195  -0.127  0.00  0.00     0.024 H 
ATOM     46  H   LIG d   1      11.894   6.933   0.253  0.00  0.00     0.024 H 
ENDBRANCH  41  43
BRANCH  41  47
ATOM     47  C   LIG d   1      10.080   7.768  -1.170  0.00  0.00    -0.059 C 
ATOM     48  H   LIG d   1      10.658   7.931  -2.079  0.00  0.00     0.024 H 
ATOM     49  H   LIG d   1       9.046   8.069  -1.338  0.00  0.00     0.024 H 
ATOM     50  H   LIG d   1      10.503   8.361  -0.359  0.00  0.00     0.024 H 
ENDBRANCH  41  47
ENDBRANCH  35  41
ENDBRANCH   1  31
BRANCH  20  51
ATOM     51  C   LIG d   1       7.512  -1.405  -5.201  0.00  0.00     0.019 C 
ATOM     52  H   LIG d   1       6.535  -1.138  -5.603  0.00  0.00     0.047 H 
ATOM     53  H   LIG d   1       7.905  -2.265  -5.744  0.00  0.00     0.047 H 
BRANCH  51  54
ATOM     54  C   LIG d   1       7.374  -1.757  -3.719  0.00  0.00    -0.012 C 
ATOM     55  H   LIG d   1       7.510  -2.831  -3.587  0.00  0.00     0.033 H 
ATOM     56  H   LIG d   1       8.133  -1.223  -3.147  0.00  0.00     0.033 H 
BRANCH  54  57
ATOM     57  C   LIG d   1       6.005  -1.360  -3.232  0.00  0.00    -0.046 A 
ATOM     58  C   LIG d   1       5.791  -0.088  -2.734  0.00  0.00    -0.059 A 
ATOM     59  C   LIG d   1       4.534   0.276  -2.287  0.00  0.00    -0.061 A 
ATOM     60  H   LIG d   1       6.604   0.621  -2.695  0.00  0.00     0.062 H 
ATOM     61  C   LIG d   1       3.492  -0.631  -2.338  0.00  0.00    -0.062 A 
ATOM     62  H   LIG d   1       4.367   1.270  -1.898  0.00  0.00     0.062 H 
ATOM     63  C   LIG d   1       3.707  -1.902  -2.836  0.00  0.00    -0.061 A 
ATOM     64  H   LIG d   1       2.511  -0.347  -1.988  0.00  0.00     0.062 H 
ATOM     65  C   LIG d   1       4.962  -2.265  -3.288  0.00  0.00    -0.059 A 
ATOM     66  H   LIG d   1       2.893  -2.611  -2.875  0.00  0.00     0.062 H 
ATOM     67  H   LIG d   1       5.128  -3.257  -3.680  0.00  0.00     0.062 H 
ENDBRANCH  54  57
ENDBRANCH  51  54
ENDBRANCH  20  51
TORSDOF 7
ENDMDL
MODEL 3
REMARK VINA RESULT:      -7.4      4.740      8.572
REMARK  7 active torsions:
REMARK  status: ('A' for Active; 'I' for Inactive)
REMARK    1  A    between atoms: C_1  and  C_2 
REMARK    2  A    between atoms: C_2  and  C_3 
REMARK    3  A    between atoms: C_2  and  C_4 
REMARK    4  A    between atoms: C_7  and  C_10 
REMARK    5  A    between atoms: N_29  and  C_32 
REMARK    6  A    between atoms: C_32  and  C_33 
REMARK    7  A    between atoms: C_33  and  C_34 
ROOT
ATOM      1  C   LIG d   1       4.132  -3.031  -6.361  0.00  0.00     0.092 C 
ATOM      2  H   LIG d   1       3.125  -3.439  -6.444  0.00  0.00     0.062 H 
ATOM      3  C   LIG d   1       4.170  -1.964  -5.291  0.00  0.00     0.046 A 
ATOM      4  C   LIG d   1       5.103  -1.918  -4.317  0.00  0.00    -0.015 A 
ATOM      5  C   LIG d   1       4.808  -0.757  -3.501  0.00  0.00     0.003 A 
ATOM      6  C   LIG d   1       5.423  -0.212  -2.371  0.00  0.00    -0.052 A 
ATOM      7  C   LIG d   1       4.858   0.924  -1.844  0.00  0.00    -0.061 A 
ATOM      8  C   LIG d   1       3.732   1.510  -2.397  0.00  0.00    -0.060 A 
ATOM      9  C   LIG d   1       3.104   0.991  -3.516  0.00  0.00    -0.038 A 
ATOM     10  C   LIG d   1       3.655  -0.161  -4.072  0.00  0.00     0.047 A 
ATOM     11  N   LIG d   1       3.298  -0.917  -5.151  0.00  0.00    -0.356 N 
ATOM     12  H   LIG d   1       2.541  -0.740  -5.732  0.00  0.00     0.166 HD
ATOM     13  C   LIG d   1       6.220  -2.917  -4.149  0.00  0.00     0.002 C 
ATOM     14  C   LIG d   1       6.390  -3.695  -5.462  0.00  0.00     0.107 A 
ATOM     15  H   LIG d   1       6.853  -3.033  -6.193  0.00  0.00     0.060 H 
ATOM     16  N   LIG d   1       5.074  -4.097  -5.956  0.00  0.00    -0.276 N 
ATOM     17  C   LIG d   1       4.688  -5.372  -6.053  0.00  0.00     0.234 A 
ATOM     18  O   LIG d   1       3.551  -5.593  -6.409  0.00  0.00    -0.274 OA
ATOM     19  C   LIG d   1       5.566  -6.544  -5.752  0.00  0.00     0.091 A 
ATOM     20  N   LIG d   1       6.908  -6.137  -5.369  0.00  0.00    -0.291 N 
ATOM     21  C   LIG d   1       7.288  -4.869  -5.238  0.00  0.00     0.237 A 
ATOM     22  O   LIG d   1       8.437  -4.650  -4.916  0.00  0.00    -0.274 OA
ATOM     23  H   LIG d   1       6.302  -0.662  -1.932  0.00  0.00     0.062 H 
ATOM     24  H   LIG d   1       5.308   1.374  -0.971  0.00  0.00     0.062 H 
ATOM     25  H   LIG d   1       3.331   2.402  -1.940  0.00  0.00     0.062 H 
ATOM     26  H   LIG d   1       2.226   1.459  -3.938  0.00  0.00     0.064 H 
ATOM     27  H   LIG d   1       7.146  -2.393  -3.913  0.00  0.00     0.034 H 
ATOM     28  H   LIG d   1       5.974  -3.609  -3.345  0.00  0.00     0.034 H 
ATOM     29  H   LIG d   1       5.122  -7.117  -4.938  0.00  0.00     0.056 H 
ATOM     30  H   LIG d   1       5.628  -7.176  -6.637  0.00  0.00     0.056 H 
ENDROOT
BRANCH   1  31
ATOM     31  C   LIG d   1       4.559  -2.447  -7.683  0.00  0.00    -0.021 A 
ATOM     32  C   LIG d   1       4.024  -2.935  -8.861  0.00  0.00    -0.056 A 
ATOM     33  C   LIG d   1       4.415  -2.399 -10.072  0.00  0.00    -0.058 A 
ATOM     34  H   LIG d   1       3.299  -3.736  -8.833  0.00  0.00     0.062 H 
ATOM     35  C   LIG d   1       5.342  -1.374 -10.107  0.00  0.00    -0.045 A 
ATOM     36  H   LIG d   1       3.997  -2.780 -10.992  0.00  0.00     0.062 H 
ATOM     37  C   LIG d   1       5.877  -0.885  -8.930  0.00  0.00    -0.058 A 
ATOM     38  C   LIG d   1       5.483  -1.419  -7.718  0.00  0.00    -0.056 A 
ATOM     39  H   LIG d   1       6.601  -0.084  -8.958  0.00  0.00     0.062 H 
ATOM     40  H   LIG d   1       5.898  -1.035  -6.797  0.00  0.00     0.062 H 
BRANCH  35  41
ATOM     41  C   LIG d   1       5.770  -0.790 -11.429  0.00  0.00    -0.021 C 
ATOM     42  H   LIG d   1       6.526  -0.022 -11.260  0.00  0.00     0.034 H 
BRANCH  41  43
ATOM     43  C   LIG d   1       6.357  -1.896 -12.308  0.00  0.00    -0.059 C 
ATOM     44  H   LIG d   1       7.213  -1.507 -12.860  0.00  0.00     0.024 H 
ATOM     45  H   LIG d   1       6.678  -2.727 -11.681  0.00  0.00     0.024 H 
ATOM     46  H   LIG d   1       5.600  -2.244 -13.011  0.00  0.00     0.024 H 
ENDBRANCH  41  43
BRANCH  41  47
ATOM     47  C   LIG d   1       4.560  -0.171 -12.130  0.00  0.00    -0.059 C 
ATOM     48  H   LIG d   1       4.899   0.507 -12.913  0.00  0.00     0.024 H 
ATOM     49  H   LIG d   1       3.952  -0.961 -12.571  0.00  0.00     0.024 H 
ATOM     50  H   LIG d   1       3.963   0.382 -11.403  0.00  0.00     0.024 H 
ENDBRANCH  41  47
ENDBRANCH  35  41
ENDBRANCH   1  31
BRANCH  20  51
ATOM     51  C   LIG d   1       7.898  -7.185  -5.110  0.00  0.00     0.019 C 
ATOM     52  H   LIG d   1       8.714  -7.099  -5.827  0.00  0.00     0.047 H 
ATOM     53  H   LIG d   1       8.290  -7.074  -4.099  0.00  0.00     0.047 H 
BRANCH  51  54
ATOM     54  C   LIG d   1       7.238  -8.558  -5.253  0.00  0.00    -0.012 C 
ATOM     55  H   LIG d   1       6.290  -8.452  -5.780  0.00  0.00     0.033 H 
ATOM     56  H   LIG d   1       7.895  -9.220  -5.818  0.00  0.00     0.033 H 
BRANCH  54  57
ATOM     57  C   LIG d   1       6.990  -9.142  -3.887  0.00  0.00    -0.046 A 
ATOM     58  C   LIG d   1       7.905  -8.935  -2.871  0.00  0.00    -0.059 A 
ATOM     59  C   LIG d   1       7.678  -9.472  -1.617  0.00  0.00    -0.061 A 
ATOM     60  H   LIG d   1       8.796  -8.355  -3.056  0.00  0.00     0.062 H 
ATOM     61  C   LIG d   1       6.537 -10.215  -1.378  0.00  0.00    -0.062 A 
ATOM     62  H   LIG d   1       8.393  -9.310  -0.823  0.00  0.00     0.062 H 
ATOM     63  C   LIG d   1       5.623 -10.420  -2.394  0.00  0.00    -0.061 A 
ATOM     64  H   LIG d   1       6.359 -10.634  -0.399  0.00  0.00     0.062 H 
ATOM     65  C   LIG d   1       5.847  -9.880  -3.647  0.00  0.00    -0.059 A 
ATOM     66  H   LIG d   1       4.731 -11.001  -2.208  0.00  0.00     0.062 H 
ATOM     67  H   LIG d   1       5.130 -10.038  -4.439  0.00  0.00     0.062 H 
ENDBRANCH  54  57
ENDBRANCH  51  54
ENDBRANCH  20  51
TORSDOF 7
ENDMDL
MODEL 4
REMARK VINA RESULT:      -7.2      4.965      9.062
REMARK  7 active torsions:
REMARK  status: ('A' for Active; 'I' for Inactive)
REMARK    1  A    between atoms: C_1  and  C_2 
REMARK    2  A    between atoms: C_2  and  C_3 
REMARK    3  A    between atoms: C_2  and  C_4 
REMARK    4  A    between atoms: C_7  and  C_10 
REMARK    5  A    between atoms: N_29  and  C_32 
REMARK    6  A    between atoms: C_32  and  C_33 
REMARK    7  A    between atoms: C_33  and  C_34 
ROOT
ATOM      1  C   LIG d   1       5.190  -2.466  -7.687  0.00  0.00     0.092 C 
ATOM      2  H   LIG d   1       6.090  -1.967  -8.045  0.00  0.00     0.062 H 
ATOM      3  C   LIG d   1       4.088  -2.338  -8.714  0.00  0.00     0.046 A 
ATOM      4  C   LIG d   1       3.340  -3.379  -9.139  0.00  0.00    -0.015 A 
ATOM      5  C   LIG d   1       2.396  -2.856 -10.106  0.00  0.00     0.003 A 
ATOM      6  C   LIG d   1       1.387  -3.455 -10.865  0.00  0.00    -0.052 A 
ATOM      7  C   LIG d   1       0.670  -2.635 -11.702  0.00  0.00    -0.061 A 
ATOM      8  C   LIG d   1       0.925  -1.277 -11.798  0.00  0.00    -0.060 A 
ATOM      9  C   LIG d   1       1.917  -0.658 -11.056  0.00  0.00    -0.038 A 
ATOM     10  C   LIG d   1       2.661  -1.466 -10.199  0.00  0.00     0.047 A 
ATOM     11  N   LIG d   1       3.688  -1.189  -9.344  0.00  0.00    -0.356 N 
ATOM     12  H   LIG d   1       4.078  -0.312  -9.204  0.00  0.00     0.166 HD
ATOM     13  C   LIG d   1       3.503  -4.802  -8.668  0.00  0.00     0.002 C 
ATOM     14  C   LIG d   1       4.307  -4.802  -7.360  0.00  0.00     0.107 A 
ATOM     15  H   LIG d   1       3.663  -4.425  -6.565  0.00  0.00     0.060 H 
ATOM     16  N   LIG d   1       5.455  -3.909  -7.501  0.00  0.00    -0.276 N 
ATOM     17  C   LIG d   1       6.720  -4.335  -7.472  0.00  0.00     0.234 A 
ATOM     18  O   LIG d   1       7.596  -3.521  -7.668  0.00  0.00    -0.274 OA
ATOM     19  C   LIG d   1       7.128  -5.750  -7.214  0.00  0.00     0.091 A 
ATOM     20  N   LIG d   1       5.984  -6.611  -6.965  0.00  0.00    -0.291 N 
ATOM     21  C   LIG d   1       4.720  -6.199  -7.024  0.00  0.00     0.237 A 
ATOM     22  O   LIG d   1       3.847  -7.008  -6.792  0.00  0.00    -0.274 OA
ATOM     23  H   LIG d   1       1.181  -4.513 -10.797  0.00  0.00     0.062 H 
ATOM     24  H   LIG d   1      -0.119  -3.064 -12.303  0.00  0.00     0.062 H 
ATOM     25  H   LIG d   1       0.329  -0.681 -12.472  0.00  0.00     0.062 H 
ATOM     26  H   LIG d   1       2.105   0.402 -11.140  0.00  0.00     0.064 H 
ATOM     27  H   LIG d   1       2.522  -5.244  -8.495  0.00  0.00     0.034 H 
ATOM     28  H   LIG d   1       4.037  -5.377  -9.424  0.00  0.00     0.034 H 
ATOM     29  H   LIG d   1       7.672  -6.124  -8.082  0.00  0.00     0.056 H 
ATOM     30  H   LIG d   1       7.786  -5.776  -6.346  0.00  0.00     0.056 H 
ENDROOT
BRANCH   1  31
ATOM     31  C   LIG d   1       4.749  -1.854  -6.382  0.00  0.00    -0.021 A 
ATOM     32  C   LIG d   1       3.994  -0.696  -6.382  0.00  0.00    -0.056 A 
ATOM     33  C   LIG d   1       3.589  -0.135  -5.186  0.00  0.00    -0.058 A 
ATOM     34  H   LIG d   1       3.719  -0.230  -7.317  0.00  0.00     0.062 H 
ATOM     35  C   LIG d   1       3.940  -0.732  -3.989  0.00  0.00    -0.045 A 
ATOM     36  H   LIG d   1       2.999   0.769  -5.185  0.00  0.00     0.062 H 
ATOM     37  C   LIG d   1       4.695  -1.890  -3.989  0.00  0.00    -0.058 A 
ATOM     38  C   LIG d   1       5.096  -2.453  -5.185  0.00  0.00    -0.056 A 
ATOM     39  H   LIG d   1       4.969  -2.356  -3.054  0.00  0.00     0.062 H 
ATOM     40  H   LIG d   1       5.683  -3.360  -5.186  0.00  0.00     0.062 H 
BRANCH  35  41
ATOM     41  C   LIG d   1       3.500  -0.119  -2.684  0.00  0.00    -0.021 C 
ATOM     42  H   LIG d   1       2.483  -0.438  -2.457  0.00  0.00     0.034 H 
BRANCH  41  43
ATOM     43  C   LIG d   1       4.438  -0.577  -1.565  0.00  0.00    -0.059 C 
ATOM     44  H   LIG d   1       3.856  -1.046  -0.771  0.00  0.00     0.024 H 
ATOM     45  H   LIG d   1       5.155  -1.294  -1.962  0.00  0.00     0.024 H 
ATOM     46  H   LIG d   1       4.972   0.285  -1.161  0.00  0.00     0.024 H 
ENDBRANCH  41  43
BRANCH  41  47
ATOM     47  C   LIG d   1       3.546   1.405  -2.795  0.00  0.00    -0.059 C 
ATOM     48  H   LIG d   1       4.549   1.758  -2.557  0.00  0.00     0.024 H 
ATOM     49  H   LIG d   1       3.288   1.703  -3.812  0.00  0.00     0.024 H 
ATOM     50  H   LIG d   1       2.831   1.842  -2.098  0.00  0.00     0.024 H 
ENDBRANCH  41  47
ENDBRANCH  35  41
ENDBRANCH   1  31
BRANCH  20  51
ATOM     51  C   LIG d   1       6.238  -8.014  -6.629  0.00  0.00     0.019 C 
ATOM     52  H   LIG d   1       5.291  -8.552  -6.577  0.00  0.00     0.047 H 
ATOM     53  H   LIG d   1       6.869  -8.463  -7.395  0.00  0.00     0.047 H 
BRANCH  51  54
ATOM     54  C   LIG d   1       6.945  -8.095  -5.274  0.00  0.00    -0.012 C 
ATOM     55  H   LIG d   1       7.949  -8.496  -5.412  0.00  0.00     0.033 H 
ATOM     56  H   LIG d   1       7.009  -7.097  -4.838  0.00  0.00     0.033 H 
BRANCH  54  57
ATOM     57  C   LIG d   1       6.166  -8.996  -4.353  0.00  0.00    -0.046 A 
ATOM     58  C   LIG d   1       4.821  -9.221  -4.580  0.00  0.00    -0.059 A 
ATOM     59  C   LIG d   1       4.106 -10.049  -3.734  0.00  0.00    -0.061 A 
ATOM     60  H   LIG d   1       4.329  -8.752  -5.418  0.00  0.00     0.062 H 
ATOM     61  C   LIG d   1       4.736 -10.651  -2.660  0.00  0.00    -0.062 A 
ATOM     62  H   LIG d   1       3.055 -10.225  -3.912  0.00  0.00     0.062 H 
ATOM     63  C   LIG d   1       6.080 -10.426  -2.434  0.00  0.00    -0.061 A 
ATOM     64  H   LIG d   1       4.178 -11.297  -1.999  0.00  0.00     0.062 H 
ATOM     65  C   LIG d   1       6.796  -9.602  -3.282  0.00  0.00    -0.059 A 
ATOM     66  H   LIG d   1       6.572 -10.896  -1.594  0.00  0.00     0.062 H 
ATOM     67  H   LIG d   1       7.848  -9.429  -3.107  0.00  0.00     0.062 H 
ENDBRANCH  54  57
ENDBRANCH  51  54
ENDBRANCH  20  51
TORSDOF 7
ENDMDL
MODEL 5
REMARK VINA RESULT:      -7.2      4.677      8.322
REMARK  7 active torsions:
REMARK  status: ('A' for Active; 'I' for Inactive)
REMARK    1  A    between atoms: C_1  and  C_2 
REMARK    2  A    between atoms: C_2  and  C_3 
REMARK    3  A    between atoms: C_2  and  C_4 
REMARK    4  A    between atoms: C_7  and  C_10 
REMARK    5  A    between atoms: N_29  and  C_32 
REMARK    6  A    between atoms: C_32  and  C_33 
REMARK    7  A    between atoms: C_33  and  C_34 
ROOT
ATOM      1  C   LIG d   1       4.473  -2.027  -7.223  0.00  0.00     0.092 C 
ATOM      2  H   LIG d   1       3.518  -1.954  -7.743  0.00  0.00     0.062 H 
ATOM      3  C   LIG d   1       4.374  -1.356  -5.871  0.00  0.00     0.046 A 
ATOM      4  C   LIG d   1       4.793  -1.929  -4.722  0.00  0.00    -0.015 A 
ATOM      5  C   LIG d   1       4.539  -0.978  -3.658  0.00  0.00     0.003 A 
ATOM      6  C   LIG d   1       4.764  -1.018  -2.279  0.00  0.00    -0.052 A 
ATOM      7  C   LIG d   1       4.389   0.089  -1.557  0.00  0.00    -0.061 A 
ATOM      8  C   LIG d   1       3.814   1.198  -2.156  0.00  0.00    -0.060 A 
ATOM      9  C   LIG d   1       3.582   1.264  -3.519  0.00  0.00    -0.038 A 
ATOM     10  C   LIG d   1       3.952   0.155  -4.277  0.00  0.00     0.047 A 
ATOM     11  N   LIG d   1       3.869  -0.110  -5.613  0.00  0.00    -0.356 N 
ATOM     12  H   LIG d   1       3.505   0.494  -6.280  0.00  0.00     0.166 HD
ATOM     13  C   LIG d   1       5.399  -3.306  -4.620  0.00  0.00     0.002 C 
ATOM     14  C   LIG d   1       5.860  -3.749  -6.016  0.00  0.00     0.107 A 
ATOM     15  H   LIG d   1       6.753  -3.181  -6.276  0.00  0.00     0.060 H 
ATOM     16  N   LIG d   1       4.810  -3.448  -6.987  0.00  0.00    -0.276 N 
ATOM     17  C   LIG d   1       4.146  -4.390  -7.662  0.00  0.00     0.234 A 
ATOM     18  O   LIG d   1       3.246  -4.034  -8.392  0.00  0.00    -0.274 OA
ATOM     19  C   LIG d   1       4.440  -5.853  -7.577  0.00  0.00     0.091 A 
ATOM     20  N   LIG d   1       5.558  -6.135  -6.694  0.00  0.00    -0.291 N 
ATOM     21  C   LIG d   1       6.202  -5.204  -5.993  0.00  0.00     0.237 A 
ATOM     22  O   LIG d   1       7.125  -5.558  -5.291  0.00  0.00    -0.274 OA
ATOM     23  H   LIG d   1       5.211  -1.878  -1.803  0.00  0.00     0.062 H 
ATOM     24  H   LIG d   1       4.548   0.094  -0.489  0.00  0.00     0.062 H 
ATOM     25  H   LIG d   1       3.539   2.040  -1.539  0.00  0.00     0.062 H 
ATOM     26  H   LIG d   1       3.133   2.135  -3.973  0.00  0.00     0.064 H 
ATOM     27  H   LIG d   1       6.253  -3.280  -3.944  0.00  0.00     0.034 H 
ATOM     28  H   LIG d   1       4.654  -4.005  -4.243  0.00  0.00     0.034 H 
ATOM     29  H   LIG d   1       3.555  -6.369  -7.205  0.00  0.00     0.056 H 
ATOM     30  H   LIG d   1       4.674  -6.225  -8.574  0.00  0.00     0.056 H 
ENDROOT
BRANCH   1  31
ATOM     31  C   LIG d   1       5.556  -1.373  -8.042  0.00  0.00    -0.021 A 
ATOM     32  C   LIG d   1       5.595  -1.559  -9.411  0.00  0.00    -0.056 A 
ATOM     33  C   LIG d   1       6.587  -0.960 -10.162  0.00  0.00    -0.058 A 
ATOM     34  H   LIG d   1       4.849  -2.174  -9.894  0.00  0.00     0.062 H 
ATOM     35  C   LIG d   1       7.542  -0.173  -9.544  0.00  0.00    -0.045 A 
ATOM     36  H   LIG d   1       6.619  -1.106 -11.232  0.00  0.00     0.062 H 
ATOM     37  C   LIG d   1       7.502   0.014  -8.175  0.00  0.00    -0.058 A 
ATOM     38  C   LIG d   1       6.507  -0.583  -7.424  0.00  0.00    -0.056 A 
ATOM     39  H   LIG d   1       8.248   0.628  -7.692  0.00  0.00     0.062 H 
ATOM     40  H   LIG d   1       6.474  -0.434  -6.355  0.00  0.00     0.062 H 
BRANCH  35  41
ATOM     41  C   LIG d   1       8.626   0.479 -10.363  0.00  0.00    -0.021 C 
ATOM     42  H   LIG d   1       8.250   0.686 -11.364  0.00  0.00     0.034 H 
BRANCH  41  43
ATOM     43  C   LIG d   1       9.048   1.791  -9.697  0.00  0.00    -0.059 C 
ATOM     44  H   LIG d   1      10.114   1.759  -9.473  0.00  0.00     0.024 H 
ATOM     45  H   LIG d   1       8.844   2.623 -10.370  0.00  0.00     0.024 H 
ATOM     46  H   LIG d   1       8.488   1.926  -8.771  0.00  0.00     0.024 H 
ENDBRANCH  41  43
BRANCH  41  47
ATOM     47  C   LIG d   1       9.831  -0.458 -10.453  0.00  0.00    -0.059 C 
ATOM     48  H   LIG d   1      10.521  -0.092 -11.214  0.00  0.00     0.024 H 
ATOM     49  H   LIG d   1      10.339  -0.490  -9.489  0.00  0.00     0.024 H 
ATOM     50  H   LIG d   1       9.494  -1.460 -10.719  0.00  0.00     0.024 H 
ENDBRANCH  41  47
ENDBRANCH  35  41
ENDBRANCH   1  31
BRANCH  20  51
ATOM     51  C   LIG d   1       6.003  -7.525  -6.566  0.00  0.00     0.019 C 
ATOM     52  H   LIG d   1       6.344  -7.888  -7.536  0.00  0.00     0.047 H 
ATOM     53  H   LIG d   1       6.822  -7.580  -5.849  0.00  0.00     0.047 H 
BRANCH  51  54
ATOM     54  C   LIG d   1       4.839  -8.390  -6.079  0.00  0.00    -0.012 C 
ATOM     55  H   LIG d   1       3.962  -7.763  -5.919  0.00  0.00     0.033 H 
ATOM     56  H   LIG d   1       4.612  -9.148  -6.829  0.00  0.00     0.033 H 
BRANCH  54  57
ATOM     57  C   LIG d   1       5.219  -9.061  -4.785  0.00  0.00    -0.046 A 
ATOM     58  C   LIG d   1       4.268  -9.757  -4.062  0.00  0.00    -0.059 A 
ATOM     59  C   LIG d   1       4.617 -10.373  -2.874  0.00  0.00    -0.061 A 
ATOM     60  H   LIG d   1       3.253  -9.820  -4.425  0.00  0.00     0.062 H 
ATOM     61  C   LIG d   1       5.916 -10.293  -2.409  0.00  0.00    -0.062 A 
ATOM     62  H   LIG d   1       3.873 -10.917  -2.310  0.00  0.00     0.062 H 
ATOM     63  C   LIG d   1       6.866  -9.598  -3.132  0.00  0.00    -0.061 A 
ATOM     64  H   LIG d   1       6.188 -10.773  -1.481  0.00  0.00     0.062 H 
ATOM     65  C   LIG d   1       6.519  -8.986  -4.322  0.00  0.00    -0.059 A 
ATOM     66  H   LIG d   1       7.882  -9.535  -2.768  0.00  0.00     0.062 H 
ATOM     67  H   LIG d   1       7.263  -8.446  -4.888  0.00  0.00     0.062 H 
ENDBRANCH  54  57
ENDBRANCH  51  54
ENDBRANCH  20  51
TORSDOF 7
ENDMDL
MODEL 6
REMARK VINA RESULT:      -7.0      3.480      7.535
REMARK  7 active torsions:
REMARK  status: ('A' for Active; 'I' for Inactive)
REMARK    1  A    between atoms: C_1  and  C_2 
REMARK    2  A    between atoms: C_2  and  C_3 
REMARK    3  A    between atoms: C_2  and  C_4 
REMARK    4  A    between atoms: C_7  and  C_10 
REMARK    5  A    between atoms: N_29  and  C_32 
REMARK    6  A    between atoms: C_32  and  C_33 
REMARK    7  A    between atoms: C_33  and  C_34 
ROOT
ATOM      1  C   LIG d   1       9.133   0.733  -5.394  0.00  0.00     0.092 C 
ATOM      2  H   LIG d   1       8.841   0.719  -6.444  0.00  0.00     0.062 H 
ATOM      3  C   LIG d   1      10.248  -0.260  -5.157  0.00  0.00     0.046 A 
ATOM      4  C   LIG d   1      11.381   0.037  -4.486  0.00  0.00    -0.015 A 
ATOM      5  C   LIG d   1      12.189  -1.166  -4.462  0.00  0.00     0.003 A 
ATOM      6  C   LIG d   1      13.442  -1.456  -3.916  0.00  0.00    -0.052 A 
ATOM      7  C   LIG d   1      13.915  -2.733  -4.091  0.00  0.00    -0.061 A 
ATOM      8  C   LIG d   1      13.193  -3.698  -4.773  0.00  0.00    -0.060 A 
ATOM      9  C   LIG d   1      11.949  -3.438  -5.323  0.00  0.00    -0.038 A 
ATOM     10  C   LIG d   1      11.445  -2.150  -5.162  0.00  0.00     0.047 A 
ATOM     11  N   LIG d   1      10.278  -1.567  -5.566  0.00  0.00    -0.356 N 
ATOM     12  H   LIG d   1       9.576  -2.011  -6.067  0.00  0.00     0.166 HD
ATOM     13  C   LIG d   1      11.701   1.388  -3.896  0.00  0.00     0.002 C 
ATOM     14  C   LIG d   1      10.403   2.201  -3.788  0.00  0.00     0.107 A 
ATOM     15  H   LIG d   1       9.809   1.788  -2.973  0.00  0.00     0.060 H 
ATOM     16  N   LIG d   1       9.650   2.072  -5.034  0.00  0.00    -0.276 N 
ATOM     17  C   LIG d   1       9.413   3.098  -5.855  0.00  0.00     0.234 A 
ATOM     18  O   LIG d   1       8.838   2.868  -6.897  0.00  0.00    -0.274 OA
ATOM     19  C   LIG d   1       9.809   4.512  -5.573  0.00  0.00     0.091 A 
ATOM     20  N   LIG d   1      10.459   4.650  -4.281  0.00  0.00    -0.291 N 
ATOM     21  C   LIG d   1      10.728   3.626  -3.474  0.00  0.00     0.237 A 
ATOM     22  O   LIG d   1      11.271   3.864  -2.415  0.00  0.00    -0.274 OA
ATOM     23  H   LIG d   1      14.013  -0.710  -3.383  0.00  0.00     0.062 H 
ATOM     24  H   LIG d   1      14.880  -2.994  -3.681  0.00  0.00     0.062 H 
ATOM     25  H   LIG d   1      13.614  -4.687  -4.879  0.00  0.00     0.062 H 
ATOM     26  H   LIG d   1      11.396  -4.200  -5.852  0.00  0.00     0.064 H 
ATOM     27  H   LIG d   1      12.135   1.260  -2.904  0.00  0.00     0.034 H 
ATOM     28  H   LIG d   1      12.406   1.911  -4.541  0.00  0.00     0.034 H 
ATOM     29  H   LIG d   1      10.493   4.848  -6.353  0.00  0.00     0.056 H 
ATOM     30  H   LIG d   1       8.919   5.139  -5.590  0.00  0.00     0.056 H 
ENDROOT
BRANCH   1  31
ATOM     31  C   LIG d   1       7.949   0.392  -4.527  0.00  0.00    -0.021 A 
ATOM     32  C   LIG d   1       7.586  -0.929  -4.342  0.00  0.00    -0.056 A 
ATOM     33  C   LIG d   1       6.500  -1.243  -3.547  0.00  0.00    -0.058 A 
ATOM     34  H   LIG d   1       8.151  -1.717  -4.819  0.00  0.00     0.062 H 
ATOM     35  C   LIG d   1       5.776  -0.235  -2.937  0.00  0.00    -0.045 A 
ATOM     36  H   LIG d   1       6.216  -2.274  -3.402  0.00  0.00     0.062 H 
ATOM     37  C   LIG d   1       6.140   1.086  -3.121  0.00  0.00    -0.058 A 
ATOM     38  C   LIG d   1       7.228   1.399  -3.913  0.00  0.00    -0.056 A 
ATOM     39  H   LIG d   1       5.574   1.874  -2.645  0.00  0.00     0.062 H 
ATOM     40  H   LIG d   1       7.514   2.431  -4.055  0.00  0.00     0.062 H 
BRANCH  35  41
ATOM     41  C   LIG d   1       4.591  -0.577  -2.071  0.00  0.00    -0.021 C 
ATOM     42  H   LIG d   1       4.881  -0.527  -1.022  0.00  0.00     0.034 H 
BRANCH  41  43
ATOM     43  C   LIG d   1       3.463   0.423  -2.335  0.00  0.00    -0.059 C 
ATOM     44  H   LIG d   1       2.591  -0.106  -2.721  0.00  0.00     0.024 H 
ATOM     45  H   LIG d   1       3.198   0.926  -1.406  0.00  0.00     0.024 H 
ATOM     46  H   LIG d   1       3.793   1.160  -3.067  0.00  0.00     0.024 H 
ENDBRANCH  41  43
BRANCH  41  47
ATOM     47  C   LIG d   1       4.108  -1.990  -2.402  0.00  0.00    -0.059 C 
ATOM     48  H   LIG d   1       4.965  -2.661  -2.467  0.00  0.00     0.024 H 
ATOM     49  H   LIG d   1       3.434  -2.336  -1.618  0.00  0.00     0.024 H 
ATOM     50  H   LIG d   1       3.581  -1.979  -3.356  0.00  0.00     0.024 H 
ENDBRANCH  41  47
ENDBRANCH  35  41
ENDBRANCH   1  31
BRANCH  20  51
ATOM     51  C   LIG d   1      10.842   5.994  -3.842  0.00  0.00     0.019 C 
ATOM     52  H   LIG d   1      11.609   5.920  -3.071  0.00  0.00     0.047 H 
ATOM     53  H   LIG d   1      11.233   6.556  -4.690  0.00  0.00     0.047 H 
BRANCH  51  54
ATOM     54  C   LIG d   1       9.617   6.713  -3.275  0.00  0.00    -0.012 C 
ATOM     55  H   LIG d   1       9.221   7.401  -4.023  0.00  0.00     0.033 H 
ATOM     56  H   LIG d   1       8.853   5.980  -3.016  0.00  0.00     0.033 H 
BRANCH  54  57
ATOM     57  C   LIG d   1      10.011   7.485  -2.043  0.00  0.00    -0.046 A 
ATOM     58  C   LIG d   1      10.012   8.867  -2.063  0.00  0.00    -0.059 A 
ATOM     59  C   LIG d   1      10.374   9.574  -0.932  0.00  0.00    -0.061 A 
ATOM     60  H   LIG d   1       9.728   9.394  -2.961  0.00  0.00     0.062 H 
ATOM     61  C   LIG d   1      10.737   8.901   0.220  0.00  0.00    -0.062 A 
ATOM     62  H   LIG d   1      10.374  10.655  -0.948  0.00  0.00     0.062 H 
ATOM     63  C   LIG d   1      10.736   7.519   0.239  0.00  0.00    -0.061 A 
ATOM     64  H   LIG d   1      11.021   9.453   1.103  0.00  0.00     0.062 H 
ATOM     65  C   LIG d   1      10.369   6.811  -0.890  0.00  0.00    -0.059 A 
ATOM     66  H   LIG d   1      11.020   6.992   1.139  0.00  0.00     0.062 H 
ATOM     67  H   LIG d   1      10.365   5.731  -0.873  0.00  0.00     0.062 H 
ENDBRANCH  54  57
ENDBRANCH  51  54
ENDBRANCH  20  51
TORSDOF 7
ENDMDL
MODEL 7
REMARK VINA RESULT:      -7.0      2.149      2.826
REMARK  7 active torsions:
REMARK  status: ('A' for Active; 'I' for Inactive)
REMARK    1  A    between atoms: C_1  and  C_2 
REMARK    2  A    between atoms: C_2  and  C_3 
REMARK    3  A    between atoms: C_2  and  C_4 
REMARK    4  A    between atoms: C_7  and  C_10 
REMARK    5  A    between atoms: N_29  and  C_32 
REMARK    6  A    between atoms: C_32  and  C_33 
REMARK    7  A    between atoms: C_33  and  C_34 
ROOT
ATOM      1  C   LIG d   1       8.129  -0.187  -6.903  0.00  0.00     0.092 C 
ATOM      2  H   LIG d   1       8.694  -1.103  -7.070  0.00  0.00     0.062 H 
ATOM      3  C   LIG d   1       9.075   0.987  -6.784  0.00  0.00     0.046 A 
ATOM      4  C   LIG d   1       8.914   2.145  -7.459  0.00  0.00    -0.015 A 
ATOM      5  C   LIG d   1      10.008   3.015  -7.075  0.00  0.00     0.003 A 
ATOM      6  C   LIG d   1      10.357   4.317  -7.442  0.00  0.00    -0.052 A 
ATOM      7  C   LIG d   1      11.488   4.842  -6.868  0.00  0.00    -0.061 A 
ATOM      8  C   LIG d   1      12.256   4.124  -5.966  0.00  0.00    -0.060 A 
ATOM      9  C   LIG d   1      11.933   2.834  -5.583  0.00  0.00    -0.038 A 
ATOM     10  C   LIG d   1      10.790   2.276  -6.151  0.00  0.00     0.047 A 
ATOM     11  N   LIG d   1      10.195   1.056  -6.000  0.00  0.00    -0.356 N 
ATOM     12  H   LIG d   1      10.518   0.345  -5.424  0.00  0.00     0.166 HD
ATOM     13  C   LIG d   1       7.792   2.427  -8.426  0.00  0.00     0.002 C 
ATOM     14  C   LIG d   1       6.665   1.412  -8.188  0.00  0.00     0.107 A 
ATOM     15  H   LIG d   1       6.165   1.670  -7.255  0.00  0.00     0.060 H 
ATOM     16  N   LIG d   1       7.243   0.075  -8.058  0.00  0.00    -0.276 N 
ATOM     17  C   LIG d   1       7.011  -0.909  -8.930  0.00  0.00     0.234 A 
ATOM     18  O   LIG d   1       7.595  -1.959  -8.768  0.00  0.00    -0.274 OA
ATOM     19  C   LIG d   1       6.078  -0.803 -10.093  0.00  0.00     0.091 A 
ATOM     20  N   LIG d   1       5.423   0.493 -10.151  0.00  0.00    -0.291 N 
ATOM     21  C   LIG d   1       5.675   1.489  -9.304  0.00  0.00     0.237 A 
ATOM     22  O   LIG d   1       5.062   2.526  -9.448  0.00  0.00    -0.274 OA
ATOM     23  H   LIG d   1       9.765   4.885  -8.145  0.00  0.00     0.062 H 
ATOM     24  H   LIG d   1      11.788   5.847  -7.128  0.00  0.00     0.062 H 
ATOM     25  H   LIG d   1      13.136   4.588  -5.545  0.00  0.00     0.062 H 
ATOM     26  H   LIG d   1      12.540   2.286  -4.878  0.00  0.00     0.064 H 
ATOM     27  H   LIG d   1       7.414   3.436  -8.263  0.00  0.00     0.034 H 
ATOM     28  H   LIG d   1       8.158   2.333  -9.448  0.00  0.00     0.034 H 
ATOM     29  H   LIG d   1       6.642  -0.957 -11.014  0.00  0.00     0.056 H 
ATOM     30  H   LIG d   1       5.318  -1.579 -10.010  0.00  0.00     0.056 H 
ENDROOT
BRANCH   1  31
ATOM     31  C   LIG d   1       7.307  -0.313  -5.646  0.00  0.00    -0.021 A 
ATOM     32  C   LIG d   1       6.540  -1.442  -5.431  0.00  0.00    -0.056 A 
ATOM     33  C   LIG d   1       5.786  -1.558  -4.279  0.00  0.00    -0.058 A 
ATOM     34  H   LIG d   1       6.529  -2.236  -6.165  0.00  0.00     0.062 H 
ATOM     35  C   LIG d   1       5.800  -0.542  -3.340  0.00  0.00    -0.045 A 
ATOM     36  H   LIG d   1       5.187  -2.440  -4.112  0.00  0.00     0.062 H 
ATOM     37  C   LIG d   1       6.567   0.587  -3.554  0.00  0.00    -0.058 A 
ATOM     38  C   LIG d   1       7.324   0.700  -4.705  0.00  0.00    -0.056 A 
ATOM     39  H   LIG d   1       6.578   1.380  -2.821  0.00  0.00     0.062 H 
ATOM     40  H   LIG d   1       7.927   1.581  -4.871  0.00  0.00     0.062 H 
BRANCH  35  41
ATOM     41  C   LIG d   1       4.976  -0.667  -2.084  0.00  0.00    -0.021 C 
ATOM     42  H   LIG d   1       5.616  -0.985  -1.261  0.00  0.00     0.034 H 
BRANCH  41  43
ATOM     43  C   LIG d   1       4.351   0.688  -1.748  0.00  0.00    -0.059 C 
ATOM     44  H   LIG d   1       3.486   0.859  -2.390  0.00  0.00     0.024 H 
ATOM     45  H   LIG d   1       4.036   0.695  -0.706  0.00  0.00     0.024 H 
ATOM     46  H   LIG d   1       5.084   1.479  -1.912  0.00  0.00     0.024 H 
ENDBRANCH  41  43
BRANCH  41  47
ATOM     47  C   LIG d   1       3.870  -1.700  -2.300  0.00  0.00    -0.059 C 
ATOM     48  H   LIG d   1       3.457  -1.587  -3.303  0.00  0.00     0.024 H 
ATOM     49  H   LIG d   1       4.282  -2.703  -2.188  0.00  0.00     0.024 H 
ATOM     50  H   LIG d   1       3.081  -1.548  -1.563  0.00  0.00     0.024 H 
ENDBRANCH  41  47
ENDBRANCH  35  41
ENDBRANCH   1  31
BRANCH  20  51
ATOM     51  C   LIG d   1       4.427   0.717 -11.202  0.00  0.00     0.019 C 
ATOM     52  H   LIG d   1       3.432   0.748 -10.760  0.00  0.00     0.047 H 
ATOM     53  H   LIG d   1       4.633   1.663 -11.702  0.00  0.00     0.047 H 
BRANCH  51  54
ATOM     54  C   LIG d   1       4.497  -0.423 -12.221  0.00  0.00    -0.012 C 
ATOM     55  H   LIG d   1       4.873  -0.040 -13.169  0.00  0.00     0.033 H 
ATOM     56  H   LIG d   1       5.167  -1.200 -11.851  0.00  0.00     0.033 H 
BRANCH  54  57
ATOM     57  C   LIG d   1       3.121  -1.001 -12.423  0.00  0.00    -0.046 A 
ATOM     58  C   LIG d   1       2.135  -0.786 -11.479  0.00  0.00    -0.059 A 
ATOM     59  C   LIG d   1       0.871  -1.317 -11.665  0.00  0.00    -0.061 A 
ATOM     60  H   LIG d   1       2.350  -0.203 -10.596  0.00  0.00     0.062 H 
ATOM     61  C   LIG d   1       0.594  -2.063 -12.796  0.00  0.00    -0.062 A 
ATOM     62  H   LIG d   1       0.101  -1.149 -10.926  0.00  0.00     0.062 H 
ATOM     63  C   LIG d   1       1.580  -2.277 -13.740  0.00  0.00    -0.061 A 
ATOM     64  H   LIG d   1      -0.392  -2.478 -12.941  0.00  0.00     0.062 H 
ATOM     65  C   LIG d   1       2.842  -1.743 -13.556  0.00  0.00    -0.059 A 
ATOM     66  H   LIG d   1       1.364  -2.861 -14.623  0.00  0.00     0.062 H 
ATOM     67  H   LIG d   1       3.611  -1.907 -14.296  0.00  0.00     0.062 H 
ENDBRANCH  54  57
ENDBRANCH  51  54
ENDBRANCH  20  51
TORSDOF 7
ENDMDL
MODEL 8
REMARK VINA RESULT:      -7.0      1.900      3.223
REMARK  7 active torsions:
REMARK  status: ('A' for Active; 'I' for Inactive)
REMARK    1  A    between atoms: C_1  and  C_2 
REMARK    2  A    between atoms: C_2  and  C_3 
REMARK    3  A    between atoms: C_2  and  C_4 
REMARK    4  A    between atoms: C_7  and  C_10 
REMARK    5  A    between atoms: N_29  and  C_32 
REMARK    6  A    between atoms: C_32  and  C_33 
REMARK    7  A    between atoms: C_33  and  C_34 
ROOT
ATOM      1  C   LIG d   1       9.011   0.807  -4.687  0.00  0.00     0.092 C 
ATOM      2  H   LIG d   1       9.823   0.184  -4.315  0.00  0.00     0.062 H 
ATOM      3  C   LIG d   1       9.287   2.259  -4.363  0.00  0.00     0.046 A 
ATOM      4  C   LIG d   1       9.188   3.256  -5.267  0.00  0.00    -0.015 A 
ATOM      5  C   LIG d   1       9.519   4.487  -4.578  0.00  0.00     0.003 A 
ATOM      6  C   LIG d   1       9.583   5.820  -4.995  0.00  0.00    -0.052 A 
ATOM      7  C   LIG d   1       9.942   6.750  -4.051  0.00  0.00    -0.061 A 
ATOM      8  C   LIG d   1      10.230   6.396  -2.743  0.00  0.00    -0.060 A 
ATOM      9  C   LIG d   1      10.174   5.085  -2.303  0.00  0.00    -0.038 A 
ATOM     10  C   LIG d   1       9.812   4.120  -3.240  0.00  0.00     0.047 A 
ATOM     11  N   LIG d   1       9.661   2.767  -3.147  0.00  0.00    -0.356 N 
ATOM     12  H   LIG d   1       9.798   2.243  -2.342  0.00  0.00     0.166 HD
ATOM     13  C   LIG d   1       8.806   3.070  -6.714  0.00  0.00     0.002 C 
ATOM     14  C   LIG d   1       8.139   1.696  -6.877  0.00  0.00     0.107 A 
ATOM     15  H   LIG d   1       7.144   1.747  -6.436  0.00  0.00     0.060 H 
ATOM     16  N   LIG d   1       8.923   0.693  -6.159  0.00  0.00    -0.276 N 
ATOM     17  C   LIG d   1       9.559  -0.311  -6.768  0.00  0.00     0.234 A 
ATOM     18  O   LIG d   1      10.238  -1.047  -6.086  0.00  0.00    -0.274 OA
ATOM     19  C   LIG d   1       9.488  -0.587  -8.235  0.00  0.00     0.091 A 
ATOM     20  N   LIG d   1       8.618   0.349  -8.926  0.00  0.00    -0.291 N 
ATOM     21  C   LIG d   1       8.008   1.371  -8.330  0.00  0.00     0.237 A 
ATOM     22  O   LIG d   1       7.300   2.085  -9.009  0.00  0.00    -0.274 OA
ATOM     23  H   LIG d   1       9.360   6.105  -6.013  0.00  0.00     0.062 H 
ATOM     24  H   LIG d   1      10.001   7.790  -4.338  0.00  0.00     0.062 H 
ATOM     25  H   LIG d   1      10.507   7.171  -2.043  0.00  0.00     0.062 H 
ATOM     26  H   LIG d   1      10.400   4.824  -1.280  0.00  0.00     0.064 H 
ATOM     27  H   LIG d   1       8.109   3.852  -7.012  0.00  0.00     0.034 H 
ATOM     28  H   LIG d   1       9.699   3.117  -7.336  0.00  0.00     0.034 H 
ATOM     29  H   LIG d   1      10.492  -0.516  -8.656  0.00  0.00     0.056 H 
ATOM     30  H   LIG d   1       9.112  -1.598  -8.388  0.00  0.00     0.056 H 
ENDROOT
BRANCH   1  31
ATOM     31  C   LIG d   1       7.708   0.381  -4.061  0.00  0.00    -0.021 A 
ATOM     32  C   LIG d   1       6.851   1.330  -3.534  0.00  0.00    -0.056 A 
ATOM     33  C   LIG d   1       5.656   0.939  -2.961  0.00  0.00    -0.058 A 
ATOM     34  H   LIG d   1       7.115   2.377  -3.571  0.00  0.00     0.062 H 
ATOM     35  C   LIG d   1       5.318  -0.401  -2.914  0.00  0.00    -0.045 A 
ATOM     36  H   LIG d   1       4.987   1.679  -2.549  0.00  0.00     0.062 H 
ATOM     37  C   LIG d   1       6.174  -1.349  -3.441  0.00  0.00    -0.058 A 
ATOM     38  C   LIG d   1       7.367  -0.958  -4.018  0.00  0.00    -0.056 A 
ATOM     39  H   LIG d   1       5.910  -2.396  -3.404  0.00  0.00     0.062 H 
ATOM     40  H   LIG d   1       8.036  -1.698  -4.433  0.00  0.00     0.062 H 
BRANCH  35  41
ATOM     41  C   LIG d   1       4.015  -0.827  -2.287  0.00  0.00    -0.021 C 
ATOM     42  H   LIG d   1       4.005  -0.535  -1.237  0.00  0.00     0.034 H 
BRANCH  41  43
ATOM     43  C   LIG d   1       2.854  -0.148  -3.015  0.00  0.00    -0.059 C 
ATOM     44  H   LIG d   1       3.151   0.856  -3.318  0.00  0.00     0.024 H 
ATOM     45  H   LIG d   1       2.588  -0.730  -3.897  0.00  0.00     0.024 H 
ATOM     46  H   LIG d   1       1.993  -0.085  -2.348  0.00  0.00     0.024 H 
ENDBRANCH  41  43
BRANCH  41  47
ATOM     47  C   LIG d   1       3.869  -2.346  -2.397  0.00  0.00    -0.059 C 
ATOM     48  H   LIG d   1       4.493  -2.827  -1.644  0.00  0.00     0.024 H 
ATOM     49  H   LIG d   1       2.827  -2.623  -2.236  0.00  0.00     0.024 H 
ATOM     50  H   LIG d   1       4.181  -2.670  -3.390  0.00  0.00     0.024 H 
ENDBRANCH  41  47
ENDBRANCH  35  41
ENDBRANCH   1  31
BRANCH  20  51
ATOM     51  C   LIG d   1       8.399   0.157 -10.362  0.00  0.00     0.019 C 
ATOM     52  H   LIG d   1       7.802  -0.740 -10.522  0.00  0.00     0.047 H 
ATOM     53  H   LIG d   1       7.872   1.021 -10.768  0.00  0.00     0.047 H 
BRANCH  51  54
ATOM     54  C   LIG d   1       9.748   0.005 -11.067  0.00  0.00    -0.012 C 
ATOM     55  H   LIG d   1      10.531  -0.149 -10.324  0.00  0.00     0.033 H 
ATOM     56  H   LIG d   1       9.712  -0.853 -11.739  0.00  0.00     0.033 H 
BRANCH  54  57
ATOM     57  C   LIG d   1      10.045   1.251 -11.860  0.00  0.00    -0.046 A 
ATOM     58  C   LIG d   1      10.191   2.464 -11.212  0.00  0.00    -0.059 A 
ATOM     59  C   LIG d   1      10.463   3.607 -11.940  0.00  0.00    -0.061 A 
ATOM     60  H   LIG d   1      10.093   2.518 -10.138  0.00  0.00     0.062 H 
ATOM     61  C   LIG d   1      10.590   3.539 -13.315  0.00  0.00    -0.062 A 
ATOM     62  H   LIG d   1      10.577   4.555 -11.434  0.00  0.00     0.062 H 
ATOM     63  C   LIG d   1      10.444   2.326 -13.962  0.00  0.00    -0.061 A 
ATOM     64  H   LIG d   1      10.802   4.432 -13.884  0.00  0.00     0.062 H 
ATOM     65  C   LIG d   1      10.177   1.182 -13.234  0.00  0.00    -0.059 A 
ATOM     66  H   LIG d   1      10.543   2.272 -15.036  0.00  0.00     0.062 H 
ATOM     67  H   LIG d   1      10.067   0.234 -13.740  0.00  0.00     0.062 H 
ENDBRANCH  54  57
ENDBRANCH  51  54
ENDBRANCH  20  51
TORSDOF 7
ENDMDL
MODEL 9
REMARK VINA RESULT:      -6.9      3.372      6.635
REMARK  7 active torsions:
REMARK  status: ('A' for Active; 'I' for Inactive)
REMARK    1  A    between atoms: C_1  and  C_2 
REMARK    2  A    between atoms: C_2  and  C_3 
REMARK    3  A    between atoms: C_2  and  C_4 
REMARK    4  A    between atoms: C_7  and  C_10 
REMARK    5  A    between atoms: N_29  and  C_32 
REMARK    6  A    between atoms: C_32  and  C_33 
REMARK    7  A    between atoms: C_33  and  C_34 
ROOT
ATOM      1  C   LIG d   1       9.124   0.463  -5.547  0.00  0.00     0.092 C 
ATOM      2  H   LIG d   1       8.834   0.267  -6.579  0.00  0.00     0.062 H 
ATOM      3  C   LIG d   1      10.284  -0.427  -5.162  0.00  0.00     0.046 A 
ATOM      4  C   LIG d   1      11.402   0.025  -4.555  0.00  0.00    -0.015 A 
ATOM      5  C   LIG d   1      12.264  -1.120  -4.345  0.00  0.00     0.003 A 
ATOM      6  C   LIG d   1      13.530  -1.261  -3.768  0.00  0.00    -0.052 A 
ATOM      7  C   LIG d   1      14.061  -2.527  -3.740  0.00  0.00    -0.061 A 
ATOM      8  C   LIG d   1      13.385  -3.621  -4.255  0.00  0.00    -0.060 A 
ATOM      9  C   LIG d   1      12.131  -3.510  -4.830  0.00  0.00    -0.038 A 
ATOM     10  C   LIG d   1      11.567  -2.237  -4.873  0.00  0.00     0.047 A 
ATOM     11  N   LIG d   1      10.375  -1.780  -5.357  0.00  0.00    -0.356 N 
ATOM     12  H   LIG d   1       9.695  -2.330  -5.777  0.00  0.00     0.166 HD
ATOM     13  C   LIG d   1      11.657   1.466  -4.190  0.00  0.00     0.002 C 
ATOM     14  C   LIG d   1      10.323   2.226  -4.204  0.00  0.00     0.107 A 
ATOM     15  H   LIG d   1       9.748   1.921  -3.330  0.00  0.00     0.060 H 
ATOM     16  N   LIG d   1       9.577   1.864  -5.409  0.00  0.00    -0.276 N 
ATOM     17  C   LIG d   1       9.294   2.734  -6.381  0.00  0.00     0.234 A 
ATOM     18  O   LIG d   1       8.731   2.314  -7.369  0.00  0.00    -0.274 OA
ATOM     19  C   LIG d   1       9.623   4.191  -6.332  0.00  0.00     0.091 A 
ATOM     20  N   LIG d   1      10.265   4.564  -5.083  0.00  0.00    -0.291 N 
ATOM     21  C   LIG d   1      10.581   3.696  -4.124  0.00  0.00     0.237 A 
ATOM     22  O   LIG d   1      11.112   4.124  -3.121  0.00  0.00    -0.274 OA
ATOM     23  H   LIG d   1      14.065  -0.414  -3.365  0.00  0.00     0.062 H 
ATOM     24  H   LIG d   1      15.037  -2.674  -3.300  0.00  0.00     0.062 H 
ATOM     25  H   LIG d   1      13.852  -4.593  -4.204  0.00  0.00     0.062 H 
ATOM     26  H   LIG d   1      11.615  -4.371  -5.227  0.00  0.00     0.064 H 
ATOM     27  H   LIG d   1      12.097   1.518  -3.194  0.00  0.00     0.034 H 
ATOM     28  H   LIG d   1      12.338   1.911  -4.915  0.00  0.00     0.034 H 
ATOM     29  H   LIG d   1      10.291   4.430  -7.160  0.00  0.00     0.056 H 
ATOM     30  H   LIG d   1       8.704   4.766  -6.442  0.00  0.00     0.056 H 
ENDROOT
BRANCH   1  31
ATOM     31  C   LIG d   1       7.956   0.210  -4.628  0.00  0.00    -0.021 A 
ATOM     32  C   LIG d   1       7.529  -1.084  -4.394  0.00  0.00    -0.056 A 
ATOM     33  C   LIG d   1       6.459  -1.316  -3.551  0.00  0.00    -0.058 A 
ATOM     34  H   LIG d   1       8.032  -1.914  -4.869  0.00  0.00     0.062 H 
ATOM     35  C   LIG d   1       5.815  -0.254  -2.944  0.00  0.00    -0.045 A 
ATOM     36  H   LIG d   1       6.125  -2.326  -3.368  0.00  0.00     0.062 H 
ATOM     37  C   LIG d   1       6.242   1.039  -3.178  0.00  0.00    -0.058 A 
ATOM     38  C   LIG d   1       7.315   1.271  -4.017  0.00  0.00    -0.056 A 
ATOM     39  H   LIG d   1       5.739   1.869  -2.703  0.00  0.00     0.062 H 
ATOM     40  H   LIG d   1       7.652   2.281  -4.198  0.00  0.00     0.062 H 
BRANCH  35  41
ATOM     41  C   LIG d   1       4.646  -0.507  -2.026  0.00  0.00    -0.021 C 
ATOM     42  H   LIG d   1       4.979  -0.451  -0.990  0.00  0.00     0.034 H 
BRANCH  41  43
ATOM     43  C   LIG d   1       3.567   0.550  -2.272  0.00  0.00    -0.059 C 
ATOM     44  H   LIG d   1       2.653   0.064  -2.613  0.00  0.00     0.024 H 
ATOM     45  H   LIG d   1       3.368   1.089  -1.346  0.00  0.00     0.024 H 
ATOM     46  H   LIG d   1       3.911   1.250  -3.034  0.00  0.00     0.024 H 
ENDBRANCH  41  43
BRANCH  41  47
ATOM     47  C   LIG d   1       4.071  -1.897  -2.304  0.00  0.00    -0.059 C 
ATOM     48  H   LIG d   1       4.884  -2.618  -2.385  0.00  0.00     0.024 H 
ATOM     49  H   LIG d   1       3.409  -2.186  -1.488  0.00  0.00     0.024 H 
ATOM     50  H   LIG d   1       3.508  -1.877  -3.238  0.00  0.00     0.024 H 
ENDBRANCH  41  47
ENDBRANCH  35  41
ENDBRANCH   1  31
BRANCH  20  51
ATOM     51  C   LIG d   1      10.585   5.977  -4.866  0.00  0.00     0.019 C 
ATOM     52  H   LIG d   1      11.093   6.092  -3.909  0.00  0.00     0.047 H 
ATOM     53  H   LIG d   1      11.235   6.330  -5.667  0.00  0.00     0.047 H 
BRANCH  51  54
ATOM     54  C   LIG d   1       9.293   6.797  -4.860  0.00  0.00    -0.012 C 
ATOM     55  H   LIG d   1       8.471   6.182  -5.228  0.00  0.00     0.033 H 
ATOM     56  H   LIG d   1       9.075   7.122  -3.843  0.00  0.00     0.033 H 
BRANCH  54  57
ATOM     57  C   LIG d   1       9.457   8.001  -5.749  0.00  0.00    -0.046 A 
ATOM     58  C   LIG d   1       9.362   7.865  -7.121  0.00  0.00    -0.059 A 
ATOM     59  C   LIG d   1       9.513   8.972  -7.937  0.00  0.00    -0.061 A 
ATOM     60  H   LIG d   1       9.169   6.897  -7.557  0.00  0.00     0.062 H 
ATOM     61  C   LIG d   1       9.760  10.213  -7.381  0.00  0.00    -0.062 A 
ATOM     62  H   LIG d   1       9.439   8.865  -9.010  0.00  0.00     0.062 H 
ATOM     63  C   LIG d   1       9.854  10.348  -6.009  0.00  0.00    -0.061 A 
ATOM     64  H   LIG d   1       9.878  11.077  -8.018  0.00  0.00     0.062 H 
ATOM     65  C   LIG d   1       9.699   9.244  -5.193  0.00  0.00    -0.059 A 
ATOM     66  H   LIG d   1      10.047  11.318  -5.574  0.00  0.00     0.062 H 
ATOM     67  H   LIG d   1       9.769   9.351  -4.121  0.00  0.00     0.062 H 
ENDBRANCH  54  57
ENDBRANCH  51  54
ENDBRANCH  20  51
TORSDOF 7
ENDMDL
