MODEL 1
REMARK VINA RESULT:      -4.0      0.000      0.000
REMARK  2 active torsions:
REMARK  status: ('A' for Active; 'I' for Inactive)
REMARK    1  A    between atoms: C_1  and  C_2 
REMARK    2  A    between atoms: C_3  and  C_4 
ROOT
ATOM      1  C   LIG d   1       4.461   1.161  -1.830  0.00  0.00     0.053 C 
ATOM      2  C   LIG d   1       5.604   1.379  -2.732  0.00  0.00     0.067 C 
ATOM      3  N   LIG d   1       6.485   1.547  -3.428  0.00  0.00    -0.196 NA
ATOM      4  H   LIG d   1       3.756   1.985  -1.932  0.00  0.00     0.046 H 
ATOM      5  H   LIG d   1       4.816   1.112  -0.801  0.00  0.00     0.046 H 
ENDROOT
BRANCH   1   6
ATOM      6  C   LIG d   1       3.778  -0.134  -2.188  0.00  0.00    -0.075 C 
ATOM      7  C   LIG d   1       4.424  -1.268  -2.078  0.00  0.00    -0.090 C 
ATOM      8  H   LIG d   1       5.447  -1.276  -1.729  0.00  0.00     0.057 H 
ATOM      9  H   LIG d   1       2.755  -0.126  -2.536  0.00  0.00     0.058 H 
BRANCH   7  10
ATOM     10  C   LIG d   1       3.741  -2.562  -2.436  0.00  0.00    -0.047 C 
ATOM     11  H   LIG d   1       3.854  -3.272  -1.617  0.00  0.00     0.027 H 
ATOM     12  H   LIG d   1       2.681  -2.377  -2.613  0.00  0.00     0.027 H 
ATOM     13  H   LIG d   1       4.193  -2.974  -3.339  0.00  0.00     0.027 H 
ENDBRANCH   7  10
ENDBRANCH   1   6
TORSDOF 2
ENDMDL
MODEL 2
REMARK VINA RESULT:      -3.9      1.578      1.587
REMARK  2 active torsions:
REMARK  status: ('A' for Active; 'I' for Inactive)
REMARK    1  A    between atoms: C_1  and  C_2 
REMARK    2  A    between atoms: C_3  and  C_4 
ROOT
ATOM      1  C   LIG d   1       4.511   0.785  -1.639  0.00  0.00     0.053 C 
ATOM      2  C   LIG d   1       3.913   1.609  -2.702  0.00  0.00     0.067 C 
ATOM      3  N   LIG d   1       3.451   2.245  -3.521  0.00  0.00    -0.196 NA
ATOM      4  H   LIG d   1       3.814   0.706  -0.805  0.00  0.00     0.046 H 
ATOM      5  H   LIG d   1       5.436   1.248  -1.297  0.00  0.00     0.046 H 
ENDROOT
BRANCH   1   6
ATOM      6  C   LIG d   1       4.808  -0.591  -2.178  0.00  0.00    -0.075 C 
ATOM      7  C   LIG d   1       3.826  -1.407  -2.469  0.00  0.00    -0.090 C 
ATOM      8  H   LIG d   1       2.802  -1.094  -2.325  0.00  0.00     0.057 H 
ATOM      9  H   LIG d   1       5.832  -0.905  -2.322  0.00  0.00     0.058 H 
BRANCH   7  10
ATOM     10  C   LIG d   1       4.124  -2.783  -3.008  0.00  0.00    -0.047 C 
ATOM     11  H   LIG d   1       3.382  -3.047  -3.761  0.00  0.00     0.027 H 
ATOM     12  H   LIG d   1       5.116  -2.790  -3.457  0.00  0.00     0.027 H 
ATOM     13  H   LIG d   1       4.088  -3.506  -2.193  0.00  0.00     0.027 H 
ENDBRANCH   7  10
ENDBRANCH   1   6
TORSDOF 2
ENDMDL
MODEL 3
REMARK VINA RESULT:      -3.8      2.299      3.616
REMARK  2 active torsions:
REMARK  status: ('A' for Active; 'I' for Inactive)
REMARK    1  A    between atoms: C_1  and  C_2 
REMARK    2  A    between atoms: C_3  and  C_4 
ROOT
ATOM      1  C   LIG d   1       3.887  -2.265  -2.221  0.00  0.00     0.053 C 
ATOM      2  C   LIG d   1       4.238  -2.692  -3.586  0.00  0.00     0.067 C 
ATOM      3  N   LIG d   1       4.510  -3.021  -4.638  0.00  0.00    -0.196 NA
ATOM      4  H   LIG d   1       4.464  -2.844  -1.500  0.00  0.00     0.046 H 
ATOM      5  H   LIG d   1       2.823  -2.431  -2.052  0.00  0.00     0.046 H 
ENDROOT
BRANCH   1   6
ATOM      6  C   LIG d   1       4.199  -0.800  -2.057  0.00  0.00    -0.075 C 
ATOM      7  C   LIG d   1       3.418   0.101  -2.596  0.00  0.00    -0.090 C 
ATOM      8  H   LIG d   1       2.548  -0.205  -3.159  0.00  0.00     0.057 H 
ATOM      9  H   LIG d   1       5.069  -0.494  -1.493  0.00  0.00     0.058 H 
BRANCH   7  10
ATOM     10  C   LIG d   1       3.730   1.567  -2.431  0.00  0.00    -0.047 C 
ATOM     11  H   LIG d   1       3.194   2.140  -3.186  0.00  0.00     0.027 H 
ATOM     12  H   LIG d   1       3.422   1.894  -1.439  0.00  0.00     0.027 H 
ATOM     13  H   LIG d   1       4.803   1.724  -2.549  0.00  0.00     0.027 H 
ENDBRANCH   7  10
ENDBRANCH   1   6
TORSDOF 2
ENDMDL
MODEL 4
REMARK VINA RESULT:      -3.6      1.591      1.935
REMARK  2 active torsions:
REMARK  status: ('A' for Active; 'I' for Inactive)
REMARK    1  A    between atoms: C_1  and  C_2 
REMARK    2  A    between atoms: C_3  and  C_4 
ROOT
ATOM      1  C   LIG d   1       4.577   0.789  -1.843  0.00  0.00     0.053 C 
ATOM      2  C   LIG d   1       5.684   1.220  -2.712  0.00  0.00     0.067 C 
ATOM      3  N   LIG d   1       6.537   1.554  -3.383  0.00  0.00    -0.196 NA
ATOM      4  H   LIG d   1       4.456   1.503  -1.028  0.00  0.00     0.046 H 
ATOM      5  H   LIG d   1       4.801  -0.195  -1.433  0.00  0.00     0.046 H 
ENDROOT
BRANCH   1   6
ATOM      6  C   LIG d   1       3.304   0.721  -2.646  0.00  0.00    -0.075 C 
ATOM      7  C   LIG d   1       3.304   0.156  -3.827  0.00  0.00    -0.090 C 
ATOM      8  H   LIG d   1       4.216  -0.263  -4.226  0.00  0.00     0.057 H 
ATOM      9  H   LIG d   1       2.391   1.140  -2.247  0.00  0.00     0.058 H 
BRANCH   7  10
ATOM     10  C   LIG d   1       2.030   0.088  -4.631  0.00  0.00    -0.047 C 
ATOM     11  H   LIG d   1       1.577   1.078  -4.677  0.00  0.00     0.027 H 
ATOM     12  H   LIG d   1       2.255  -0.257  -5.639  0.00  0.00     0.027 H 
ATOM     13  H   LIG d   1       1.338  -0.607  -4.154  0.00  0.00     0.027 H 
ENDBRANCH   7  10
ENDBRANCH   1   6
TORSDOF 2
ENDMDL
MODEL 5
REMARK VINA RESULT:      -3.6      2.777      3.501
REMARK  2 active torsions:
REMARK  status: ('A' for Active; 'I' for Inactive)
REMARK    1  A    between atoms: C_1  and  C_2 
REMARK    2  A    between atoms: C_3  and  C_4 
ROOT
ATOM      1  C   LIG d   1       2.203   0.228  -4.612  0.00  0.00     0.053 C 
ATOM      2  C   LIG d   1       3.062   0.232  -5.807  0.00  0.00     0.067 C 
ATOM      3  N   LIG d   1       3.724   0.234  -6.729  0.00  0.00    -0.196 NA
ATOM      4  H   LIG d   1       1.494  -0.597  -4.676  0.00  0.00     0.046 H 
ATOM      5  H   LIG d   1       1.658   1.170  -4.554  0.00  0.00     0.046 H 
ENDROOT
BRANCH   1   6
ATOM      6  C   LIG d   1       3.056   0.065  -3.380  0.00  0.00    -0.075 C 
ATOM      7  C   LIG d   1       3.654   1.105  -2.855  0.00  0.00    -0.090 C 
ATOM      8  H   LIG d   1       3.537   2.080  -3.305  0.00  0.00     0.057 H 
ATOM      9  H   LIG d   1       3.173  -0.910  -2.930  0.00  0.00     0.058 H 
BRANCH   7  10
ATOM     10  C   LIG d   1       4.507   0.942  -1.624  0.00  0.00    -0.047 C 
ATOM     11  H   LIG d   1       4.004   0.281  -0.918  0.00  0.00     0.027 H 
ATOM     12  H   LIG d   1       5.469   0.512  -1.902  0.00  0.00     0.027 H 
ATOM     13  H   LIG d   1       4.665   1.916  -1.160  0.00  0.00     0.027 H 
ENDBRANCH   7  10
ENDBRANCH   1   6
TORSDOF 2
ENDMDL
MODEL 6
REMARK VINA RESULT:      -3.4      2.252      2.877
REMARK  2 active torsions:
REMARK  status: ('A' for Active; 'I' for Inactive)
REMARK    1  A    between atoms: C_1  and  C_2 
REMARK    2  A    between atoms: C_3  and  C_4 
ROOT
ATOM      1  C   LIG d   1       3.763  -1.102  -2.344  0.00  0.00     0.053 C 
ATOM      2  C   LIG d   1       4.379   0.127  -1.818  0.00  0.00     0.067 C 
ATOM      3  N   LIG d   1       4.853   1.076  -1.413  0.00  0.00    -0.196 NA
ATOM      4  H   LIG d   1       2.844  -1.312  -1.797  0.00  0.00     0.046 H 
ATOM      5  H   LIG d   1       4.456  -1.935  -2.223  0.00  0.00     0.046 H 
ENDROOT
BRANCH   1   6
ATOM      6  C   LIG d   1       3.447  -0.921  -3.807  0.00  0.00    -0.075 C 
ATOM      7  C   LIG d   1       2.859   0.174  -4.219  0.00  0.00    -0.090 C 
ATOM      8  H   LIG d   1       2.599   0.948  -3.511  0.00  0.00     0.057 H 
ATOM      9  H   LIG d   1       3.706  -1.694  -4.515  0.00  0.00     0.058 H 
BRANCH   7  10
ATOM     10  C   LIG d   1       2.543   0.356  -5.681  0.00  0.00    -0.047 C 
ATOM     11  H   LIG d   1       2.068  -0.547  -6.065  0.00  0.00     0.027 H 
ATOM     12  H   LIG d   1       1.868   1.203  -5.805  0.00  0.00     0.027 H 
ATOM     13  H   LIG d   1       3.465   0.543  -6.231  0.00  0.00     0.027 H 
ENDBRANCH   7  10
ENDBRANCH   1   6
TORSDOF 2
ENDMDL
MODEL 7
REMARK VINA RESULT:      -3.3      3.280      3.849
REMARK  2 active torsions:
REMARK  status: ('A' for Active; 'I' for Inactive)
REMARK    1  A    between atoms: C_1  and  C_2 
REMARK    2  A    between atoms: C_3  and  C_4 
ROOT
ATOM      1  C   LIG d   1       2.952  -0.150  -2.896  0.00  0.00     0.053 C 
ATOM      2  C   LIG d   1       3.451  -1.532  -2.804  0.00  0.00     0.067 C 
ATOM      3  N   LIG d   1       3.838  -2.597  -2.733  0.00  0.00    -0.196 NA
ATOM      4  H   LIG d   1       3.743   0.542  -2.609  0.00  0.00     0.046 H 
ATOM      5  H   LIG d   1       2.101  -0.027  -2.227  0.00  0.00     0.046 H 
ENDROOT
BRANCH   1   6
ATOM      6  C   LIG d   1       2.522   0.136  -4.312  0.00  0.00    -0.075 C 
ATOM      7  C   LIG d   1       3.358  -0.056  -5.302  0.00  0.00    -0.090 C 
ATOM      8  H   LIG d   1       4.355  -0.420  -5.104  0.00  0.00     0.057 H 
ATOM      9  H   LIG d   1       1.524   0.500  -4.510  0.00  0.00     0.058 H 
BRANCH   7  10
ATOM     10  C   LIG d   1       2.928   0.229  -6.718  0.00  0.00    -0.047 C 
ATOM     11  H   LIG d   1       1.874   0.507  -6.729  0.00  0.00     0.027 H 
ATOM     12  H   LIG d   1       3.524   1.048  -7.120  0.00  0.00     0.027 H 
ATOM     13  H   LIG d   1       3.076  -0.662  -7.328  0.00  0.00     0.027 H 
ENDBRANCH   7  10
ENDBRANCH   1   6
TORSDOF 2
ENDMDL
MODEL 8
REMARK VINA RESULT:      -3.1      1.708      2.164
REMARK  2 active torsions:
REMARK  status: ('A' for Active; 'I' for Inactive)
REMARK    1  A    between atoms: C_1  and  C_2 
REMARK    2  A    between atoms: C_3  and  C_4 
ROOT
ATOM      1  C   LIG d   1       7.140  -1.057  -3.600  0.00  0.00     0.053 C 
ATOM      2  C   LIG d   1       6.880   0.390  -3.682  0.00  0.00     0.067 C 
ATOM      3  N   LIG d   1       6.679   1.505  -3.745  0.00  0.00    -0.196 NA
ATOM      4  H   LIG d   1       7.787  -1.262  -2.747  0.00  0.00     0.046 H 
ATOM      5  H   LIG d   1       7.629  -1.390  -4.514  0.00  0.00     0.046 H 
ENDROOT
BRANCH   1   6
ATOM      6  C   LIG d   1       5.836  -1.794  -3.431  0.00  0.00    -0.075 C 
ATOM      7  C   LIG d   1       4.989  -1.422  -2.504  0.00  0.00    -0.090 C 
ATOM      8  H   LIG d   1       5.224  -0.586  -1.860  0.00  0.00     0.057 H 
ATOM      9  H   LIG d   1       5.600  -2.629  -4.074  0.00  0.00     0.058 H 
BRANCH   7  10
ATOM     10  C   LIG d   1       3.684  -2.158  -2.335  0.00  0.00    -0.047 C 
ATOM     11  H   LIG d   1       3.882  -3.221  -2.200  0.00  0.00     0.027 H 
ATOM     12  H   LIG d   1       3.160  -1.772  -1.462  0.00  0.00     0.027 H 
ATOM     13  H   LIG d   1       3.068  -2.013  -3.223  0.00  0.00     0.027 H 
ENDBRANCH   7  10
ENDBRANCH   1   6
TORSDOF 2
ENDMDL
MODEL 9
REMARK VINA RESULT:      -2.9      4.144      5.312
REMARK  2 active torsions:
REMARK  status: ('A' for Active; 'I' for Inactive)
REMARK    1  A    between atoms: C_1  and  C_2 
REMARK    2  A    between atoms: C_3  and  C_4 
ROOT
ATOM      1  C   LIG d   1       4.962  -3.438  -5.602  0.00  0.00     0.053 C 
ATOM      2  C   LIG d   1       4.182  -4.627  -5.983  0.00  0.00     0.067 C 
ATOM      3  N   LIG d   1       3.578  -5.542  -6.276  0.00  0.00    -0.196 NA
ATOM      4  H   LIG d   1       4.597  -2.571  -6.152  0.00  0.00     0.046 H 
ATOM      5  H   LIG d   1       6.013  -3.603  -5.840  0.00  0.00     0.046 H 
ENDROOT
BRANCH   1   6
ATOM      6  C   LIG d   1       4.815  -3.193  -4.122  0.00  0.00    -0.075 C 
ATOM      7  C   LIG d   1       4.214  -2.111  -3.694  0.00  0.00    -0.090 C 
ATOM      8  H   LIG d   1       3.823  -1.394  -4.401  0.00  0.00     0.057 H 
ATOM      9  H   LIG d   1       5.207  -3.910  -3.415  0.00  0.00     0.058 H 
BRANCH   7  10
ATOM     10  C   LIG d   1       4.068  -1.866  -2.214  0.00  0.00    -0.047 C 
ATOM     11  H   LIG d   1       3.766  -0.833  -2.045  0.00  0.00     0.027 H 
ATOM     12  H   LIG d   1       3.311  -2.537  -1.808  0.00  0.00     0.027 H 
ATOM     13  H   LIG d   1       5.021  -2.051  -1.719  0.00  0.00     0.027 H 
ENDBRANCH   7  10
ENDBRANCH   1   6
TORSDOF 2
ENDMDL
MODEL 10
REMARK VINA RESULT:      -2.9      6.921      7.247
REMARK  2 active torsions:
REMARK  status: ('A' for Active; 'I' for Inactive)
REMARK    1  A    between atoms: C_1  and  C_2 
REMARK    2  A    between atoms: C_3  and  C_4 
ROOT
ATOM      1  C   LIG d   1       3.613   2.470  -9.737  0.00  0.00     0.053 C 
ATOM      2  C   LIG d   1       3.888   1.419 -10.732  0.00  0.00     0.067 C 
ATOM      3  N   LIG d   1       4.098   0.609 -11.498  0.00  0.00    -0.196 NA
ATOM      4  H   LIG d   1       2.949   3.217 -10.173  0.00  0.00     0.046 H 
ATOM      5  H   LIG d   1       4.548   2.943  -9.442  0.00  0.00     0.046 H 
ENDROOT
BRANCH   1   6
ATOM      6  C   LIG d   1       2.955   1.858  -8.527  0.00  0.00    -0.075 C 
ATOM      7  C   LIG d   1       3.492   0.812  -7.949  0.00  0.00    -0.090 C 
ATOM      8  H   LIG d   1       4.406   0.389  -8.339  0.00  0.00     0.057 H 
ATOM      9  H   LIG d   1       2.041   2.281  -8.138  0.00  0.00     0.058 H 
BRANCH   7  10
ATOM     10  C   LIG d   1       2.834   0.200  -6.739  0.00  0.00    -0.047 C 
ATOM     11  H   LIG d   1       1.829  -0.129  -6.999  0.00  0.00     0.027 H 
ATOM     12  H   LIG d   1       3.420  -0.654  -6.400  0.00  0.00     0.027 H 
ATOM     13  H   LIG d   1       2.780   0.942  -5.942  0.00  0.00     0.027 H 
ENDBRANCH   7  10
ENDBRANCH   1   6
TORSDOF 2
ENDMDL
