MODEL 1
REMARK VINA RESULT:      -7.0      0.000      0.000
REMARK  10 active torsions:
REMARK  status: ('A' for Active; 'I' for Inactive)
REMARK    1  A    between atoms: C_1  and  C_2 
REMARK    2  A    between atoms: C_3  and  C_33 
REMARK    3  A    between atoms: C_9  and  C_32 
REMARK    4  A    between atoms: C_20  and  O_31 
REMARK    5  A    between atoms: C_24  and  C_30 
REMARK    6  A    between atoms: C_33  and  C_34 
REMARK    7  A    between atoms: C_34  and  C_35 
REMARK    8  A    between atoms: C_35  and  C_37 
REMARK    9  A    between atoms: C_35  and  C_38 
REMARK   10  A    between atoms: C_38  and  O_39 
ROOT
ATOM      1  C   LIG d   1       4.123  -0.830  -5.863  0.00  0.00    -0.028 C 
ATOM      2  C   LIG d   1       3.300  -0.051  -5.127  0.00  0.00     0.098 C 
ATOM      3  O   LIG d   1       2.983   1.131  -5.792  0.00  0.00    -0.492 OA
ATOM      4  C   LIG d   1       2.943   0.681  -7.082  0.00  0.00     0.107 C 
ATOM      5  H   LIG d   1       2.256  -0.160  -6.960  0.00  0.00     0.074 H 
ATOM      6  C   LIG d   1       4.350  -0.057  -7.129  0.00  0.00     0.033 C 
ATOM      7  H   LIG d   1       5.185   0.653  -7.017  0.00  0.00     0.039 H 
ATOM      8  C   LIG d   1       4.360  -0.660  -8.525  0.00  0.00     0.039 C 
ATOM      9  C   LIG d   1       2.971  -0.288  -9.096  0.00  0.00    -0.022 C 
ATOM     10  H   LIG d   1       2.287  -0.962  -8.572  0.00  0.00     0.031 H 
ATOM     11  C   LIG d   1       2.654   1.082  -8.481  0.00  0.00    -0.011 C 
ATOM     12  C   LIG d   1       2.735  -0.591 -10.541  0.00  0.00    -0.034 C 
ATOM     13  H   LIG d   1       3.077   0.236 -11.162  0.00  0.00     0.031 H 
ATOM     14  C   LIG d   1       1.218  -0.781 -10.696  0.00  0.00    -0.049 C 
ATOM     15  C   LIG d   1       0.843  -1.389 -12.040  0.00  0.00    -0.049 C 
ATOM     16  C   LIG d   1       1.509  -2.760 -12.151  0.00  0.00    -0.033 C 
ATOM     17  H   LIG d   1       1.205  -3.370 -11.290  0.00  0.00     0.031 H 
ATOM     18  C   LIG d   1       1.058  -3.463 -13.428  0.00  0.00    -0.024 C 
ATOM     19  C   LIG d   1       1.728  -4.832 -13.537  0.00  0.00     0.056 C 
ATOM     20  H   LIG d   1       1.409  -5.459 -12.703  0.00  0.00     0.059 H 
ATOM     21  C   LIG d   1       3.248  -4.679 -13.505  0.00  0.00    -0.026 C 
ATOM     22  C   LIG d   1       3.678  -3.975 -12.220  0.00  0.00    -0.045 C 
ATOM     23  C   LIG d   1       3.022  -2.590 -12.125  0.00  0.00    -0.026 C 
ATOM     24  C   LIG d   1       3.495  -1.886 -10.863  0.00  0.00    -0.026 C 
ATOM     25  H   LIG d   1       4.551  -1.618 -11.053  0.00  0.00     0.031 H 
ATOM     26  C   LIG d   1       3.481  -2.789  -9.619  0.00  0.00     0.010 C 
ATOM     27  C   LIG d   1       4.500  -2.156  -8.654  0.00  0.00     0.140 C 
ATOM     28  O   LIG d   1       5.352  -2.817  -8.094  0.00  0.00    -0.297 OA
ATOM     29  H   LIG d   1       3.324   1.857  -8.847  0.00  0.00     0.030 H 
ATOM     30  H   LIG d   1       1.606   1.351  -8.628  0.00  0.00     0.030 H 
ATOM     31  H   LIG d   1       0.729   0.192 -10.593  0.00  0.00     0.027 H 
ATOM     32  H   LIG d   1       0.858  -1.433  -9.895  0.00  0.00     0.027 H 
ATOM     33  H   LIG d   1       1.141  -0.735 -12.851  0.00  0.00     0.027 H 
ATOM     34  H   LIG d   1      -0.245  -1.520 -12.080  0.00  0.00     0.027 H 
ATOM     35  H   LIG d   1       1.290  -2.863 -14.304  0.00  0.00     0.029 H 
ATOM     36  H   LIG d   1      -0.029  -3.606 -13.388  0.00  0.00     0.029 H 
ATOM     37  H   LIG d   1       3.588  -4.134 -14.381  0.00  0.00     0.029 H 
ATOM     38  H   LIG d   1       3.703  -5.677 -13.527  0.00  0.00     0.029 H 
ATOM     39  H   LIG d   1       3.370  -4.583 -11.367  0.00  0.00     0.027 H 
ATOM     40  H   LIG d   1       4.763  -3.861 -12.210  0.00  0.00     0.027 H 
ATOM     41  H   LIG d   1       3.740  -3.720  -9.878  0.00  0.00     0.035 H 
ATOM     42  H   LIG d   1       2.493  -2.807  -9.167  0.00  0.00     0.035 H 
ENDROOT
BRANCH   2  43
ATOM     43  C   LIG d   1       2.795  -0.422  -3.760  0.00  0.00     0.005 C 
ATOM     44  H   LIG d   1       1.704  -0.414  -3.761  0.00  0.00     0.034 H 
ATOM     45  H   LIG d   1       3.150  -1.418  -3.498  0.00  0.00     0.034 H 
BRANCH  43  46
ATOM     46  C   LIG d   1       3.310   0.588  -2.733  0.00  0.00    -0.042 C 
ATOM     47  H   LIG d   1       3.640   1.492  -3.247  0.00  0.00     0.027 H 
ATOM     48  H   LIG d   1       2.510   0.838  -2.036  0.00  0.00     0.027 H 
BRANCH  46  49
ATOM     49  C   LIG d   1       4.485  -0.019  -1.965  0.00  0.00    -0.020 C 
ATOM     50  H   LIG d   1       4.512   0.395  -0.956  0.00  0.00     0.032 H 
BRANCH  49  51
ATOM     51  C   LIG d   1       4.316  -1.537  -1.889  0.00  0.00    -0.060 C 
ATOM     52  H   LIG d   1       4.155  -1.935  -2.891  0.00  0.00     0.023 H 
ATOM     53  H   LIG d   1       5.214  -1.982  -1.462  0.00  0.00     0.023 H 
ATOM     54  H   LIG d   1       3.457  -1.776  -1.261  0.00  0.00     0.023 H 
ENDBRANCH  49  51
BRANCH  49  55
ATOM     55  C   LIG d   1       5.792   0.314  -2.686  0.00  0.00     0.047 C 
ATOM     56  H   LIG d   1       6.633   0.137  -2.014  0.00  0.00     0.056 H 
ATOM     57  H   LIG d   1       5.893  -0.319  -3.567  0.00  0.00     0.056 H 
BRANCH  55  58
ATOM     58  O   LIG d   1       5.782   1.687  -3.084  0.00  0.00    -0.395 OA
ATOM     59  H   LIG d   1       5.537   1.827  -4.008  0.00  0.00     0.209 HD
ENDBRANCH  55  58
ENDBRANCH  49  55
ENDBRANCH  46  49
ENDBRANCH  43  46
ENDBRANCH   2  43
BRANCH   1  60
ATOM     60  C   LIG d   1       4.677  -2.161  -5.428  0.00  0.00    -0.040 C 
ATOM     61  H   LIG d   1       4.150  -2.961  -5.946  0.00  0.00     0.028 H 
ATOM     62  H   LIG d   1       5.739  -2.209  -5.670  0.00  0.00     0.028 H 
ATOM     63  H   LIG d   1       4.545  -2.275  -4.352  0.00  0.00     0.028 H 
ENDBRANCH   1  60
BRANCH   8  64
ATOM     64  C   LIG d   1       5.481   0.036  -9.322  0.00  0.00    -0.052 C 
ATOM     65  H   LIG d   1       5.840   0.902  -8.765  0.00  0.00     0.024 H 
ATOM     66  H   LIG d   1       6.304  -0.662  -9.478  0.00  0.00     0.024 H 
ATOM     67  H   LIG d   1       5.092   0.360 -10.287  0.00  0.00     0.024 H 
ENDBRANCH   8  64
BRANCH  23  68
ATOM     68  C   LIG d   1       3.481  -1.754 -13.328  0.00  0.00    -0.059 C 
ATOM     69  H   LIG d   1       3.042  -0.759 -13.269  0.00  0.00     0.024 H 
ATOM     70  H   LIG d   1       4.569  -1.672 -13.320  0.00  0.00     0.024 H 
ATOM     71  H   LIG d   1       3.161  -2.239 -14.251  0.00  0.00     0.024 H 
ENDBRANCH  23  68
BRANCH  19  72
ATOM     72  O   LIG d   1       1.340  -5.453 -14.766  0.00  0.00    -0.392 OA
ATOM     73  H   LIG d   1       1.264  -6.416 -14.714  0.00  0.00     0.210 HD
ENDBRANCH  19  72
TORSDOF 10
ENDMDL
MODEL 2
REMARK VINA RESULT:      -6.9      5.326      9.255
REMARK  10 active torsions:
REMARK  status: ('A' for Active; 'I' for Inactive)
REMARK    1  A    between atoms: C_1  and  C_2 
REMARK    2  A    between atoms: C_3  and  C_33 
REMARK    3  A    between atoms: C_9  and  C_32 
REMARK    4  A    between atoms: C_20  and  O_31 
REMARK    5  A    between atoms: C_24  and  C_30 
REMARK    6  A    between atoms: C_33  and  C_34 
REMARK    7  A    between atoms: C_34  and  C_35 
REMARK    8  A    between atoms: C_35  and  C_37 
REMARK    9  A    between atoms: C_35  and  C_38 
REMARK   10  A    between atoms: C_38  and  O_39 
ROOT
ATOM      1  C   LIG d   1       6.131  -7.858  -5.439  0.00  0.00    -0.028 C 
ATOM      2  C   LIG d   1       7.227  -8.526  -5.014  0.00  0.00     0.098 C 
ATOM      3  O   LIG d   1       8.401  -7.892  -5.417  0.00  0.00    -0.492 OA
ATOM      4  C   LIG d   1       8.009  -6.585  -5.339  0.00  0.00     0.107 C 
ATOM      5  H   LIG d   1       7.623  -6.571  -4.317  0.00  0.00     0.074 H 
ATOM      6  C   LIG d   1       6.671  -6.677  -6.189  0.00  0.00     0.033 C 
ATOM      7  H   LIG d   1       6.874  -6.934  -7.241  0.00  0.00     0.039 H 
ATOM      8  C   LIG d   1       6.120  -5.262  -6.094  0.00  0.00     0.039 C 
ATOM      9  C   LIG d   1       7.124  -4.540  -5.164  0.00  0.00    -0.022 C 
ATOM     10  H   LIG d   1       6.886  -4.934  -4.171  0.00  0.00     0.031 H 
ATOM     11  C   LIG d   1       8.480  -5.184  -5.482  0.00  0.00    -0.011 C 
ATOM     12  C   LIG d   1       6.955  -3.062  -5.011  0.00  0.00    -0.034 C 
ATOM     13  H   LIG d   1       7.495  -2.537  -5.799  0.00  0.00     0.031 H 
ATOM     14  C   LIG d   1       7.541  -2.704  -3.636  0.00  0.00    -0.049 C 
ATOM     15  C   LIG d   1       7.179  -1.292  -3.200  0.00  0.00    -0.049 C 
ATOM     16  C   LIG d   1       5.656  -1.191  -3.112  0.00  0.00    -0.033 C 
ATOM     17  H   LIG d   1       5.291  -1.971  -2.431  0.00  0.00     0.031 H 
ATOM     18  C   LIG d   1       5.250   0.170  -2.554  0.00  0.00    -0.024 C 
ATOM     19  C   LIG d   1       3.727   0.269  -2.469  0.00  0.00     0.056 C 
ATOM     20  H   LIG d   1       3.354  -0.482  -1.771  0.00  0.00     0.059 H 
ATOM     21  C   LIG d   1       3.107   0.034  -3.846  0.00  0.00    -0.026 C 
ATOM     22  C   LIG d   1       3.524  -1.332  -4.385  0.00  0.00    -0.045 C 
ATOM     23  C   LIG d   1       5.053  -1.420  -4.491  0.00  0.00    -0.026 C 
ATOM     24  C   LIG d   1       5.449  -2.768  -5.070  0.00  0.00    -0.026 C 
ATOM     25  H   LIG d   1       5.155  -2.730  -6.135  0.00  0.00     0.031 H 
ATOM     26  C   LIG d   1       4.691  -3.949  -4.440  0.00  0.00     0.010 C 
ATOM     27  C   LIG d   1       4.750  -5.069  -5.494  0.00  0.00     0.140 C 
ATOM     28  O   LIG d   1       3.762  -5.696  -5.822  0.00  0.00    -0.297 OA
ATOM     29  H   LIG d   1       8.814  -4.951  -6.491  0.00  0.00     0.030 H 
ATOM     30  H   LIG d   1       9.231  -4.920  -4.735  0.00  0.00     0.030 H 
ATOM     31  H   LIG d   1       8.629  -2.798  -3.682  0.00  0.00     0.027 H 
ATOM     32  H   LIG d   1       7.166  -3.415  -2.895  0.00  0.00     0.027 H 
ATOM     33  H   LIG d   1       7.586  -0.563  -3.891  0.00  0.00     0.027 H 
ATOM     34  H   LIG d   1       7.604  -1.106  -2.207  0.00  0.00     0.027 H 
ATOM     35  H   LIG d   1       5.642   0.975  -3.171  0.00  0.00     0.029 H 
ATOM     36  H   LIG d   1       5.666   0.278  -1.545  0.00  0.00     0.029 H 
ATOM     37  H   LIG d   1       3.398   0.828  -4.528  0.00  0.00     0.029 H 
ATOM     38  H   LIG d   1       2.014   0.054  -3.747  0.00  0.00     0.029 H 
ATOM     39  H   LIG d   1       3.162  -2.103  -3.702  0.00  0.00     0.027 H 
ATOM     40  H   LIG d   1       3.085  -1.487  -5.371  0.00  0.00     0.027 H 
ATOM     41  H   LIG d   1       3.751  -3.673  -4.239  0.00  0.00     0.035 H 
ATOM     42  H   LIG d   1       5.173  -4.269  -3.521  0.00  0.00     0.035 H 
ENDROOT
BRANCH   2  43
ATOM     43  C   LIG d   1       7.177  -9.794  -4.207  0.00  0.00     0.005 C 
ATOM     44  H   LIG d   1       6.233 -10.308  -4.395  0.00  0.00     0.034 H 
ATOM     45  H   LIG d   1       8.006 -10.441  -4.495  0.00  0.00     0.034 H 
BRANCH  43  46
ATOM     46  C   LIG d   1       7.286  -9.458  -2.719  0.00  0.00    -0.042 C 
ATOM     47  H   LIG d   1       8.251  -9.797  -2.341  0.00  0.00     0.027 H 
ATOM     48  H   LIG d   1       7.201  -8.380  -2.583  0.00  0.00     0.027 H 
BRANCH  46  49
ATOM     49  C   LIG d   1       6.164 -10.159  -1.953  0.00  0.00    -0.020 C 
ATOM     50  H   LIG d   1       5.531  -9.413  -1.471  0.00  0.00     0.032 H 
BRANCH  49  51
ATOM     51  C   LIG d   1       5.324 -10.989  -2.925  0.00  0.00    -0.060 C 
ATOM     52  H   LIG d   1       4.991 -11.902  -2.430  0.00  0.00     0.023 H 
ATOM     53  H   LIG d   1       4.456 -10.411  -3.241  0.00  0.00     0.023 H 
ATOM     54  H   LIG d   1       5.926 -11.248  -3.797  0.00  0.00     0.023 H 
ENDBRANCH  49  51
BRANCH  49  55
ATOM     55  C   LIG d   1       6.768 -11.077  -0.889  0.00  0.00     0.047 C 
ATOM     56  H   LIG d   1       7.336 -11.871  -1.373  0.00  0.00     0.056 H 
ATOM     57  H   LIG d   1       7.431 -10.499  -0.244  0.00  0.00     0.056 H 
BRANCH  55  58
ATOM     58  O   LIG d   1       5.721 -11.651  -0.103  0.00  0.00    -0.395 OA
ATOM     59  H   LIG d   1       5.863 -12.580   0.123  0.00  0.00     0.209 HD
ENDBRANCH  55  58
ENDBRANCH  49  55
ENDBRANCH  46  49
ENDBRANCH  43  46
ENDBRANCH   2  43
BRANCH   1  60
ATOM     60  C   LIG d   1       4.707  -8.287  -5.198  0.00  0.00    -0.040 C 
ATOM     61  H   LIG d   1       4.209  -7.551  -4.568  0.00  0.00     0.028 H 
ATOM     62  H   LIG d   1       4.185  -8.363  -6.152  0.00  0.00     0.028 H 
ATOM     63  H   LIG d   1       4.699  -9.256  -4.700  0.00  0.00     0.028 H 
ENDBRANCH   1  60
BRANCH   8  64
ATOM     64  C   LIG d   1       6.156  -4.655  -7.510  0.00  0.00    -0.052 C 
ATOM     65  H   LIG d   1       5.225  -4.885  -8.029  0.00  0.00     0.024 H 
ATOM     66  H   LIG d   1       6.274  -3.573  -7.439  0.00  0.00     0.024 H 
ATOM     67  H   LIG d   1       6.995  -5.076  -8.064  0.00  0.00     0.024 H 
ENDBRANCH   8  64
BRANCH  23  68
ATOM     68  C   LIG d   1       5.533  -0.333  -5.464  0.00  0.00    -0.059 C 
ATOM     69  H   LIG d   1       6.618  -0.375  -5.550  0.00  0.00     0.024 H 
ATOM     70  H   LIG d   1       5.084  -0.499  -6.444  0.00  0.00     0.024 H 
ATOM     71  H   LIG d   1       5.235   0.647  -5.090  0.00  0.00     0.024 H 
ENDBRANCH  23  68
BRANCH  19  72
ATOM     72  O   LIG d   1       3.362   1.569  -2.000  0.00  0.00    -0.392 OA
ATOM     73  H   LIG d   1       2.882   1.565  -1.160  0.00  0.00     0.210 HD
ENDBRANCH  19  72
TORSDOF 10
ENDMDL
MODEL 3
REMARK VINA RESULT:      -6.7      6.047      8.272
REMARK  10 active torsions:
REMARK  status: ('A' for Active; 'I' for Inactive)
REMARK    1  A    between atoms: C_1  and  C_2 
REMARK    2  A    between atoms: C_3  and  C_33 
REMARK    3  A    between atoms: C_9  and  C_32 
REMARK    4  A    between atoms: C_20  and  O_31 
REMARK    5  A    between atoms: C_24  and  C_30 
REMARK    6  A    between atoms: C_33  and  C_34 
REMARK    7  A    between atoms: C_34  and  C_35 
REMARK    8  A    between atoms: C_35  and  C_37 
REMARK    9  A    between atoms: C_35  and  C_38 
REMARK   10  A    between atoms: C_38  and  O_39 
ROOT
ATOM      1  C   LIG d   1       6.839  -3.228  -4.501  0.00  0.00    -0.028 C 
ATOM      2  C   LIG d   1       5.717  -2.566  -4.138  0.00  0.00     0.098 C 
ATOM      3  O   LIG d   1       4.650  -2.866  -4.983  0.00  0.00    -0.492 OA
ATOM      4  C   LIG d   1       4.919  -4.179  -5.255  0.00  0.00     0.107 C 
ATOM      5  H   LIG d   1       5.023  -4.559  -4.236  0.00  0.00     0.074 H 
ATOM      6  C   LIG d   1       6.437  -4.032  -5.702  0.00  0.00     0.033 C 
ATOM      7  H   LIG d   1       6.533  -3.441  -6.626  0.00  0.00     0.039 H 
ATOM      8  C   LIG d   1       6.847  -5.474  -5.958  0.00  0.00     0.039 C 
ATOM      9  C   LIG d   1       5.589  -6.288  -5.572  0.00  0.00    -0.022 C 
ATOM     10  H   LIG d   1       5.584  -6.253  -4.478  0.00  0.00     0.031 H 
ATOM     11  C   LIG d   1       4.410  -5.384  -5.956  0.00  0.00    -0.011 C 
ATOM     12  C   LIG d   1       5.612  -7.750  -5.883  0.00  0.00    -0.034 C 
ATOM     13  H   LIG d   1       5.264  -7.925  -6.900  0.00  0.00     0.031 H 
ATOM     14  C   LIG d   1       4.664  -8.417  -4.874  0.00  0.00    -0.049 C 
ATOM     15  C   LIG d   1       4.804  -9.933  -4.860  0.00  0.00    -0.049 C 
ATOM     16  C   LIG d   1       6.240 -10.280  -4.469  0.00  0.00    -0.033 C 
ATOM     17  H   LIG d   1       6.466  -9.807  -3.504  0.00  0.00     0.031 H 
ATOM     18  C   LIG d   1       6.394 -11.791  -4.317  0.00  0.00    -0.024 C 
ATOM     19  C   LIG d   1       7.831 -12.135  -3.927  0.00  0.00     0.056 C 
ATOM     20  H   LIG d   1       8.058 -11.695  -2.954  0.00  0.00     0.059 H 
ATOM     21  C   LIG d   1       8.805 -11.588  -4.971  0.00  0.00    -0.026 C 
ATOM     22  C   LIG d   1       8.636 -10.076  -5.106  0.00  0.00    -0.045 C 
ATOM     23  C   LIG d   1       7.197  -9.735  -5.520  0.00  0.00    -0.026 C 
ATOM     24  C   LIG d   1       7.058  -8.232  -5.694  0.00  0.00    -0.026 C 
ATOM     25  H   LIG d   1       7.617  -7.988  -6.616  0.00  0.00     0.031 H 
ATOM     26  C   LIG d   1       7.702  -7.424  -4.555  0.00  0.00     0.010 C 
ATOM     27  C   LIG d   1       7.996  -6.041  -5.162  0.00  0.00     0.140 C 
ATOM     28  O   LIG d   1       9.075  -5.497  -5.032  0.00  0.00    -0.297 OA
ATOM     29  H   LIG d   1       4.336  -5.248  -7.034  0.00  0.00     0.030 H 
ATOM     30  H   LIG d   1       3.474  -5.748  -5.529  0.00  0.00     0.030 H 
ATOM     31  H   LIG d   1       3.634  -8.155  -5.131  0.00  0.00     0.027 H 
ATOM     32  H   LIG d   1       4.879  -8.029  -3.875  0.00  0.00     0.027 H 
ATOM     33  H   LIG d   1       4.544 -10.349  -5.827  0.00  0.00     0.027 H 
ATOM     34  H   LIG d   1       4.122 -10.347  -4.108  0.00  0.00     0.027 H 
ATOM     35  H   LIG d   1       6.124 -12.303  -5.236  0.00  0.00     0.029 H 
ATOM     36  H   LIG d   1       5.722 -12.137  -3.521  0.00  0.00     0.029 H 
ATOM     37  H   LIG d   1       8.650 -12.085  -5.924  0.00  0.00     0.029 H 
ATOM     38  H   LIG d   1       9.829 -11.798  -4.639  0.00  0.00     0.029 H 
ATOM     39  H   LIG d   1       8.857  -9.611  -4.144  0.00  0.00     0.027 H 
ATOM     40  H   LIG d   1       9.327  -9.697  -5.859  0.00  0.00     0.027 H 
ATOM     41  H   LIG d   1       8.536  -7.884  -4.250  0.00  0.00     0.035 H 
ATOM     42  H   LIG d   1       7.019  -7.331  -3.715  0.00  0.00     0.035 H 
ENDROOT
BRANCH   2  43
ATOM     43  C   LIG d   1       5.639  -1.625  -2.968  0.00  0.00     0.005 C 
ATOM     44  H   LIG d   1       6.394  -1.899  -2.230  0.00  0.00     0.034 H 
ATOM     45  H   LIG d   1       5.819  -0.605  -3.309  0.00  0.00     0.034 H 
BRANCH  43  46
ATOM     46  C   LIG d   1       4.250  -1.712  -2.334  0.00  0.00    -0.042 C 
ATOM     47  H   LIG d   1       3.613  -2.353  -2.943  0.00  0.00     0.027 H 
ATOM     48  H   LIG d   1       4.334  -2.132  -1.332  0.00  0.00     0.027 H 
BRANCH  46  49
ATOM     49  C   LIG d   1       3.637  -0.313  -2.252  0.00  0.00    -0.020 C 
ATOM     50  H   LIG d   1       2.781  -0.331  -1.576  0.00  0.00     0.032 H 
BRANCH  49  51
ATOM     51  C   LIG d   1       4.682   0.672  -1.725  0.00  0.00    -0.060 C 
ATOM     52  H   LIG d   1       4.831   1.468  -2.454  0.00  0.00     0.023 H 
ATOM     53  H   LIG d   1       4.336   1.100  -0.784  0.00  0.00     0.023 H 
ATOM     54  H   LIG d   1       5.625   0.148  -1.561  0.00  0.00     0.023 H 
ENDBRANCH  49  51
BRANCH  49  55
ATOM     55  C   LIG d   1       3.178   0.125  -3.643  0.00  0.00     0.047 C 
ATOM     56  H   LIG d   1       2.552   1.014  -3.556  0.00  0.00     0.056 H 
ATOM     57  H   LIG d   1       4.048   0.353  -4.259  0.00  0.00     0.056 H 
BRANCH  55  58
ATOM     58  O   LIG d   1       2.427  -0.928  -4.252  0.00  0.00    -0.395 OA
ATOM     59  H   LIG d   1       1.684  -0.622  -4.789  0.00  0.00     0.209 HD
ENDBRANCH  55  58
ENDBRANCH  49  55
ENDBRANCH  46  49
ENDBRANCH  43  46
ENDBRANCH   2  43
BRANCH   1  60
ATOM     60  C   LIG d   1       8.175  -3.109  -3.816  0.00  0.00    -0.040 C 
ATOM     61  H   LIG d   1       8.079  -2.466  -2.942  0.00  0.00     0.028 H 
ATOM     62  H   LIG d   1       8.513  -4.098  -3.506  0.00  0.00     0.028 H 
ATOM     63  H   LIG d   1       8.900  -2.678  -4.507  0.00  0.00     0.028 H 
ENDBRANCH   1  60
BRANCH   8  64
ATOM     64  C   LIG d   1       7.142  -5.611  -7.464  0.00  0.00    -0.052 C 
ATOM     65  H   LIG d   1       8.144  -5.236  -7.674  0.00  0.00     0.024 H 
ATOM     66  H   LIG d   1       7.079  -6.660  -7.754  0.00  0.00     0.024 H 
ATOM     67  H   LIG d   1       6.412  -5.033  -8.032  0.00  0.00     0.024 H 
ENDBRANCH   8  64
BRANCH  23  68
ATOM     68  C   LIG d   1       6.917 -10.392  -6.880  0.00  0.00    -0.059 C 
ATOM     69  H   LIG d   1       6.578  -9.635  -7.586  0.00  0.00     0.024 H 
ATOM     70  H   LIG d   1       7.831 -10.854  -7.255  0.00  0.00     0.024 H 
ATOM     71  H   LIG d   1       6.146 -11.153  -6.764  0.00  0.00     0.024 H 
ENDBRANCH  23  68
BRANCH  19  72
ATOM     72  O   LIG d   1       7.973 -13.555  -3.846  0.00  0.00    -0.392 OA
ATOM     73  H   LIG d   1       8.749 -13.901  -4.308  0.00  0.00     0.210 HD
ENDBRANCH  19  72
TORSDOF 10
ENDMDL
MODEL 4
REMARK VINA RESULT:      -6.2      1.693      2.352
REMARK  10 active torsions:
REMARK  status: ('A' for Active; 'I' for Inactive)
REMARK    1  A    between atoms: C_1  and  C_2 
REMARK    2  A    between atoms: C_3  and  C_33 
REMARK    3  A    between atoms: C_9  and  C_32 
REMARK    4  A    between atoms: C_20  and  O_31 
REMARK    5  A    between atoms: C_24  and  C_30 
REMARK    6  A    between atoms: C_33  and  C_34 
REMARK    7  A    between atoms: C_34  and  C_35 
REMARK    8  A    between atoms: C_35  and  C_37 
REMARK    9  A    between atoms: C_35  and  C_38 
REMARK   10  A    between atoms: C_38  and  O_39 
ROOT
ATOM      1  C   LIG d   1       6.263  -2.100  -5.223  0.00  0.00    -0.028 C 
ATOM      2  C   LIG d   1       6.026  -1.021  -4.445  0.00  0.00     0.098 C 
ATOM      3  O   LIG d   1       5.991   0.153  -5.195  0.00  0.00    -0.492 OA
ATOM      4  C   LIG d   1       5.427  -0.314  -6.350  0.00  0.00     0.107 C 
ATOM      5  H   LIG d   1       4.543  -0.806  -5.935  0.00  0.00     0.074 H 
ATOM      6  C   LIG d   1       6.390  -1.550  -6.612  0.00  0.00     0.033 C 
ATOM      7  H   LIG d   1       7.422  -1.224  -6.818  0.00  0.00     0.039 H 
ATOM      8  C   LIG d   1       5.785  -2.183  -7.856  0.00  0.00     0.039 C 
ATOM      9  C   LIG d   1       4.529  -1.323  -8.132  0.00  0.00    -0.022 C 
ATOM     10  H   LIG d   1       3.823  -1.641  -7.359  0.00  0.00     0.031 H 
ATOM     11  C   LIG d   1       4.923   0.092  -7.686  0.00  0.00    -0.011 C 
ATOM     12  C   LIG d   1       3.801  -1.585  -9.411  0.00  0.00    -0.034 C 
ATOM     13  H   LIG d   1       4.232  -0.996 -10.219  0.00  0.00     0.031 H 
ATOM     14  C   LIG d   1       2.342  -1.167  -9.167  0.00  0.00    -0.049 C 
ATOM     15  C   LIG d   1       1.409  -1.648 -10.268  0.00  0.00    -0.049 C 
ATOM     16  C   LIG d   1       1.466  -3.175 -10.315  0.00  0.00    -0.033 C 
ATOM     17  H   LIG d   1       1.216  -3.567  -9.320  0.00  0.00     0.031 H 
ATOM     18  C   LIG d   1       0.448  -3.710 -11.319  0.00  0.00    -0.024 C 
ATOM     19  C   LIG d   1       0.510  -5.236 -11.364  0.00  0.00     0.056 C 
ATOM     20  H   LIG d   1       0.233  -5.640 -10.389  0.00  0.00     0.059 H 
ATOM     21  C   LIG d   1       1.923  -5.696 -11.720  0.00  0.00    -0.026 C 
ATOM     22  C   LIG d   1       2.925  -5.151 -10.704  0.00  0.00    -0.045 C 
ATOM     23  C   LIG d   1       2.877  -3.617 -10.677  0.00  0.00    -0.026 C 
ATOM     24  C   LIG d   1       3.910  -3.091  -9.694  0.00  0.00    -0.026 C 
ATOM     25  H   LIG d   1       4.891  -3.273 -10.171  0.00  0.00     0.031 H 
ATOM     26  C   LIG d   1       3.917  -3.845  -8.355  0.00  0.00     0.010 C 
ATOM     27  C   LIG d   1       5.324  -3.616  -7.774  0.00  0.00     0.140 C 
ATOM     28  O   LIG d   1       5.995  -4.529  -7.336  0.00  0.00    -0.297 OA
ATOM     29  H   LIG d   1       5.698   0.517  -8.319  0.00  0.00     0.030 H 
ATOM     30  H   LIG d   1       4.051   0.746  -7.619  0.00  0.00     0.030 H 
ATOM     31  H   LIG d   1       2.294  -0.076  -9.108  0.00  0.00     0.027 H 
ATOM     32  H   LIG d   1       2.011  -1.578  -8.211  0.00  0.00     0.027 H 
ATOM     33  H   LIG d   1       1.684  -1.210 -11.221  0.00  0.00     0.027 H 
ATOM     34  H   LIG d   1       0.384  -1.340 -10.027  0.00  0.00     0.027 H 
ATOM     35  H   LIG d   1       0.627  -3.299 -12.309  0.00  0.00     0.029 H 
ATOM     36  H   LIG d   1      -0.557  -3.408 -10.999  0.00  0.00     0.029 H 
ATOM     37  H   LIG d   1       2.177  -5.379 -12.728  0.00  0.00     0.029 H 
ATOM     38  H   LIG d   1       1.954  -6.792 -11.691  0.00  0.00     0.029 H 
ATOM     39  H   LIG d   1       2.669  -5.541  -9.717  0.00  0.00     0.027 H 
ATOM     40  H   LIG d   1       3.931  -5.476 -10.972  0.00  0.00     0.027 H 
ATOM     41  H   LIG d   1       3.732  -4.815  -8.517  0.00  0.00     0.035 H 
ATOM     42  H   LIG d   1       3.162  -3.446  -7.684  0.00  0.00     0.035 H 
ENDROOT
BRANCH   2  43
ATOM     43  C   LIG d   1       5.826  -1.086  -2.956  0.00  0.00     0.005 C 
ATOM     44  H   LIG d   1       6.524  -1.806  -2.527  0.00  0.00     0.034 H 
ATOM     45  H   LIG d   1       6.006  -0.103  -2.521  0.00  0.00     0.034 H 
BRANCH  43  46
ATOM     46  C   LIG d   1       4.392  -1.523  -2.651  0.00  0.00    -0.042 C 
ATOM     47  H   LIG d   1       3.988  -2.063  -3.507  0.00  0.00     0.027 H 
ATOM     48  H   LIG d   1       4.389  -2.175  -1.777  0.00  0.00     0.027 H 
BRANCH  46  49
ATOM     49  C   LIG d   1       3.531  -0.291  -2.372  0.00  0.00    -0.020 C 
ATOM     50  H   LIG d   1       2.776  -0.537  -1.624  0.00  0.00     0.032 H 
BRANCH  49  51
ATOM     51  C   LIG d   1       4.416   0.842  -1.849  0.00  0.00    -0.060 C 
ATOM     52  H   LIG d   1       5.236   0.423  -1.265  0.00  0.00     0.023 H 
ATOM     53  H   LIG d   1       4.819   1.406  -2.689  0.00  0.00     0.023 H 
ATOM     54  H   LIG d   1       3.822   1.504  -1.217  0.00  0.00     0.023 H 
ENDBRANCH  49  51
BRANCH  49  55
ATOM     55  C   LIG d   1       2.843   0.154  -3.663  0.00  0.00     0.047 C 
ATOM     56  H   LIG d   1       3.029  -0.582  -4.446  0.00  0.00     0.056 H 
ATOM     57  H   LIG d   1       1.770   0.238  -3.493  0.00  0.00     0.056 H 
BRANCH  55  58
ATOM     58  O   LIG d   1       3.362   1.422  -4.069  0.00  0.00    -0.395 OA
ATOM     59  H   LIG d   1       4.326   1.483  -4.032  0.00  0.00     0.209 HD
ENDBRANCH  55  58
ENDBRANCH  49  55
ENDBRANCH  46  49
ENDBRANCH  43  46
ENDBRANCH   2  43
BRANCH   1  60
ATOM     60  C   LIG d   1       6.389  -3.517  -4.725  0.00  0.00    -0.040 C 
ATOM     61  H   LIG d   1       7.288  -3.969  -5.142  0.00  0.00     0.028 H 
ATOM     62  H   LIG d   1       6.454  -3.514  -3.637  0.00  0.00     0.028 H 
ATOM     63  H   LIG d   1       5.516  -4.090  -5.036  0.00  0.00     0.028 H 
ENDBRANCH   1  60
BRANCH   8  64
ATOM     64  C   LIG d   1       6.809  -2.032  -8.998  0.00  0.00    -0.052 C 
ATOM     65  H   LIG d   1       6.656  -1.076  -9.499  0.00  0.00     0.024 H 
ATOM     66  H   LIG d   1       7.819  -2.070  -8.588  0.00  0.00     0.024 H 
ATOM     67  H   LIG d   1       6.677  -2.843  -9.714  0.00  0.00     0.024 H 
ENDBRANCH   8  64
BRANCH  23  68
ATOM     68  C   LIG d   1       3.251  -3.098 -12.073  0.00  0.00    -0.059 C 
ATOM     69  H   LIG d   1       3.049  -2.029 -12.130  0.00  0.00     0.024 H 
ATOM     70  H   LIG d   1       4.312  -3.276 -12.255  0.00  0.00     0.024 H 
ATOM     71  H   LIG d   1       2.661  -3.620 -12.826  0.00  0.00     0.024 H 
ENDBRANCH  23  68
BRANCH  19  72
ATOM     72  O   LIG d   1      -0.407  -5.718 -12.350  0.00  0.00    -0.392 OA
ATOM     73  H   LIG d   1      -1.338  -5.593 -12.117  0.00  0.00     0.210 HD
ENDBRANCH  19  72
TORSDOF 10
ENDMDL
MODEL 5
REMARK VINA RESULT:      -6.2      6.289      9.694
REMARK  10 active torsions:
REMARK  status: ('A' for Active; 'I' for Inactive)
REMARK    1  A    between atoms: C_1  and  C_2 
REMARK    2  A    between atoms: C_3  and  C_33 
REMARK    3  A    between atoms: C_9  and  C_32 
REMARK    4  A    between atoms: C_20  and  O_31 
REMARK    5  A    between atoms: C_24  and  C_30 
REMARK    6  A    between atoms: C_33  and  C_34 
REMARK    7  A    between atoms: C_34  and  C_35 
REMARK    8  A    between atoms: C_35  and  C_37 
REMARK    9  A    between atoms: C_35  and  C_38 
REMARK   10  A    between atoms: C_38  and  O_39 
ROOT
ATOM      1  C   LIG d   1       7.782   0.668  -5.406  0.00  0.00    -0.028 C 
ATOM      2  C   LIG d   1       7.007   0.638  -4.299  0.00  0.00     0.098 C 
ATOM      3  O   LIG d   1       7.665   1.183  -3.199  0.00  0.00    -0.492 OA
ATOM      4  C   LIG d   1       8.388   2.168  -3.812  0.00  0.00     0.107 C 
ATOM      5  H   LIG d   1       7.586   2.669  -4.359  0.00  0.00     0.074 H 
ATOM      6  C   LIG d   1       9.066   1.299  -4.957  0.00  0.00     0.033 C 
ATOM      7  H   LIG d   1       9.755   0.547  -4.543  0.00  0.00     0.039 H 
ATOM      8  C   LIG d   1       9.843   2.342  -5.746  0.00  0.00     0.039 C 
ATOM      9  C   LIG d   1       9.486   3.675  -5.046  0.00  0.00    -0.022 C 
ATOM     10  H   LIG d   1       8.461   3.872  -5.374  0.00  0.00     0.031 H 
ATOM     11  C   LIG d   1       9.315   3.302  -3.567  0.00  0.00    -0.011 C 
ATOM     12  C   LIG d   1      10.241   4.888  -5.484  0.00  0.00    -0.034 C 
ATOM     13  H   LIG d   1      11.168   4.981  -4.918  0.00  0.00     0.031 H 
ATOM     14  C   LIG d   1       9.323   6.088  -5.202  0.00  0.00    -0.049 C 
ATOM     15  C   LIG d   1       9.819   7.366  -5.864  0.00  0.00    -0.049 C 
ATOM     16  C   LIG d   1       9.860   7.141  -7.375  0.00  0.00    -0.033 C 
ATOM     17  H   LIG d   1       8.863   6.827  -7.711  0.00  0.00     0.031 H 
ATOM     18  C   LIG d   1      10.228   8.437  -8.091  0.00  0.00    -0.024 C 
ATOM     19  C   LIG d   1      10.271   8.208  -9.601  0.00  0.00     0.056 C 
ATOM     20  H   LIG d   1       9.277   7.925  -9.953  0.00  0.00     0.059 H 
ATOM     21  C   LIG d   1      11.264   7.096  -9.937  0.00  0.00    -0.026 C 
ATOM     22  C   LIG d   1      10.877   5.809  -9.213  0.00  0.00    -0.045 C 
ATOM     23  C   LIG d   1      10.857   6.036  -7.695  0.00  0.00    -0.026 C 
ATOM     24  C   LIG d   1      10.514   4.735  -6.987  0.00  0.00    -0.026 C 
ATOM     25  H   LIG d   1      11.406   4.092  -7.103  0.00  0.00     0.031 H 
ATOM     26  C   LIG d   1       9.336   3.984  -7.629  0.00  0.00     0.010 C 
ATOM     27  C   LIG d   1       9.521   2.515  -7.209  0.00  0.00     0.140 C 
ATOM     28  O   LIG d   1       9.450   1.604  -8.009  0.00  0.00    -0.297 OA
ATOM     29  H   LIG d   1      10.254   2.991  -3.115  0.00  0.00     0.030 H 
ATOM     30  H   LIG d   1       8.842   4.109  -3.005  0.00  0.00     0.030 H 
ATOM     31  H   LIG d   1       9.267   6.243  -4.121  0.00  0.00     0.027 H 
ATOM     32  H   LIG d   1       8.319   5.861  -5.569  0.00  0.00     0.027 H 
ATOM     33  H   LIG d   1      10.792   7.644  -5.476  0.00  0.00     0.027 H 
ATOM     34  H   LIG d   1       9.113   8.177  -5.646  0.00  0.00     0.027 H 
ATOM     35  H   LIG d   1      11.187   8.813  -7.744  0.00  0.00     0.029 H 
ATOM     36  H   LIG d   1       9.464   9.192  -7.872  0.00  0.00     0.029 H 
ATOM     37  H   LIG d   1      12.272   7.403  -9.676  0.00  0.00     0.029 H 
ATOM     38  H   LIG d   1      11.233   6.913 -11.019  0.00  0.00     0.029 H 
ATOM     39  H   LIG d   1       9.883   5.504  -9.548  0.00  0.00     0.027 H 
ATOM     40  H   LIG d   1      11.596   5.024  -9.451  0.00  0.00     0.027 H 
ATOM     41  H   LIG d   1       9.369   4.097  -8.622  0.00  0.00     0.035 H 
ATOM     42  H   LIG d   1       8.389   4.367  -7.259  0.00  0.00     0.035 H 
ENDROOT
BRANCH   2  43
ATOM     43  C   LIG d   1       5.610   0.083  -4.267  0.00  0.00     0.005 C 
ATOM     44  H   LIG d   1       4.896   0.900  -4.151  0.00  0.00     0.034 H 
ATOM     45  H   LIG d   1       5.407  -0.446  -5.199  0.00  0.00     0.034 H 
BRANCH  43  46
ATOM     46  C   LIG d   1       5.471  -0.885  -3.091  0.00  0.00    -0.042 C 
ATOM     47  H   LIG d   1       5.334  -1.898  -3.469  0.00  0.00     0.027 H 
ATOM     48  H   LIG d   1       6.373  -0.845  -2.480  0.00  0.00     0.027 H 
BRANCH  46  49
ATOM     49  C   LIG d   1       4.262  -0.489  -2.243  0.00  0.00    -0.020 C 
ATOM     50  H   LIG d   1       4.273  -1.053  -1.309  0.00  0.00     0.032 H 
BRANCH  49  51
ATOM     51  C   LIG d   1       4.322   1.008  -1.936  0.00  0.00    -0.060 C 
ATOM     52  H   LIG d   1       4.849   1.165  -0.994  0.00  0.00     0.023 H 
ATOM     53  H   LIG d   1       4.851   1.523  -2.738  0.00  0.00     0.023 H 
ATOM     54  H   LIG d   1       3.309   1.403  -1.856  0.00  0.00     0.023 H 
ENDBRANCH  49  51
BRANCH  49  55
ATOM     55  C   LIG d   1       2.976  -0.802  -3.011  0.00  0.00     0.047 C 
ATOM     56  H   LIG d   1       2.167  -0.988  -2.304  0.00  0.00     0.056 H 
ATOM     57  H   LIG d   1       2.716   0.046  -3.645  0.00  0.00     0.056 H 
BRANCH  55  58
ATOM     58  O   LIG d   1       3.175  -1.961  -3.823  0.00  0.00    -0.395 OA
ATOM     59  H   LIG d   1       3.074  -1.799  -4.771  0.00  0.00     0.209 HD
ENDBRANCH  55  58
ENDBRANCH  49  55
ENDBRANCH  46  49
ENDBRANCH  43  46
ENDBRANCH   2  43
BRANCH   1  60
ATOM     60  C   LIG d   1       7.384   0.135  -6.758  0.00  0.00    -0.040 C 
ATOM     61  H   LIG d   1       7.695  -0.906  -6.844  0.00  0.00     0.028 H 
ATOM     62  H   LIG d   1       6.301   0.201  -6.870  0.00  0.00     0.028 H 
ATOM     63  H   LIG d   1       7.866   0.724  -7.537  0.00  0.00     0.028 H 
ENDBRANCH   1  60
BRANCH   8  64
ATOM     64  C   LIG d   1      11.343   2.025  -5.580  0.00  0.00    -0.052 C 
ATOM     65  H   LIG d   1      11.761   1.728  -6.542  0.00  0.00     0.024 H 
ATOM     66  H   LIG d   1      11.863   2.911  -5.215  0.00  0.00     0.024 H 
ATOM     67  H   LIG d   1      11.465   1.212  -4.864  0.00  0.00     0.024 H 
ENDBRANCH   8  64
BRANCH  23  68
ATOM     68  C   LIG d   1      12.268   6.453  -7.251  0.00  0.00    -0.059 C 
ATOM     69  H   LIG d   1      12.989   6.167  -8.016  0.00  0.00     0.024 H 
ATOM     70  H   LIG d   1      12.299   7.533  -7.107  0.00  0.00     0.024 H 
ATOM     71  H   LIG d   1      12.516   5.955  -6.314  0.00  0.00     0.024 H 
ENDBRANCH  23  68
BRANCH  19  72
ATOM     72  O   LIG d   1      10.674   9.416 -10.253  0.00  0.00    -0.392 OA
ATOM     73  H   LIG d   1      10.068  10.158 -10.116  0.00  0.00     0.210 HD
ENDBRANCH  19  72
TORSDOF 10
ENDMDL
MODEL 6
REMARK VINA RESULT:      -6.0      5.697      9.366
REMARK  10 active torsions:
REMARK  status: ('A' for Active; 'I' for Inactive)
REMARK    1  A    between atoms: C_1  and  C_2 
REMARK    2  A    between atoms: C_3  and  C_33 
REMARK    3  A    between atoms: C_9  and  C_32 
REMARK    4  A    between atoms: C_20  and  O_31 
REMARK    5  A    between atoms: C_24  and  C_30 
REMARK    6  A    between atoms: C_33  and  C_34 
REMARK    7  A    between atoms: C_34  and  C_35 
REMARK    8  A    between atoms: C_35  and  C_37 
REMARK    9  A    between atoms: C_35  and  C_38 
REMARK   10  A    between atoms: C_38  and  O_39 
ROOT
ATOM      1  C   LIG d   1      10.730   4.871  -5.530  0.00  0.00    -0.028 C 
ATOM      2  C   LIG d   1      11.040   5.333  -6.761  0.00  0.00     0.098 C 
ATOM      3  O   LIG d   1      11.545   4.321  -7.576  0.00  0.00    -0.492 OA
ATOM      4  C   LIG d   1      10.807   3.261  -7.130  0.00  0.00     0.107 C 
ATOM      5  H   LIG d   1       9.804   3.684  -7.225  0.00  0.00     0.074 H 
ATOM      6  C   LIG d   1      11.075   3.411  -5.571  0.00  0.00     0.033 C 
ATOM      7  H   LIG d   1      12.135   3.247  -5.323  0.00  0.00     0.039 H 
ATOM      8  C   LIG d   1      10.221   2.300  -4.980  0.00  0.00     0.039 C 
ATOM      9  C   LIG d   1       9.509   1.689  -6.210  0.00  0.00    -0.022 C 
ATOM     10  H   LIG d   1       8.751   2.435  -6.466  0.00  0.00     0.031 H 
ATOM     11  C   LIG d   1      10.528   1.819  -7.351  0.00  0.00    -0.011 C 
ATOM     12  C   LIG d   1       8.720   0.441  -5.980  0.00  0.00    -0.034 C 
ATOM     13  H   LIG d   1       9.363  -0.435  -6.070  0.00  0.00     0.031 H 
ATOM     14  C   LIG d   1       7.632   0.416  -7.065  0.00  0.00    -0.049 C 
ATOM     15  C   LIG d   1       6.562  -0.630  -6.790  0.00  0.00    -0.049 C 
ATOM     16  C   LIG d   1       5.896  -0.299  -5.454  0.00  0.00    -0.033 C 
ATOM     17  H   LIG d   1       5.510   0.728  -5.499  0.00  0.00     0.031 H 
ATOM     18  C   LIG d   1       4.729  -1.247  -5.197  0.00  0.00    -0.024 C 
ATOM     19  C   LIG d   1       4.068  -0.915  -3.860  0.00  0.00     0.056 C 
ATOM     20  H   LIG d   1       3.652   0.093  -3.902  0.00  0.00     0.059 H 
ATOM     21  C   LIG d   1       5.095  -0.993  -2.731  0.00  0.00    -0.026 C 
ATOM     22  C   LIG d   1       6.253  -0.037  -3.006  0.00  0.00    -0.045 C 
ATOM     23  C   LIG d   1       6.929  -0.388  -4.339  0.00  0.00    -0.026 C 
ATOM     24  C   LIG d   1       8.106   0.544  -4.576  0.00  0.00    -0.026 C 
ATOM     25  H   LIG d   1       8.879   0.236  -3.848  0.00  0.00     0.031 H 
ATOM     26  C   LIG d   1       7.784   2.020  -4.286  0.00  0.00     0.010 C 
ATOM     27  C   LIG d   1       9.145   2.676  -3.994  0.00  0.00     0.140 C 
ATOM     28  O   LIG d   1       9.318   3.393  -3.028  0.00  0.00    -0.297 OA
ATOM     29  H   LIG d   1      11.401   1.190  -7.191  0.00  0.00     0.030 H 
ATOM     30  H   LIG d   1      10.065   1.631  -8.321  0.00  0.00     0.030 H 
ATOM     31  H   LIG d   1       8.101   0.204  -8.030  0.00  0.00     0.027 H 
ATOM     32  H   LIG d   1       7.164   1.402  -7.120  0.00  0.00     0.027 H 
ATOM     33  H   LIG d   1       6.993  -1.625  -6.784  0.00  0.00     0.027 H 
ATOM     34  H   LIG d   1       5.805  -0.584  -7.583  0.00  0.00     0.027 H 
ATOM     35  H   LIG d   1       5.061  -2.282  -5.202  0.00  0.00     0.029 H 
ATOM     36  H   LIG d   1       3.988  -1.121  -5.997  0.00  0.00     0.029 H 
ATOM     37  H   LIG d   1       5.449  -2.014  -2.618  0.00  0.00     0.029 H 
ATOM     38  H   LIG d   1       4.609  -0.696  -1.793  0.00  0.00     0.029 H 
ATOM     39  H   LIG d   1       5.862   0.981  -3.054  0.00  0.00     0.027 H 
ATOM     40  H   LIG d   1       6.984  -0.107  -2.201  0.00  0.00     0.027 H 
ATOM     41  H   LIG d   1       7.164   2.078  -3.504  0.00  0.00     0.035 H 
ATOM     42  H   LIG d   1       7.316   2.488  -5.148  0.00  0.00     0.035 H 
ENDROOT
BRANCH   2  43
ATOM     43  C   LIG d   1      10.861   6.763  -7.191  0.00  0.00     0.005 C 
ATOM     44  H   LIG d   1       9.900   7.133  -6.831  0.00  0.00     0.034 H 
ATOM     45  H   LIG d   1      11.663   7.371  -6.774  0.00  0.00     0.034 H 
BRANCH  43  46
ATOM     46  C   LIG d   1      10.899   6.846  -8.718  0.00  0.00    -0.042 C 
ATOM     47  H   LIG d   1      11.627   7.598  -9.022  0.00  0.00     0.027 H 
ATOM     48  H   LIG d   1      11.185   5.877  -9.127  0.00  0.00     0.027 H 
BRANCH  46  49
ATOM     49  C   LIG d   1       9.516   7.234  -9.243  0.00  0.00    -0.020 C 
ATOM     50  H   LIG d   1       9.626   7.842 -10.142  0.00  0.00     0.032 H 
BRANCH  49  51
ATOM     51  C   LIG d   1       8.724   5.968  -9.578  0.00  0.00    -0.060 C 
ATOM     52  H   LIG d   1       8.516   5.942 -10.648  0.00  0.00     0.023 H 
ATOM     53  H   LIG d   1       9.306   5.091  -9.299  0.00  0.00     0.023 H 
ATOM     54  H   LIG d   1       7.783   5.972  -9.025  0.00  0.00     0.023 H 
ENDBRANCH  49  51
BRANCH  49  55
ATOM     55  C   LIG d   1       8.771   8.035  -8.175  0.00  0.00     0.047 C 
ATOM     56  H   LIG d   1       7.878   7.490  -7.869  0.00  0.00     0.056 H 
ATOM     57  H   LIG d   1       9.419   8.182  -7.311  0.00  0.00     0.056 H 
BRANCH  55  58
ATOM     58  O   LIG d   1       8.393   9.306  -8.708  0.00  0.00    -0.395 OA
ATOM     59  H   LIG d   1       7.466   9.535  -8.560  0.00  0.00     0.209 HD
ENDBRANCH  55  58
ENDBRANCH  49  55
ENDBRANCH  46  49
ENDBRANCH  43  46
ENDBRANCH   2  43
BRANCH   1  60
ATOM     60  C   LIG d   1      10.187   5.707  -4.401  0.00  0.00    -0.040 C 
ATOM     61  H   LIG d   1      10.741   5.489  -3.489  0.00  0.00     0.028 H 
ATOM     62  H   LIG d   1      10.295   6.764  -4.648  0.00  0.00     0.028 H 
ATOM     63  H   LIG d   1       9.133   5.475  -4.250  0.00  0.00     0.028 H 
ENDBRANCH   1  60
BRANCH   8  64
ATOM     64  C   LIG d   1      11.176   1.274  -4.339  0.00  0.00    -0.052 C 
ATOM     65  H   LIG d   1      11.650   1.716  -3.462  0.00  0.00     0.024 H 
ATOM     66  H   LIG d   1      10.612   0.389  -4.040  0.00  0.00     0.024 H 
ATOM     67  H   LIG d   1      11.942   0.990  -5.061  0.00  0.00     0.024 H 
ENDBRANCH   8  64
BRANCH  23  68
ATOM     68  C   LIG d   1       7.478  -1.819  -4.240  0.00  0.00    -0.059 C 
ATOM     69  H   LIG d   1       8.528  -1.787  -3.950  0.00  0.00     0.024 H 
ATOM     70  H   LIG d   1       6.912  -2.374  -3.491  0.00  0.00     0.024 H 
ATOM     71  H   LIG d   1       7.383  -2.313  -5.207  0.00  0.00     0.024 H 
ENDBRANCH  23  68
BRANCH  19  72
ATOM     72  O   LIG d   1       3.014  -1.848  -3.608  0.00  0.00    -0.392 OA
ATOM     73  H   LIG d   1       2.963  -2.146  -2.689  0.00  0.00     0.210 HD
ENDBRANCH  19  72
TORSDOF 10
ENDMDL
MODEL 7
REMARK VINA RESULT:      -6.0      6.293      9.252
REMARK  10 active torsions:
REMARK  status: ('A' for Active; 'I' for Inactive)
REMARK    1  A    between atoms: C_1  and  C_2 
REMARK    2  A    between atoms: C_3  and  C_33 
REMARK    3  A    between atoms: C_9  and  C_32 
REMARK    4  A    between atoms: C_20  and  O_31 
REMARK    5  A    between atoms: C_24  and  C_30 
REMARK    6  A    between atoms: C_33  and  C_34 
REMARK    7  A    between atoms: C_34  and  C_35 
REMARK    8  A    between atoms: C_35  and  C_37 
REMARK    9  A    between atoms: C_35  and  C_38 
REMARK   10  A    between atoms: C_38  and  O_39 
ROOT
ATOM      1  C   LIG d   1       9.832   5.717  -4.999  0.00  0.00    -0.028 C 
ATOM      2  C   LIG d   1       9.779   6.572  -6.044  0.00  0.00     0.098 C 
ATOM      3  O   LIG d   1      10.262   5.985  -7.212  0.00  0.00    -0.492 OA
ATOM      4  C   LIG d   1       9.837   4.698  -7.029  0.00  0.00     0.107 C 
ATOM      5  H   LIG d   1       8.779   4.883  -6.825  0.00  0.00     0.074 H 
ATOM      6  C   LIG d   1      10.409   4.455  -5.567  0.00  0.00     0.033 C 
ATOM      7  H   LIG d   1      11.510   4.479  -5.553  0.00  0.00     0.039 H 
ATOM      8  C   LIG d   1       9.914   3.052  -5.248  0.00  0.00     0.039 C 
ATOM      9  C   LIG d   1       9.067   2.671  -6.486  0.00  0.00    -0.022 C 
ATOM     10  H   LIG d   1       8.153   3.258  -6.364  0.00  0.00     0.031 H 
ATOM     11  C   LIG d   1       9.772   3.357  -7.663  0.00  0.00    -0.011 C 
ATOM     12  C   LIG d   1       8.579   1.259  -6.557  0.00  0.00    -0.034 C 
ATOM     13  H   LIG d   1       9.329   0.623  -7.026  0.00  0.00     0.031 H 
ATOM     14  C   LIG d   1       7.301   1.292  -7.410  0.00  0.00    -0.049 C 
ATOM     15  C   LIG d   1       6.517  -0.010  -7.331  0.00  0.00    -0.049 C 
ATOM     16  C   LIG d   1       6.113  -0.241  -5.875  0.00  0.00    -0.033 C 
ATOM     17  H   LIG d   1       5.553   0.634  -5.522  0.00  0.00     0.031 H 
ATOM     18  C   LIG d   1       5.215  -1.470  -5.766  0.00  0.00    -0.024 C 
ATOM     19  C   LIG d   1       4.815  -1.699  -4.309  0.00  0.00     0.056 C 
ATOM     20  H   LIG d   1       4.230  -0.849  -3.955  0.00  0.00     0.059 H 
ATOM     21  C   LIG d   1       6.062  -1.855  -3.440  0.00  0.00    -0.026 C 
ATOM     22  C   LIG d   1       6.946  -0.616  -3.561  0.00  0.00    -0.045 C 
ATOM     23  C   LIG d   1       7.365  -0.401  -5.023  0.00  0.00    -0.026 C 
ATOM     24  C   LIG d   1       8.280   0.809  -5.120  0.00  0.00    -0.026 C 
ATOM     25  H   LIG d   1       9.235   0.495  -4.660  0.00  0.00     0.031 H 
ATOM     26  C   LIG d   1       7.775   2.021  -4.319  0.00  0.00     0.010 C 
ATOM     27  C   LIG d   1       9.031   2.866  -4.040  0.00  0.00     0.140 C 
ATOM     28  O   LIG d   1       9.283   3.296  -2.932  0.00  0.00    -0.297 OA
ATOM     29  H   LIG d   1      10.755   2.931  -7.854  0.00  0.00     0.030 H 
ATOM     30  H   LIG d   1       9.148   3.351  -8.559  0.00  0.00     0.030 H 
ATOM     31  H   LIG d   1       7.577   1.482  -8.451  0.00  0.00     0.027 H 
ATOM     32  H   LIG d   1       6.667   2.113  -7.068  0.00  0.00     0.027 H 
ATOM     33  H   LIG d   1       7.106  -0.834  -7.716  0.00  0.00     0.027 H 
ATOM     34  H   LIG d   1       5.609   0.083  -7.939  0.00  0.00     0.027 H 
ATOM     35  H   LIG d   1       5.714  -2.352  -6.160  0.00  0.00     0.029 H 
ATOM     36  H   LIG d   1       4.306  -1.297  -6.357  0.00  0.00     0.029 H 
ATOM     37  H   LIG d   1       6.606  -2.752  -3.722  0.00  0.00     0.029 H 
ATOM     38  H   LIG d   1       5.749  -1.961  -2.393  0.00  0.00     0.029 H 
ATOM     39  H   LIG d   1       6.382   0.252  -3.213  0.00  0.00     0.027 H 
ATOM     40  H   LIG d   1       7.837  -0.740  -2.946  0.00  0.00     0.027 H 
ATOM     41  H   LIG d   1       7.341   1.705  -3.474  0.00  0.00     0.035 H 
ATOM     42  H   LIG d   1       7.055   2.592  -4.897  0.00  0.00     0.035 H 
ENDROOT
BRANCH   2  43
ATOM     43  C   LIG d   1       9.262   7.981  -5.950  0.00  0.00     0.005 C 
ATOM     44  H   LIG d   1       8.857   8.285  -6.916  0.00  0.00     0.034 H 
ATOM     45  H   LIG d   1       8.477   8.032  -5.196  0.00  0.00     0.034 H 
BRANCH  43  46
ATOM     46  C   LIG d   1      10.406   8.920  -5.559  0.00  0.00    -0.042 C 
ATOM     47  H   LIG d   1      11.305   8.335  -5.367  0.00  0.00     0.027 H 
ATOM     48  H   LIG d   1      10.595   9.619  -6.373  0.00  0.00     0.027 H 
BRANCH  46  49
ATOM     49  C   LIG d   1      10.022   9.695  -4.299  0.00  0.00    -0.020 C 
ATOM     50  H   LIG d   1       9.371   9.078  -3.677  0.00  0.00     0.032 H 
BRANCH  49  51
ATOM     51  C   LIG d   1      11.285  10.054  -3.515  0.00  0.00    -0.060 C 
ATOM     52  H   LIG d   1      11.060  10.069  -2.449  0.00  0.00     0.023 H 
ATOM     53  H   LIG d   1      12.059   9.313  -3.713  0.00  0.00     0.023 H 
ATOM     54  H   LIG d   1      11.638  11.039  -3.826  0.00  0.00     0.023 H 
ENDBRANCH  49  51
BRANCH  49  55
ATOM     55  C   LIG d   1       9.284  10.976  -4.693  0.00  0.00     0.047 C 
ATOM     56  H   LIG d   1       9.970  11.822  -4.638  0.00  0.00     0.056 H 
ATOM     57  H   LIG d   1       8.907  10.880  -5.711  0.00  0.00     0.056 H 
BRANCH  55  58
ATOM     58  O   LIG d   1       8.190  11.191  -3.798  0.00  0.00    -0.395 OA
ATOM     59  H   LIG d   1       8.344  10.863  -2.902  0.00  0.00     0.209 HD
ENDBRANCH  55  58
ENDBRANCH  49  55
ENDBRANCH  46  49
ENDBRANCH  43  46
ENDBRANCH   2  43
BRANCH   1  60
ATOM     60  C   LIG d   1       9.412   6.043  -3.590  0.00  0.00    -0.040 C 
ATOM     61  H   LIG d   1       8.366   5.771  -3.450  0.00  0.00     0.028 H 
ATOM     62  H   LIG d   1      10.031   5.483  -2.888  0.00  0.00     0.028 H 
ATOM     63  H   LIG d   1       9.537   7.111  -3.411  0.00  0.00     0.028 H 
ENDBRANCH   1  60
BRANCH   8  64
ATOM     64  C   LIG d   1      11.150   2.140  -5.132  0.00  0.00    -0.052 C 
ATOM     65  H   LIG d   1      11.995   2.717  -4.755  0.00  0.00     0.024 H 
ATOM     66  H   LIG d   1      10.935   1.321  -4.444  0.00  0.00     0.024 H 
ATOM     67  H   LIG d   1      11.396   1.734  -6.113  0.00  0.00     0.024 H 
ENDBRANCH   8  64
BRANCH  23  68
ATOM     68  C   LIG d   1       8.164  -1.630  -5.482  0.00  0.00    -0.059 C 
ATOM     69  H   LIG d   1       7.872  -2.495  -4.888  0.00  0.00     0.024 H 
ATOM     70  H   LIG d   1       7.957  -1.825  -6.535  0.00  0.00     0.024 H 
ATOM     71  H   LIG d   1       9.229  -1.441  -5.350  0.00  0.00     0.024 H 
ENDBRANCH  23  68
BRANCH  19  72
ATOM     72  O   LIG d   1       4.022  -2.886  -4.217  0.00  0.00    -0.392 OA
ATOM     73  H   LIG d   1       3.936  -3.368  -5.051  0.00  0.00     0.210 HD
ENDBRANCH  19  72
TORSDOF 10
ENDMDL
MODEL 8
REMARK VINA RESULT:      -6.0      2.098      2.797
REMARK  10 active torsions:
REMARK  status: ('A' for Active; 'I' for Inactive)
REMARK    1  A    between atoms: C_1  and  C_2 
REMARK    2  A    between atoms: C_3  and  C_33 
REMARK    3  A    between atoms: C_9  and  C_32 
REMARK    4  A    between atoms: C_20  and  O_31 
REMARK    5  A    between atoms: C_24  and  C_30 
REMARK    6  A    between atoms: C_33  and  C_34 
REMARK    7  A    between atoms: C_34  and  C_35 
REMARK    8  A    between atoms: C_35  and  C_37 
REMARK    9  A    between atoms: C_35  and  C_38 
REMARK   10  A    between atoms: C_38  and  O_39 
ROOT
ATOM      1  C   LIG d   1       4.631   0.199  -7.244  0.00  0.00    -0.028 C 
ATOM      2  C   LIG d   1       3.707  -0.283  -6.382  0.00  0.00     0.098 C 
ATOM      3  O   LIG d   1       2.412  -0.070  -6.849  0.00  0.00    -0.492 OA
ATOM      4  C   LIG d   1       2.611  -0.222  -8.193  0.00  0.00     0.107 C 
ATOM      5  H   LIG d   1       3.114  -1.192  -8.194  0.00  0.00     0.074 H 
ATOM      6  C   LIG d   1       3.833   0.776  -8.376  0.00  0.00     0.033 C 
ATOM      7  H   LIG d   1       3.543   1.817  -8.166  0.00  0.00     0.039 H 
ATOM      8  C   LIG d   1       4.175   0.615  -9.849  0.00  0.00     0.039 C 
ATOM      9  C   LIG d   1       3.197  -0.481 -10.335  0.00  0.00    -0.022 C 
ATOM     10  H   LIG d   1       3.610  -1.402  -9.913  0.00  0.00     0.031 H 
ATOM     11  C   LIG d   1       1.923  -0.258  -9.509  0.00  0.00    -0.011 C 
ATOM     12  C   LIG d   1       3.161  -0.747 -11.806  0.00  0.00    -0.034 C 
ATOM     13  H   LIG d   1       2.457  -0.074 -12.294  0.00  0.00     0.031 H 
ATOM     14  C   LIG d   1       2.702  -2.205 -11.967  0.00  0.00    -0.049 C 
ATOM     15  C   LIG d   1       2.901  -2.723 -13.383  0.00  0.00    -0.049 C 
ATOM     16  C   LIG d   1       4.391  -2.652 -13.718  0.00  0.00    -0.033 C 
ATOM     17  H   LIG d   1       4.949  -3.215 -12.958  0.00  0.00     0.031 H 
ATOM     18  C   LIG d   1       4.655  -3.281 -15.082  0.00  0.00    -0.024 C 
ATOM     19  C   LIG d   1       6.145  -3.206 -15.414  0.00  0.00     0.056 C 
ATOM     20  H   LIG d   1       6.709  -3.789 -14.684  0.00  0.00     0.059 H 
ATOM     21  C   LIG d   1       6.619  -1.754 -15.381  0.00  0.00    -0.026 C 
ATOM     22  C   LIG d   1       6.347  -1.144 -14.008  0.00  0.00    -0.045 C 
ATOM     23  C   LIG d   1       4.847  -1.200 -13.687  0.00  0.00    -0.026 C 
ATOM     24  C   LIG d   1       4.588  -0.549 -12.338  0.00  0.00    -0.026 C 
ATOM     25  H   LIG d   1       4.740   0.535 -12.499  0.00  0.00     0.031 H 
ATOM     26  C   LIG d   1       5.584  -0.982 -11.250  0.00  0.00     0.010 C 
ATOM     27  C   LIG d   1       5.564   0.155 -10.213  0.00  0.00     0.140 C 
ATOM     28  O   LIG d   1       6.586   0.645  -9.776  0.00  0.00    -0.297 OA
ATOM     29  H   LIG d   1       1.436   0.683  -9.758  0.00  0.00     0.030 H 
ATOM     30  H   LIG d   1       1.239  -1.104  -9.596  0.00  0.00     0.030 H 
ATOM     31  H   LIG d   1       1.642  -2.271 -11.706  0.00  0.00     0.027 H 
ATOM     32  H   LIG d   1       3.267  -2.832 -11.273  0.00  0.00     0.027 H 
ATOM     33  H   LIG d   1       2.307  -2.150 -14.087  0.00  0.00     0.027 H 
ATOM     34  H   LIG d   1       2.578  -3.770 -13.429  0.00  0.00     0.027 H 
ATOM     35  H   LIG d   1       4.075  -2.787 -15.857  0.00  0.00     0.029 H 
ATOM     36  H   LIG d   1       4.355  -4.336 -15.050  0.00  0.00     0.029 H 
ATOM     37  H   LIG d   1       6.132  -1.183 -16.165  0.00  0.00     0.029 H 
ATOM     38  H   LIG d   1       7.701  -1.733 -15.566  0.00  0.00     0.029 H 
ATOM     39  H   LIG d   1       6.901  -1.710 -13.256  0.00  0.00     0.027 H 
ATOM     40  H   LIG d   1       6.680  -0.106 -13.996  0.00  0.00     0.027 H 
ATOM     41  H   LIG d   1       6.490  -1.102 -11.656  0.00  0.00     0.035 H 
ATOM     42  H   LIG d   1       5.272  -1.917 -10.793  0.00  0.00     0.035 H 
ENDROOT
BRANCH   2  43
ATOM     43  C   LIG d   1       4.044  -0.961  -5.083  0.00  0.00     0.005 C 
ATOM     44  H   LIG d   1       3.864  -2.033  -5.175  0.00  0.00     0.034 H 
ATOM     45  H   LIG d   1       5.093  -0.789  -4.844  0.00  0.00     0.034 H 
BRANCH  43  46
ATOM     46  C   LIG d   1       3.167  -0.391  -3.967  0.00  0.00    -0.042 C 
ATOM     47  H   LIG d   1       3.014   0.675  -4.134  0.00  0.00     0.027 H 
ATOM     48  H   LIG d   1       2.203  -0.900  -3.967  0.00  0.00     0.027 H 
BRANCH  46  49
ATOM     49  C   LIG d   1       3.856  -0.602  -2.618  0.00  0.00    -0.020 C 
ATOM     50  H   LIG d   1       3.300  -0.076  -1.840  0.00  0.00     0.032 H 
BRANCH  49  51
ATOM     51  C   LIG d   1       3.896  -2.096  -2.294  0.00  0.00    -0.060 C 
ATOM     52  H   LIG d   1       4.065  -2.232  -1.225  0.00  0.00     0.023 H 
ATOM     53  H   LIG d   1       2.948  -2.555  -2.573  0.00  0.00     0.023 H 
ATOM     54  H   LIG d   1       4.706  -2.567  -2.852  0.00  0.00     0.023 H 
ENDBRANCH  49  51
BRANCH  49  55
ATOM     55  C   LIG d   1       5.282  -0.054  -2.683  0.00  0.00     0.047 C 
ATOM     56  H   LIG d   1       5.947  -0.705  -2.115  0.00  0.00     0.056 H 
ATOM     57  H   LIG d   1       5.611  -0.017  -3.721  0.00  0.00     0.056 H 
BRANCH  55  58
ATOM     58  O   LIG d   1       5.315   1.261  -2.126  0.00  0.00    -0.395 OA
ATOM     59  H   LIG d   1       5.094   1.961  -2.755  0.00  0.00     0.209 HD
ENDBRANCH  55  58
ENDBRANCH  49  55
ENDBRANCH  46  49
ENDBRANCH  43  46
ENDBRANCH   2  43
BRANCH   1  60
ATOM     60  C   LIG d   1       6.121   0.156  -7.030  0.00  0.00    -0.040 C 
ATOM     61  H   LIG d   1       6.534   1.157  -7.149  0.00  0.00     0.028 H 
ATOM     62  H   LIG d   1       6.333  -0.209  -6.025  0.00  0.00     0.028 H 
ATOM     63  H   LIG d   1       6.574  -0.513  -7.762  0.00  0.00     0.028 H 
ENDBRANCH   1  60
BRANCH   8  64
ATOM     64  C   LIG d   1       3.875   1.958 -10.543  0.00  0.00    -0.052 C 
ATOM     65  H   LIG d   1       3.543   2.685  -9.802  0.00  0.00     0.024 H 
ATOM     66  H   LIG d   1       4.778   2.324 -11.033  0.00  0.00     0.024 H 
ATOM     67  H   LIG d   1       3.092   1.815 -11.288  0.00  0.00     0.024 H 
ENDBRANCH   8  64
BRANCH  23  68
ATOM     68  C   LIG d   1       4.095  -0.387 -14.751  0.00  0.00    -0.059 C 
ATOM     69  H   LIG d   1       3.600   0.460 -14.279  0.00  0.00     0.024 H 
ATOM     70  H   LIG d   1       4.802  -0.024 -15.498  0.00  0.00     0.024 H 
ATOM     71  H   LIG d   1       3.351  -1.020 -15.234  0.00  0.00     0.024 H 
ENDBRANCH  23  68
BRANCH  19  72
ATOM     72  O   LIG d   1       6.367  -3.747 -16.719  0.00  0.00    -0.392 OA
ATOM     73  H   LIG d   1       5.624  -4.260 -17.065  0.00  0.00     0.210 HD
ENDBRANCH  19  72
TORSDOF 10
ENDMDL
MODEL 9
REMARK VINA RESULT:      -5.5      4.459      8.662
REMARK  10 active torsions:
REMARK  status: ('A' for Active; 'I' for Inactive)
REMARK    1  A    between atoms: C_1  and  C_2 
REMARK    2  A    between atoms: C_3  and  C_33 
REMARK    3  A    between atoms: C_9  and  C_32 
REMARK    4  A    between atoms: C_20  and  O_31 
REMARK    5  A    between atoms: C_24  and  C_30 
REMARK    6  A    between atoms: C_33  and  C_34 
REMARK    7  A    between atoms: C_34  and  C_35 
REMARK    8  A    between atoms: C_35  and  C_37 
REMARK    9  A    between atoms: C_35  and  C_38 
REMARK   10  A    between atoms: C_38  and  O_39 
ROOT
ATOM      1  C   LIG d   1       4.432  -2.078  -7.130  0.00  0.00    -0.028 C 
ATOM      2  C   LIG d   1       4.525  -0.950  -7.869  0.00  0.00     0.098 C 
ATOM      3  O   LIG d   1       5.012   0.116  -7.115  0.00  0.00    -0.492 OA
ATOM      4  C   LIG d   1       5.886  -0.545  -6.298  0.00  0.00     0.107 C 
ATOM      5  H   LIG d   1       6.467  -1.084  -7.050  0.00  0.00     0.074 H 
ATOM      6  C   LIG d   1       4.913  -1.683  -5.766  0.00  0.00     0.033 C 
ATOM      7  H   LIG d   1       4.093  -1.266  -5.161  0.00  0.00     0.039 H 
ATOM      8  C   LIG d   1       5.833  -2.523  -4.892  0.00  0.00     0.039 C 
ATOM      9  C   LIG d   1       7.216  -1.851  -5.064  0.00  0.00    -0.022 C 
ATOM     10  H   LIG d   1       7.529  -2.157  -6.067  0.00  0.00     0.031 H 
ATOM     11  C   LIG d   1       6.904  -0.358  -5.233  0.00  0.00    -0.011 C 
ATOM     12  C   LIG d   1       8.317  -2.344  -4.181  0.00  0.00    -0.034 C 
ATOM     13  H   LIG d   1       8.311  -1.807  -3.233  0.00  0.00     0.031 H 
ATOM     14  C   LIG d   1       9.627  -2.071  -4.937  0.00  0.00    -0.049 C 
ATOM     15  C   LIG d   1      10.818  -2.783  -4.311  0.00  0.00    -0.049 C 
ATOM     16  C   LIG d   1      10.552  -4.287  -4.344  0.00  0.00    -0.033 C 
ATOM     17  H   LIG d   1      10.353  -4.587  -5.382  0.00  0.00     0.031 H 
ATOM     18  C   LIG d   1      11.775  -5.050  -3.843  0.00  0.00    -0.024 C 
ATOM     19  C   LIG d   1      11.505  -6.554  -3.876  0.00  0.00     0.056 C 
ATOM     20  H   LIG d   1      11.337  -6.870  -4.906  0.00  0.00     0.059 H 
ATOM     21  C   LIG d   1      10.272  -6.885  -3.036  0.00  0.00    -0.026 C 
ATOM     22  C   LIG d   1       9.060  -6.114  -3.553  0.00  0.00    -0.045 C 
ATOM     23  C   LIG d   1       9.326  -4.603  -3.498  0.00  0.00    -0.026 C 
ATOM     24  C   LIG d   1       8.095  -3.849  -3.974  0.00  0.00    -0.026 C 
ATOM     25  H   LIG d   1       7.344  -3.971  -3.172  0.00  0.00     0.031 H 
ATOM     26  C   LIG d   1       7.478  -4.436  -5.255  0.00  0.00     0.010 C 
ATOM     27  C   LIG d   1       6.008  -3.980  -5.236  0.00  0.00     0.140 C 
ATOM     28  O   LIG d   1       5.092  -4.752  -5.442  0.00  0.00    -0.297 OA
ATOM     29  H   LIG d   1       6.492   0.077  -4.325  0.00  0.00     0.030 H 
ATOM     30  H   LIG d   1       7.777   0.193  -5.587  0.00  0.00     0.030 H 
ATOM     31  H   LIG d   1       9.814  -0.994  -4.940  0.00  0.00     0.027 H 
ATOM     32  H   LIG d   1       9.515  -2.404  -5.972  0.00  0.00     0.027 H 
ATOM     33  H   LIG d   1      10.984  -2.430  -3.299  0.00  0.00     0.027 H 
ATOM     34  H   LIG d   1      11.714  -2.569  -4.906  0.00  0.00     0.027 H 
ATOM     35  H   LIG d   1      12.040  -4.740  -2.836  0.00  0.00     0.029 H 
ATOM     36  H   LIG d   1      12.623  -4.831  -4.504  0.00  0.00     0.029 H 
ATOM     37  H   LIG d   1      10.460  -6.660  -1.990  0.00  0.00     0.029 H 
ATOM     38  H   LIG d   1      10.067  -7.960  -3.121  0.00  0.00     0.029 H 
ATOM     39  H   LIG d   1       8.870  -6.412  -4.586  0.00  0.00     0.027 H 
ATOM     40  H   LIG d   1       8.188  -6.349  -2.943  0.00  0.00     0.027 H 
ATOM     41  H   LIG d   1       7.560  -5.433  -5.238  0.00  0.00     0.035 H 
ATOM     42  H   LIG d   1       7.982  -4.052  -6.137  0.00  0.00     0.035 H 
ENDROOT
BRANCH   2  43
ATOM     43  C   LIG d   1       4.146  -0.864  -9.321  0.00  0.00     0.005 C 
ATOM     44  H   LIG d   1       4.901  -0.291  -9.861  0.00  0.00     0.034 H 
ATOM     45  H   LIG d   1       4.083  -1.868  -9.741  0.00  0.00     0.034 H 
BRANCH  43  46
ATOM     46  C   LIG d   1       2.788  -0.170  -9.455  0.00  0.00    -0.042 C 
ATOM     47  H   LIG d   1       2.209  -0.655 -10.240  0.00  0.00     0.027 H 
ATOM     48  H   LIG d   1       2.250  -0.241  -8.510  0.00  0.00     0.027 H 
BRANCH  46  49
ATOM     49  C   LIG d   1       3.000   1.301  -9.813  0.00  0.00    -0.020 C 
ATOM     50  H   LIG d   1       2.284   1.595 -10.582  0.00  0.00     0.032 H 
BRANCH  49  51
ATOM     51  C   LIG d   1       2.793   2.165  -8.567  0.00  0.00    -0.060 C 
ATOM     52  H   LIG d   1       1.756   2.498  -8.524  0.00  0.00     0.023 H 
ATOM     53  H   LIG d   1       3.024   1.580  -7.677  0.00  0.00     0.023 H 
ATOM     54  H   LIG d   1       3.452   3.033  -8.613  0.00  0.00     0.023 H 
ENDBRANCH  49  51
BRANCH  49  55
ATOM     55  C   LIG d   1       4.423   1.499 -10.340  0.00  0.00     0.047 C 
ATOM     56  H   LIG d   1       4.917   0.530 -10.423  0.00  0.00     0.056 H 
ATOM     57  H   LIG d   1       4.385   1.972 -11.320  0.00  0.00     0.056 H 
BRANCH  55  58
ATOM     58  O   LIG d   1       5.155   2.330  -9.437  0.00  0.00    -0.395 OA
ATOM     59  H   LIG d   1       4.720   2.465  -8.585  0.00  0.00     0.209 HD
ENDBRANCH  55  58
ENDBRANCH  49  55
ENDBRANCH  46  49
ENDBRANCH  43  46
ENDBRANCH   2  43
BRANCH   1  60
ATOM     60  C   LIG d   1       3.918  -3.403  -7.631  0.00  0.00    -0.040 C 
ATOM     61  H   LIG d   1       4.085  -4.167  -6.873  0.00  0.00     0.028 H 
ATOM     62  H   LIG d   1       2.851  -3.322  -7.839  0.00  0.00     0.028 H 
ATOM     63  H   LIG d   1       4.446  -3.675  -8.545  0.00  0.00     0.028 H 
ENDBRANCH   1  60
BRANCH   8  64
ATOM     64  C   LIG d   1       5.340  -2.388  -3.438  0.00  0.00    -0.052 C 
ATOM     65  H   LIG d   1       4.310  -2.029  -3.435  0.00  0.00     0.024 H 
ATOM     66  H   LIG d   1       5.387  -3.360  -2.947  0.00  0.00     0.024 H 
ATOM     67  H   LIG d   1       5.973  -1.680  -2.904  0.00  0.00     0.024 H 
ENDBRANCH   8  64
BRANCH  23  68
ATOM     68  C   LIG d   1       9.578  -4.210  -2.035  0.00  0.00    -0.059 C 
ATOM     69  H   LIG d   1       8.652  -4.303  -1.469  0.00  0.00     0.024 H 
ATOM     70  H   LIG d   1      10.334  -4.870  -1.607  0.00  0.00     0.024 H 
ATOM     71  H   LIG d   1       9.930  -3.179  -1.990  0.00  0.00     0.024 H 
ENDBRANCH  23  68
BRANCH  19  72
ATOM     72  O   LIG d   1      12.638  -7.250  -3.349  0.00  0.00    -0.392 OA
ATOM     73  H   LIG d   1      12.461  -7.723  -2.524  0.00  0.00     0.210 HD
ENDBRANCH  19  72
TORSDOF 10
ENDMDL
MODEL 10
REMARK VINA RESULT:      -5.5      5.630      8.991
REMARK  10 active torsions:
REMARK  status: ('A' for Active; 'I' for Inactive)
REMARK    1  A    between atoms: C_1  and  C_2 
REMARK    2  A    between atoms: C_3  and  C_33 
REMARK    3  A    between atoms: C_9  and  C_32 
REMARK    4  A    between atoms: C_20  and  O_31 
REMARK    5  A    between atoms: C_24  and  C_30 
REMARK    6  A    between atoms: C_33  and  C_34 
REMARK    7  A    between atoms: C_34  and  C_35 
REMARK    8  A    between atoms: C_35  and  C_37 
REMARK    9  A    between atoms: C_35  and  C_38 
REMARK   10  A    between atoms: C_38  and  O_39 
ROOT
ATOM      1  C   LIG d   1       7.436  -7.709  -5.068  0.00  0.00    -0.028 C 
ATOM      2  C   LIG d   1       8.108  -8.236  -4.020  0.00  0.00     0.098 C 
ATOM      3  O   LIG d   1       9.248  -7.493  -3.718  0.00  0.00    -0.492 OA
ATOM      4  C   LIG d   1       8.801  -6.235  -4.010  0.00  0.00     0.107 C 
ATOM      5  H   LIG d   1       7.884  -6.224  -3.415  0.00  0.00     0.074 H 
ATOM      6  C   LIG d   1       8.237  -6.506  -5.470  0.00  0.00     0.033 C 
ATOM      7  H   LIG d   1       9.040  -6.779  -6.172  0.00  0.00     0.039 H 
ATOM      8  C   LIG d   1       7.645  -5.157  -5.851  0.00  0.00     0.039 C 
ATOM      9  C   LIG d   1       7.852  -4.294  -4.584  0.00  0.00    -0.022 C 
ATOM     10  H   LIG d   1       7.099  -4.673  -3.887  0.00  0.00     0.031 H 
ATOM     11  C   LIG d   1       9.172  -4.797  -3.983  0.00  0.00    -0.011 C 
ATOM     12  C   LIG d   1       7.530  -2.839  -4.702  0.00  0.00    -0.034 C 
ATOM     13  H   LIG d   1       8.395  -2.288  -5.070  0.00  0.00     0.031 H 
ATOM     14  C   LIG d   1       7.161  -2.366  -3.287  0.00  0.00    -0.049 C 
ATOM     15  C   LIG d   1       6.519  -0.986  -3.284  0.00  0.00    -0.049 C 
ATOM     16  C   LIG d   1       5.238  -1.050  -4.115  0.00  0.00    -0.033 C 
ATOM     17  H   LIG d   1       4.592  -1.838  -3.706  0.00  0.00     0.031 H 
ATOM     18  C   LIG d   1       4.492   0.279  -4.035  0.00  0.00    -0.024 C 
ATOM     19  C   LIG d   1       3.213   0.213  -4.868  0.00  0.00     0.056 C 
ATOM     20  H   LIG d   1       2.548  -0.547  -4.453  0.00  0.00     0.059 H 
ATOM     21  C   LIG d   1       3.546  -0.141  -6.317  0.00  0.00    -0.026 C 
ATOM     22  C   LIG d   1       4.290  -1.473  -6.375  0.00  0.00    -0.045 C 
ATOM     23  C   LIG d   1       5.586  -1.396  -5.556  0.00  0.00    -0.026 C 
ATOM     24  C   LIG d   1       6.336  -2.715  -5.660  0.00  0.00    -0.026 C 
ATOM     25  H   LIG d   1       6.729  -2.750  -6.693  0.00  0.00     0.031 H 
ATOM     26  C   LIG d   1       5.432  -3.946  -5.484  0.00  0.00     0.010 C 
ATOM     27  C   LIG d   1       6.177  -5.093  -6.190  0.00  0.00     0.140 C 
ATOM     28  O   LIG d   1       5.620  -5.837  -6.973  0.00  0.00    -0.297 OA
ATOM     29  H   LIG d   1      10.023  -4.567  -4.621  0.00  0.00     0.030 H 
ATOM     30  H   LIG d   1       9.315  -4.424  -2.968  0.00  0.00     0.030 H 
ATOM     31  H   LIG d   1       8.068  -2.341  -2.676  0.00  0.00     0.027 H 
ATOM     32  H   LIG d   1       6.468  -3.085  -2.842  0.00  0.00     0.027 H 
ATOM     33  H   LIG d   1       7.208  -0.244  -3.671  0.00  0.00     0.027 H 
ATOM     34  H   LIG d   1       6.259  -0.716  -2.253  0.00  0.00     0.027 H 
ATOM     35  H   LIG d   1       5.119   1.097  -4.378  0.00  0.00     0.029 H 
ATOM     36  H   LIG d   1       4.220   0.471  -2.989  0.00  0.00     0.029 H 
ATOM     37  H   LIG d   1       4.131   0.653  -6.772  0.00  0.00     0.029 H 
ATOM     38  H   LIG d   1       2.609  -0.238  -6.880  0.00  0.00     0.029 H 
ATOM     39  H   LIG d   1       3.645  -2.253  -5.964  0.00  0.00     0.027 H 
ATOM     40  H   LIG d   1       4.532  -1.713  -7.411  0.00  0.00     0.027 H 
ATOM     41  H   LIG d   1       4.540  -3.767  -5.900  0.00  0.00     0.035 H 
ATOM     42  H   LIG d   1       5.295  -4.175  -4.432  0.00  0.00     0.035 H 
ENDROOT
BRANCH   2  43
ATOM     43  C   LIG d   1       7.674  -9.470  -3.279  0.00  0.00     0.005 C 
ATOM     44  H   LIG d   1       6.585  -9.531  -3.281  0.00  0.00     0.034 H 
ATOM     45  H   LIG d   1       8.088 -10.352  -3.767  0.00  0.00     0.034 H 
BRANCH  43  46
ATOM     46  C   LIG d   1       8.177  -9.403  -1.836  0.00  0.00    -0.042 C 
ATOM     47  H   LIG d   1       9.206  -9.760  -1.794  0.00  0.00     0.027 H 
ATOM     48  H   LIG d   1       8.136  -8.372  -1.484  0.00  0.00     0.027 H 
BRANCH  46  49
ATOM     49  C   LIG d   1       7.297 -10.281  -0.946  0.00  0.00    -0.020 C 
ATOM     50  H   LIG d   1       7.056  -9.743  -0.028  0.00  0.00     0.032 H 
BRANCH  49  51
ATOM     51  C   LIG d   1       6.004 -10.626  -1.689  0.00  0.00    -0.060 C 
ATOM     52  H   LIG d   1       5.457 -11.387  -1.132  0.00  0.00     0.023 H 
ATOM     53  H   LIG d   1       5.389  -9.731  -1.782  0.00  0.00     0.023 H 
ATOM     54  H   LIG d   1       6.246 -11.006  -2.682  0.00  0.00     0.023 H 
ENDBRANCH  49  51
BRANCH  49  55
ATOM     55  C   LIG d   1       8.045 -11.569  -0.600  0.00  0.00     0.047 C 
ATOM     56  H   LIG d   1       9.096 -11.463  -0.872  0.00  0.00     0.056 H 
ATOM     57  H   LIG d   1       7.965 -11.761   0.470  0.00  0.00     0.056 H 
BRANCH  55  58
ATOM     58  O   LIG d   1       7.475 -12.662  -1.323  0.00  0.00    -0.395 OA
ATOM     59  H   LIG d   1       7.669 -12.652  -2.270  0.00  0.00     0.209 HD
ENDBRANCH  55  58
ENDBRANCH  49  55
ENDBRANCH  46  49
ENDBRANCH  43  46
ENDBRANCH   2  43
BRANCH   1  60
ATOM     60  C   LIG d   1       6.179  -8.282  -5.668  0.00  0.00    -0.040 C 
ATOM     61  H   LIG d   1       5.547  -7.471  -6.028  0.00  0.00     0.028 H 
ATOM     62  H   LIG d   1       6.439  -8.937  -6.499  0.00  0.00     0.028 H 
ATOM     63  H   LIG d   1       5.642  -8.852  -4.910  0.00  0.00     0.028 H 
ENDBRANCH   1  60
BRANCH   8  64
ATOM     64  C   LIG d   1       8.473  -4.605  -7.028  0.00  0.00    -0.052 C 
ATOM     65  H   LIG d   1       8.023  -4.919  -7.970  0.00  0.00     0.024 H 
ATOM     66  H   LIG d   1       8.492  -3.515  -6.980  0.00  0.00     0.024 H 
ATOM     67  H   LIG d   1       9.492  -4.988  -6.967  0.00  0.00     0.024 H 
ENDBRANCH   8  64
BRANCH  23  68
ATOM     68  C   LIG d   1       6.476  -0.302  -6.162  0.00  0.00    -0.059 C 
ATOM     69  H   LIG d   1       5.889   0.305  -6.851  0.00  0.00     0.024 H 
ATOM     70  H   LIG d   1       6.868   0.331  -5.365  0.00  0.00     0.024 H 
ATOM     71  H   LIG d   1       7.305  -0.763  -6.700  0.00  0.00     0.024 H 
ENDBRANCH  23  68
BRANCH  19  72
ATOM     72  O   LIG d   1       2.556   1.483  -4.830  0.00  0.00    -0.392 OA
ATOM     73  H   LIG d   1       3.031   2.186  -5.295  0.00  0.00     0.210 HD
ENDBRANCH  19  72
TORSDOF 10
ENDMDL
