MODEL 1
REMARK VINA RESULT:      -5.9      0.000      0.000
REMARK  15 active torsions:
REMARK  status: ('A' for Active; 'I' for Inactive)
REMARK    1  A    between atoms: C_1  and  C_2 
REMARK    2  A    between atoms: C_2  and  C_4 
REMARK    3  A    between atoms: C_2  and  C_12 
REMARK    4  A    between atoms: C_5  and  C_6 
REMARK    5  A    between atoms: C_6  and  C_8 
REMARK    6  A    between atoms: C_6  and  C_9 
REMARK    7  A    between atoms: C_9  and  C_10 
REMARK    8  A    between atoms: C_9  and  C_11 
REMARK    9  A    between atoms: C_18  and  C_40 
REMARK   10  A    between atoms: C_27  and  C_39 
REMARK   11  A    between atoms: C_30  and  O_35 
REMARK   12  A    between atoms: C_32  and  C_33 
REMARK   13  A    between atoms: C_32  and  C_34 
REMARK   14  A    between atoms: O_35  and  C_36 
REMARK   15  A    between atoms: C_36  and  C_38 
ROOT
ATOM      1  C   LIG d   1       7.438  -1.102  -5.366  0.00  0.00    -0.029 C 
ATOM      2  H   LIG d   1       6.473  -1.156  -5.863  0.00  0.00     0.031 H 
ATOM      3  C   LIG d   1       8.531  -1.780  -6.238  0.00  0.00    -0.049 C 
ATOM      4  C   LIG d   1       9.711  -0.771  -6.326  0.00  0.00    -0.046 C 
ATOM      5  C   LIG d   1       9.433   0.183  -5.152  0.00  0.00    -0.014 C 
ATOM      6  H   LIG d   1       9.706  -0.302  -4.205  0.00  0.00     0.035 H 
ATOM      7  C   LIG d   1       7.899   0.357  -5.267  0.00  0.00    -0.022 C 
ATOM      8  C   LIG d   1       7.337   1.208  -4.170  0.00  0.00    -0.046 C 
ATOM      9  C   LIG d   1       8.387   2.160  -3.581  0.00  0.00    -0.045 C 
ATOM     10  C   LIG d   1       9.311   2.683  -4.673  0.00  0.00    -0.010 C 
ATOM     11  H   LIG d   1       8.660   3.060  -5.479  0.00  0.00     0.035 H 
ATOM     12  C   LIG d   1      10.086   1.523  -5.248  0.00  0.00    -0.062 C 
ATOM     13  C   LIG d   1      11.257   1.717  -5.811  0.00  0.00    -0.062 C 
ATOM     14  C   LIG d   1      11.928   3.022  -5.737  0.00  0.00    -0.061 C 
ATOM     15  C   LIG d   1      11.475   3.989  -4.949  0.00  0.00    -0.054 C 
ATOM     16  C   LIG d   1      10.139   3.864  -4.281  0.00  0.00    -0.004 C 
ATOM     17  C   LIG d   1      10.271   4.146  -2.800  0.00  0.00    -0.040 C 
ATOM     18  C   LIG d   1      10.888   5.532  -2.604  0.00  0.00    -0.014 C 
ATOM     19  C   LIG d   1      12.239   5.673  -3.275  0.00  0.00     0.112 C 
ATOM     20  H   LIG d   1      12.970   5.069  -2.714  0.00  0.00     0.074 H 
ATOM     21  C   LIG d   1      12.294   5.242  -4.745  0.00  0.00     0.024 C 
ATOM     22  H   LIG d   1       8.864  -2.701  -5.760  0.00  0.00     0.027 H 
ATOM     23  H   LIG d   1       8.139  -1.988  -7.231  0.00  0.00     0.027 H 
ATOM     24  H   LIG d   1      10.660  -1.294  -6.163  0.00  0.00     0.027 H 
ATOM     25  H   LIG d   1       9.729  -0.257  -7.278  0.00  0.00     0.027 H 
ATOM     26  H   LIG d   1       6.524   1.822  -4.588  0.00  0.00     0.027 H 
ATOM     27  H   LIG d   1       6.911   0.613  -3.368  0.00  0.00     0.027 H 
ATOM     28  H   LIG d   1       7.874   2.994  -3.099  0.00  0.00     0.027 H 
ATOM     29  H   LIG d   1       8.972   1.624  -2.831  0.00  0.00     0.027 H 
ATOM     30  H   LIG d   1      11.733   0.902  -6.340  0.00  0.00     0.062 H 
ATOM     31  H   LIG d   1      12.776   3.180  -6.390  0.00  0.00     0.062 H 
ATOM     32  H   LIG d   1       9.288   4.111  -2.325  0.00  0.00     0.028 H 
ATOM     33  H   LIG d   1      10.912   3.388  -2.339  0.00  0.00     0.028 H 
ATOM     34  H   LIG d   1      10.215   6.323  -2.915  0.00  0.00     0.030 H 
ATOM     35  H   LIG d   1      11.039   5.673  -1.517  0.00  0.00     0.030 H 
ENDROOT
BRANCH   1  36
ATOM     36  C   LIG d   1       7.382  -1.773  -3.997  0.00  0.00    -0.022 C 
ATOM     37  H   LIG d   1       7.793  -1.100  -3.244  0.00  0.00     0.034 H 
BRANCH  36  38
ATOM     38  C   LIG d   1       8.204  -3.064  -4.028  0.00  0.00    -0.059 C 
ATOM     39  H   LIG d   1       9.038  -2.982  -3.332  0.00  0.00     0.024 H 
ATOM     40  H   LIG d   1       7.571  -3.904  -3.739  0.00  0.00     0.024 H 
ATOM     41  H   LIG d   1       8.586  -3.227  -5.035  0.00  0.00     0.024 H 
ENDBRANCH  36  38
BRANCH  36  42
ATOM     42  C   LIG d   1       5.951  -2.097  -3.653  0.00  0.00    -0.085 C 
ATOM     43  C   LIG d   1       4.989  -1.291  -4.027  0.00  0.00    -0.085 C 
ATOM     44  H   LIG d   1       5.200  -0.477  -4.705  0.00  0.00     0.057 H 
ATOM     45  H   LIG d   1       5.719  -2.995  -3.099  0.00  0.00     0.057 H 
BRANCH  43  46
ATOM     46  C   LIG d   1       3.589  -1.500  -3.512  0.00  0.00    -0.023 C 
ATOM     47  H   LIG d   1       3.016  -2.077  -4.238  0.00  0.00     0.034 H 
BRANCH  46  48
ATOM     48  C   LIG d   1       3.642  -2.260  -2.184  0.00  0.00    -0.059 C 
ATOM     49  H   LIG d   1       4.425  -1.837  -1.555  0.00  0.00     0.024 H 
ATOM     50  H   LIG d   1       2.682  -2.173  -1.677  0.00  0.00     0.024 H 
ATOM     51  H   LIG d   1       3.858  -3.311  -2.376  0.00  0.00     0.024 H 
ENDBRANCH  46  48
BRANCH  46  52
ATOM     52  C   LIG d   1       2.917  -0.143  -3.295  0.00  0.00    -0.041 C 
ATOM     53  H   LIG d   1       1.963  -0.286  -2.786  0.00  0.00     0.030 H 
BRANCH  52  54
ATOM     54  C   LIG d   1       3.824   0.744  -2.438  0.00  0.00    -0.062 C 
ATOM     55  H   LIG d   1       3.489   1.778  -2.506  0.00  0.00     0.023 H 
ATOM     56  H   LIG d   1       3.778   0.413  -1.401  0.00  0.00     0.023 H 
ATOM     57  H   LIG d   1       4.850   0.669  -2.799  0.00  0.00     0.023 H 
ENDBRANCH  52  54
BRANCH  52  58
ATOM     58  C   LIG d   1       2.677   0.530  -4.648  0.00  0.00    -0.062 C 
ATOM     59  H   LIG d   1       1.618   0.764  -4.754  0.00  0.00     0.023 H 
ATOM     60  H   LIG d   1       3.260   1.450  -4.704  0.00  0.00     0.023 H 
ATOM     61  H   LIG d   1       2.982  -0.143  -5.448  0.00  0.00     0.023 H 
ENDBRANCH  52  58
ENDBRANCH  46  52
ENDBRANCH  43  46
ENDBRANCH  36  42
ENDBRANCH   1  36
BRANCH   7  62
ATOM     62  C   LIG d   1       7.554   1.012  -6.616  0.00  0.00    -0.059 C 
ATOM     63  H   LIG d   1       6.926   0.337  -7.197  0.00  0.00     0.024 H 
ATOM     64  H   LIG d   1       7.019   1.945  -6.440  0.00  0.00     0.024 H 
ATOM     65  H   LIG d   1       8.472   1.218  -7.165  0.00  0.00     0.024 H 
ENDBRANCH   7  62
BRANCH  16  66
ATOM     66  C   LIG d   1       9.277   5.014  -4.824  0.00  0.00    -0.055 C 
ATOM     67  H   LIG d   1       8.223   4.763  -4.710  0.00  0.00     0.024 H 
ATOM     68  H   LIG d   1       9.496   5.925  -4.269  0.00  0.00     0.024 H 
ATOM     69  H   LIG d   1       9.503   5.169  -5.879  0.00  0.00     0.024 H 
ENDBRANCH  16  66
BRANCH  21  70
ATOM     70  C   LIG d   1      11.883   6.384  -5.673  0.00  0.00    -0.053 C 
ATOM     71  H   LIG d   1      11.295   7.113  -5.114  0.00  0.00     0.024 H 
ATOM     72  H   LIG d   1      12.776   6.868  -6.072  0.00  0.00     0.024 H 
ATOM     73  H   LIG d   1      11.286   5.989  -6.495  0.00  0.00     0.024 H 
ENDBRANCH  21  70
BRANCH  21  74
ATOM     74  C   LIG d   1      13.784   4.931  -5.044  0.00  0.00    -0.053 C 
ATOM     75  H   LIG d   1      13.853   4.308  -5.936  0.00  0.00     0.024 H 
ATOM     76  H   LIG d   1      14.324   5.863  -5.209  0.00  0.00     0.024 H 
ATOM     77  H   LIG d   1      14.223   4.403  -4.197  0.00  0.00     0.024 H 
ENDBRANCH  21  74
BRANCH  19  78
ATOM     78  O   LIG d   1      12.664   7.041  -3.182  0.00  0.00    -0.461 OA
BRANCH  78  79
ATOM     79  C   LIG d   1      13.112   7.461  -1.989  0.00  0.00     0.304 C 
ATOM     80  O   LIG d   1      12.657   8.464  -1.493  0.00  0.00    -0.251 OA
BRANCH  79  81
ATOM     81  C   LIG d   1      14.182   6.682  -1.270  0.00  0.00     0.033 C 
ATOM     82  H   LIG d   1      14.498   7.232  -0.384  0.00  0.00     0.034 H 
ATOM     83  H   LIG d   1      13.786   5.710  -0.973  0.00  0.00     0.034 H 
ATOM     84  H   LIG d   1      15.035   6.538  -1.933  0.00  0.00     0.034 H 
ENDBRANCH  79  81
ENDBRANCH  78  79
ENDBRANCH  19  78
TORSDOF 15
ENDMDL
MODEL 2
REMARK VINA RESULT:      -5.7      7.441     10.622
REMARK  15 active torsions:
REMARK  status: ('A' for Active; 'I' for Inactive)
REMARK    1  A    between atoms: C_1  and  C_2 
REMARK    2  A    between atoms: C_2  and  C_4 
REMARK    3  A    between atoms: C_2  and  C_12 
REMARK    4  A    between atoms: C_5  and  C_6 
REMARK    5  A    between atoms: C_6  and  C_8 
REMARK    6  A    between atoms: C_6  and  C_9 
REMARK    7  A    between atoms: C_9  and  C_10 
REMARK    8  A    between atoms: C_9  and  C_11 
REMARK    9  A    between atoms: C_18  and  C_40 
REMARK   10  A    between atoms: C_27  and  C_39 
REMARK   11  A    between atoms: C_30  and  O_35 
REMARK   12  A    between atoms: C_32  and  C_33 
REMARK   13  A    between atoms: C_32  and  C_34 
REMARK   14  A    between atoms: O_35  and  C_36 
REMARK   15  A    between atoms: C_36  and  C_38 
ROOT
ATOM      1  C   LIG d   1       1.113  -2.956 -12.824  0.00  0.00    -0.029 C 
ATOM      2  H   LIG d   1       1.358  -2.597 -13.821  0.00  0.00     0.031 H 
ATOM      3  C   LIG d   1       1.585  -4.426 -12.650  0.00  0.00    -0.049 C 
ATOM      4  C   LIG d   1       2.384  -4.475 -11.318  0.00  0.00    -0.046 C 
ATOM      5  C   LIG d   1       1.931  -3.193 -10.599  0.00  0.00    -0.014 C 
ATOM      6  H   LIG d   1       0.922  -3.333 -10.188  0.00  0.00     0.035 H 
ATOM      7  C   LIG d   1       1.918  -2.184 -11.773  0.00  0.00    -0.022 C 
ATOM      8  C   LIG d   1       1.431  -0.830 -11.356  0.00  0.00    -0.046 C 
ATOM      9  C   LIG d   1       1.630  -0.581  -9.855  0.00  0.00    -0.045 C 
ATOM     10  C   LIG d   1       2.938  -1.198  -9.377  0.00  0.00    -0.010 C 
ATOM     11  H   LIG d   1       3.721  -0.848 -10.071  0.00  0.00     0.035 H 
ATOM     12  C   LIG d   1       2.854  -2.695  -9.535  0.00  0.00    -0.062 C 
ATOM     13  C   LIG d   1       3.579  -3.488  -8.779  0.00  0.00    -0.062 C 
ATOM     14  C   LIG d   1       4.345  -2.960  -7.643  0.00  0.00    -0.061 C 
ATOM     15  C   LIG d   1       4.190  -1.711  -7.224  0.00  0.00    -0.054 C 
ATOM     16  C   LIG d   1       3.397  -0.729  -8.033  0.00  0.00    -0.004 C 
ATOM     17  C   LIG d   1       2.368  -0.046  -7.158  0.00  0.00    -0.040 C 
ATOM     18  C   LIG d   1       3.075   0.618  -5.975  0.00  0.00    -0.014 C 
ATOM     19  C   LIG d   1       3.880  -0.362  -5.148  0.00  0.00     0.112 C 
ATOM     20  H   LIG d   1       3.181  -1.012  -4.600  0.00  0.00     0.074 H 
ATOM     21  C   LIG d   1       4.841  -1.259  -5.938  0.00  0.00     0.024 C 
ATOM     22  H   LIG d   1       0.720  -5.086 -12.590  0.00  0.00     0.027 H 
ATOM     23  H   LIG d   1       2.223  -4.713 -13.483  0.00  0.00     0.027 H 
ATOM     24  H   LIG d   1       2.083  -5.354 -10.736  0.00  0.00     0.027 H 
ATOM     25  H   LIG d   1       3.452  -4.494 -11.491  0.00  0.00     0.027 H 
ATOM     26  H   LIG d   1       2.010  -0.069 -11.903  0.00  0.00     0.027 H 
ATOM     27  H   LIG d   1       0.385  -0.678 -11.603  0.00  0.00     0.027 H 
ATOM     28  H   LIG d   1       1.641   0.495  -9.676  0.00  0.00     0.027 H 
ATOM     29  H   LIG d   1       0.794  -1.022  -9.308  0.00  0.00     0.027 H 
ATOM     30  H   LIG d   1       3.612  -4.547  -8.999  0.00  0.00     0.062 H 
ATOM     31  H   LIG d   1       5.079  -3.616  -7.193  0.00  0.00     0.062 H 
ATOM     32  H   LIG d   1       1.830   0.710  -7.736  0.00  0.00     0.028 H 
ATOM     33  H   LIG d   1       1.650  -0.786  -6.792  0.00  0.00     0.028 H 
ATOM     34  H   LIG d   1       3.685   1.458  -6.286  0.00  0.00     0.030 H 
ATOM     35  H   LIG d   1       2.289   1.041  -5.320  0.00  0.00     0.030 H 
ENDROOT
BRANCH   1  36
ATOM     36  C   LIG d   1      -0.389  -2.865 -12.568  0.00  0.00    -0.022 C 
ATOM     37  H   LIG d   1      -0.564  -2.509 -11.552  0.00  0.00     0.034 H 
BRANCH  36  38
ATOM     38  C   LIG d   1      -1.021  -4.248 -12.740  0.00  0.00    -0.059 C 
ATOM     39  H   LIG d   1      -1.701  -4.443 -11.911  0.00  0.00     0.024 H 
ATOM     40  H   LIG d   1      -1.574  -4.280 -13.679  0.00  0.00     0.024 H 
ATOM     41  H   LIG d   1      -0.238  -5.005 -12.754  0.00  0.00     0.024 H 
ENDBRANCH  36  38
BRANCH  36  42
ATOM     42  C   LIG d   1      -1.010  -1.904 -13.550  0.00  0.00    -0.085 C 
ATOM     43  C   LIG d   1      -1.783  -0.938 -13.121  0.00  0.00    -0.085 C 
ATOM     44  H   LIG d   1      -1.859  -0.736 -12.063  0.00  0.00     0.057 H 
ATOM     45  H   LIG d   1      -0.815  -2.012 -14.607  0.00  0.00     0.057 H 
BRANCH  43  46
ATOM     46  C   LIG d   1      -2.566  -0.108 -14.105  0.00  0.00    -0.023 C 
ATOM     47  H   LIG d   1      -1.906   0.230 -14.903  0.00  0.00     0.034 H 
BRANCH  46  48
ATOM     48  C   LIG d   1      -3.695  -0.953 -14.700  0.00  0.00    -0.059 C 
ATOM     49  H   LIG d   1      -3.400  -2.003 -14.703  0.00  0.00     0.024 H 
ATOM     50  H   LIG d   1      -4.596  -0.831 -14.100  0.00  0.00     0.024 H 
ATOM     51  H   LIG d   1      -3.892  -0.629 -15.722  0.00  0.00     0.024 H 
ENDBRANCH  46  48
BRANCH  46  52
ATOM     52  C   LIG d   1      -3.162   1.105 -13.389  0.00  0.00    -0.041 C 
ATOM     53  H   LIG d   1      -2.735   1.183 -12.388  0.00  0.00     0.030 H 
BRANCH  52  54
ATOM     54  C   LIG d   1      -2.839   2.374 -14.181  0.00  0.00    -0.062 C 
ATOM     55  H   LIG d   1      -3.615   2.546 -14.925  0.00  0.00     0.023 H 
ATOM     56  H   LIG d   1      -2.793   3.225 -13.501  0.00  0.00     0.023 H 
ATOM     57  H   LIG d   1      -1.877   2.256 -14.680  0.00  0.00     0.023 H 
ENDBRANCH  52  54
BRANCH  52  58
ATOM     58  C   LIG d   1      -4.680   0.943 -13.285  0.00  0.00    -0.062 C 
ATOM     59  H   LIG d   1      -4.998   1.154 -12.264  0.00  0.00     0.023 H 
ATOM     60  H   LIG d   1      -5.167   1.638 -13.968  0.00  0.00     0.023 H 
ATOM     61  H   LIG d   1      -4.955  -0.079 -13.547  0.00  0.00     0.023 H 
ENDBRANCH  52  58
ENDBRANCH  46  52
ENDBRANCH  43  46
ENDBRANCH  36  42
ENDBRANCH   1  36
BRANCH   7  62
ATOM     62  C   LIG d   1       3.340  -2.035 -12.341  0.00  0.00    -0.059 C 
ATOM     63  H   LIG d   1       3.405  -1.115 -12.922  0.00  0.00     0.024 H 
ATOM     64  H   LIG d   1       4.057  -1.999 -11.521  0.00  0.00     0.024 H 
ATOM     65  H   LIG d   1       3.566  -2.887 -12.982  0.00  0.00     0.024 H 
ENDBRANCH   7  62
BRANCH  16  66
ATOM     66  C   LIG d   1       4.374   0.386  -8.435  0.00  0.00    -0.055 C 
ATOM     67  H   LIG d   1       5.389  -0.010  -8.456  0.00  0.00     0.024 H 
ATOM     68  H   LIG d   1       4.109   0.762  -9.423  0.00  0.00     0.024 H 
ATOM     69  H   LIG d   1       4.316   1.198  -7.711  0.00  0.00     0.024 H 
ENDBRANCH  16  66
BRANCH  21  70
ATOM     70  C   LIG d   1       6.187  -0.570  -6.158  0.00  0.00    -0.053 C 
ATOM     71  H   LIG d   1       6.901  -1.287  -6.564  0.00  0.00     0.024 H 
ATOM     72  H   LIG d   1       6.062   0.256  -6.860  0.00  0.00     0.024 H 
ATOM     73  H   LIG d   1       6.559  -0.185  -5.207  0.00  0.00     0.024 H 
ENDBRANCH  21  70
BRANCH  21  74
ATOM     74  C   LIG d   1       5.108  -2.496  -5.040  0.00  0.00    -0.053 C 
ATOM     75  H   LIG d   1       5.685  -3.232  -5.599  0.00  0.00     0.024 H 
ATOM     76  H   LIG d   1       5.668  -2.189  -4.156  0.00  0.00     0.024 H 
ATOM     77  H   LIG d   1       4.158  -2.935  -4.734  0.00  0.00     0.024 H 
ENDBRANCH  21  74
BRANCH  19  78
ATOM     78  O   LIG d   1       4.636   0.367  -4.168  0.00  0.00    -0.461 OA
BRANCH  78  79
ATOM     79  C   LIG d   1       4.116   0.446  -2.934  0.00  0.00     0.304 C 
ATOM     80  O   LIG d   1       3.528   1.443  -2.589  0.00  0.00    -0.251 OA
BRANCH  79  81
ATOM     81  C   LIG d   1       4.266  -0.709  -1.978  0.00  0.00     0.033 C 
ATOM     82  H   LIG d   1       5.042  -1.382  -2.340  0.00  0.00     0.034 H 
ATOM     83  H   LIG d   1       4.542  -0.332  -0.992  0.00  0.00     0.034 H 
ATOM     84  H   LIG d   1       3.321  -1.248  -1.907  0.00  0.00     0.034 H 
ENDBRANCH  79  81
ENDBRANCH  78  79
ENDBRANCH  19  78
TORSDOF 15
ENDMDL
MODEL 3
REMARK VINA RESULT:      -5.4      1.483      2.376
REMARK  15 active torsions:
REMARK  status: ('A' for Active; 'I' for Inactive)
REMARK    1  A    between atoms: C_1  and  C_2 
REMARK    2  A    between atoms: C_2  and  C_4 
REMARK    3  A    between atoms: C_2  and  C_12 
REMARK    4  A    between atoms: C_5  and  C_6 
REMARK    5  A    between atoms: C_6  and  C_8 
REMARK    6  A    between atoms: C_6  and  C_9 
REMARK    7  A    between atoms: C_9  and  C_10 
REMARK    8  A    between atoms: C_9  and  C_11 
REMARK    9  A    between atoms: C_18  and  C_40 
REMARK   10  A    between atoms: C_27  and  C_39 
REMARK   11  A    between atoms: C_30  and  O_35 
REMARK   12  A    between atoms: C_32  and  C_33 
REMARK   13  A    between atoms: C_32  and  C_34 
REMARK   14  A    between atoms: O_35  and  C_36 
REMARK   15  A    between atoms: C_36  and  C_38 
ROOT
ATOM      1  C   LIG d   1       9.173   0.339  -6.353  0.00  0.00    -0.029 C 
ATOM      2  H   LIG d   1       8.403   0.255  -7.115  0.00  0.00     0.031 H 
ATOM      3  C   LIG d   1      10.574   0.079  -6.971  0.00  0.00    -0.049 C 
ATOM      4  C   LIG d   1      11.482   1.254  -6.511  0.00  0.00    -0.046 C 
ATOM      5  C   LIG d   1      10.711   1.834  -5.314  0.00  0.00    -0.014 C 
ATOM      6  H   LIG d   1      10.834   1.181  -4.439  0.00  0.00     0.035 H 
ATOM      7  C   LIG d   1       9.257   1.783  -5.845  0.00  0.00    -0.022 C 
ATOM      8  C   LIG d   1       8.260   2.238  -4.824  0.00  0.00    -0.046 C 
ATOM      9  C   LIG d   1       8.887   3.172  -3.779  0.00  0.00    -0.045 C 
ATOM     10  C   LIG d   1       9.918   4.087  -4.427  0.00  0.00    -0.010 C 
ATOM     11  H   LIG d   1       9.426   4.542  -5.303  0.00  0.00     0.035 H 
ATOM     12  C   LIG d   1      11.052   3.243  -4.954  0.00  0.00    -0.062 C 
ATOM     13  C   LIG d   1      12.254   3.754  -5.096  0.00  0.00    -0.062 C 
ATOM     14  C   LIG d   1      12.576   5.090  -4.579  0.00  0.00    -0.061 C 
ATOM     15  C   LIG d   1      11.735   5.749  -3.793  0.00  0.00    -0.054 C 
ATOM     16  C   LIG d   1      10.334   5.253  -3.589  0.00  0.00    -0.004 C 
ATOM     17  C   LIG d   1      10.020   5.180  -2.110  0.00  0.00    -0.040 C 
ATOM     18  C   LIG d   1      10.243   6.556  -1.480  0.00  0.00    -0.014 C 
ATOM     19  C   LIG d   1      11.653   7.071  -1.678  0.00  0.00     0.112 C 
ATOM     20  H   LIG d   1      12.333   6.473  -1.052  0.00  0.00     0.074 H 
ATOM     21  C   LIG d   1      12.175   7.029  -3.120  0.00  0.00     0.024 C 
ATOM     22  H   LIG d   1      10.971  -0.865  -6.601  0.00  0.00     0.027 H 
ATOM     23  H   LIG d   1      10.504   0.061  -8.057  0.00  0.00     0.027 H 
ATOM     24  H   LIG d   1      12.451   0.866  -6.176  0.00  0.00     0.027 H 
ATOM     25  H   LIG d   1      11.627   1.982  -7.298  0.00  0.00     0.027 H 
ATOM     26  H   LIG d   1       7.464   2.798  -5.340  0.00  0.00     0.027 H 
ATOM     27  H   LIG d   1       7.788   1.404  -4.313  0.00  0.00     0.027 H 
ATOM     28  H   LIG d   1       8.096   3.769  -3.322  0.00  0.00     0.027 H 
ATOM     29  H   LIG d   1       9.366   2.568  -3.006  0.00  0.00     0.027 H 
ATOM     30  H   LIG d   1      13.017   3.181  -5.604  0.00  0.00     0.062 H 
ATOM     31  H   LIG d   1      13.505   5.538  -4.907  0.00  0.00     0.062 H 
ATOM     32  H   LIG d   1       8.982   4.873  -1.965  0.00  0.00     0.028 H 
ATOM     33  H   LIG d   1      10.675   4.445  -1.632  0.00  0.00     0.028 H 
ATOM     34  H   LIG d   1       9.512   7.281  -1.820  0.00  0.00     0.030 H 
ATOM     35  H   LIG d   1      10.077   6.448  -0.391  0.00  0.00     0.030 H 
ENDROOT
BRANCH   1  36
ATOM     36  C   LIG d   1       8.922  -0.648  -5.215  0.00  0.00    -0.022 C 
ATOM     37  H   LIG d   1       9.256  -0.211  -4.274  0.00  0.00     0.034 H 
BRANCH  36  38
ATOM     38  C   LIG d   1       9.698  -1.940  -5.482  0.00  0.00    -0.059 C 
ATOM     39  H   LIG d   1      10.450  -2.079  -4.707  0.00  0.00     0.024 H 
ATOM     40  H   LIG d   1       9.008  -2.785  -5.474  0.00  0.00     0.024 H 
ATOM     41  H   LIG d   1      10.185  -1.877  -6.454  0.00  0.00     0.024 H 
ENDBRANCH  36  38
BRANCH  36  42
ATOM     42  C   LIG d   1       7.449  -0.955  -5.131  0.00  0.00    -0.085 C 
ATOM     43  C   LIG d   1       6.850  -0.976  -3.967  0.00  0.00    -0.085 C 
ATOM     44  H   LIG d   1       7.370  -0.631  -3.085  0.00  0.00     0.057 H 
ATOM     45  H   LIG d   1       6.887  -1.155  -6.032  0.00  0.00     0.057 H 
BRANCH  43  46
ATOM     46  C   LIG d   1       5.435  -1.482  -3.858  0.00  0.00    -0.023 C 
ATOM     47  H   LIG d   1       4.783  -0.880  -4.491  0.00  0.00     0.034 H 
BRANCH  46  48
ATOM     48  C   LIG d   1       5.379  -2.943  -4.311  0.00  0.00    -0.059 C 
ATOM     49  H   LIG d   1       5.797  -3.581  -3.533  0.00  0.00     0.024 H 
ATOM     50  H   LIG d   1       4.344  -3.226  -4.498  0.00  0.00     0.024 H 
ATOM     51  H   LIG d   1       5.959  -3.061  -5.227  0.00  0.00     0.024 H 
ENDBRANCH  46  48
BRANCH  46  52
ATOM     52  C   LIG d   1       4.968  -1.382  -2.404  0.00  0.00    -0.041 C 
ATOM     53  H   LIG d   1       5.743  -1.775  -1.745  0.00  0.00     0.030 H 
BRANCH  52  54
ATOM     54  C   LIG d   1       4.697   0.083  -2.056  0.00  0.00    -0.062 C 
ATOM     55  H   LIG d   1       5.188   0.330  -1.116  0.00  0.00     0.023 H 
ATOM     56  H   LIG d   1       5.086   0.723  -2.848  0.00  0.00     0.023 H 
ATOM     57  H   LIG d   1       3.622   0.240  -1.957  0.00  0.00     0.023 H 
ENDBRANCH  52  54
BRANCH  52  58
ATOM     58  C   LIG d   1       3.685  -2.195  -2.223  0.00  0.00    -0.062 C 
ATOM     59  H   LIG d   1       3.299  -2.044  -1.215  0.00  0.00     0.023 H 
ATOM     60  H   LIG d   1       2.941  -1.867  -2.950  0.00  0.00     0.023 H 
ATOM     61  H   LIG d   1       3.900  -3.253  -2.375  0.00  0.00     0.023 H 
ENDBRANCH  52  58
ENDBRANCH  46  52
ENDBRANCH  43  46
ENDBRANCH  36  42
ENDBRANCH   1  36
BRANCH   7  62
ATOM     62  C   LIG d   1       9.129   2.685  -7.085  0.00  0.00    -0.059 C 
ATOM     63  H   LIG d   1       8.084   2.959  -7.229  0.00  0.00     0.024 H 
ATOM     64  H   LIG d   1       9.724   3.587  -6.941  0.00  0.00     0.024 H 
ATOM     65  H   LIG d   1       9.489   2.149  -7.963  0.00  0.00     0.024 H 
ENDBRANCH   7  62
BRANCH  16  66
ATOM     66  C   LIG d   1       9.406   6.348  -4.135  0.00  0.00    -0.055 C 
ATOM     67  H   LIG d   1       9.728   6.632  -5.136  0.00  0.00     0.024 H 
ATOM     68  H   LIG d   1       8.384   5.970  -4.175  0.00  0.00     0.024 H 
ATOM     69  H   LIG d   1       9.445   7.217  -3.479  0.00  0.00     0.024 H 
ENDBRANCH  16  66
BRANCH  21  70
ATOM     70  C   LIG d   1      11.769   8.283  -3.892  0.00  0.00    -0.053 C 
ATOM     71  H   LIG d   1      11.520   8.013  -4.919  0.00  0.00     0.024 H 
ATOM     72  H   LIG d   1      10.900   8.739  -3.415  0.00  0.00     0.024 H 
ATOM     73  H   LIG d   1      12.596   8.993  -3.894  0.00  0.00     0.024 H 
ENDBRANCH  21  70
BRANCH  21  74
ATOM     74  C   LIG d   1      13.722   7.043  -3.015  0.00  0.00    -0.053 C 
ATOM     75  H   LIG d   1      14.029   6.529  -2.104  0.00  0.00     0.024 H 
ATOM     76  H   LIG d   1      14.150   6.535  -3.880  0.00  0.00     0.024 H 
ATOM     77  H   LIG d   1      14.076   8.074  -2.988  0.00  0.00     0.024 H 
ENDBRANCH  21  74
BRANCH  19  78
ATOM     78  O   LIG d   1      11.725   8.425  -1.205  0.00  0.00    -0.461 OA
BRANCH  78  79
ATOM     79  C   LIG d   1      11.943   8.601   0.107  0.00  0.00     0.304 C 
ATOM     80  O   LIG d   1      12.775   7.936   0.676  0.00  0.00    -0.251 OA
BRANCH  79  81
ATOM     81  C   LIG d   1      11.149   9.630   0.871  0.00  0.00     0.033 C 
ATOM     82  H   LIG d   1      11.594  10.614   0.725  0.00  0.00     0.034 H 
ATOM     83  H   LIG d   1      10.120   9.638   0.508  0.00  0.00     0.034 H 
ATOM     84  H   LIG d   1      11.157   9.380   1.932  0.00  0.00     0.034 H 
ENDBRANCH  79  81
ENDBRANCH  78  79
ENDBRANCH  19  78
TORSDOF 15
ENDMDL
MODEL 4
REMARK VINA RESULT:      -5.4      8.529     12.820
REMARK  15 active torsions:
REMARK  status: ('A' for Active; 'I' for Inactive)
REMARK    1  A    between atoms: C_1  and  C_2 
REMARK    2  A    between atoms: C_2  and  C_4 
REMARK    3  A    between atoms: C_2  and  C_12 
REMARK    4  A    between atoms: C_5  and  C_6 
REMARK    5  A    between atoms: C_6  and  C_8 
REMARK    6  A    between atoms: C_6  and  C_9 
REMARK    7  A    between atoms: C_9  and  C_10 
REMARK    8  A    between atoms: C_9  and  C_11 
REMARK    9  A    between atoms: C_18  and  C_40 
REMARK   10  A    between atoms: C_27  and  C_39 
REMARK   11  A    between atoms: C_30  and  O_35 
REMARK   12  A    between atoms: C_32  and  C_33 
REMARK   13  A    between atoms: C_32  and  C_34 
REMARK   14  A    between atoms: O_35  and  C_36 
REMARK   15  A    between atoms: C_36  and  C_38 
ROOT
ATOM      1  C   LIG d   1       3.842   0.239  -7.490  0.00  0.00    -0.029 C 
ATOM      2  H   LIG d   1       4.878   0.493  -7.279  0.00  0.00     0.031 H 
ATOM      3  C   LIG d   1       3.106   1.458  -8.112  0.00  0.00    -0.049 C 
ATOM      4  C   LIG d   1       2.384   0.932  -9.384  0.00  0.00    -0.046 C 
ATOM      5  C   LIG d   1       2.355  -0.589  -9.157  0.00  0.00    -0.014 C 
ATOM      6  H   LIG d   1       1.583  -0.841  -8.417  0.00  0.00     0.035 H 
ATOM      7  C   LIG d   1       3.774  -0.831  -8.585  0.00  0.00    -0.022 C 
ATOM      8  C   LIG d   1       3.997  -2.261  -8.199  0.00  0.00    -0.046 C 
ATOM      9  C   LIG d   1       3.077  -3.219  -8.967  0.00  0.00    -0.045 C 
ATOM     10  C   LIG d   1       2.890  -2.746 -10.404  0.00  0.00    -0.010 C 
ATOM     11  H   LIG d   1       3.900  -2.559 -10.805  0.00  0.00     0.035 H 
ATOM     12  C   LIG d   1       2.175  -1.417 -10.387  0.00  0.00    -0.062 C 
ATOM     13  C   LIG d   1       1.460  -1.031 -11.420  0.00  0.00    -0.062 C 
ATOM     14  C   LIG d   1       1.182  -1.946 -12.534  0.00  0.00    -0.061 C 
ATOM     15  C   LIG d   1       1.476  -3.238 -12.459  0.00  0.00    -0.054 C 
ATOM     16  C   LIG d   1       2.306  -3.766 -11.327  0.00  0.00    -0.004 C 
ATOM     17  C   LIG d   1       1.617  -4.953 -10.689  0.00  0.00    -0.040 C 
ATOM     18  C   LIG d   1       1.353  -6.016 -11.757  0.00  0.00    -0.014 C 
ATOM     19  C   LIG d   1       0.516  -5.497 -12.907  0.00  0.00     0.112 C 
ATOM     20  H   LIG d   1      -0.513  -5.343 -12.547  0.00  0.00     0.074 H 
ATOM     21  C   LIG d   1       1.000  -4.184 -13.536  0.00  0.00     0.024 C 
ATOM     22  H   LIG d   1       2.376   1.848  -7.404  0.00  0.00     0.027 H 
ATOM     23  H   LIG d   1       3.825   2.230  -8.379  0.00  0.00     0.027 H 
ATOM     24  H   LIG d   1       1.361   1.322  -9.419  0.00  0.00     0.027 H 
ATOM     25  H   LIG d   1       2.915   1.202 -10.288  0.00  0.00     0.027 H 
ATOM     26  H   LIG d   1       5.038  -2.528  -8.440  0.00  0.00     0.027 H 
ATOM     27  H   LIG d   1       3.862  -2.422  -7.133  0.00  0.00     0.027 H 
ATOM     28  H   LIG d   1       3.522  -4.215  -8.961  0.00  0.00     0.027 H 
ATOM     29  H   LIG d   1       2.108  -3.261  -8.465  0.00  0.00     0.027 H 
ATOM     30  H   LIG d   1       1.072  -0.022 -11.448  0.00  0.00     0.062 H 
ATOM     31  H   LIG d   1       0.776  -1.515 -13.439  0.00  0.00     0.062 H 
ATOM     32  H   LIG d   1       2.249  -5.372  -9.903  0.00  0.00     0.028 H 
ATOM     33  H   LIG d   1       0.670  -4.632 -10.246  0.00  0.00     0.028 H 
ATOM     34  H   LIG d   1       2.271  -6.466 -12.116  0.00  0.00     0.030 H 
ATOM     35  H   LIG d   1       0.785  -6.833 -11.273  0.00  0.00     0.030 H 
ENDROOT
BRANCH   1  36
ATOM     36  C   LIG d   1       3.121  -0.203  -6.219  0.00  0.00    -0.022 C 
ATOM     37  H   LIG d   1       2.494  -1.066  -6.438  0.00  0.00     0.034 H 
BRANCH  36  38
ATOM     38  C   LIG d   1       2.249   0.944  -5.703  0.00  0.00    -0.059 C 
ATOM     39  H   LIG d   1       2.855   1.617  -5.097  0.00  0.00     0.024 H 
ATOM     40  H   LIG d   1       1.833   1.492  -6.548  0.00  0.00     0.024 H 
ATOM     41  H   LIG d   1       1.439   0.540  -5.097  0.00  0.00     0.024 H 
ENDBRANCH  36  38
BRANCH  36  42
ATOM     42  C   LIG d   1       4.136  -0.574  -5.168  0.00  0.00    -0.085 C 
ATOM     43  C   LIG d   1       3.747  -0.831  -3.944  0.00  0.00    -0.085 C 
ATOM     44  H   LIG d   1       2.694  -0.924  -3.720  0.00  0.00     0.057 H 
ATOM     45  H   LIG d   1       5.184  -0.628  -5.425  0.00  0.00     0.057 H 
BRANCH  43  46
ATOM     46  C   LIG d   1       4.768  -0.998  -2.849  0.00  0.00    -0.023 C 
ATOM     47  H   LIG d   1       4.379  -1.674  -2.088  0.00  0.00     0.034 H 
BRANCH  46  48
ATOM     48  C   LIG d   1       6.056  -1.581  -3.437  0.00  0.00    -0.059 C 
ATOM     49  H   LIG d   1       6.299  -2.513  -2.927  0.00  0.00     0.024 H 
ATOM     50  H   LIG d   1       5.914  -1.774  -4.500  0.00  0.00     0.024 H 
ATOM     51  H   LIG d   1       6.871  -0.870  -3.303  0.00  0.00     0.024 H 
ENDBRANCH  46  48
BRANCH  46  52
ATOM     52  C   LIG d   1       5.067   0.363  -2.217  0.00  0.00    -0.041 C 
ATOM     53  H   LIG d   1       5.480   0.217  -1.218  0.00  0.00     0.030 H 
BRANCH  52  54
ATOM     54  C   LIG d   1       6.081   1.114  -3.082  0.00  0.00    -0.062 C 
ATOM     55  H   LIG d   1       5.983   2.185  -2.911  0.00  0.00     0.023 H 
ATOM     56  H   LIG d   1       7.090   0.795  -2.819  0.00  0.00     0.023 H 
ATOM     57  H   LIG d   1       5.894   0.896  -4.134  0.00  0.00     0.023 H 
ENDBRANCH  52  54
BRANCH  52  58
ATOM     58  C   LIG d   1       3.776   1.177  -2.123  0.00  0.00    -0.062 C 
ATOM     59  H   LIG d   1       2.926   0.540  -2.366  0.00  0.00     0.023 H 
ATOM     60  H   LIG d   1       3.663   1.561  -1.109  0.00  0.00     0.023 H 
ATOM     61  H   LIG d   1       3.818   2.009  -2.825  0.00  0.00     0.023 H 
ENDBRANCH  52  58
ENDBRANCH  46  52
ENDBRANCH  43  46
ENDBRANCH  36  42
ENDBRANCH   1  36
BRANCH   7  62
ATOM     62  C   LIG d   1       4.827  -0.441  -9.637  0.00  0.00    -0.059 C 
ATOM     63  H   LIG d   1       4.957   0.641  -9.636  0.00  0.00     0.024 H 
ATOM     64  H   LIG d   1       5.775  -0.922  -9.397  0.00  0.00     0.024 H 
ATOM     65  H   LIG d   1       4.494  -0.767 -10.622  0.00  0.00     0.024 H 
ENDBRANCH   7  62
BRANCH  16  66
ATOM     66  C   LIG d   1       3.579  -4.344 -11.961  0.00  0.00    -0.055 C 
ATOM     67  H   LIG d   1       4.236  -4.723 -11.178  0.00  0.00     0.024 H 
ATOM     68  H   LIG d   1       3.312  -5.158 -12.636  0.00  0.00     0.024 H 
ATOM     69  H   LIG d   1       4.093  -3.563 -12.521  0.00  0.00     0.024 H 
ENDBRANCH  16  66
BRANCH  21  70
ATOM     70  C   LIG d   1       2.051  -4.442 -14.615  0.00  0.00    -0.053 C 
ATOM     71  H   LIG d   1       1.559  -4.563 -15.580  0.00  0.00     0.024 H 
ATOM     72  H   LIG d   1       2.739  -3.596 -14.661  0.00  0.00     0.024 H 
ATOM     73  H   LIG d   1       2.606  -5.348 -14.373  0.00  0.00     0.024 H 
ENDBRANCH  21  70
BRANCH  21  74
ATOM     74  C   LIG d   1      -0.235  -3.569 -14.246  0.00  0.00    -0.053 C 
ATOM     75  H   LIG d   1      -0.291  -3.944 -15.268  0.00  0.00     0.024 H 
ATOM     76  H   LIG d   1      -1.140  -3.847 -13.706  0.00  0.00     0.024 H 
ATOM     77  H   LIG d   1      -0.141  -2.483 -14.262  0.00  0.00     0.024 H 
ENDBRANCH  21  74
BRANCH  19  78
ATOM     78  O   LIG d   1       0.459  -6.501 -13.932  0.00  0.00    -0.461 OA
BRANCH  78  79
ATOM     79  C   LIG d   1      -0.481  -7.450 -13.803  0.00  0.00     0.304 C 
ATOM     80  O   LIG d   1      -0.163  -8.615 -13.772  0.00  0.00    -0.251 OA
BRANCH  79  81
ATOM     81  C   LIG d   1      -1.934  -7.062 -13.697  0.00  0.00     0.033 C 
ATOM     82  H   LIG d   1      -2.309  -7.325 -12.708  0.00  0.00     0.034 H 
ATOM     83  H   LIG d   1      -2.035  -5.987 -13.851  0.00  0.00     0.034 H 
ATOM     84  H   LIG d   1      -2.508  -7.592 -14.457  0.00  0.00     0.034 H 
ENDBRANCH  79  81
ENDBRANCH  78  79
ENDBRANCH  19  78
TORSDOF 15
ENDMDL
MODEL 5
REMARK VINA RESULT:      -5.3     11.410     15.289
REMARK  15 active torsions:
REMARK  status: ('A' for Active; 'I' for Inactive)
REMARK    1  A    between atoms: C_1  and  C_2 
REMARK    2  A    between atoms: C_2  and  C_4 
REMARK    3  A    between atoms: C_2  and  C_12 
REMARK    4  A    between atoms: C_5  and  C_6 
REMARK    5  A    between atoms: C_6  and  C_8 
REMARK    6  A    between atoms: C_6  and  C_9 
REMARK    7  A    between atoms: C_9  and  C_10 
REMARK    8  A    between atoms: C_9  and  C_11 
REMARK    9  A    between atoms: C_18  and  C_40 
REMARK   10  A    between atoms: C_27  and  C_39 
REMARK   11  A    between atoms: C_30  and  O_35 
REMARK   12  A    between atoms: C_32  and  C_33 
REMARK   13  A    between atoms: C_32  and  C_34 
REMARK   14  A    between atoms: O_35  and  C_36 
REMARK   15  A    between atoms: C_36  and  C_38 
ROOT
ATOM      1  C   LIG d   1      11.692  -9.825   1.205  0.00  0.00    -0.029 C 
ATOM      2  H   LIG d   1      12.513 -10.533   1.296  0.00  0.00     0.031 H 
ATOM      3  C   LIG d   1      12.229  -8.432   0.774  0.00  0.00    -0.049 C 
ATOM      4  C   LIG d   1      11.353  -7.977  -0.427  0.00  0.00    -0.046 C 
ATOM      5  C   LIG d   1      10.113  -8.879  -0.308  0.00  0.00    -0.014 C 
ATOM      6  H   LIG d   1       9.469  -8.522   0.507  0.00  0.00     0.035 H 
ATOM      7  C   LIG d   1      10.767 -10.236   0.054  0.00  0.00    -0.022 C 
ATOM      8  C   LIG d   1       9.753 -11.309   0.304  0.00  0.00    -0.046 C 
ATOM      9  C   LIG d   1       8.421 -11.024  -0.405  0.00  0.00    -0.045 C 
ATOM     10  C   LIG d   1       8.664 -10.384  -1.766  0.00  0.00    -0.010 C 
ATOM     11  H   LIG d   1       9.404 -11.019  -2.283  0.00  0.00     0.035 H 
ATOM     12  C   LIG d   1       9.315  -9.039  -1.560  0.00  0.00    -0.062 C 
ATOM     13  C   LIG d   1       9.184  -8.090  -2.460  0.00  0.00    -0.062 C 
ATOM     14  C   LIG d   1       8.260  -8.239  -3.591  0.00  0.00    -0.061 C 
ATOM     15  C   LIG d   1       7.392  -9.242  -3.648  0.00  0.00    -0.054 C 
ATOM     16  C   LIG d   1       7.478 -10.380  -2.676  0.00  0.00    -0.004 C 
ATOM     17  C   LIG d   1       6.126 -10.623  -2.040  0.00  0.00    -0.040 C 
ATOM     18  C   LIG d   1       5.092 -10.877  -3.138  0.00  0.00    -0.014 C 
ATOM     19  C   LIG d   1       4.994  -9.735  -4.129  0.00  0.00     0.112 C 
ATOM     20  H   LIG d   1       4.518  -8.879  -3.626  0.00  0.00     0.074 H 
ATOM     21  C   LIG d   1       6.326  -9.258  -4.719  0.00  0.00     0.024 C 
ATOM     22  H   LIG d   1      12.126  -7.727   1.598  0.00  0.00     0.027 H 
ATOM     23  H   LIG d   1      13.271  -8.512   0.471  0.00  0.00     0.027 H 
ATOM     24  H   LIG d   1      11.063  -6.928  -0.299  0.00  0.00     0.027 H 
ATOM     25  H   LIG d   1      11.867  -8.107  -1.370  0.00  0.00     0.027 H 
ATOM     26  H   LIG d   1      10.147 -12.259  -0.091  0.00  0.00     0.027 H 
ATOM     27  H   LIG d   1       9.564 -11.455   1.363  0.00  0.00     0.027 H 
ATOM     28  H   LIG d   1       7.881 -11.963  -0.528  0.00  0.00     0.027 H 
ATOM     29  H   LIG d   1       7.825 -10.352   0.216  0.00  0.00     0.027 H 
ATOM     30  H   LIG d   1       9.769  -7.185  -2.364  0.00  0.00     0.062 H 
ATOM     31  H   LIG d   1       8.350  -7.528  -4.401  0.00  0.00     0.062 H 
ATOM     32  H   LIG d   1       6.177 -11.489  -1.376  0.00  0.00     0.028 H 
ATOM     33  H   LIG d   1       5.834  -9.746  -1.455  0.00  0.00     0.028 H 
ATOM     34  H   LIG d   1       5.264 -11.819  -3.647  0.00  0.00     0.030 H 
ATOM     35  H   LIG d   1       4.107 -10.976  -2.644  0.00  0.00     0.030 H 
ENDROOT
BRANCH   1  36
ATOM     36  C   LIG d   1      10.935  -9.699   2.524  0.00  0.00    -0.022 C 
ATOM     37  H   LIG d   1       9.863  -9.676   2.327  0.00  0.00     0.034 H 
BRANCH  36  38
ATOM     38  C   LIG d   1      11.352  -8.406   3.230  0.00  0.00    -0.059 C 
ATOM     39  H   LIG d   1      10.794  -8.304   4.160  0.00  0.00     0.024 H 
ATOM     40  H   LIG d   1      12.419  -8.440   3.448  0.00  0.00     0.024 H 
ATOM     41  H   LIG d   1      11.139  -7.555   2.584  0.00  0.00     0.024 H 
ENDBRANCH  36  38
BRANCH  36  42
ATOM     42  C   LIG d   1      11.259 -10.878   3.405  0.00  0.00    -0.085 C 
ATOM     43  C   LIG d   1      12.313 -10.846   4.182  0.00  0.00    -0.085 C 
ATOM     44  H   LIG d   1      12.865  -9.925   4.305  0.00  0.00     0.057 H 
ATOM     45  H   LIG d   1      10.621 -11.750   3.397  0.00  0.00     0.057 H 
BRANCH  43  46
ATOM     46  C   LIG d   1      12.755 -12.092   4.904  0.00  0.00    -0.023 C 
ATOM     47  H   LIG d   1      13.368 -12.700   4.239  0.00  0.00     0.034 H 
BRANCH  46  48
ATOM     48  C   LIG d   1      13.573 -11.703   6.138  0.00  0.00    -0.059 C 
ATOM     49  H   LIG d   1      14.600 -12.047   6.016  0.00  0.00     0.024 H 
ATOM     50  H   LIG d   1      13.564 -10.619   6.253  0.00  0.00     0.024 H 
ATOM     51  H   LIG d   1      13.137 -12.165   7.023  0.00  0.00     0.024 H 
ENDBRANCH  46  48
BRANCH  46  52
ATOM     52  C   LIG d   1      11.527 -12.893   5.339  0.00  0.00    -0.041 C 
ATOM     53  H   LIG d   1      10.664 -12.587   4.746  0.00  0.00     0.030 H 
BRANCH  52  54
ATOM     54  C   LIG d   1      11.789 -14.385   5.124  0.00  0.00    -0.062 C 
ATOM     55  H   LIG d   1      10.883 -14.949   5.342  0.00  0.00     0.023 H 
ATOM     56  H   LIG d   1      12.083 -14.556   4.088  0.00  0.00     0.023 H 
ATOM     57  H   LIG d   1      12.589 -14.713   5.788  0.00  0.00     0.023 H 
ENDBRANCH  52  54
BRANCH  52  58
ATOM     58  C   LIG d   1      11.246 -12.633   6.820  0.00  0.00    -0.062 C 
ATOM     59  H   LIG d   1      12.030 -12.000   7.233  0.00  0.00     0.023 H 
ATOM     60  H   LIG d   1      10.283 -12.133   6.925  0.00  0.00     0.023 H 
ATOM     61  H   LIG d   1      11.224 -13.581   7.358  0.00  0.00     0.023 H 
ENDBRANCH  52  58
ENDBRANCH  46  52
ENDBRANCH  43  46
ENDBRANCH  36  42
ENDBRANCH   1  36
BRANCH   7  62
ATOM     62  C   LIG d   1      11.682 -10.690  -1.096  0.00  0.00    -0.059 C 
ATOM     63  H   LIG d   1      12.085  -9.815  -1.607  0.00  0.00     0.024 H 
ATOM     64  H   LIG d   1      12.502 -11.285  -0.695  0.00  0.00     0.024 H 
ATOM     65  H   LIG d   1      11.108 -11.290  -1.802  0.00  0.00     0.024 H 
ENDBRANCH   7  62
BRANCH  16  66
ATOM     66  C   LIG d   1       7.751 -11.640  -3.512  0.00  0.00    -0.055 C 
ATOM     67  H   LIG d   1       7.868 -11.362  -4.560  0.00  0.00     0.024 H 
ATOM     68  H   LIG d   1       8.664 -12.119  -3.159  0.00  0.00     0.024 H 
ATOM     69  H   LIG d   1       6.916 -12.332  -3.410  0.00  0.00     0.024 H 
ENDBRANCH  16  66
BRANCH  21  70
ATOM     70  C   LIG d   1       6.718 -10.086  -5.942  0.00  0.00    -0.053 C 
ATOM     71  H   LIG d   1       6.737 -11.142  -5.675  0.00  0.00     0.024 H 
ATOM     72  H   LIG d   1       5.990  -9.925  -6.738  0.00  0.00     0.024 H 
ATOM     73  H   LIG d   1       7.706  -9.780  -6.288  0.00  0.00     0.024 H 
ENDBRANCH  21  70
BRANCH  21  74
ATOM     74  C   LIG d   1       6.080  -7.808  -5.214  0.00  0.00    -0.053 C 
ATOM     75  H   LIG d   1       6.066  -7.131  -4.360  0.00  0.00     0.024 H 
ATOM     76  H   LIG d   1       6.879  -7.517  -5.897  0.00  0.00     0.024 H 
ATOM     77  H   LIG d   1       5.123  -7.759  -5.733  0.00  0.00     0.024 H 
ENDBRANCH  21  74
BRANCH  19  78
ATOM     78  O   LIG d   1       4.130 -10.126  -5.206  0.00  0.00    -0.461 OA
BRANCH  78  79
ATOM     79  C   LIG d   1       3.482 -11.294  -5.075  0.00  0.00     0.304 C 
ATOM     80  O   LIG d   1       2.525 -11.375  -4.342  0.00  0.00    -0.251 OA
BRANCH  79  81
ATOM     81  C   LIG d   1       3.949 -12.504  -5.843  0.00  0.00     0.033 C 
ATOM     82  H   LIG d   1       3.149 -13.244  -5.875  0.00  0.00     0.034 H 
ATOM     83  H   LIG d   1       4.214 -12.210  -6.859  0.00  0.00     0.034 H 
ATOM     84  H   LIG d   1       4.821 -12.933  -5.350  0.00  0.00     0.034 H 
ENDBRANCH  79  81
ENDBRANCH  78  79
ENDBRANCH  19  78
TORSDOF 15
ENDMDL
MODEL 6
REMARK VINA RESULT:      -5.2      5.614     10.621
REMARK  15 active torsions:
REMARK  status: ('A' for Active; 'I' for Inactive)
REMARK    1  A    between atoms: C_1  and  C_2 
REMARK    2  A    between atoms: C_2  and  C_4 
REMARK    3  A    between atoms: C_2  and  C_12 
REMARK    4  A    between atoms: C_5  and  C_6 
REMARK    5  A    between atoms: C_6  and  C_8 
REMARK    6  A    between atoms: C_6  and  C_9 
REMARK    7  A    between atoms: C_9  and  C_10 
REMARK    8  A    between atoms: C_9  and  C_11 
REMARK    9  A    between atoms: C_18  and  C_40 
REMARK   10  A    between atoms: C_27  and  C_39 
REMARK   11  A    between atoms: C_30  and  O_35 
REMARK   12  A    between atoms: C_32  and  C_33 
REMARK   13  A    between atoms: C_32  and  C_34 
REMARK   14  A    between atoms: O_35  and  C_36 
REMARK   15  A    between atoms: C_36  and  C_38 
ROOT
ATOM      1  C   LIG d   1       5.961  -0.083  -4.759  0.00  0.00    -0.029 C 
ATOM      2  H   LIG d   1       6.268   0.679  -5.471  0.00  0.00     0.031 H 
ATOM      3  C   LIG d   1       4.414  -0.226  -4.757  0.00  0.00    -0.049 C 
ATOM      4  C   LIG d   1       4.112  -1.744  -4.898  0.00  0.00    -0.046 C 
ATOM      5  C   LIG d   1       5.448  -2.396  -4.504  0.00  0.00    -0.014 C 
ATOM      6  H   LIG d   1       5.575  -2.357  -3.413  0.00  0.00     0.035 H 
ATOM      7  C   LIG d   1       6.457  -1.460  -5.214  0.00  0.00    -0.022 C 
ATOM      8  C   LIG d   1       7.879  -1.834  -4.932  0.00  0.00    -0.046 C 
ATOM      9  C   LIG d   1       8.023  -3.312  -4.545  0.00  0.00    -0.045 C 
ATOM     10  C   LIG d   1       7.062  -4.175  -5.353  0.00  0.00    -0.010 C 
ATOM     11  H   LIG d   1       7.207  -3.897  -6.411  0.00  0.00     0.035 H 
ATOM     12  C   LIG d   1       5.648  -3.793  -4.993  0.00  0.00    -0.062 C 
ATOM     13  C   LIG d   1       4.668  -4.657  -5.132  0.00  0.00    -0.062 C 
ATOM     14  C   LIG d   1       4.937  -6.063  -5.461  0.00  0.00    -0.061 C 
ATOM     15  C   LIG d   1       6.169  -6.554  -5.445  0.00  0.00    -0.054 C 
ATOM     16  C   LIG d   1       7.352  -5.641  -5.312  0.00  0.00    -0.004 C 
ATOM     17  C   LIG d   1       8.262  -6.128  -4.206  0.00  0.00    -0.040 C 
ATOM     18  C   LIG d   1       8.676  -7.572  -4.495  0.00  0.00    -0.014 C 
ATOM     19  C   LIG d   1       7.492  -8.506  -4.632  0.00  0.00     0.112 C 
ATOM     20  H   LIG d   1       7.040  -8.643  -3.637  0.00  0.00     0.074 H 
ATOM     21  C   LIG d   1       6.392  -8.041  -5.593  0.00  0.00     0.024 C 
ATOM     22  H   LIG d   1       4.010   0.148  -3.816  0.00  0.00     0.027 H 
ATOM     23  H   LIG d   1       3.988   0.322  -5.595  0.00  0.00     0.027 H 
ATOM     24  H   LIG d   1       3.332  -2.036  -4.186  0.00  0.00     0.027 H 
ATOM     25  H   LIG d   1       3.811  -2.002  -5.905  0.00  0.00     0.027 H 
ATOM     26  H   LIG d   1       8.471  -1.667  -5.846  0.00  0.00     0.027 H 
ATOM     27  H   LIG d   1       8.316  -1.221  -4.149  0.00  0.00     0.027 H 
ATOM     28  H   LIG d   1       9.051  -3.626  -4.733  0.00  0.00     0.027 H 
ATOM     29  H   LIG d   1       7.809  -3.423  -3.480  0.00  0.00     0.027 H 
ATOM     30  H   LIG d   1       3.646  -4.325  -5.003  0.00  0.00     0.062 H 
ATOM     31  H   LIG d   1       4.095  -6.669  -5.767  0.00  0.00     0.062 H 
ATOM     32  H   LIG d   1       9.151  -5.496  -4.149  0.00  0.00     0.028 H 
ATOM     33  H   LIG d   1       7.734  -6.081  -3.249  0.00  0.00     0.028 H 
ATOM     34  H   LIG d   1       9.329  -7.642  -5.357  0.00  0.00     0.030 H 
ATOM     35  H   LIG d   1       9.277  -7.920  -3.632  0.00  0.00     0.030 H 
ENDROOT
BRANCH   1  36
ATOM     36  C   LIG d   1       6.447   0.258  -3.353  0.00  0.00    -0.022 C 
ATOM     37  H   LIG d   1       6.832  -0.642  -2.872  0.00  0.00     0.034 H 
BRANCH  36  38
ATOM     38  C   LIG d   1       5.283   0.817  -2.532  0.00  0.00    -0.059 C 
ATOM     39  H   LIG d   1       4.583   0.014  -2.300  0.00  0.00     0.024 H 
ATOM     40  H   LIG d   1       5.665   1.245  -1.605  0.00  0.00     0.024 H 
ATOM     41  H   LIG d   1       4.772   1.590  -3.106  0.00  0.00     0.024 H 
ENDBRANCH  36  38
BRANCH  36  42
ATOM     42  C   LIG d   1       7.543   1.290  -3.436  0.00  0.00    -0.085 C 
ATOM     43  C   LIG d   1       7.667   2.028  -4.511  0.00  0.00    -0.085 C 
ATOM     44  H   LIG d   1       6.901   2.006  -5.273  0.00  0.00     0.057 H 
ATOM     45  H   LIG d   1       8.226   1.421  -2.609  0.00  0.00     0.057 H 
BRANCH  43  46
ATOM     46  C   LIG d   1       8.877   2.909  -4.684  0.00  0.00    -0.023 C 
ATOM     47  H   LIG d   1       8.558   3.942  -4.825  0.00  0.00     0.034 H 
BRANCH  46  48
ATOM     48  C   LIG d   1       9.759   2.814  -3.437  0.00  0.00    -0.059 C 
ATOM     49  H   LIG d   1       9.555   1.877  -2.918  0.00  0.00     0.024 H 
ATOM     50  H   LIG d   1      10.808   2.845  -3.731  0.00  0.00     0.024 H 
ATOM     51  H   LIG d   1       9.543   3.651  -2.774  0.00  0.00     0.024 H 
ENDBRANCH  46  48
BRANCH  46  52
ATOM     52  C   LIG d   1       9.672   2.450  -5.907  0.00  0.00    -0.041 C 
ATOM     53  H   LIG d   1      10.198   3.303  -6.340  0.00  0.00     0.030 H 
BRANCH  52  54
ATOM     54  C   LIG d   1      10.688   1.387  -5.485  0.00  0.00    -0.062 C 
ATOM     55  H   LIG d   1      10.936   0.761  -6.341  0.00  0.00     0.023 H 
ATOM     56  H   LIG d   1      11.591   1.873  -5.116  0.00  0.00     0.023 H 
ATOM     57  H   LIG d   1      10.260   0.769  -4.696  0.00  0.00     0.023 H 
ENDBRANCH  52  54
BRANCH  52  58
ATOM     58  C   LIG d   1       8.717   1.859  -6.945  0.00  0.00    -0.062 C 
ATOM     59  H   LIG d   1       8.994   2.214  -7.938  0.00  0.00     0.023 H 
ATOM     60  H   LIG d   1       8.780   0.771  -6.918  0.00  0.00     0.023 H 
ATOM     61  H   LIG d   1       7.697   2.170  -6.720  0.00  0.00     0.023 H 
ENDBRANCH  52  58
ENDBRANCH  46  52
ENDBRANCH  43  46
ENDBRANCH  36  42
ENDBRANCH   1  36
BRANCH   7  62
ATOM     62  C   LIG d   1       6.231  -1.519  -6.735  0.00  0.00    -0.059 C 
ATOM     63  H   LIG d   1       6.640  -0.621  -7.198  0.00  0.00     0.024 H 
ATOM     64  H   LIG d   1       6.732  -2.398  -7.142  0.00  0.00     0.024 H 
ATOM     65  H   LIG d   1       5.163  -1.581  -6.942  0.00  0.00     0.024 H 
ENDBRANCH   7  62
BRANCH  16  66
ATOM     66  C   LIG d   1       8.172  -5.810  -6.600  0.00  0.00    -0.055 C 
ATOM     67  H   LIG d   1       7.505  -5.783  -7.462  0.00  0.00     0.024 H 
ATOM     68  H   LIG d   1       8.898  -5.000  -6.676  0.00  0.00     0.024 H 
ATOM     69  H   LIG d   1       8.696  -6.765  -6.574  0.00  0.00     0.024 H 
ENDBRANCH  16  66
BRANCH  21  70
ATOM     70  C   LIG d   1       6.698  -8.461  -7.030  0.00  0.00    -0.053 C 
ATOM     71  H   LIG d   1       6.986  -9.512  -7.048  0.00  0.00     0.024 H 
ATOM     72  H   LIG d   1       5.810  -8.318  -7.647  0.00  0.00     0.024 H 
ATOM     73  H   LIG d   1       7.514  -7.853  -7.421  0.00  0.00     0.024 H 
ENDBRANCH  21  70
BRANCH  21  74
ATOM     74  C   LIG d   1       5.104  -8.793  -5.166  0.00  0.00    -0.053 C 
ATOM     75  H   LIG d   1       4.270  -8.466  -5.786  0.00  0.00     0.024 H 
ATOM     76  H   LIG d   1       5.252  -9.866  -5.291  0.00  0.00     0.024 H 
ATOM     77  H   LIG d   1       4.886  -8.577  -4.120  0.00  0.00     0.024 H 
ENDBRANCH  21  74
BRANCH  19  78
ATOM     78  O   LIG d   1       7.962  -9.793  -5.062  0.00  0.00    -0.461 OA
BRANCH  78  79
ATOM     79  C   LIG d   1       8.157 -10.720  -4.112  0.00  0.00     0.304 C 
ATOM     80  O   LIG d   1       8.985 -11.585  -4.274  0.00  0.00    -0.251 OA
BRANCH  79  81
ATOM     81  C   LIG d   1       7.344 -10.682  -2.844  0.00  0.00     0.033 C 
ATOM     82  H   LIG d   1       6.795  -9.742  -2.793  0.00  0.00     0.034 H 
ATOM     83  H   LIG d   1       6.641 -11.515  -2.838  0.00  0.00     0.034 H 
ATOM     84  H   LIG d   1       8.009 -10.763  -1.984  0.00  0.00     0.034 H 
ENDBRANCH  79  81
ENDBRANCH  78  79
ENDBRANCH  19  78
TORSDOF 15
ENDMDL
MODEL 7
REMARK VINA RESULT:      -5.2      3.469      8.761
REMARK  15 active torsions:
REMARK  status: ('A' for Active; 'I' for Inactive)
REMARK    1  A    between atoms: C_1  and  C_2 
REMARK    2  A    between atoms: C_2  and  C_4 
REMARK    3  A    between atoms: C_2  and  C_12 
REMARK    4  A    between atoms: C_5  and  C_6 
REMARK    5  A    between atoms: C_6  and  C_8 
REMARK    6  A    between atoms: C_6  and  C_9 
REMARK    7  A    between atoms: C_9  and  C_10 
REMARK    8  A    between atoms: C_9  and  C_11 
REMARK    9  A    between atoms: C_18  and  C_40 
REMARK   10  A    between atoms: C_27  and  C_39 
REMARK   11  A    between atoms: C_30  and  O_35 
REMARK   12  A    between atoms: C_32  and  C_33 
REMARK   13  A    between atoms: C_32  and  C_34 
REMARK   14  A    between atoms: O_35  and  C_36 
REMARK   15  A    between atoms: C_36  and  C_38 
ROOT
ATOM      1  C   LIG d   1      11.986   4.644  -5.041  0.00  0.00    -0.029 C 
ATOM      2  H   LIG d   1      13.034   4.424  -4.853  0.00  0.00     0.031 H 
ATOM      3  C   LIG d   1      11.785   5.083  -6.518  0.00  0.00    -0.049 C 
ATOM      4  C   LIG d   1      10.609   4.232  -7.073  0.00  0.00    -0.046 C 
ATOM      5  C   LIG d   1       9.922   3.723  -5.795  0.00  0.00    -0.014 C 
ATOM      6  H   LIG d   1       9.335   4.532  -5.339  0.00  0.00     0.035 H 
ATOM      7  C   LIG d   1      11.149   3.365  -4.920  0.00  0.00    -0.022 C 
ATOM      8  C   LIG d   1      10.758   2.897  -3.552  0.00  0.00    -0.046 C 
ATOM      9  C   LIG d   1       9.336   2.321  -3.522  0.00  0.00    -0.045 C 
ATOM     10  C   LIG d   1       9.043   1.547  -4.802  0.00  0.00    -0.010 C 
ATOM     11  H   LIG d   1       9.885   0.849  -4.944  0.00  0.00     0.035 H 
ATOM     12  C   LIG d   1       9.072   2.507  -5.966  0.00  0.00    -0.062 C 
ATOM     13  C   LIG d   1       8.392   2.248  -7.060  0.00  0.00    -0.062 C 
ATOM     14  C   LIG d   1       7.447   1.126  -7.119  0.00  0.00    -0.061 C 
ATOM     15  C   LIG d   1       7.103   0.453  -6.028  0.00  0.00    -0.054 C 
ATOM     16  C   LIG d   1       7.837   0.666  -4.738  0.00  0.00    -0.004 C 
ATOM     17  C   LIG d   1       6.853   0.932  -3.620  0.00  0.00    -0.040 C 
ATOM     18  C   LIG d   1       5.861  -0.229  -3.535  0.00  0.00    -0.014 C 
ATOM     19  C   LIG d   1       5.112  -0.457  -4.832  0.00  0.00     0.112 C 
ATOM     20  H   LIG d   1       4.405   0.375  -4.976  0.00  0.00     0.074 H 
ATOM     21  C   LIG d   1       5.985  -0.561  -6.088  0.00  0.00     0.024 C 
ATOM     22  H   LIG d   1      11.529   6.142  -6.556  0.00  0.00     0.027 H 
ATOM     23  H   LIG d   1      12.691   4.892  -7.090  0.00  0.00     0.027 H 
ATOM     24  H   LIG d   1       9.920   4.872  -7.635  0.00  0.00     0.027 H 
ATOM     25  H   LIG d   1      10.960   3.424  -7.701  0.00  0.00     0.027 H 
ATOM     26  H   LIG d   1      11.451   2.097  -3.248  0.00  0.00     0.027 H 
ATOM     27  H   LIG d   1      10.834   3.688  -2.812  0.00  0.00     0.027 H 
ATOM     28  H   LIG d   1       9.243   1.659  -2.660  0.00  0.00     0.027 H 
ATOM     29  H   LIG d   1       8.623   3.141  -3.418  0.00  0.00     0.027 H 
ATOM     30  H   LIG d   1       8.535   2.872  -7.932  0.00  0.00     0.062 H 
ATOM     31  H   LIG d   1       7.082   0.837  -8.095  0.00  0.00     0.062 H 
ATOM     32  H   LIG d   1       7.385   1.030  -2.671  0.00  0.00     0.028 H 
ATOM     33  H   LIG d   1       6.314   1.864  -3.819  0.00  0.00     0.028 H 
ATOM     34  H   LIG d   1       6.334  -1.143  -3.193  0.00  0.00     0.030 H 
ATOM     35  H   LIG d   1       5.115   0.033  -2.761  0.00  0.00     0.030 H 
ENDROOT
BRANCH   1  36
ATOM     36  C   LIG d   1      11.485   5.741  -4.105  0.00  0.00    -0.022 C 
ATOM     37  H   LIG d   1      10.437   5.562  -3.865  0.00  0.00     0.034 H 
BRANCH  36  38
ATOM     38  C   LIG d   1      11.626   7.101  -4.792  0.00  0.00    -0.059 C 
ATOM     39  H   LIG d   1      10.926   7.807  -4.348  0.00  0.00     0.024 H 
ATOM     40  H   LIG d   1      12.644   7.469  -4.662  0.00  0.00     0.024 H 
ATOM     41  H   LIG d   1      11.411   6.995  -5.855  0.00  0.00     0.024 H 
ENDBRANCH  36  38
BRANCH  36  42
ATOM     42  C   LIG d   1      12.300   5.732  -2.837  0.00  0.00    -0.085 C 
ATOM     43  C   LIG d   1      11.704   5.830  -1.675  0.00  0.00    -0.085 C 
ATOM     44  H   LIG d   1      10.627   5.768  -1.613  0.00  0.00     0.057 H 
ATOM     45  H   LIG d   1      13.375   5.643  -2.887  0.00  0.00     0.057 H 
BRANCH  43  46
ATOM     46  C   LIG d   1      12.520   6.029  -0.425  0.00  0.00    -0.023 C 
ATOM     47  H   LIG d   1      12.844   5.061  -0.044  0.00  0.00     0.034 H 
BRANCH  46  48
ATOM     48  C   LIG d   1      13.747   6.886  -0.748  0.00  0.00    -0.059 C 
ATOM     49  H   LIG d   1      14.411   6.333  -1.412  0.00  0.00     0.024 H 
ATOM     50  H   LIG d   1      13.428   7.807  -1.236  0.00  0.00     0.024 H 
ATOM     51  H   LIG d   1      14.274   7.127   0.174  0.00  0.00     0.024 H 
ENDBRANCH  46  48
BRANCH  46  52
ATOM     52  C   LIG d   1      11.670   6.735   0.633  0.00  0.00    -0.041 C 
ATOM     53  H   LIG d   1      12.304   7.392   1.230  0.00  0.00     0.030 H 
BRANCH  52  54
ATOM     54  C   LIG d   1      10.584   7.563  -0.056  0.00  0.00    -0.062 C 
ATOM     55  H   LIG d   1       9.622   7.366   0.417  0.00  0.00     0.023 H 
ATOM     56  H   LIG d   1      10.823   8.623   0.034  0.00  0.00     0.023 H 
ATOM     57  H   LIG d   1      10.532   7.290  -1.110  0.00  0.00     0.023 H 
ENDBRANCH  52  54
BRANCH  52  58
ATOM     58  C   LIG d   1      11.017   5.693   1.543  0.00  0.00    -0.062 C 
ATOM     59  H   LIG d   1      11.767   4.970   1.864  0.00  0.00     0.023 H 
ATOM     60  H   LIG d   1      10.593   6.188   2.416  0.00  0.00     0.023 H 
ATOM     61  H   LIG d   1      10.227   5.178   0.997  0.00  0.00     0.023 H 
ENDBRANCH  52  58
ENDBRANCH  46  52
ENDBRANCH  43  46
ENDBRANCH  36  42
ENDBRANCH   1  36
BRANCH   7  62
ATOM     62  C   LIG d   1      11.961   2.251  -5.602  0.00  0.00    -0.059 C 
ATOM     63  H   LIG d   1      11.542   1.281  -5.336  0.00  0.00     0.024 H 
ATOM     64  H   LIG d   1      11.919   2.380  -6.684  0.00  0.00     0.024 H 
ATOM     65  H   LIG d   1      12.998   2.302  -5.271  0.00  0.00     0.024 H 
ENDBRANCH   7  62
BRANCH  16  66
ATOM     66  C   LIG d   1       8.482  -0.682  -4.382  0.00  0.00    -0.055 C 
ATOM     67  H   LIG d   1       9.077  -1.034  -5.225  0.00  0.00     0.024 H 
ATOM     68  H   LIG d   1       9.124  -0.558  -3.510  0.00  0.00     0.024 H 
ATOM     69  H   LIG d   1       7.702  -1.409  -4.158  0.00  0.00     0.024 H 
ENDBRANCH  16  66
BRANCH  21  70
ATOM     70  C   LIG d   1       6.482  -1.991  -6.300  0.00  0.00    -0.053 C 
ATOM     71  H   LIG d   1       6.352  -2.561  -5.380  0.00  0.00     0.024 H 
ATOM     72  H   LIG d   1       5.911  -2.460  -7.102  0.00  0.00     0.024 H 
ATOM     73  H   LIG d   1       7.539  -1.972  -6.570  0.00  0.00     0.024 H 
ENDBRANCH  21  70
BRANCH  21  74
ATOM     74  C   LIG d   1       5.055  -0.225  -7.284  0.00  0.00    -0.053 C 
ATOM     75  H   LIG d   1       4.337   0.538  -6.982  0.00  0.00     0.024 H 
ATOM     76  H   LIG d   1       5.654   0.148  -8.116  0.00  0.00     0.024 H 
ATOM     77  H   LIG d   1       4.522  -1.123  -7.594  0.00  0.00     0.024 H 
ENDBRANCH  21  74
BRANCH  19  78
ATOM     78  O   LIG d   1       4.333  -1.658  -4.714  0.00  0.00    -0.461 OA
BRANCH  78  79
ATOM     79  C   LIG d   1       3.639  -1.825  -3.579  0.00  0.00     0.304 C 
ATOM     80  O   LIG d   1       3.859  -2.780  -2.872  0.00  0.00    -0.251 OA
BRANCH  79  81
ATOM     81  C   LIG d   1       2.586  -0.822  -3.185  0.00  0.00     0.033 C 
ATOM     82  H   LIG d   1       2.149  -0.383  -4.081  0.00  0.00     0.034 H 
ATOM     83  H   LIG d   1       1.806  -1.321  -2.607  0.00  0.00     0.034 H 
ATOM     84  H   LIG d   1       3.039  -0.038  -2.579  0.00  0.00     0.034 H 
ENDBRANCH  79  81
ENDBRANCH  78  79
ENDBRANCH  19  78
TORSDOF 15
ENDMDL
MODEL 8
REMARK VINA RESULT:      -5.2      8.017     11.023
REMARK  15 active torsions:
REMARK  status: ('A' for Active; 'I' for Inactive)
REMARK    1  A    between atoms: C_1  and  C_2 
REMARK    2  A    between atoms: C_2  and  C_4 
REMARK    3  A    between atoms: C_2  and  C_12 
REMARK    4  A    between atoms: C_5  and  C_6 
REMARK    5  A    between atoms: C_6  and  C_8 
REMARK    6  A    between atoms: C_6  and  C_9 
REMARK    7  A    between atoms: C_9  and  C_10 
REMARK    8  A    between atoms: C_9  and  C_11 
REMARK    9  A    between atoms: C_18  and  C_40 
REMARK   10  A    between atoms: C_27  and  C_39 
REMARK   11  A    between atoms: C_30  and  O_35 
REMARK   12  A    between atoms: C_32  and  C_33 
REMARK   13  A    between atoms: C_32  and  C_34 
REMARK   14  A    between atoms: O_35  and  C_36 
REMARK   15  A    between atoms: C_36  and  C_38 
ROOT
ATOM      1  C   LIG d   1       1.331  -2.963 -12.949  0.00  0.00    -0.029 C 
ATOM      2  H   LIG d   1       1.644  -2.620 -13.932  0.00  0.00     0.031 H 
ATOM      3  C   LIG d   1       1.756  -4.441 -12.733  0.00  0.00    -0.049 C 
ATOM      4  C   LIG d   1       2.473  -4.495 -11.355  0.00  0.00    -0.046 C 
ATOM      5  C   LIG d   1       2.010  -3.195 -10.677  0.00  0.00    -0.014 C 
ATOM      6  H   LIG d   1       0.975  -3.307 -10.325  0.00  0.00     0.035 H 
ATOM      7  C   LIG d   1       2.091  -2.198 -11.859  0.00  0.00    -0.022 C 
ATOM      8  C   LIG d   1       1.613  -0.829 -11.484  0.00  0.00    -0.046 C 
ATOM      9  C   LIG d   1       1.728  -0.568  -9.976  0.00  0.00    -0.045 C 
ATOM     10  C   LIG d   1       2.990  -1.211  -9.415  0.00  0.00    -0.010 C 
ATOM     11  H   LIG d   1       3.821  -0.887 -10.064  0.00  0.00     0.035 H 
ATOM     12  C   LIG d   1       2.879  -2.708  -9.564  0.00  0.00    -0.062 C 
ATOM     13  C   LIG d   1       3.538  -3.509  -8.758  0.00  0.00    -0.062 C 
ATOM     14  C   LIG d   1       4.248  -2.988  -7.583  0.00  0.00    -0.061 C 
ATOM     15  C   LIG d   1       4.099  -1.731  -7.186  0.00  0.00    -0.054 C 
ATOM     16  C   LIG d   1       3.379  -0.739  -8.051  0.00  0.00    -0.004 C 
ATOM     17  C   LIG d   1       2.317  -0.023  -7.245  0.00  0.00    -0.040 C 
ATOM     18  C   LIG d   1       2.968   0.637  -6.028  0.00  0.00    -0.014 C 
ATOM     19  C   LIG d   1       3.699  -0.353  -5.145  0.00  0.00     0.112 C 
ATOM     20  H   LIG d   1       2.953  -0.980  -4.633  0.00  0.00     0.074 H 
ATOM     21  C   LIG d   1       4.683  -1.280  -5.867  0.00  0.00     0.024 C 
ATOM     22  H   LIG d   1       0.874  -5.080 -12.718  0.00  0.00     0.027 H 
ATOM     23  H   LIG d   1       2.436  -4.752 -13.523  0.00  0.00     0.027 H 
ATOM     24  H   LIG d   1       2.117  -5.360 -10.784  0.00  0.00     0.027 H 
ATOM     25  H   LIG d   1       3.549  -4.541 -11.463  0.00  0.00     0.027 H 
ATOM     26  H   LIG d   1       2.242  -0.088 -12.002  0.00  0.00     0.027 H 
ATOM     27  H   LIG d   1       0.587  -0.655 -11.795  0.00  0.00     0.027 H 
ATOM     28  H   LIG d   1       1.754   0.509  -9.806  0.00  0.00     0.027 H 
ATOM     29  H   LIG d   1       0.851  -0.984  -9.476  0.00  0.00     0.027 H 
ATOM     30  H   LIG d   1       3.559  -4.571  -8.966  0.00  0.00     0.062 H 
ATOM     31  H   LIG d   1       4.939  -3.655  -7.085  0.00  0.00     0.062 H 
ATOM     32  H   LIG d   1       1.833   0.740  -7.860  0.00  0.00     0.028 H 
ATOM     33  H   LIG d   1       1.561  -0.741  -6.915  0.00  0.00     0.028 H 
ATOM     34  H   LIG d   1       3.616   1.459  -6.310  0.00  0.00     0.030 H 
ATOM     35  H   LIG d   1       2.156   1.086  -5.424  0.00  0.00     0.030 H 
ENDROOT
BRANCH   1  36
ATOM     36  C   LIG d   1      -0.181  -2.833 -12.783  0.00  0.00    -0.022 C 
ATOM     37  H   LIG d   1      -0.400  -2.257 -11.884  0.00  0.00     0.034 H 
BRANCH  36  38
ATOM     38  C   LIG d   1      -0.802  -4.227 -12.662  0.00  0.00    -0.059 C 
ATOM     39  H   LIG d   1      -0.513  -4.671 -11.710  0.00  0.00     0.024 H 
ATOM     40  H   LIG d   1      -1.888  -4.145 -12.710  0.00  0.00     0.024 H 
ATOM     41  H   LIG d   1      -0.448  -4.854 -13.478  0.00  0.00     0.024 H 
ENDBRANCH  36  38
BRANCH  36  42
ATOM     42  C   LIG d   1      -0.760  -2.129 -13.984  0.00  0.00    -0.085 C 
ATOM     43  C   LIG d   1      -0.668  -2.674 -15.171  0.00  0.00    -0.085 C 
ATOM     44  H   LIG d   1      -0.314  -3.690 -15.272  0.00  0.00     0.057 H 
ATOM     45  H   LIG d   1      -1.251  -1.174 -13.865  0.00  0.00     0.057 H 
BRANCH  43  46
ATOM     46  C   LIG d   1      -1.057  -1.886 -16.394  0.00  0.00    -0.023 C 
ATOM     47  H   LIG d   1      -1.560  -2.542 -17.105  0.00  0.00     0.034 H 
BRANCH  46  48
ATOM     48  C   LIG d   1      -2.001  -0.751 -15.990  0.00  0.00    -0.059 C 
ATOM     49  H   LIG d   1      -1.472   0.200 -16.048  0.00  0.00     0.024 H 
ATOM     50  H   LIG d   1      -2.857  -0.734 -16.665  0.00  0.00     0.024 H 
ATOM     51  H   LIG d   1      -2.347  -0.913 -14.969  0.00  0.00     0.024 H 
ENDBRANCH  46  48
BRANCH  46  52
ATOM     52  C   LIG d   1       0.198  -1.298 -17.043  0.00  0.00    -0.041 C 
ATOM     53  H   LIG d   1       0.843  -0.876 -16.270  0.00  0.00     0.030 H 
BRANCH  52  54
ATOM     54  C   LIG d   1       0.951  -2.401 -17.788  0.00  0.00    -0.062 C 
ATOM     55  H   LIG d   1       1.788  -2.744 -17.182  0.00  0.00     0.023 H 
ATOM     56  H   LIG d   1       0.276  -3.235 -17.981  0.00  0.00     0.023 H 
ATOM     57  H   LIG d   1       1.324  -2.010 -18.735  0.00  0.00     0.023 H 
ENDBRANCH  52  54
BRANCH  52  58
ATOM     58  C   LIG d   1      -0.204  -0.199 -18.028  0.00  0.00    -0.062 C 
ATOM     59  H   LIG d   1       0.666   0.100 -18.613  0.00  0.00     0.023 H 
ATOM     60  H   LIG d   1      -0.978  -0.577 -18.696  0.00  0.00     0.023 H 
ATOM     61  H   LIG d   1      -0.585   0.661 -17.478  0.00  0.00     0.023 H 
ENDBRANCH  52  58
ENDBRANCH  46  52
ENDBRANCH  43  46
ENDBRANCH  36  42
ENDBRANCH   1  36
BRANCH   7  62
ATOM     62  C   LIG d   1       3.547  -2.090 -12.342  0.00  0.00    -0.059 C 
ATOM     63  H   LIG d   1       4.194  -1.852 -11.497  0.00  0.00     0.024 H 
ATOM     64  H   LIG d   1       3.856  -3.038 -12.780  0.00  0.00     0.024 H 
ATOM     65  H   LIG d   1       3.624  -1.302 -13.091  0.00  0.00     0.024 H 
ENDBRANCH   7  62
BRANCH  16  66
ATOM     66  C   LIG d   1       4.405   0.348  -8.403  0.00  0.00    -0.055 C 
ATOM     67  H   LIG d   1       4.200   0.732  -9.403  0.00  0.00     0.024 H 
ATOM     68  H   LIG d   1       4.336   1.161  -7.680  0.00  0.00     0.024 H 
ATOM     69  H   LIG d   1       5.408  -0.076  -8.376  0.00  0.00     0.024 H 
ENDBRANCH  16  66
BRANCH  21  70
ATOM     70  C   LIG d   1       6.056  -0.626  -6.013  0.00  0.00    -0.053 C 
ATOM     71  H   LIG d   1       6.359  -0.644  -7.060  0.00  0.00     0.024 H 
ATOM     72  H   LIG d   1       6.004   0.408  -5.668  0.00  0.00     0.024 H 
ATOM     73  H   LIG d   1       6.785  -1.172  -5.414  0.00  0.00     0.024 H 
ENDBRANCH  21  70
BRANCH  21  74
ATOM     74  C   LIG d   1       4.866  -2.513  -4.944  0.00  0.00    -0.053 C 
ATOM     75  H   LIG d   1       4.348  -2.341  -4.001  0.00  0.00     0.024 H 
ATOM     76  H   LIG d   1       4.451  -3.397  -5.430  0.00  0.00     0.024 H 
ATOM     77  H   LIG d   1       5.928  -2.670  -4.752  0.00  0.00     0.024 H 
ENDBRANCH  21  74
BRANCH  19  78
ATOM     78  O   LIG d   1       4.412   0.368  -4.128  0.00  0.00    -0.461 OA
BRANCH  78  79
ATOM     79  C   LIG d   1       3.899   0.342  -2.889  0.00  0.00     0.304 C 
ATOM     80  O   LIG d   1       2.847  -0.214  -2.683  0.00  0.00    -0.251 OA
BRANCH  79  81
ATOM     81  C   LIG d   1       4.635   1.008  -1.755  0.00  0.00     0.033 C 
ATOM     82  H   LIG d   1       4.357   0.533  -0.814  0.00  0.00     0.034 H 
ATOM     83  H   LIG d   1       5.709   0.907  -1.910  0.00  0.00     0.034 H 
ATOM     84  H   LIG d   1       4.371   2.065  -1.721  0.00  0.00     0.034 H 
ENDBRANCH  79  81
ENDBRANCH  78  79
ENDBRANCH  19  78
TORSDOF 15
ENDMDL
MODEL 9
REMARK VINA RESULT:      -5.1      6.526      9.786
REMARK  15 active torsions:
REMARK  status: ('A' for Active; 'I' for Inactive)
REMARK    1  A    between atoms: C_1  and  C_2 
REMARK    2  A    between atoms: C_2  and  C_4 
REMARK    3  A    between atoms: C_2  and  C_12 
REMARK    4  A    between atoms: C_5  and  C_6 
REMARK    5  A    between atoms: C_6  and  C_8 
REMARK    6  A    between atoms: C_6  and  C_9 
REMARK    7  A    between atoms: C_9  and  C_10 
REMARK    8  A    between atoms: C_9  and  C_11 
REMARK    9  A    between atoms: C_18  and  C_40 
REMARK   10  A    between atoms: C_27  and  C_39 
REMARK   11  A    between atoms: C_30  and  O_35 
REMARK   12  A    between atoms: C_32  and  C_33 
REMARK   13  A    between atoms: C_32  and  C_34 
REMARK   14  A    between atoms: O_35  and  C_36 
REMARK   15  A    between atoms: C_36  and  C_38 
ROOT
ATOM      1  C   LIG d   1       6.462  -3.254  -5.090  0.00  0.00    -0.029 C 
ATOM      2  H   LIG d   1       5.820  -3.331  -4.215  0.00  0.00     0.031 H 
ATOM      3  C   LIG d   1       7.060  -4.644  -5.443  0.00  0.00    -0.049 C 
ATOM      4  C   LIG d   1       6.808  -4.857  -6.962  0.00  0.00    -0.046 C 
ATOM      5  C   LIG d   1       6.523  -3.433  -7.465  0.00  0.00    -0.014 C 
ATOM      6  H   LIG d   1       7.462  -2.867  -7.535  0.00  0.00     0.035 H 
ATOM      7  C   LIG d   1       5.629  -2.887  -6.324  0.00  0.00    -0.022 C 
ATOM      8  C   LIG d   1       5.254  -1.452  -6.529  0.00  0.00    -0.046 C 
ATOM      9  C   LIG d   1       5.306  -1.046  -8.008  0.00  0.00    -0.045 C 
ATOM     10  C   LIG d   1       4.822  -2.186  -8.895  0.00  0.00    -0.010 C 
ATOM     11  H   LIG d   1       3.856  -2.516  -8.480  0.00  0.00     0.035 H 
ATOM     12  C   LIG d   1       5.776  -3.347  -8.755  0.00  0.00    -0.062 C 
ATOM     13  C   LIG d   1       5.903  -4.225  -9.724  0.00  0.00    -0.062 C 
ATOM     14  C   LIG d   1       5.272  -4.010 -11.032  0.00  0.00    -0.061 C 
ATOM     15  C   LIG d   1       4.713  -2.848 -11.348  0.00  0.00    -0.054 C 
ATOM     16  C   LIG d   1       4.507  -1.793 -10.303  0.00  0.00    -0.004 C 
ATOM     17  C   LIG d   1       5.061  -0.470 -10.785  0.00  0.00    -0.040 C 
ATOM     18  C   LIG d   1       4.401  -0.102 -12.115  0.00  0.00    -0.014 C 
ATOM     19  C   LIG d   1       4.601  -1.160 -13.181  0.00  0.00     0.112 C 
ATOM     20  H   LIG d   1       5.657  -1.144 -13.493  0.00  0.00     0.074 H 
ATOM     21  C   LIG d   1       4.250  -2.593 -12.763  0.00  0.00     0.024 C 
ATOM     22  H   LIG d   1       8.130  -4.646  -5.239  0.00  0.00     0.027 H 
ATOM     23  H   LIG d   1       6.563  -5.420  -4.865  0.00  0.00     0.027 H 
ATOM     24  H   LIG d   1       7.715  -5.245  -7.438  0.00  0.00     0.027 H 
ATOM     25  H   LIG d   1       5.979  -5.530  -7.140  0.00  0.00     0.027 H 
ATOM     26  H   LIG d   1       4.220  -1.309  -6.178  0.00  0.00     0.027 H 
ATOM     27  H   LIG d   1       5.885  -0.778  -5.956  0.00  0.00     0.027 H 
ATOM     28  H   LIG d   1       4.674  -0.169  -8.154  0.00  0.00     0.027 H 
ATOM     29  H   LIG d   1       6.334  -0.788  -8.270  0.00  0.00     0.027 H 
ATOM     30  H   LIG d   1       6.482  -5.123  -9.553  0.00  0.00     0.062 H 
ATOM     31  H   LIG d   1       5.234  -4.853 -11.709  0.00  0.00     0.062 H 
ATOM     32  H   LIG d   1       4.859   0.310 -10.047  0.00  0.00     0.028 H 
ATOM     33  H   LIG d   1       6.144  -0.554 -10.921  0.00  0.00     0.028 H 
ATOM     34  H   LIG d   1       3.350   0.135 -11.995  0.00  0.00     0.030 H 
ATOM     35  H   LIG d   1       4.882   0.828 -12.474  0.00  0.00     0.030 H 
ENDROOT
BRANCH   1  36
ATOM     36  C   LIG d   1       7.590  -2.254  -4.849  0.00  0.00    -0.022 C 
ATOM     37  H   LIG d   1       7.855  -1.772  -5.790  0.00  0.00     0.034 H 
BRANCH  36  38
ATOM     38  C   LIG d   1       8.811  -2.988  -4.290  0.00  0.00    -0.059 C 
ATOM     39  H   LIG d   1       9.627  -2.280  -4.146  0.00  0.00     0.024 H 
ATOM     40  H   LIG d   1       8.553  -3.444  -3.334  0.00  0.00     0.024 H 
ATOM     41  H   LIG d   1       9.121  -3.763  -4.990  0.00  0.00     0.024 H 
ENDBRANCH  36  38
BRANCH  36  42
ATOM     42  C   LIG d   1       7.136  -1.211  -3.861  0.00  0.00    -0.085 C 
ATOM     43  C   LIG d   1       6.084  -1.431  -3.113  0.00  0.00    -0.085 C 
ATOM     44  H   LIG d   1       5.631  -2.412  -3.094  0.00  0.00     0.057 H 
ATOM     45  H   LIG d   1       7.678  -0.281  -3.770  0.00  0.00     0.057 H 
BRANCH  43  46
ATOM     46  C   LIG d   1       5.506  -0.318  -2.279  0.00  0.00    -0.023 C 
ATOM     47  H   LIG d   1       6.037  -0.262  -1.328  0.00  0.00     0.034 H 
BRANCH  46  48
ATOM     48  C   LIG d   1       5.657   1.010  -3.026  0.00  0.00    -0.059 C 
ATOM     49  H   LIG d   1       4.704   1.538  -3.023  0.00  0.00     0.024 H 
ATOM     50  H   LIG d   1       6.413   1.620  -2.532  0.00  0.00     0.024 H 
ATOM     51  H   LIG d   1       5.962   0.815  -4.054  0.00  0.00     0.024 H 
ENDBRANCH  46  48
BRANCH  46  52
ATOM     52  C   LIG d   1       4.023  -0.590  -2.019  0.00  0.00    -0.041 C 
ATOM     53  H   LIG d   1       3.820  -0.508  -0.951  0.00  0.00     0.030 H 
BRANCH  52  54
ATOM     54  C   LIG d   1       3.177   0.433  -2.779  0.00  0.00    -0.062 C 
ATOM     55  H   LIG d   1       3.604   0.595  -3.768  0.00  0.00     0.023 H 
ATOM     56  H   LIG d   1       2.158   0.058  -2.881  0.00  0.00     0.023 H 
ATOM     57  H   LIG d   1       3.164   1.374  -2.230  0.00  0.00     0.023 H 
ENDBRANCH  52  54
BRANCH  52  58
ATOM     58  C   LIG d   1       3.671  -2.000  -2.499  0.00  0.00    -0.062 C 
ATOM     59  H   LIG d   1       2.603  -2.057  -2.705  0.00  0.00     0.023 H 
ATOM     60  H   LIG d   1       4.229  -2.223  -3.408  0.00  0.00     0.023 H 
ATOM     61  H   LIG d   1       3.931  -2.722  -1.725  0.00  0.00     0.023 H 
ENDBRANCH  52  58
ENDBRANCH  46  52
ENDBRANCH  43  46
ENDBRANCH  36  42
ENDBRANCH   1  36
BRANCH   7  62
ATOM     62  C   LIG d   1       4.338  -3.720  -6.238  0.00  0.00    -0.059 C 
ATOM     63  H   LIG d   1       3.657  -3.260  -5.522  0.00  0.00     0.024 H 
ATOM     64  H   LIG d   1       3.864  -3.757  -7.218  0.00  0.00     0.024 H 
ATOM     65  H   LIG d   1       4.580  -4.731  -5.912  0.00  0.00     0.024 H 
ENDBRANCH   7  62
BRANCH  16  66
ATOM     66  C   LIG d   1       2.990  -1.572 -10.208  0.00  0.00    -0.055 C 
ATOM     67  H   LIG d   1       2.708  -0.712 -10.815  0.00  0.00     0.024 H 
ATOM     68  H   LIG d   1       2.471  -2.459 -10.572  0.00  0.00     0.024 H 
ATOM     69  H   LIG d   1       2.713  -1.391  -9.169  0.00  0.00     0.024 H 
ENDBRANCH  16  66
BRANCH  21  70
ATOM     70  C   LIG d   1       2.763  -2.881 -12.969  0.00  0.00    -0.053 C 
ATOM     71  H   LIG d   1       2.175  -2.050 -12.581  0.00  0.00     0.024 H 
ATOM     72  H   LIG d   1       2.561  -3.005 -14.034  0.00  0.00     0.024 H 
ATOM     73  H   LIG d   1       2.494  -3.796 -12.440  0.00  0.00     0.024 H 
ENDBRANCH  21  70
BRANCH  21  74
ATOM     74  C   LIG d   1       5.029  -3.523 -13.730  0.00  0.00    -0.053 C 
ATOM     75  H   LIG d   1       6.052  -3.163 -13.835  0.00  0.00     0.024 H 
ATOM     76  H   LIG d   1       5.040  -4.537 -13.328  0.00  0.00     0.024 H 
ATOM     77  H   LIG d   1       4.542  -3.525 -14.705  0.00  0.00     0.024 H 
ENDBRANCH  21  74
BRANCH  19  78
ATOM     78  O   LIG d   1       3.816  -0.814 -14.333  0.00  0.00    -0.461 OA
BRANCH  78  79
ATOM     79  C   LIG d   1       4.468  -0.279 -15.376  0.00  0.00     0.304 C 
ATOM     80  O   LIG d   1       3.856   0.316 -16.230  0.00  0.00    -0.251 OA
BRANCH  79  81
ATOM     81  C   LIG d   1       5.965  -0.422 -15.483  0.00  0.00     0.033 C 
ATOM     82  H   LIG d   1       6.259  -0.388 -16.532  0.00  0.00     0.034 H 
ATOM     83  H   LIG d   1       6.447   0.393 -14.942  0.00  0.00     0.034 H 
ATOM     84  H   LIG d   1       6.270  -1.375 -15.050  0.00  0.00     0.034 H 
ENDBRANCH  79  81
ENDBRANCH  78  79
ENDBRANCH  19  78
TORSDOF 15
ENDMDL
