MODEL 1
REMARK VINA RESULT:      -5.7      0.000      0.000
REMARK  5 active torsions:
REMARK  status: ('A' for Active; 'I' for Inactive)
REMARK    1  A    between atoms: N_9  and  C_10 
REMARK    2  A    between atoms: C_13  and  O_22 
REMARK    3  A    between atoms: C_15  and  C_18 
REMARK    4  A    between atoms: C_18  and  O_19 
REMARK    5  A    between atoms: O_19  and  P_20 
ROOT
ATOM      1  C   LIG d   1       5.485  -2.311  -5.701  0.00  0.00     0.142 C 
ATOM      2  H   LIG d   1       5.869  -1.738  -6.547  0.00  0.00     0.084 H 
ATOM      3  C   LIG d   1       6.622  -3.138  -5.071  0.00  0.00     0.021 C 
ATOM      4  C   LIG d   1       6.174  -4.607  -5.264  0.00  0.00     0.088 C 
ATOM      5  H   LIG d   1       5.695  -4.990  -4.364  0.00  0.00     0.062 H 
ATOM      6  C   LIG d   1       5.153  -4.485  -6.424  0.00  0.00     0.111 C 
ATOM      7  H   LIG d   1       5.665  -4.445  -7.387  0.00  0.00     0.065 H 
ATOM      8  O   LIG d   1       4.483  -3.235  -6.153  0.00  0.00    -0.348 OA
ATOM      9  H   LIG d   1       7.562  -2.954  -5.591  0.00  0.00     0.034 H 
ATOM     10  H   LIG d   1       6.720  -2.906  -4.010  0.00  0.00     0.034 H 
ENDROOT
BRANCH   1  11
ATOM     11  N   LIG d   1       4.915  -1.405  -4.701  0.00  0.00    -0.271 N 
ATOM     12  C   LIG d   1       4.939  -1.754  -3.376  0.00  0.00     0.052 A 
ATOM     13  C   LIG d   1       4.414  -0.917  -2.455  0.00  0.00     0.204 A 
ATOM     14  H   LIG d   1       5.378  -2.693  -3.069  0.00  0.00     0.084 H 
ATOM     15  C   LIG d   1       3.845   0.308  -2.882  0.00  0.00     0.289 A 
ATOM     16  F   LIG d   1       4.430  -1.245  -1.145  0.00  0.00    -0.198 F 
ATOM     17  O   LIG d   1       3.364   1.079  -2.071  0.00  0.00    -0.265 OA
ATOM     18  N   LIG d   1       3.840   0.613  -4.195  0.00  0.00    -0.273 N 
ATOM     19  H   LIG d   1       3.445   1.479  -4.504  0.00  0.00     0.173 HD
ATOM     20  C   LIG d   1       4.367  -0.241  -5.093  0.00  0.00     0.332 A 
ATOM     21  O   LIG d   1       4.351   0.047  -6.275  0.00  0.00    -0.246 OA
ENDBRANCH   1  11
BRANCH   6  22
ATOM     22  C   LIG d   1       4.159  -5.648  -6.392  0.00  0.00     0.080 C 
ATOM     23  H   LIG d   1       4.158  -6.151  -7.359  0.00  0.00     0.059 H 
ATOM     24  H   LIG d   1       3.160  -5.265  -6.180  0.00  0.00     0.059 H 
BRANCH  22  25
ATOM     25  O   LIG d   1       4.541  -6.573  -5.373  0.00  0.00    -0.365 OA
BRANCH  25  26
ATOM     26  P   LIG d   1       4.857  -8.124  -5.670  0.00  0.00    -0.015 P 
ATOM     27  O   LIG d   1       6.321  -8.337  -5.680  0.00  0.00    -0.638 OA
ATOM     28  O   LIG d   1       4.188  -9.037  -4.524  0.00  0.00    -0.577 OA
ATOM     29  O   LIG d   1       4.246  -8.531  -7.103  0.00  0.00    -0.577 OA
ENDBRANCH  25  26
ENDBRANCH  22  25
ENDBRANCH   6  22
BRANCH   4  30
ATOM     30  O   LIG d   1       7.279  -5.432  -5.642  0.00  0.00    -0.389 OA
ATOM     31  H   LIG d   1       8.010  -5.423  -5.010  0.00  0.00     0.210 HD
ENDBRANCH   4  30
TORSDOF 5
ENDMDL
MODEL 2
REMARK VINA RESULT:      -5.6      3.500      6.400
REMARK  5 active torsions:
REMARK  status: ('A' for Active; 'I' for Inactive)
REMARK    1  A    between atoms: N_9  and  C_10 
REMARK    2  A    between atoms: C_13  and  O_22 
REMARK    3  A    between atoms: C_15  and  C_18 
REMARK    4  A    between atoms: C_18  and  O_19 
REMARK    5  A    between atoms: O_19  and  P_20 
ROOT
ATOM      1  C   LIG d   1       5.094  -3.775  -4.888  0.00  0.00     0.142 C 
ATOM      2  H   LIG d   1       5.121  -4.796  -4.505  0.00  0.00     0.084 H 
ATOM      3  C   LIG d   1       6.517  -3.185  -4.907  0.00  0.00     0.021 C 
ATOM      4  C   LIG d   1       6.444  -1.987  -3.929  0.00  0.00     0.088 C 
ATOM      5  H   LIG d   1       6.289  -1.053  -4.468  0.00  0.00     0.062 H 
ATOM      6  C   LIG d   1       5.204  -2.344  -3.071  0.00  0.00     0.111 C 
ATOM      7  H   LIG d   1       5.468  -3.055  -2.286  0.00  0.00     0.065 H 
ATOM      8  O   LIG d   1       4.300  -2.949  -4.021  0.00  0.00    -0.348 OA
ATOM      9  H   LIG d   1       7.240  -3.921  -4.557  0.00  0.00     0.034 H 
ATOM     10  H   LIG d   1       6.775  -2.843  -5.910  0.00  0.00     0.034 H 
ENDROOT
BRANCH   1  11
ATOM     11  N   LIG d   1       4.531  -3.763  -6.240  0.00  0.00    -0.271 N 
ATOM     12  C   LIG d   1       4.708  -2.665  -7.041  0.00  0.00     0.052 A 
ATOM     13  C   LIG d   1       4.189  -2.656  -8.288  0.00  0.00     0.204 A 
ATOM     14  H   LIG d   1       5.260  -1.811  -6.676  0.00  0.00     0.084 H 
ATOM     15  C   LIG d   1       3.469  -3.788  -8.742  0.00  0.00     0.289 A 
ATOM     16  F   LIG d   1       4.354  -1.582  -9.090  0.00  0.00    -0.198 F 
ATOM     17  O   LIG d   1       2.991  -3.804  -9.862  0.00  0.00    -0.265 OA
ATOM     18  N   LIG d   1       3.317  -4.849  -7.923  0.00  0.00    -0.273 N 
ATOM     19  H   LIG d   1       2.814  -5.654  -8.239  0.00  0.00     0.173 HD
ATOM     20  C   LIG d   1       3.840  -4.830  -6.683  0.00  0.00     0.332 A 
ATOM     21  O   LIG d   1       3.691  -5.792  -5.955  0.00  0.00    -0.246 OA
ENDBRANCH   1  11
BRANCH   6  22
ATOM     22  C   LIG d   1       4.586  -1.082  -2.467  0.00  0.00     0.080 C 
ATOM     23  H   LIG d   1       5.279  -0.249  -2.578  0.00  0.00     0.059 H 
ATOM     24  H   LIG d   1       4.384  -1.248  -1.408  0.00  0.00     0.059 H 
BRANCH  22  25
ATOM     25  O   LIG d   1       3.363  -0.780  -3.142  0.00  0.00    -0.365 OA
BRANCH  25  26
ATOM     26  P   LIG d   1       3.225   0.415  -4.212  0.00  0.00    -0.015 P 
ATOM     27  O   LIG d   1       4.259   0.262  -5.259  0.00  0.00    -0.638 OA
ATOM     28  O   LIG d   1       1.764   0.364  -4.887  0.00  0.00    -0.577 OA
ATOM     29  O   LIG d   1       3.421   1.828  -3.465  0.00  0.00    -0.577 OA
ENDBRANCH  25  26
ENDBRANCH  22  25
ENDBRANCH   6  22
BRANCH   4  30
ATOM     30  O   LIG d   1       7.622  -1.918  -3.121  0.00  0.00    -0.389 OA
ATOM     31  H   LIG d   1       7.502  -2.257  -2.223  0.00  0.00     0.210 HD
ENDBRANCH   4  30
TORSDOF 5
ENDMDL
MODEL 3
REMARK VINA RESULT:      -5.4      1.840      2.234
REMARK  5 active torsions:
REMARK  status: ('A' for Active; 'I' for Inactive)
REMARK    1  A    between atoms: N_9  and  C_10 
REMARK    2  A    between atoms: C_13  and  O_22 
REMARK    3  A    between atoms: C_15  and  C_18 
REMARK    4  A    between atoms: C_18  and  O_19 
REMARK    5  A    between atoms: O_19  and  P_20 
ROOT
ATOM      1  C   LIG d   1       7.120  -1.271  -4.600  0.00  0.00     0.142 C 
ATOM      2  H   LIG d   1       7.896  -0.576  -4.926  0.00  0.00     0.084 H 
ATOM      3  C   LIG d   1       7.729  -2.338  -3.671  0.00  0.00     0.021 C 
ATOM      4  C   LIG d   1       7.508  -3.670  -4.427  0.00  0.00     0.088 C 
ATOM      5  H   LIG d   1       6.616  -4.181  -4.064  0.00  0.00     0.062 H 
ATOM      6  C   LIG d   1       7.311  -3.186  -5.887  0.00  0.00     0.111 C 
ATOM      7  H   LIG d   1       8.274  -2.998  -6.364  0.00  0.00     0.065 H 
ATOM      8  O   LIG d   1       6.569  -1.956  -5.736  0.00  0.00    -0.348 OA
ATOM      9  H   LIG d   1       8.793  -2.154  -3.524  0.00  0.00     0.034 H 
ATOM     10  H   LIG d   1       7.208  -2.352  -2.713  0.00  0.00     0.034 H 
ENDROOT
BRANCH   1  11
ATOM     11  N   LIG d   1       6.061  -0.542  -3.896  0.00  0.00    -0.271 N 
ATOM     12  C   LIG d   1       4.935  -1.208  -3.488  0.00  0.00     0.052 A 
ATOM     13  C   LIG d   1       3.960  -0.536  -2.838  0.00  0.00     0.204 A 
ATOM     14  H   LIG d   1       4.828  -2.265  -3.684  0.00  0.00     0.084 H 
ATOM     15  C   LIG d   1       4.125   0.850  -2.593  0.00  0.00     0.289 A 
ATOM     16  F   LIG d   1       2.843  -1.176  -2.428  0.00  0.00    -0.198 F 
ATOM     17  O   LIG d   1       3.260   1.479  -2.010  0.00  0.00    -0.265 OA
ATOM     18  N   LIG d   1       5.248   1.467  -3.012  0.00  0.00    -0.273 N 
ATOM     19  H   LIG d   1       5.374   2.444  -2.838  0.00  0.00     0.173 HD
ATOM     20  C   LIG d   1       6.202   0.775  -3.662  0.00  0.00     0.332 A 
ATOM     21  O   LIG d   1       7.207   1.346  -4.037  0.00  0.00    -0.246 OA
ENDBRANCH   1  11
BRANCH   6  22
ATOM     22  C   LIG d   1       6.504  -4.208  -6.689  0.00  0.00     0.080 C 
ATOM     23  H   LIG d   1       7.155  -4.700  -7.411  0.00  0.00     0.059 H 
ATOM     24  H   LIG d   1       5.696  -3.699  -7.216  0.00  0.00     0.059 H 
BRANCH  22  25
ATOM     25  O   LIG d   1       5.952  -5.183  -5.802  0.00  0.00    -0.365 OA
BRANCH  25  26
ATOM     26  P   LIG d   1       4.726  -6.144  -6.208  0.00  0.00    -0.015 P 
ATOM     27  O   LIG d   1       4.642  -7.268  -5.250  0.00  0.00    -0.638 OA
ATOM     28  O   LIG d   1       3.352  -5.304  -6.174  0.00  0.00    -0.577 OA
ATOM     29  O   LIG d   1       4.965  -6.720  -7.692  0.00  0.00    -0.577 OA
ENDBRANCH  25  26
ENDBRANCH  22  25
ENDBRANCH   6  22
BRANCH   4  30
ATOM     30  O   LIG d   1       8.657  -4.514  -4.320  0.00  0.00    -0.389 OA
ATOM     31  H   LIG d   1       9.495  -4.034  -4.291  0.00  0.00     0.210 HD
ENDBRANCH   4  30
TORSDOF 5
ENDMDL
MODEL 4
REMARK VINA RESULT:      -5.2      4.247      5.994
REMARK  5 active torsions:
REMARK  status: ('A' for Active; 'I' for Inactive)
REMARK    1  A    between atoms: N_9  and  C_10 
REMARK    2  A    between atoms: C_13  and  O_22 
REMARK    3  A    between atoms: C_15  and  C_18 
REMARK    4  A    between atoms: C_18  and  O_19 
REMARK    5  A    between atoms: O_19  and  P_20 
ROOT
ATOM      1  C   LIG d   1       6.912  -0.186  -5.491  0.00  0.00     0.142 C 
ATOM      2  H   LIG d   1       7.904   0.083  -5.124  0.00  0.00     0.084 H 
ATOM      3  C   LIG d   1       6.846  -1.702  -5.759  0.00  0.00     0.021 C 
ATOM      4  C   LIG d   1       6.581  -1.807  -7.280  0.00  0.00     0.088 C 
ATOM      5  H   LIG d   1       5.520  -1.950  -7.481  0.00  0.00     0.062 H 
ATOM      6  C   LIG d   1       7.059  -0.424  -7.790  0.00  0.00     0.111 C 
ATOM      7  H   LIG d   1       8.143  -0.411  -7.912  0.00  0.00     0.065 H 
ATOM      8  O   LIG d   1       6.656   0.480  -6.737  0.00  0.00    -0.348 OA
ATOM      9  H   LIG d   1       7.794  -2.177  -5.502  0.00  0.00     0.034 H 
ATOM     10  H   LIG d   1       6.029  -2.154  -5.196  0.00  0.00     0.034 H 
ENDROOT
BRANCH   1  11
ATOM     11  N   LIG d   1       5.895   0.191  -4.506  0.00  0.00    -0.271 N 
ATOM     12  C   LIG d   1       4.616  -0.285  -4.634  0.00  0.00     0.052 A 
ATOM     13  C   LIG d   1       3.680   0.062  -3.724  0.00  0.00     0.204 A 
ATOM     14  H   LIG d   1       4.359  -0.935  -5.457  0.00  0.00     0.084 H 
ATOM     15  C   LIG d   1       4.044   0.916  -2.653  0.00  0.00     0.289 A 
ATOM     16  F   LIG d   1       2.415  -0.397  -3.835  0.00  0.00    -0.198 F 
ATOM     17  O   LIG d   1       3.218   1.244  -1.821  0.00  0.00    -0.265 OA
ATOM     18  N   LIG d   1       5.313   1.362  -2.564  0.00  0.00    -0.273 N 
ATOM     19  H   LIG d   1       5.578   1.961  -1.808  0.00  0.00     0.173 HD
ATOM     20  C   LIG d   1       6.225   1.005  -3.487  0.00  0.00     0.332 A 
ATOM     21  O   LIG d   1       7.365   1.419  -3.395  0.00  0.00    -0.246 OA
ENDBRANCH   1  11
BRANCH   6  22
ATOM     22  C   LIG d   1       6.365  -0.064  -9.104  0.00  0.00     0.080 C 
ATOM     23  H   LIG d   1       6.346  -0.938  -9.755  0.00  0.00     0.059 H 
ATOM     24  H   LIG d   1       6.912   0.743  -9.594  0.00  0.00     0.059 H 
BRANCH  22  25
ATOM     25  O   LIG d   1       5.028   0.361  -8.837  0.00  0.00    -0.365 OA
BRANCH  25  26
ATOM     26  P   LIG d   1       4.450   1.788  -9.310  0.00  0.00    -0.015 P 
ATOM     27  O   LIG d   1       5.543   2.784  -9.319  0.00  0.00    -0.638 OA
ATOM     28  O   LIG d   1       3.834   1.651 -10.792  0.00  0.00    -0.577 OA
ATOM     29  O   LIG d   1       3.297   2.264  -8.292  0.00  0.00    -0.577 OA
ENDBRANCH  25  26
ENDBRANCH  22  25
ENDBRANCH   6  22
BRANCH   4  30
ATOM     30  O   LIG d   1       7.354  -2.860  -7.861  0.00  0.00    -0.389 OA
ATOM     31  H   LIG d   1       8.191  -3.029  -7.406  0.00  0.00     0.210 HD
ENDBRANCH   4  30
TORSDOF 5
ENDMDL
MODEL 5
REMARK VINA RESULT:      -5.1     13.356     14.999
REMARK  5 active torsions:
REMARK  status: ('A' for Active; 'I' for Inactive)
REMARK    1  A    between atoms: N_9  and  C_10 
REMARK    2  A    between atoms: C_13  and  O_22 
REMARK    3  A    between atoms: C_15  and  C_18 
REMARK    4  A    between atoms: C_18  and  O_19 
REMARK    5  A    between atoms: O_19  and  P_20 
ROOT
ATOM      1  C   LIG d   1      10.233  11.072  -3.795  0.00  0.00     0.142 C 
ATOM      2  H   LIG d   1      10.483  12.128  -3.908  0.00  0.00     0.084 H 
ATOM      3  C   LIG d   1       9.022  10.918  -2.856  0.00  0.00     0.021 C 
ATOM      4  C   LIG d   1       9.573  10.110  -1.655  0.00  0.00     0.088 C 
ATOM      5  H   LIG d   1       9.345   9.050  -1.761  0.00  0.00     0.062 H 
ATOM      6  C   LIG d   1      11.098  10.362  -1.768  0.00  0.00     0.111 C 
ATOM      7  H   LIG d   1      11.365  11.324  -1.329  0.00  0.00     0.065 H 
ATOM      8  O   LIG d   1      11.333  10.371  -3.193  0.00  0.00    -0.348 OA
ATOM      9  H   LIG d   1       8.666  11.895  -2.528  0.00  0.00     0.034 H 
ATOM     10  H   LIG d   1       8.222  10.367  -3.351  0.00  0.00     0.034 H 
ENDROOT
BRANCH   1  11
ATOM     11  N   LIG d   1       9.926  10.489  -5.104  0.00  0.00    -0.271 N 
ATOM     12  C   LIG d   1       9.730   9.137  -5.216  0.00  0.00     0.052 A 
ATOM     13  C   LIG d   1       9.447   8.600  -6.422  0.00  0.00     0.204 A 
ATOM     14  H   LIG d   1       9.801   8.503  -4.343  0.00  0.00     0.084 H 
ATOM     15  C   LIG d   1       9.359   9.452  -7.551  0.00  0.00     0.289 A 
ATOM     16  F   LIG d   1       9.250   7.270  -6.551  0.00  0.00    -0.198 F 
ATOM     17  O   LIG d   1       9.105   8.993  -8.650  0.00  0.00    -0.265 OA
ATOM     18  N   LIG d   1       9.559  10.777  -7.398  0.00  0.00    -0.273 N 
ATOM     19  H   LIG d   1       9.494  11.385  -8.190  0.00  0.00     0.173 HD
ATOM     20  C   LIG d   1       9.845  11.285  -6.185  0.00  0.00     0.332 A 
ATOM     21  O   LIG d   1      10.028  12.481  -6.064  0.00  0.00    -0.246 OA
ENDBRANCH   1  11
BRANCH   6  22
ATOM     22  C   LIG d   1      11.882   9.230  -1.100  0.00  0.00     0.080 C 
ATOM     23  H   LIG d   1      12.852   9.604  -0.773  0.00  0.00     0.059 H 
ATOM     24  H   LIG d   1      12.026   8.418  -1.814  0.00  0.00     0.059 H 
BRANCH  22  25
ATOM     25  O   LIG d   1      11.152   8.747   0.029  0.00  0.00    -0.365 OA
BRANCH  25  26
ATOM     26  P   LIG d   1      11.384   7.285   0.664  0.00  0.00    -0.015 P 
ATOM     27  O   LIG d   1      11.322   7.373   2.139  0.00  0.00    -0.638 OA
ATOM     28  O   LIG d   1      10.240   6.283   0.135  0.00  0.00    -0.577 OA
ATOM     29  O   LIG d   1      12.830   6.732   0.219  0.00  0.00    -0.577 OA
ENDBRANCH  25  26
ENDBRANCH  22  25
ENDBRANCH   6  22
BRANCH   4  30
ATOM     30  O   LIG d   1       9.062  10.619  -0.421  0.00  0.00    -0.389 OA
ATOM     31  H   LIG d   1       8.778  11.543  -0.464  0.00  0.00     0.210 HD
ENDBRANCH   4  30
TORSDOF 5
ENDMDL
MODEL 6
REMARK VINA RESULT:      -5.0     11.861     14.926
REMARK  5 active torsions:
REMARK  status: ('A' for Active; 'I' for Inactive)
REMARK    1  A    between atoms: N_9  and  C_10 
REMARK    2  A    between atoms: C_13  and  O_22 
REMARK    3  A    between atoms: C_15  and  C_18 
REMARK    4  A    between atoms: C_18  and  O_19 
REMARK    5  A    between atoms: O_19  and  P_20 
ROOT
ATOM      1  C   LIG d   1      10.459   7.515  -5.816  0.00  0.00     0.142 C 
ATOM      2  H   LIG d   1      10.851   6.585  -6.230  0.00  0.00     0.084 H 
ATOM      3  C   LIG d   1       9.119   7.865  -6.490  0.00  0.00     0.021 C 
ATOM      4  C   LIG d   1       9.392   9.211  -7.203  0.00  0.00     0.088 C 
ATOM      5  H   LIG d   1       9.052  10.050  -6.595  0.00  0.00     0.062 H 
ATOM      6  C   LIG d   1      10.937   9.207  -7.323  0.00  0.00     0.111 C 
ATOM      7  H   LIG d   1      11.257   8.612  -8.180  0.00  0.00     0.065 H 
ATOM      8  O   LIG d   1      11.369   8.593  -6.089  0.00  0.00    -0.348 OA
ATOM      9  H   LIG d   1       8.844   7.098  -7.214  0.00  0.00     0.034 H 
ATOM     10  H   LIG d   1       8.334   7.982  -5.741  0.00  0.00     0.034 H 
ENDROOT
BRANCH   1  11
ATOM     11  N   LIG d   1      10.269   7.377  -4.370  0.00  0.00    -0.271 N 
ATOM     12  C   LIG d   1      10.224   8.497  -3.580  0.00  0.00     0.052 A 
ATOM     13  C   LIG d   1      10.048   8.369  -2.248  0.00  0.00     0.204 A 
ATOM     14  H   LIG d   1      10.328   9.478  -4.023  0.00  0.00     0.084 H 
ATOM     15  C   LIG d   1       9.913   7.072  -1.693  0.00  0.00     0.289 A 
ATOM     16  F   LIG d   1      10.001   9.462  -1.455  0.00  0.00    -0.198 F 
ATOM     17  O   LIG d   1       9.754   6.930  -0.493  0.00  0.00    -0.265 OA
ATOM     18  N   LIG d   1       9.964   5.996  -2.503  0.00  0.00    -0.273 N 
ATOM     19  H   LIG d   1       9.864   5.078  -2.119  0.00  0.00     0.173 HD
ATOM     20  C   LIG d   1      10.145   6.152  -3.828  0.00  0.00     0.332 A 
ATOM     21  O   LIG d   1      10.193   5.172  -4.546  0.00  0.00    -0.246 OA
ENDBRANCH   1  11
BRANCH   6  22
ATOM     22  C   LIG d   1      11.474  10.635  -7.430  0.00  0.00     0.080 C 
ATOM     23  H   LIG d   1      12.367  10.642  -8.054  0.00  0.00     0.059 H 
ATOM     24  H   LIG d   1      11.722  11.005  -6.435  0.00  0.00     0.059 H 
BRANCH  22  25
ATOM     25  O   LIG d   1      10.477  11.476  -8.015  0.00  0.00    -0.365 OA
BRANCH  25  26
ATOM     26  P   LIG d   1      10.110  12.933  -7.437  0.00  0.00    -0.015 P 
ATOM     27  O   LIG d   1       9.073  13.555  -8.290  0.00  0.00    -0.638 OA
ATOM     28  O   LIG d   1       9.553  12.789  -5.933  0.00  0.00    -0.577 OA
ATOM     29  O   LIG d   1      11.429  13.857  -7.434  0.00  0.00    -0.577 OA
ENDBRANCH  25  26
ENDBRANCH  22  25
ENDBRANCH   6  22
BRANCH   4  30
ATOM     30  O   LIG d   1       8.780   9.238  -8.494  0.00  0.00    -0.389 OA
ATOM     31  H   LIG d   1       7.947   8.749  -8.544  0.00  0.00     0.210 HD
ENDBRANCH   4  30
TORSDOF 5
ENDMDL
MODEL 7
REMARK VINA RESULT:      -5.0      4.468      6.439
REMARK  5 active torsions:
REMARK  status: ('A' for Active; 'I' for Inactive)
REMARK    1  A    between atoms: N_9  and  C_10 
REMARK    2  A    between atoms: C_13  and  O_22 
REMARK    3  A    between atoms: C_15  and  C_18 
REMARK    4  A    between atoms: C_18  and  O_19 
REMARK    5  A    between atoms: O_19  and  P_20 
ROOT
ATOM      1  C   LIG d   1       5.297  -1.928  -6.938  0.00  0.00     0.142 C 
ATOM      2  H   LIG d   1       5.239  -2.916  -7.398  0.00  0.00     0.084 H 
ATOM      3  C   LIG d   1       6.732  -1.665  -6.442  0.00  0.00     0.021 C 
ATOM      4  C   LIG d   1       6.581  -1.509  -4.910  0.00  0.00     0.088 C 
ATOM      5  H   LIG d   1       6.528  -0.457  -4.629  0.00  0.00     0.062 H 
ATOM      6  C   LIG d   1       5.230  -2.221  -4.642  0.00  0.00     0.111 C 
ATOM      7  H   LIG d   1       5.368  -3.301  -4.585  0.00  0.00     0.065 H 
ATOM      8  O   LIG d   1       4.431  -1.870  -5.793  0.00  0.00    -0.348 OA
ATOM      9  H   LIG d   1       7.378  -2.511  -6.678  0.00  0.00     0.034 H 
ATOM     10  H   LIG d   1       7.126  -0.749  -6.883  0.00  0.00     0.034 H 
ENDROOT
BRANCH   1  11
ATOM     11  N   LIG d   1       4.909  -0.902  -7.909  0.00  0.00    -0.271 N 
ATOM     12  C   LIG d   1       5.587   0.289  -7.946  0.00  0.00     0.052 A 
ATOM     13  C   LIG d   1       5.229   1.234  -8.842  0.00  0.00     0.204 A 
ATOM     14  H   LIG d   1       6.404   0.471  -7.262  0.00  0.00     0.084 H 
ATOM     15  C   LIG d   1       4.155   0.971  -9.728  0.00  0.00     0.289 A 
ATOM     16  F   LIG d   1       5.886   2.413  -8.892  0.00  0.00    -0.198 F 
ATOM     17  O   LIG d   1       3.812   1.808 -10.545  0.00  0.00    -0.265 OA
ATOM     18  N   LIG d   1       3.514  -0.213  -9.659  0.00  0.00    -0.273 N 
ATOM     19  H   LIG d   1       2.758  -0.407 -10.284  0.00  0.00     0.173 HD
ATOM     20  C   LIG d   1       3.888  -1.135  -8.753  0.00  0.00     0.332 A 
ATOM     21  O   LIG d   1       3.297  -2.197  -8.700  0.00  0.00    -0.246 OA
ENDBRANCH   1  11
BRANCH   6  22
ATOM     22  C   LIG d   1       4.587  -1.692  -3.359  0.00  0.00     0.080 C 
ATOM     23  H   LIG d   1       4.440  -2.515  -2.661  0.00  0.00     0.059 H 
ATOM     24  H   LIG d   1       3.624  -1.239  -3.596  0.00  0.00     0.059 H 
BRANCH  22  25
ATOM     25  O   LIG d   1       5.441  -0.712  -2.767  0.00  0.00    -0.365 OA
BRANCH  25  26
ATOM     26  P   LIG d   1       5.070   0.854  -2.709  0.00  0.00    -0.015 P 
ATOM     27  O   LIG d   1       4.757   1.236  -1.314  0.00  0.00    -0.638 OA
ATOM     28  O   LIG d   1       6.321   1.721  -3.236  0.00  0.00    -0.577 OA
ATOM     29  O   LIG d   1       3.790   1.137  -3.644  0.00  0.00    -0.577 OA
ENDBRANCH  25  26
ENDBRANCH  22  25
ENDBRANCH   6  22
BRANCH   4  30
ATOM     30  O   LIG d   1       7.649  -2.165  -4.222  0.00  0.00    -0.389 OA
ATOM     31  H   LIG d   1       8.288  -2.593  -4.808  0.00  0.00     0.210 HD
ENDBRANCH   4  30
TORSDOF 5
ENDMDL
MODEL 8
REMARK VINA RESULT:      -5.0      7.245      8.695
REMARK  5 active torsions:
REMARK  status: ('A' for Active; 'I' for Inactive)
REMARK    1  A    between atoms: N_9  and  C_10 
REMARK    2  A    between atoms: C_13  and  O_22 
REMARK    3  A    between atoms: C_15  and  C_18 
REMARK    4  A    between atoms: C_18  and  O_19 
REMARK    5  A    between atoms: O_19  and  P_20 
ROOT
ATOM      1  C   LIG d   1      10.494   4.307  -4.196  0.00  0.00     0.142 C 
ATOM      2  H   LIG d   1      11.211   4.704  -4.916  0.00  0.00     0.084 H 
ATOM      3  C   LIG d   1      11.088   3.073  -3.491  0.00  0.00     0.021 C 
ATOM      4  C   LIG d   1      10.142   1.915  -3.891  0.00  0.00     0.088 C 
ATOM      5  H   LIG d   1       9.403   1.729  -3.112  0.00  0.00     0.062 H 
ATOM      6  C   LIG d   1       9.468   2.474  -5.170  0.00  0.00     0.111 C 
ATOM      7  H   LIG d   1      10.113   2.336  -6.039  0.00  0.00     0.065 H 
ATOM      8  O   LIG d   1       9.304   3.879  -4.878  0.00  0.00    -0.348 OA
ATOM      9  H   LIG d   1      12.100   2.880  -3.847  0.00  0.00     0.034 H 
ATOM     10  H   LIG d   1      11.084   3.213  -2.409  0.00  0.00     0.034 H 
ENDROOT
BRANCH   1  11
ATOM     11  N   LIG d   1      10.159   5.334  -3.206  0.00  0.00    -0.271 N 
ATOM     12  C   LIG d   1      10.494   5.145  -1.891  0.00  0.00     0.052 A 
ATOM     13  C   LIG d   1      10.186   6.093  -0.979  0.00  0.00     0.204 A 
ATOM     14  H   LIG d   1      11.003   4.242  -1.585  0.00  0.00     0.084 H 
ATOM     15  C   LIG d   1       9.518   7.267  -1.406  0.00  0.00     0.289 A 
ATOM     16  F   LIG d   1      10.509   5.923   0.321  0.00  0.00    -0.198 F 
ATOM     17  O   LIG d   1       9.229   8.136  -0.604  0.00  0.00    -0.265 OA
ATOM     18  N   LIG d   1       9.206   7.415  -2.710  0.00  0.00    -0.273 N 
ATOM     19  H   LIG d   1       8.739   8.244  -3.019  0.00  0.00     0.173 HD
ATOM     20  C   LIG d   1       9.520   6.452  -3.597  0.00  0.00     0.332 A 
ATOM     21  O   LIG d   1       9.228   6.598  -4.768  0.00  0.00    -0.246 OA
ENDBRANCH   1  11
BRANCH   6  22
ATOM     22  C   LIG d   1       8.109   1.809  -5.398  0.00  0.00     0.080 C 
ATOM     23  H   LIG d   1       8.085   1.365  -6.393  0.00  0.00     0.059 H 
ATOM     24  H   LIG d   1       7.321   2.557  -5.314  0.00  0.00     0.059 H 
BRANCH  22  25
ATOM     25  O   LIG d   1       7.906   0.791  -4.416  0.00  0.00    -0.365 OA
BRANCH  25  26
ATOM     26  P   LIG d   1       6.450   0.385  -3.862  0.00  0.00    -0.015 P 
ATOM     27  O   LIG d   1       6.563  -0.825  -3.019  0.00  0.00    -0.638 OA
ATOM     28  O   LIG d   1       5.852   1.597  -2.987  0.00  0.00    -0.577 OA
ATOM     29  O   LIG d   1       5.469   0.086  -5.103  0.00  0.00    -0.577 OA
ENDBRANCH  25  26
ENDBRANCH  22  25
ENDBRANCH   6  22
BRANCH   4  30
ATOM     30  O   LIG d   1      10.884   0.728  -4.182  0.00  0.00    -0.389 OA
ATOM     31  H   LIG d   1      10.824   0.050  -3.496  0.00  0.00     0.210 HD
ENDBRANCH   4  30
TORSDOF 5
ENDMDL
MODEL 9
REMARK VINA RESULT:      -4.9      4.016      5.472
REMARK  5 active torsions:
REMARK  status: ('A' for Active; 'I' for Inactive)
REMARK    1  A    between atoms: N_9  and  C_10 
REMARK    2  A    between atoms: C_13  and  O_22 
REMARK    3  A    between atoms: C_15  and  C_18 
REMARK    4  A    between atoms: C_18  and  O_19 
REMARK    5  A    between atoms: O_19  and  P_20 
ROOT
ATOM      1  C   LIG d   1       5.557  -0.605  -6.301  0.00  0.00     0.142 C 
ATOM      2  H   LIG d   1       6.627  -0.655  -6.509  0.00  0.00     0.084 H 
ATOM      3  C   LIG d   1       4.917  -1.991  -6.508  0.00  0.00     0.021 C 
ATOM      4  C   LIG d   1       3.908  -1.774  -7.662  0.00  0.00     0.088 C 
ATOM      5  H   LIG d   1       2.903  -1.614  -7.275  0.00  0.00     0.062 H 
ATOM      6  C   LIG d   1       4.454  -0.489  -8.334  0.00  0.00     0.111 C 
ATOM      7  H   LIG d   1       5.278  -0.725  -9.009  0.00  0.00     0.065 H 
ATOM      8  O   LIG d   1       4.923   0.301  -7.218  0.00  0.00    -0.348 OA
ATOM      9  H   LIG d   1       5.674  -2.722  -6.794  0.00  0.00     0.034 H 
ATOM     10  H   LIG d   1       4.400  -2.312  -5.604  0.00  0.00     0.034 H 
ENDROOT
BRANCH   1  11
ATOM     11  N   LIG d   1       5.336  -0.155  -4.924  0.00  0.00    -0.271 N 
ATOM     12  C   LIG d   1       4.091  -0.270  -4.363  0.00  0.00     0.052 A 
ATOM     13  C   LIG d   1       3.889   0.144  -3.093  0.00  0.00     0.204 A 
ATOM     14  H   LIG d   1       3.275  -0.690  -4.934  0.00  0.00     0.084 H 
ATOM     15  C   LIG d   1       4.975   0.691  -2.367  0.00  0.00     0.289 A 
ATOM     16  F   LIG d   1       2.668   0.039  -2.525  0.00  0.00    -0.198 F 
ATOM     17  O   LIG d   1       4.818   1.073  -1.221  0.00  0.00    -0.265 OA
ATOM     18  N   LIG d   1       6.184   0.787  -2.955  0.00  0.00    -0.273 N 
ATOM     19  H   LIG d   1       6.957   1.168  -2.447  0.00  0.00     0.173 HD
ATOM     20  C   LIG d   1       6.357   0.371  -4.224  0.00  0.00     0.332 A 
ATOM     21  O   LIG d   1       7.453   0.468  -4.742  0.00  0.00    -0.246 OA
ENDBRANCH   1  11
BRANCH   6  22
ATOM     22  C   LIG d   1       3.339   0.244  -9.082  0.00  0.00     0.080 C 
ATOM     23  H   LIG d   1       3.747   1.134  -9.560  0.00  0.00     0.059 H 
ATOM     24  H   LIG d   1       2.560   0.534  -8.376  0.00  0.00     0.059 H 
BRANCH  22  25
ATOM     25  O   LIG d   1       2.784  -0.620 -10.075  0.00  0.00    -0.365 OA
BRANCH  25  26
ATOM     26  P   LIG d   1       3.458  -0.839 -11.521  0.00  0.00    -0.015 P 
ATOM     27  O   LIG d   1       4.163   0.396 -11.930  0.00  0.00    -0.638 OA
ATOM     28  O   LIG d   1       4.508  -2.058 -11.445  0.00  0.00    -0.577 OA
ATOM     29  O   LIG d   1       2.313  -1.185 -12.599  0.00  0.00    -0.577 OA
ENDBRANCH  25  26
ENDBRANCH  22  25
ENDBRANCH   6  22
BRANCH   4  30
ATOM     30  O   LIG d   1       3.932  -2.876  -8.574  0.00  0.00    -0.389 OA
ATOM     31  H   LIG d   1       4.477  -2.724  -9.358  0.00  0.00     0.210 HD
ENDBRANCH   4  30
TORSDOF 5
ENDMDL
