MODEL 1
REMARK VINA RESULT:      -6.7      0.000      0.000
REMARK  20 active torsions:
REMARK  status: ('A' for Active; 'I' for Inactive)
REMARK    1  A    between atoms: C_1  and  O_2 
REMARK    2  A    between atoms: O_2  and  C_3 
REMARK    3  A    between atoms: C_5  and  C_10 
REMARK    4  A    between atoms: C_8  and  O_9 
REMARK    5  A    between atoms: C_10  and  C_11 
REMARK    6  A    between atoms: C_11  and  C_13 
REMARK    7  A    between atoms: C_11  and  C_31 
REMARK    8  A    between atoms: C_13  and  O_14 
REMARK    9  A    between atoms: O_14  and  C_15 
REMARK   10  A    between atoms: C_17  and  O_30 
REMARK   11  A    between atoms: C_19  and  O_29 
REMARK   12  A    between atoms: C_21  and  O_28 
REMARK   13  A    between atoms: C_23  and  C_26 
REMARK   14  A    between atoms: C_26  and  O_27 
REMARK   15  A    between atoms: C_33  and  C_40 
REMARK   16  A    between atoms: C_35  and  O_38 
REMARK   17  A    between atoms: C_36  and  O_37 
REMARK   18  A    between atoms: O_38  and  C_39 
REMARK   19  A    between atoms: C_41  and  C_42 
REMARK   20  A    between atoms: C_42  and  O_43 
ROOT
ATOM      1  C   LIG d   1       5.115  -4.166  -5.370  0.00  0.00     0.015 C 
ATOM      2  H   LIG d   1       4.187  -4.228  -4.802  0.00  0.00     0.037 H 
ENDROOT
BRANCH   1   3
ATOM      3  C   LIG d   1       6.148  -3.363  -4.574  0.00  0.00    -0.018 C 
ATOM      4  H   LIG d   1       6.891  -2.951  -5.256  0.00  0.00     0.032 H 
ATOM      5  H   LIG d   1       6.637  -4.017  -3.853  0.00  0.00     0.032 H 
BRANCH   3   6
ATOM      6  C   LIG d   1       5.457  -2.239  -3.846  0.00  0.00    -0.043 A 
ATOM      7  C   LIG d   1       6.033  -0.982  -3.813  0.00  0.00    -0.013 A 
ATOM      8  C   LIG d   1       5.399   0.053  -3.145  0.00  0.00     0.162 A 
ATOM      9  H   LIG d   1       6.977  -0.807  -4.308  0.00  0.00     0.066 H 
ATOM     10  C   LIG d   1       4.186  -0.177  -2.503  0.00  0.00     0.159 A 
ATOM     11  C   LIG d   1       3.611  -1.437  -2.545  0.00  0.00    -0.016 A 
ATOM     12  C   LIG d   1       4.249  -2.465  -3.214  0.00  0.00    -0.055 A 
ATOM     13  H   LIG d   1       2.667  -1.617  -2.053  0.00  0.00     0.066 H 
ATOM     14  H   LIG d   1       3.802  -3.448  -3.242  0.00  0.00     0.062 H 
BRANCH   8  15
ATOM     15  O   LIG d   1       5.965   1.289  -3.111  0.00  0.00    -0.491 OA
BRANCH  15  16
ATOM     16  C   LIG d   1       7.245   1.434  -3.729  0.00  0.00     0.079 C 
ATOM     17  H   LIG d   1       7.468   2.492  -3.860  0.00  0.00     0.066 H 
ATOM     18  H   LIG d   1       8.007   0.978  -3.096  0.00  0.00     0.066 H 
ATOM     19  H   LIG d   1       7.237   0.941  -4.701  0.00  0.00     0.066 H 
ENDBRANCH  15  16
ENDBRANCH   8  15
BRANCH  10  20
ATOM     20  O   LIG d   1       3.563   0.835  -1.842  0.00  0.00    -0.503 OA
ATOM     21  H   LIG d   1       3.167   0.570  -1.000  0.00  0.00     0.292 HD
ENDBRANCH  10  20
ENDBRANCH   3   6
ENDBRANCH   1   3
BRANCH   1  22
ATOM     22  C   LIG d   1       5.653  -5.575  -5.626  0.00  0.00     0.058 C 
ATOM     23  H   LIG d   1       5.937  -5.670  -6.674  0.00  0.00     0.057 H 
ATOM     24  H   LIG d   1       6.525  -5.752  -4.996  0.00  0.00     0.057 H 
BRANCH  22  25
ATOM     25  O   LIG d   1       4.640  -6.534  -5.317  0.00  0.00    -0.348 OA
BRANCH  25  26
ATOM     26  C   LIG d   1       5.140  -7.852  -5.084  0.00  0.00     0.188 C 
ATOM     27  H   LIG d   1       6.018  -7.799  -4.439  0.00  0.00     0.094 H 
ATOM     28  O   LIG d   1       4.131  -8.640  -4.450  0.00  0.00    -0.341 OA
ATOM     29  C   LIG d   1       4.537  -9.976  -4.146  0.00  0.00     0.113 C 
ATOM     30  C   LIG d   1       4.897 -10.705  -5.443  0.00  0.00     0.112 C 
ATOM     31  H   LIG d   1       5.407  -9.950  -3.490  0.00  0.00     0.065 H 
ATOM     32  C   LIG d   1       6.003  -9.929  -6.165  0.00  0.00     0.114 C 
ATOM     33  H   LIG d   1       5.250 -11.710  -5.210  0.00  0.00     0.065 H 
ATOM     34  C   LIG d   1       5.524  -8.496  -6.419  0.00  0.00     0.134 C 
ATOM     35  H   LIG d   1       6.900  -9.911  -5.546  0.00  0.00     0.065 H 
ATOM     36  H   LIG d   1       6.326  -7.921  -6.883  0.00  0.00     0.067 H 
BRANCH  29  37
ATOM     37  C   LIG d   1       3.392 -10.712  -3.448  0.00  0.00     0.073 C 
ATOM     38  H   LIG d   1       2.955 -11.438  -4.134  0.00  0.00     0.058 H 
ATOM     39  H   LIG d   1       3.774 -11.227  -2.568  0.00  0.00     0.058 H 
BRANCH  37  40
ATOM     40  O   LIG d   1       2.392  -9.771  -3.052  0.00  0.00    -0.392 OA
ATOM     41  H   LIG d   1       2.730  -8.879  -2.896  0.00  0.00     0.209 HD
ENDBRANCH  37  40
ENDBRANCH  29  37
BRANCH  30  42
ATOM     42  O   LIG d   1       3.744 -10.787  -6.283  0.00  0.00    -0.387 OA
ATOM     43  H   LIG d   1       3.705 -10.103  -6.966  0.00  0.00     0.210 HD
ENDBRANCH  30  42
BRANCH  32  44
ATOM     44  O   LIG d   1       6.296 -10.563  -7.412  0.00  0.00    -0.386 OA
ATOM     45  H   LIG d   1       7.239 -10.729  -7.557  0.00  0.00     0.210 HD
ENDBRANCH  32  44
BRANCH  34  46
ATOM     46  O   LIG d   1       4.389  -8.517  -7.284  0.00  0.00    -0.384 OA
ATOM     47  H   LIG d   1       4.397  -7.826  -7.961  0.00  0.00     0.210 HD
ENDBRANCH  34  46
ENDBRANCH  25  26
ENDBRANCH  22  25
ENDBRANCH   1  22
BRANCH   1  48
ATOM     48  C   LIG d   1       4.854  -3.481  -6.687  0.00  0.00     0.004 A 
ATOM     49  C   LIG d   1       3.851  -3.949  -7.522  0.00  0.00     0.162 A 
ATOM     50  C   LIG d   1       3.601  -3.316  -8.738  0.00  0.00     0.162 A 
ATOM     51  C   LIG d   1       4.362  -2.226  -9.118  0.00  0.00    -0.009 A 
ATOM     52  C   LIG d   1       5.375  -1.758  -8.280  0.00  0.00    -0.021 A 
ATOM     53  H   LIG d   1       4.172  -1.737 -10.063  0.00  0.00     0.066 H 
ATOM     54  C   LIG d   1       5.616  -2.394  -7.061  0.00  0.00    -0.047 A 
ATOM     55  H   LIG d   1       6.399  -2.033  -6.411  0.00  0.00     0.063 H 
BRANCH  49  56
ATOM     56  O   LIG d   1       3.105  -5.024  -7.151  0.00  0.00    -0.503 OA
ATOM     57  H   LIG d   1       3.617  -5.837  -7.038  0.00  0.00     0.292 HD
ENDBRANCH  49  56
BRANCH  50  58
ATOM     58  O   LIG d   1       2.613  -3.773  -9.553  0.00  0.00    -0.491 OA
BRANCH  58  59
ATOM     59  C   LIG d   1       1.761  -2.796 -10.151  0.00  0.00     0.079 C 
ATOM     60  H   LIG d   1       0.992  -2.499  -9.438  0.00  0.00     0.066 H 
ATOM     61  H   LIG d   1       2.350  -1.924 -10.434  0.00  0.00     0.066 H 
ATOM     62  H   LIG d   1       1.288  -3.219 -11.038  0.00  0.00     0.066 H 
ENDBRANCH  58  59
ENDBRANCH  50  58
BRANCH  52  63
ATOM     63  C   LIG d   1       6.191  -0.594  -8.683  0.00  0.00    -0.056 C 
ATOM     64  C   LIG d   1       6.309   0.447  -7.870  0.00  0.00    -0.058 C 
ATOM     65  H   LIG d   1       5.809   0.443  -6.912  0.00  0.00     0.059 H 
ATOM     66  H   LIG d   1       6.690  -0.591  -9.640  0.00  0.00     0.062 H 
BRANCH  64  67
ATOM     67  C   LIG d   1       7.141   1.634  -8.281  0.00  0.00     0.063 C 
ATOM     68  H   LIG d   1       7.346   2.254  -7.409  0.00  0.00     0.060 H 
ATOM     69  H   LIG d   1       8.082   1.287  -8.710  0.00  0.00     0.060 H 
BRANCH  67  70
ATOM     70  O   LIG d   1       6.428   2.401  -9.253  0.00  0.00    -0.391 OA
ATOM     71  H   LIG d   1       6.931   3.143  -9.615  0.00  0.00     0.210 HD
ENDBRANCH  67  70
ENDBRANCH  64  67
ENDBRANCH  52  63
ENDBRANCH   1  48
TORSDOF 20
ENDMDL
MODEL 2
REMARK VINA RESULT:      -6.6      2.535      6.170
REMARK  20 active torsions:
REMARK  status: ('A' for Active; 'I' for Inactive)
REMARK    1  A    between atoms: C_1  and  O_2 
REMARK    2  A    between atoms: O_2  and  C_3 
REMARK    3  A    between atoms: C_5  and  C_10 
REMARK    4  A    between atoms: C_8  and  O_9 
REMARK    5  A    between atoms: C_10  and  C_11 
REMARK    6  A    between atoms: C_11  and  C_13 
REMARK    7  A    between atoms: C_11  and  C_31 
REMARK    8  A    between atoms: C_13  and  O_14 
REMARK    9  A    between atoms: O_14  and  C_15 
REMARK   10  A    between atoms: C_17  and  O_30 
REMARK   11  A    between atoms: C_19  and  O_29 
REMARK   12  A    between atoms: C_21  and  O_28 
REMARK   13  A    between atoms: C_23  and  C_26 
REMARK   14  A    between atoms: C_26  and  O_27 
REMARK   15  A    between atoms: C_33  and  C_40 
REMARK   16  A    between atoms: C_35  and  O_38 
REMARK   17  A    between atoms: C_36  and  O_37 
REMARK   18  A    between atoms: O_38  and  C_39 
REMARK   19  A    between atoms: C_41  and  C_42 
REMARK   20  A    between atoms: C_42  and  O_43 
ROOT
ATOM      1  C   LIG d   1       6.822  -3.227  -5.268  0.00  0.00     0.015 C 
ATOM      2  H   LIG d   1       7.365  -2.354  -4.908  0.00  0.00     0.037 H 
ENDROOT
BRANCH   1   3
ATOM      3  C   LIG d   1       5.406  -3.225  -4.686  0.00  0.00    -0.018 C 
ATOM      4  H   LIG d   1       5.251  -4.134  -4.105  0.00  0.00     0.032 H 
ATOM      5  H   LIG d   1       4.681  -3.182  -5.498  0.00  0.00     0.032 H 
BRANCH   3   6
ATOM      6  C   LIG d   1       5.233  -2.023  -3.793  0.00  0.00    -0.043 A 
ATOM      7  C   LIG d   1       5.917  -0.854  -4.071  0.00  0.00    -0.013 A 
ATOM      8  C   LIG d   1       5.759   0.252  -3.251  0.00  0.00     0.162 A 
ATOM      9  H   LIG d   1       6.573  -0.802  -4.927  0.00  0.00     0.066 H 
ATOM     10  C   LIG d   1       4.916   0.180  -2.146  0.00  0.00     0.159 A 
ATOM     11  C   LIG d   1       4.230  -0.993  -1.876  0.00  0.00    -0.016 A 
ATOM     12  C   LIG d   1       4.392  -2.092  -2.698  0.00  0.00    -0.055 A 
ATOM     13  H   LIG d   1       3.571  -1.050  -1.022  0.00  0.00     0.066 H 
ATOM     14  H   LIG d   1       3.860  -3.007  -2.484  0.00  0.00     0.062 H 
BRANCH   8  15
ATOM     15  O   LIG d   1       6.431   1.403  -3.522  0.00  0.00    -0.491 OA
BRANCH  15  16
ATOM     16  C   LIG d   1       7.771   1.274  -4.002  0.00  0.00     0.079 C 
ATOM     17  H   LIG d   1       8.419   0.956  -3.187  0.00  0.00     0.066 H 
ATOM     18  H   LIG d   1       7.801   0.533  -4.801  0.00  0.00     0.066 H 
ATOM     19  H   LIG d   1       8.113   2.236  -4.385  0.00  0.00     0.066 H 
ENDBRANCH  15  16
ENDBRANCH   8  15
BRANCH  10  20
ATOM     20  O   LIG d   1       4.762   1.261  -1.335  0.00  0.00    -0.503 OA
ATOM     21  H   LIG d   1       3.953   1.245  -0.805  0.00  0.00     0.292 HD
ENDBRANCH  10  20
ENDBRANCH   3   6
ENDBRANCH   1   3
BRANCH   1  22
ATOM     22  C   LIG d   1       6.744  -3.186  -6.796  0.00  0.00     0.058 C 
ATOM     23  H   LIG d   1       7.284  -2.313  -7.163  0.00  0.00     0.057 H 
ATOM     24  H   LIG d   1       7.193  -4.090  -7.208  0.00  0.00     0.057 H 
BRANCH  22  25
ATOM     25  O   LIG d   1       5.376  -3.106  -7.201  0.00  0.00    -0.348 OA
BRANCH  25  26
ATOM     26  C   LIG d   1       5.025  -4.018  -8.243  0.00  0.00     0.188 C 
ATOM     27  H   LIG d   1       5.243  -3.565  -9.211  0.00  0.00     0.094 H 
ATOM     28  O   LIG d   1       5.781  -5.222  -8.099  0.00  0.00    -0.341 OA
ATOM     29  C   LIG d   1       5.524  -6.197  -9.110  0.00  0.00     0.113 C 
ATOM     30  C   LIG d   1       4.051  -6.609  -9.057  0.00  0.00     0.112 C 
ATOM     31  H   LIG d   1       5.748  -5.773 -10.090  0.00  0.00     0.065 H 
ATOM     32  C   LIG d   1       3.174  -5.365  -9.239  0.00  0.00     0.114 C 
ATOM     33  H   LIG d   1       3.842  -7.320  -9.857  0.00  0.00     0.065 H 
ATOM     34  C   LIG d   1       3.531  -4.342  -8.156  0.00  0.00     0.134 C 
ATOM     35  H   LIG d   1       3.354  -4.933 -10.223  0.00  0.00     0.065 H 
ATOM     36  H   LIG d   1       2.951  -3.431  -8.310  0.00  0.00     0.067 H 
BRANCH  29  37
ATOM     37  C   LIG d   1       6.405  -7.425  -8.871  0.00  0.00     0.073 C 
ATOM     38  H   LIG d   1       7.271  -7.384  -9.531  0.00  0.00     0.058 H 
ATOM     39  H   LIG d   1       6.739  -7.437  -7.834  0.00  0.00     0.058 H 
BRANCH  37  40
ATOM     40  O   LIG d   1       5.655  -8.610  -9.143  0.00  0.00    -0.392 OA
ATOM     41  H   LIG d   1       5.860  -9.020  -9.994  0.00  0.00     0.209 HD
ENDBRANCH  37  40
ENDBRANCH  29  37
BRANCH  30  42
ATOM     42  O   LIG d   1       3.767  -7.214  -7.794  0.00  0.00    -0.387 OA
ATOM     43  H   LIG d   1       4.546  -7.560  -7.339  0.00  0.00     0.210 HD
ENDBRANCH  30  42
BRANCH  32  44
ATOM     44  O   LIG d   1       1.798  -5.728  -9.119  0.00  0.00    -0.386 OA
ATOM     45  H   LIG d   1       1.267  -5.522  -9.902  0.00  0.00     0.210 HD
ENDBRANCH  32  44
BRANCH  34  46
ATOM     46  O   LIG d   1       3.234  -4.884  -6.868  0.00  0.00    -0.384 OA
ATOM     47  H   LIG d   1       2.393  -5.359  -6.826  0.00  0.00     0.210 HD
ENDBRANCH  34  46
ENDBRANCH  25  26
ENDBRANCH  22  25
ENDBRANCH   1  22
BRANCH   1  48
ATOM     48  C   LIG d   1       7.541  -4.480  -4.836  0.00  0.00     0.004 A 
ATOM     49  C   LIG d   1       8.638  -4.391  -3.993  0.00  0.00     0.162 A 
ATOM     50  C   LIG d   1       9.302  -5.546  -3.586  0.00  0.00     0.162 A 
ATOM     51  C   LIG d   1       8.874  -6.782  -4.031  0.00  0.00    -0.009 A 
ATOM     52  C   LIG d   1       7.772  -6.871  -4.884  0.00  0.00    -0.021 A 
ATOM     53  H   LIG d   1       9.391  -7.679  -3.720  0.00  0.00     0.066 H 
ATOM     54  C   LIG d   1       7.109  -5.711  -5.284  0.00  0.00    -0.047 A 
ATOM     55  H   LIG d   1       6.256  -5.777  -5.943  0.00  0.00     0.063 H 
BRANCH  49  56
ATOM     56  O   LIG d   1       9.063  -3.175  -3.558  0.00  0.00    -0.503 OA
ATOM     57  H   LIG d   1       8.420  -2.708  -3.007  0.00  0.00     0.292 HD
ENDBRANCH  49  56
BRANCH  50  58
ATOM     58  O   LIG d   1      10.375  -5.457  -2.755  0.00  0.00    -0.491 OA
BRANCH  58  59
ATOM     59  C   LIG d   1      10.557  -6.516  -1.814  0.00  0.00     0.079 C 
ATOM     60  H   LIG d   1       9.958  -7.376  -2.114  0.00  0.00     0.066 H 
ATOM     61  H   LIG d   1      11.609  -6.799  -1.784  0.00  0.00     0.066 H 
ATOM     62  H   LIG d   1      10.242  -6.182  -0.825  0.00  0.00     0.066 H 
ENDBRANCH  58  59
ENDBRANCH  50  58
BRANCH  52  63
ATOM     63  C   LIG d   1       7.312  -8.191  -5.363  0.00  0.00    -0.056 C 
ATOM     64  C   LIG d   1       6.022  -8.498  -5.324  0.00  0.00    -0.058 C 
ATOM     65  H   LIG d   1       5.308  -7.783  -4.943  0.00  0.00     0.059 H 
ATOM     66  H   LIG d   1       8.026  -8.906  -5.744  0.00  0.00     0.062 H 
BRANCH  64  67
ATOM     67  C   LIG d   1       5.553  -9.844  -5.813  0.00  0.00     0.063 C 
ATOM     68  H   LIG d   1       6.315 -10.284  -6.456  0.00  0.00     0.060 H 
ATOM     69  H   LIG d   1       5.377 -10.499  -4.958  0.00  0.00     0.060 H 
BRANCH  67  70
ATOM     70  O   LIG d   1       4.339  -9.687  -6.550  0.00  0.00    -0.391 OA
ATOM     71  H   LIG d   1       3.557 -10.034  -6.100  0.00  0.00     0.210 HD
ENDBRANCH  67  70
ENDBRANCH  64  67
ENDBRANCH  52  63
ENDBRANCH   1  48
TORSDOF 20
ENDMDL
MODEL 3
REMARK VINA RESULT:      -6.6      2.161      7.889
REMARK  20 active torsions:
REMARK  status: ('A' for Active; 'I' for Inactive)
REMARK    1  A    between atoms: C_1  and  O_2 
REMARK    2  A    between atoms: O_2  and  C_3 
REMARK    3  A    between atoms: C_5  and  C_10 
REMARK    4  A    between atoms: C_8  and  O_9 
REMARK    5  A    between atoms: C_10  and  C_11 
REMARK    6  A    between atoms: C_11  and  C_13 
REMARK    7  A    between atoms: C_11  and  C_31 
REMARK    8  A    between atoms: C_13  and  O_14 
REMARK    9  A    between atoms: O_14  and  C_15 
REMARK   10  A    between atoms: C_17  and  O_30 
REMARK   11  A    between atoms: C_19  and  O_29 
REMARK   12  A    between atoms: C_21  and  O_28 
REMARK   13  A    between atoms: C_23  and  C_26 
REMARK   14  A    between atoms: C_26  and  O_27 
REMARK   15  A    between atoms: C_33  and  C_40 
REMARK   16  A    between atoms: C_35  and  O_38 
REMARK   17  A    between atoms: C_36  and  O_37 
REMARK   18  A    between atoms: O_38  and  C_39 
REMARK   19  A    between atoms: C_41  and  C_42 
REMARK   20  A    between atoms: C_42  and  O_43 
ROOT
ATOM      1  C   LIG d   1       5.174  -3.906  -5.607  0.00  0.00     0.015 C 
ATOM      2  H   LIG d   1       5.960  -3.151  -5.633  0.00  0.00     0.037 H 
ENDROOT
BRANCH   1   3
ATOM      3  C   LIG d   1       4.308  -3.698  -4.362  0.00  0.00    -0.018 C 
ATOM      4  H   LIG d   1       4.532  -4.474  -3.630  0.00  0.00     0.032 H 
ATOM      5  H   LIG d   1       3.256  -3.751  -4.640  0.00  0.00     0.032 H 
BRANCH   3   6
ATOM      6  C   LIG d   1       4.604  -2.346  -3.765  0.00  0.00    -0.043 A 
ATOM      7  C   LIG d   1       5.418  -1.457  -4.442  0.00  0.00    -0.013 A 
ATOM      8  C   LIG d   1       5.691  -0.213  -3.895  0.00  0.00     0.162 A 
ATOM      9  H   LIG d   1       5.842  -1.731  -5.397  0.00  0.00     0.066 H 
ATOM     10  C   LIG d   1       5.148   0.136  -2.663  0.00  0.00     0.159 A 
ATOM     11  C   LIG d   1       4.327  -0.757  -1.992  0.00  0.00    -0.016 A 
ATOM     12  C   LIG d   1       4.060  -1.996  -2.543  0.00  0.00    -0.055 A 
ATOM     13  H   LIG d   1       3.900  -0.487  -1.038  0.00  0.00     0.066 H 
ATOM     14  H   LIG d   1       3.424  -2.693  -2.018  0.00  0.00     0.062 H 
BRANCH   8  15
ATOM     15  O   LIG d   1       6.492   0.662  -4.560  0.00  0.00    -0.491 OA
BRANCH  15  16
ATOM     16  C   LIG d   1       7.114   0.192  -5.757  0.00  0.00     0.079 C 
ATOM     17  H   LIG d   1       7.635  -0.743  -5.553  0.00  0.00     0.066 H 
ATOM     18  H   LIG d   1       6.354   0.026  -6.520  0.00  0.00     0.066 H 
ATOM     19  H   LIG d   1       7.828   0.936  -6.111  0.00  0.00     0.066 H 
ENDBRANCH  15  16
ENDBRANCH   8  15
BRANCH  10  20
ATOM     20  O   LIG d   1       5.417   1.353  -2.120  0.00  0.00    -0.503 OA
ATOM     21  H   LIG d   1       4.996   2.092  -2.581  0.00  0.00     0.292 HD
ENDBRANCH  10  20
ENDBRANCH   3   6
ENDBRANCH   1   3
BRANCH   1  22
ATOM     22  C   LIG d   1       4.304  -3.781  -6.859  0.00  0.00     0.058 C 
ATOM     23  H   LIG d   1       4.288  -4.736  -7.387  0.00  0.00     0.057 H 
ATOM     24  H   LIG d   1       3.288  -3.509  -6.571  0.00  0.00     0.057 H 
BRANCH  22  25
ATOM     25  O   LIG d   1       4.844  -2.772  -7.715  0.00  0.00    -0.348 OA
BRANCH  25  26
ATOM     26  C   LIG d   1       4.012  -1.618  -7.848  0.00  0.00     0.188 C 
ATOM     27  H   LIG d   1       3.576  -1.371  -6.880  0.00  0.00     0.094 H 
ATOM     28  O   LIG d   1       4.794  -0.517  -8.314  0.00  0.00    -0.341 OA
ATOM     29  C   LIG d   1       4.062   0.701  -8.459  0.00  0.00     0.113 C 
ATOM     30  C   LIG d   1       2.945   0.504  -9.487  0.00  0.00     0.112 C 
ATOM     31  H   LIG d   1       3.626   0.979  -7.498  0.00  0.00     0.065 H 
ATOM     32  C   LIG d   1       2.042  -0.648  -9.034  0.00  0.00     0.114 C 
ATOM     33  H   LIG d   1       2.357   1.419  -9.566  0.00  0.00     0.065 H 
ATOM     34  C   LIG d   1       2.893  -1.908  -8.853  0.00  0.00     0.134 C 
ATOM     35  H   LIG d   1       1.567  -0.388  -8.088  0.00  0.00     0.065 H 
ATOM     36  H   LIG d   1       2.268  -2.719  -8.477  0.00  0.00     0.067 H 
BRANCH  29  37
ATOM     37  C   LIG d   1       5.002   1.810  -8.933  0.00  0.00     0.073 C 
ATOM     38  H   LIG d   1       5.628   2.136  -8.102  0.00  0.00     0.058 H 
ATOM     39  H   LIG d   1       5.633   1.432  -9.736  0.00  0.00     0.058 H 
BRANCH  37  40
ATOM     40  O   LIG d   1       4.233   2.915  -9.411  0.00  0.00    -0.392 OA
ATOM     41  H   LIG d   1       3.303   2.707  -9.574  0.00  0.00     0.209 HD
ENDBRANCH  37  40
ENDBRANCH  29  37
BRANCH  30  42
ATOM     42  O   LIG d   1       3.516   0.192 -10.760  0.00  0.00    -0.387 OA
ATOM     43  H   LIG d   1       4.122   0.866 -11.096  0.00  0.00     0.210 HD
ENDBRANCH  30  42
BRANCH  32  44
ATOM     44  O   LIG d   1       1.039  -0.887 -10.024  0.00  0.00    -0.386 OA
ATOM     45  H   LIG d   1       1.020  -0.228 -10.732  0.00  0.00     0.210 HD
ENDBRANCH  32  44
BRANCH  34  46
ATOM     46  O   LIG d   1       3.463  -2.286 -10.106  0.00  0.00    -0.384 OA
ATOM     47  H   LIG d   1       4.416  -2.451 -10.072  0.00  0.00     0.210 HD
ENDBRANCH  34  46
ENDBRANCH  25  26
ENDBRANCH  22  25
ENDBRANCH   1  22
BRANCH   1  48
ATOM     48  C   LIG d   1       5.797  -5.278  -5.562  0.00  0.00     0.004 A 
ATOM     49  C   LIG d   1       7.172  -5.416  -5.665  0.00  0.00     0.162 A 
ATOM     50  C   LIG d   1       7.753  -6.682  -5.618  0.00  0.00     0.162 A 
ATOM     51  C   LIG d   1       6.957  -7.803  -5.481  0.00  0.00    -0.009 A 
ATOM     52  C   LIG d   1       5.571  -7.664  -5.382  0.00  0.00    -0.021 A 
ATOM     53  H   LIG d   1       7.405  -8.785  -5.449  0.00  0.00     0.066 H 
ATOM     54  C   LIG d   1       4.996  -6.393  -5.424  0.00  0.00    -0.047 A 
ATOM     55  H   LIG d   1       3.925  -6.283  -5.348  0.00  0.00     0.063 H 
BRANCH  49  56
ATOM     56  O   LIG d   1       7.957  -4.315  -5.806  0.00  0.00    -0.503 OA
ATOM     57  H   LIG d   1       7.659  -3.552  -5.292  0.00  0.00     0.292 HD
ENDBRANCH  49  56
BRANCH  50  58
ATOM     58  O   LIG d   1       9.103  -6.815  -5.715  0.00  0.00    -0.491 OA
BRANCH  58  59
ATOM     59  C   LIG d   1       9.841  -6.855  -4.492  0.00  0.00     0.079 C 
ATOM     60  H   LIG d   1       9.576  -7.754  -3.937  0.00  0.00     0.066 H 
ATOM     61  H   LIG d   1      10.908  -6.863  -4.712  0.00  0.00     0.066 H 
ATOM     62  H   LIG d   1       9.600  -5.975  -3.894  0.00  0.00     0.066 H 
ENDBRANCH  58  59
ENDBRANCH  50  58
BRANCH  52  63
ATOM     63  C   LIG d   1       4.715  -8.859  -5.235  0.00  0.00    -0.056 C 
ATOM     64  C   LIG d   1       4.584  -9.439  -4.050  0.00  0.00    -0.058 C 
ATOM     65  H   LIG d   1       5.101  -9.037  -3.192  0.00  0.00     0.059 H 
ATOM     66  H   LIG d   1       4.198  -9.261  -6.093  0.00  0.00     0.062 H 
BRANCH  64  67
ATOM     67  C   LIG d   1       3.711 -10.658  -3.900  0.00  0.00     0.063 C 
ATOM     68  H   LIG d   1       3.580 -11.134  -4.871  0.00  0.00     0.060 H 
ATOM     69  H   LIG d   1       4.184 -11.361  -3.212  0.00  0.00     0.060 H 
BRANCH  67  70
ATOM     70  O   LIG d   1       2.436 -10.272  -3.384  0.00  0.00    -0.391 OA
ATOM     71  H   LIG d   1       1.721 -10.307  -4.034  0.00  0.00     0.210 HD
ENDBRANCH  67  70
ENDBRANCH  64  67
ENDBRANCH  52  63
ENDBRANCH   1  48
TORSDOF 20
ENDMDL
MODEL 4
REMARK VINA RESULT:      -6.6      2.394      7.835
REMARK  20 active torsions:
REMARK  status: ('A' for Active; 'I' for Inactive)
REMARK    1  A    between atoms: C_1  and  O_2 
REMARK    2  A    between atoms: O_2  and  C_3 
REMARK    3  A    between atoms: C_5  and  C_10 
REMARK    4  A    between atoms: C_8  and  O_9 
REMARK    5  A    between atoms: C_10  and  C_11 
REMARK    6  A    between atoms: C_11  and  C_13 
REMARK    7  A    between atoms: C_11  and  C_31 
REMARK    8  A    between atoms: C_13  and  O_14 
REMARK    9  A    between atoms: O_14  and  C_15 
REMARK   10  A    between atoms: C_17  and  O_30 
REMARK   11  A    between atoms: C_19  and  O_29 
REMARK   12  A    between atoms: C_21  and  O_28 
REMARK   13  A    between atoms: C_23  and  C_26 
REMARK   14  A    between atoms: C_26  and  O_27 
REMARK   15  A    between atoms: C_33  and  C_40 
REMARK   16  A    between atoms: C_35  and  O_38 
REMARK   17  A    between atoms: C_36  and  O_37 
REMARK   18  A    between atoms: O_38  and  C_39 
REMARK   19  A    between atoms: C_41  and  C_42 
REMARK   20  A    between atoms: C_42  and  O_43 
ROOT
ATOM      1  C   LIG d   1       6.312  -2.573  -5.836  0.00  0.00     0.015 C 
ATOM      2  H   LIG d   1       6.878  -1.694  -5.530  0.00  0.00     0.037 H 
ENDROOT
BRANCH   1   3
ATOM      3  C   LIG d   1       4.916  -2.526  -5.210  0.00  0.00    -0.018 C 
ATOM      4  H   LIG d   1       4.670  -3.503  -4.797  0.00  0.00     0.032 H 
ATOM      5  H   LIG d   1       4.186  -2.257  -5.973  0.00  0.00     0.032 H 
BRANCH   3   6
ATOM      6  C   LIG d   1       4.895  -1.496  -4.109  0.00  0.00    -0.043 A 
ATOM      7  C   LIG d   1       5.661  -0.350  -4.222  0.00  0.00    -0.013 A 
ATOM      8  C   LIG d   1       5.642   0.597  -3.211  0.00  0.00     0.162 A 
ATOM      9  H   LIG d   1       6.272  -0.193  -5.098  0.00  0.00     0.066 H 
ATOM     10  C   LIG d   1       4.856   0.390  -2.082  0.00  0.00     0.159 A 
ATOM     11  C   LIG d   1       4.087  -0.758  -1.977  0.00  0.00    -0.016 A 
ATOM     12  C   LIG d   1       4.110  -1.699  -2.990  0.00  0.00    -0.055 A 
ATOM     13  H   LIG d   1       3.472  -0.919  -1.104  0.00  0.00     0.066 H 
ATOM     14  H   LIG d   1       3.513  -2.595  -2.905  0.00  0.00     0.062 H 
BRANCH   8  15
ATOM     15  O   LIG d   1       6.395   1.725  -3.320  0.00  0.00    -0.491 OA
BRANCH  15  16
ATOM     16  C   LIG d   1       7.708   1.578  -3.864  0.00  0.00     0.079 C 
ATOM     17  H   LIG d   1       7.644   1.114  -4.848  0.00  0.00     0.066 H 
ATOM     18  H   LIG d   1       8.175   2.558  -3.956  0.00  0.00     0.066 H 
ATOM     19  H   LIG d   1       8.306   0.950  -3.204  0.00  0.00     0.066 H 
ENDBRANCH  15  16
ENDBRANCH   8  15
BRANCH  10  20
ATOM     20  O   LIG d   1       4.839   1.314  -1.084  0.00  0.00    -0.503 OA
ATOM     21  H   LIG d   1       4.163   1.155  -0.411  0.00  0.00     0.292 HD
ENDBRANCH  10  20
ENDBRANCH   3   6
ENDBRANCH   1   3
BRANCH   1  22
ATOM     22  C   LIG d   1       6.186  -2.595  -7.361  0.00  0.00     0.058 C 
ATOM     23  H   LIG d   1       6.904  -1.898  -7.795  0.00  0.00     0.057 H 
ATOM     24  H   LIG d   1       6.389  -3.601  -7.728  0.00  0.00     0.057 H 
BRANCH  22  25
ATOM     25  O   LIG d   1       4.862  -2.209  -7.734  0.00  0.00    -0.348 OA
BRANCH  25  26
ATOM     26  C   LIG d   1       4.804  -1.383  -8.899  0.00  0.00     0.188 C 
ATOM     27  H   LIG d   1       5.491  -1.769  -9.652  0.00  0.00     0.094 H 
ATOM     28  O   LIG d   1       3.474  -1.385  -9.420  0.00  0.00    -0.341 OA
ATOM     29  C   LIG d   1       3.310  -0.605 -10.606  0.00  0.00     0.113 C 
ATOM     30  C   LIG d   1       3.649   0.856 -10.305  0.00  0.00     0.112 C 
ATOM     31  H   LIG d   1       3.978  -0.981 -11.383  0.00  0.00     0.065 H 
ATOM     32  C   LIG d   1       5.082   0.940  -9.769  0.00  0.00     0.114 C 
ATOM     33  H   LIG d   1       3.568   1.445 -11.219  0.00  0.00     0.065 H 
ATOM     34  C   LIG d   1       5.204   0.048  -8.529  0.00  0.00     0.134 C 
ATOM     35  H   LIG d   1       5.779   0.598 -10.534  0.00  0.00     0.065 H 
ATOM     36  H   LIG d   1       6.234   0.059  -8.173  0.00  0.00     0.067 H 
BRANCH  29  37
ATOM     37  C   LIG d   1       1.861  -0.704 -11.086  0.00  0.00     0.073 C 
ATOM     38  H   LIG d   1       1.583   0.218 -11.595  0.00  0.00     0.058 H 
ATOM     39  H   LIG d   1       1.763  -1.543 -11.775  0.00  0.00     0.058 H 
BRANCH  37  40
ATOM     40  O   LIG d   1       1.000  -0.908  -9.964  0.00  0.00    -0.392 OA
ATOM     41  H   LIG d   1       0.220  -1.444 -10.159  0.00  0.00     0.209 HD
ENDBRANCH  37  40
ENDBRANCH  29  37
BRANCH  30  42
ATOM     42  O   LIG d   1       2.742   1.367  -9.326  0.00  0.00    -0.387 OA
ATOM     43  H   LIG d   1       2.218   0.687  -8.881  0.00  0.00     0.210 HD
ENDBRANCH  30  42
BRANCH  32  44
ATOM     44  O   LIG d   1       5.384   2.292  -9.417  0.00  0.00    -0.386 OA
ATOM     45  H   LIG d   1       5.593   2.417  -8.480  0.00  0.00     0.210 HD
ENDBRANCH  32  44
BRANCH  34  46
ATOM     46  O   LIG d   1       4.339   0.535  -7.502  0.00  0.00    -0.384 OA
ATOM     47  H   LIG d   1       3.469   0.112  -7.486  0.00  0.00     0.210 HD
ENDBRANCH  34  46
ENDBRANCH  25  26
ENDBRANCH  22  25
ENDBRANCH   1  22
BRANCH   1  48
ATOM     48  C   LIG d   1       7.028  -3.817  -5.374  0.00  0.00     0.004 A 
ATOM     49  C   LIG d   1       8.198  -3.707  -4.638  0.00  0.00     0.162 A 
ATOM     50  C   LIG d   1       8.860  -4.853  -4.203  0.00  0.00     0.162 A 
ATOM     51  C   LIG d   1       8.357  -6.102  -4.515  0.00  0.00    -0.009 A 
ATOM     52  C   LIG d   1       7.181  -6.212  -5.260  0.00  0.00    -0.021 A 
ATOM     53  H   LIG d   1       8.872  -6.992  -4.182  0.00  0.00     0.066 H 
ATOM     54  C   LIG d   1       6.520  -5.060  -5.688  0.00  0.00    -0.047 A 
ATOM     55  H   LIG d   1       5.611  -5.143  -6.264  0.00  0.00     0.063 H 
BRANCH  49  56
ATOM     56  O   LIG d   1       8.697  -2.479  -4.335  0.00  0.00    -0.503 OA
ATOM     57  H   LIG d   1       8.025  -1.837  -4.069  0.00  0.00     0.292 HD
ENDBRANCH  49  56
BRANCH  50  58
ATOM     58  O   LIG d   1      10.005  -4.744  -3.477  0.00  0.00    -0.491 OA
BRANCH  58  59
ATOM     59  C   LIG d   1       9.948  -5.151  -2.109  0.00  0.00     0.079 C 
ATOM     60  H   LIG d   1      10.710  -5.906  -1.922  0.00  0.00     0.066 H 
ATOM     61  H   LIG d   1      10.124  -4.289  -1.467  0.00  0.00     0.066 H 
ATOM     62  H   LIG d   1       8.963  -5.568  -1.894  0.00  0.00     0.066 H 
ENDBRANCH  58  59
ENDBRANCH  50  58
BRANCH  52  63
ATOM     63  C   LIG d   1       6.639  -7.545  -5.596  0.00  0.00    -0.056 C 
ATOM     64  C   LIG d   1       5.355  -7.808  -5.399  0.00  0.00    -0.058 C 
ATOM     65  H   LIG d   1       4.704  -7.048  -4.994  0.00  0.00     0.059 H 
ATOM     66  H   LIG d   1       7.290  -8.306  -6.000  0.00  0.00     0.062 H 
BRANCH  64  67
ATOM     67  C   LIG d   1       4.803  -9.168  -5.741  0.00  0.00     0.063 C 
ATOM     68  H   LIG d   1       4.256  -9.112  -6.683  0.00  0.00     0.060 H 
ATOM     69  H   LIG d   1       5.624  -9.879  -5.839  0.00  0.00     0.060 H 
BRANCH  67  70
ATOM     70  O   LIG d   1       3.920  -9.599  -4.704  0.00  0.00    -0.391 OA
ATOM     71  H   LIG d   1       3.586 -10.499  -4.820  0.00  0.00     0.210 HD
ENDBRANCH  67  70
ENDBRANCH  64  67
ENDBRANCH  52  63
ENDBRANCH   1  48
TORSDOF 20
ENDMDL
MODEL 5
REMARK VINA RESULT:      -6.5      3.885      7.622
REMARK  20 active torsions:
REMARK  status: ('A' for Active; 'I' for Inactive)
REMARK    1  A    between atoms: C_1  and  O_2 
REMARK    2  A    between atoms: O_2  and  C_3 
REMARK    3  A    between atoms: C_5  and  C_10 
REMARK    4  A    between atoms: C_8  and  O_9 
REMARK    5  A    between atoms: C_10  and  C_11 
REMARK    6  A    between atoms: C_11  and  C_13 
REMARK    7  A    between atoms: C_11  and  C_31 
REMARK    8  A    between atoms: C_13  and  O_14 
REMARK    9  A    between atoms: O_14  and  C_15 
REMARK   10  A    between atoms: C_17  and  O_30 
REMARK   11  A    between atoms: C_19  and  O_29 
REMARK   12  A    between atoms: C_21  and  O_28 
REMARK   13  A    between atoms: C_23  and  C_26 
REMARK   14  A    between atoms: C_26  and  O_27 
REMARK   15  A    between atoms: C_33  and  C_40 
REMARK   16  A    between atoms: C_35  and  O_38 
REMARK   17  A    between atoms: C_36  and  O_37 
REMARK   18  A    between atoms: O_38  and  C_39 
REMARK   19  A    between atoms: C_41  and  C_42 
REMARK   20  A    between atoms: C_42  and  O_43 
ROOT
ATOM      1  C   LIG d   1       6.898  -2.761  -5.384  0.00  0.00     0.015 C 
ATOM      2  H   LIG d   1       6.899  -1.682  -5.527  0.00  0.00     0.037 H 
ENDROOT
BRANCH   1   3
ATOM      3  C   LIG d   1       5.834  -3.139  -4.350  0.00  0.00    -0.018 C 
ATOM      4  H   LIG d   1       6.226  -3.916  -3.693  0.00  0.00     0.032 H 
ATOM      5  H   LIG d   1       4.946  -3.507  -4.861  0.00  0.00     0.032 H 
BRANCH   3   6
ATOM      6  C   LIG d   1       5.477  -1.924  -3.532  0.00  0.00    -0.043 A 
ATOM      7  C   LIG d   1       6.186  -0.749  -3.698  0.00  0.00    -0.013 A 
ATOM      8  C   LIG d   1       5.858   0.369  -2.947  0.00  0.00     0.162 A 
ATOM      9  H   LIG d   1       6.994  -0.701  -4.412  0.00  0.00     0.066 H 
ATOM     10  C   LIG d   1       4.819   0.303  -2.024  0.00  0.00     0.159 A 
ATOM     11  C   LIG d   1       4.109  -0.876  -1.867  0.00  0.00    -0.016 A 
ATOM     12  C   LIG d   1       4.441  -1.988  -2.619  0.00  0.00    -0.055 A 
ATOM     13  H   LIG d   1       3.299  -0.929  -1.154  0.00  0.00     0.066 H 
ATOM     14  H   LIG d   1       3.890  -2.907  -2.492  0.00  0.00     0.062 H 
BRANCH   8  15
ATOM     15  O   LIG d   1       6.554   1.526  -3.109  0.00  0.00    -0.491 OA
BRANCH  15  16
ATOM     16  C   LIG d   1       7.735   1.466  -3.912  0.00  0.00     0.079 C 
ATOM     17  H   LIG d   1       8.214   0.496  -3.781  0.00  0.00     0.066 H 
ATOM     18  H   LIG d   1       7.468   1.601  -4.960  0.00  0.00     0.066 H 
ATOM     19  H   LIG d   1       8.422   2.255  -3.606  0.00  0.00     0.066 H 
ENDBRANCH  15  16
ENDBRANCH   8  15
BRANCH  10  20
ATOM     20  O   LIG d   1       4.497   1.396  -1.281  0.00  0.00    -0.503 OA
ATOM     21  H   LIG d   1       3.734   1.887  -1.613  0.00  0.00     0.292 HD
ENDBRANCH  10  20
ENDBRANCH   3   6
ENDBRANCH   1   3
BRANCH   1  22
ATOM     22  C   LIG d   1       6.583  -3.452  -6.713  0.00  0.00     0.058 C 
ATOM     23  H   LIG d   1       7.123  -2.953  -7.518  0.00  0.00     0.057 H 
ATOM     24  H   LIG d   1       6.893  -4.497  -6.662  0.00  0.00     0.057 H 
BRANCH  22  25
ATOM     25  O   LIG d   1       5.178  -3.382  -6.965  0.00  0.00    -0.348 OA
BRANCH  25  26
ATOM     26  C   LIG d   1       4.820  -2.466  -8.001  0.00  0.00     0.188 C 
ATOM     27  H   LIG d   1       5.559  -2.514  -8.800  0.00  0.00     0.094 H 
ATOM     28  O   LIG d   1       3.534  -2.812  -8.520  0.00  0.00    -0.341 OA
ATOM     29  C   LIG d   1       3.087  -1.970  -9.584  0.00  0.00     0.113 C 
ATOM     30  C   LIG d   1       2.972  -0.530  -9.079  0.00  0.00     0.112 C 
ATOM     31  H   LIG d   1       3.805  -2.011 -10.405  0.00  0.00     0.065 H 
ATOM     32  C   LIG d   1       4.330  -0.077  -8.534  0.00  0.00     0.114 C 
ATOM     33  H   LIG d   1       2.674   0.122  -9.901  0.00  0.00     0.065 H 
ATOM     34  C   LIG d   1       4.773  -1.045  -7.432  0.00  0.00     0.134 C 
ATOM     35  H   LIG d   1       5.065  -0.079  -9.339  0.00  0.00     0.065 H 
ATOM     36  H   LIG d   1       5.765  -0.763  -7.076  0.00  0.00     0.067 H 
BRANCH  29  37
ATOM     37  C   LIG d   1       1.721  -2.450 -10.076  0.00  0.00     0.073 C 
ATOM     38  H   LIG d   1       1.851  -3.068 -10.964  0.00  0.00     0.058 H 
ATOM     39  H   LIG d   1       1.238  -3.035  -9.294  0.00  0.00     0.058 H 
BRANCH  37  40
ATOM     40  O   LIG d   1       0.906  -1.320 -10.396  0.00  0.00    -0.392 OA
ATOM     41  H   LIG d   1       0.141  -1.531 -10.948  0.00  0.00     0.209 HD
ENDBRANCH  37  40
ENDBRANCH  29  37
BRANCH  30  42
ATOM     42  O   LIG d   1       1.993  -0.464  -8.039  0.00  0.00    -0.387 OA
ATOM     43  H   LIG d   1       2.267   0.059  -7.273  0.00  0.00     0.210 HD
ENDBRANCH  30  42
BRANCH  32  44
ATOM     44  O   LIG d   1       4.214   1.240  -7.994  0.00  0.00    -0.386 OA
ATOM     45  H   LIG d   1       4.414   1.944  -8.628  0.00  0.00     0.210 HD
ENDBRANCH  32  44
BRANCH  34  46
ATOM     46  O   LIG d   1       3.845  -0.995  -6.348  0.00  0.00    -0.384 OA
ATOM     47  H   LIG d   1       4.066  -0.340  -5.671  0.00  0.00     0.210 HD
ENDBRANCH  34  46
ENDBRANCH  25  26
ENDBRANCH  22  25
ENDBRANCH   1  22
BRANCH   1  48
ATOM     48  C   LIG d   1       8.253  -3.205  -4.896  0.00  0.00     0.004 A 
ATOM     49  C   LIG d   1       9.363  -2.405  -5.117  0.00  0.00     0.162 A 
ATOM     50  C   LIG d   1      10.617  -2.808  -4.662  0.00  0.00     0.162 A 
ATOM     51  C   LIG d   1      10.758  -4.012  -4.000  0.00  0.00    -0.009 A 
ATOM     52  C   LIG d   1       9.640  -4.821  -3.781  0.00  0.00    -0.021 A 
ATOM     53  H   LIG d   1      11.730  -4.328  -3.651  0.00  0.00     0.066 H 
ATOM     54  C   LIG d   1       8.387  -4.408  -4.235  0.00  0.00    -0.047 A 
ATOM     55  H   LIG d   1       7.521  -5.032  -4.066  0.00  0.00     0.063 H 
BRANCH  49  56
ATOM     56  O   LIG d   1       9.228  -1.222  -5.774  0.00  0.00    -0.503 OA
ATOM     57  H   LIG d   1       8.316  -0.903  -5.824  0.00  0.00     0.292 HD
ENDBRANCH  49  56
BRANCH  50  58
ATOM     58  O   LIG d   1      11.705  -2.019  -4.876  0.00  0.00    -0.491 OA
BRANCH  58  59
ATOM     59  C   LIG d   1      12.910  -2.379  -4.201  0.00  0.00     0.079 C 
ATOM     60  H   LIG d   1      13.003  -3.464  -4.176  0.00  0.00     0.066 H 
ATOM     61  H   LIG d   1      13.763  -1.953  -4.728  0.00  0.00     0.066 H 
ATOM     62  H   LIG d   1      12.885  -1.994  -3.181  0.00  0.00     0.066 H 
ENDBRANCH  58  59
ENDBRANCH  50  58
BRANCH  52  63
ATOM     63  C   LIG d   1       9.786  -6.109  -3.073  0.00  0.00    -0.056 C 
ATOM     64  C   LIG d   1      10.296  -6.140  -1.850  0.00  0.00    -0.058 C 
ATOM     65  H   LIG d   1      10.606  -5.223  -1.371  0.00  0.00     0.059 H 
ATOM     66  H   LIG d   1       9.476  -7.026  -3.552  0.00  0.00     0.062 H 
BRANCH  64  67
ATOM     67  C   LIG d   1      10.444  -7.454  -1.128  0.00  0.00     0.063 C 
ATOM     68  H   LIG d   1       9.500  -7.998  -1.164  0.00  0.00     0.060 H 
ATOM     69  H   LIG d   1      11.224  -8.047  -1.608  0.00  0.00     0.060 H 
BRANCH  67  70
ATOM     70  O   LIG d   1      10.801  -7.212   0.234  0.00  0.00    -0.391 OA
ATOM     71  H   LIG d   1      10.232  -7.658   0.876  0.00  0.00     0.210 HD
ENDBRANCH  67  70
ENDBRANCH  64  67
ENDBRANCH  52  63
ENDBRANCH   1  48
TORSDOF 20
ENDMDL
MODEL 6
REMARK VINA RESULT:      -6.4      3.921      7.368
REMARK  20 active torsions:
REMARK  status: ('A' for Active; 'I' for Inactive)
REMARK    1  A    between atoms: C_1  and  O_2 
REMARK    2  A    between atoms: O_2  and  C_3 
REMARK    3  A    between atoms: C_5  and  C_10 
REMARK    4  A    between atoms: C_8  and  O_9 
REMARK    5  A    between atoms: C_10  and  C_11 
REMARK    6  A    between atoms: C_11  and  C_13 
REMARK    7  A    between atoms: C_11  and  C_31 
REMARK    8  A    between atoms: C_13  and  O_14 
REMARK    9  A    between atoms: O_14  and  C_15 
REMARK   10  A    between atoms: C_17  and  O_30 
REMARK   11  A    between atoms: C_19  and  O_29 
REMARK   12  A    between atoms: C_21  and  O_28 
REMARK   13  A    between atoms: C_23  and  C_26 
REMARK   14  A    between atoms: C_26  and  O_27 
REMARK   15  A    between atoms: C_33  and  C_40 
REMARK   16  A    between atoms: C_35  and  O_38 
REMARK   17  A    between atoms: C_36  and  O_37 
REMARK   18  A    between atoms: O_38  and  C_39 
REMARK   19  A    between atoms: C_41  and  C_42 
REMARK   20  A    between atoms: C_42  and  O_43 
ROOT
ATOM      1  C   LIG d   1       5.650  -2.975  -5.765  0.00  0.00     0.015 C 
ATOM      2  H   LIG d   1       5.324  -2.022  -6.180  0.00  0.00     0.037 H 
ENDROOT
BRANCH   1   3
ATOM      3  C   LIG d   1       4.831  -3.295  -4.513  0.00  0.00    -0.018 C 
ATOM      4  H   LIG d   1       5.430  -3.897  -3.831  0.00  0.00     0.032 H 
ATOM      5  H   LIG d   1       3.935  -3.847  -4.797  0.00  0.00     0.032 H 
BRANCH   3   6
ATOM      6  C   LIG d   1       4.434  -2.011  -3.831  0.00  0.00    -0.043 A 
ATOM      7  C   LIG d   1       3.860  -0.989  -4.566  0.00  0.00    -0.013 A 
ATOM      8  C   LIG d   1       3.495   0.193  -3.941  0.00  0.00     0.162 A 
ATOM      9  H   LIG d   1       3.696  -1.112  -5.626  0.00  0.00     0.066 H 
ATOM     10  C   LIG d   1       3.712   0.350  -2.576  0.00  0.00     0.159 A 
ATOM     11  C   LIG d   1       4.282  -0.680  -1.844  0.00  0.00    -0.016 A 
ATOM     12  C   LIG d   1       4.644  -1.856  -2.474  0.00  0.00    -0.055 A 
ATOM     13  H   LIG d   1       4.446  -0.562  -0.783  0.00  0.00     0.066 H 
ATOM     14  H   LIG d   1       5.092  -2.656  -1.904  0.00  0.00     0.062 H 
BRANCH   8  15
ATOM     15  O   LIG d   1       2.931   1.198  -4.662  0.00  0.00    -0.491 OA
BRANCH  15  16
ATOM     16  C   LIG d   1       2.457   0.872  -5.970  0.00  0.00     0.079 C 
ATOM     17  H   LIG d   1       1.397   1.115  -6.044  0.00  0.00     0.066 H 
ATOM     18  H   LIG d   1       3.013   1.445  -6.712  0.00  0.00     0.066 H 
ATOM     19  H   LIG d   1       2.599  -0.193  -6.152  0.00  0.00     0.066 H 
ENDBRANCH  15  16
ENDBRANCH   8  15
BRANCH  10  20
ATOM     20  O   LIG d   1       3.359   1.510  -1.959  0.00  0.00    -0.503 OA
ATOM     21  H   LIG d   1       3.776   1.640  -1.096  0.00  0.00     0.292 HD
ENDBRANCH  10  20
ENDBRANCH   3   6
ENDBRANCH   1   3
BRANCH   1  22
ATOM     22  C   LIG d   1       5.446  -4.081  -6.804  0.00  0.00     0.058 C 
ATOM     23  H   LIG d   1       6.281  -4.780  -6.759  0.00  0.00     0.057 H 
ATOM     24  H   LIG d   1       4.517  -4.611  -6.592  0.00  0.00     0.057 H 
BRANCH  22  25
ATOM     25  O   LIG d   1       5.378  -3.501  -8.108  0.00  0.00    -0.348 OA
BRANCH  25  26
ATOM     26  C   LIG d   1       4.520  -2.361  -8.193  0.00  0.00     0.188 C 
ATOM     27  H   LIG d   1       4.225  -2.054  -7.190  0.00  0.00     0.094 H 
ATOM     28  O   LIG d   1       5.213  -1.290  -8.836  0.00  0.00    -0.341 OA
ATOM     29  C   LIG d   1       4.451  -0.087  -8.951  0.00  0.00     0.113 C 
ATOM     30  C   LIG d   1       3.201  -0.355  -9.794  0.00  0.00     0.112 C 
ATOM     31  H   LIG d   1       4.154   0.251  -7.958  0.00  0.00     0.065 H 
ATOM     32  C   LIG d   1       2.387  -1.478  -9.143  0.00  0.00     0.114 C 
ATOM     33  H   LIG d   1       2.595   0.550  -9.845  0.00  0.00     0.065 H 
ATOM     34  C   LIG d   1       3.273  -2.721  -9.006  0.00  0.00     0.134 C 
ATOM     35  H   LIG d   1       2.050  -1.160  -8.157  0.00  0.00     0.065 H 
ATOM     36  H   LIG d   1       2.719  -3.508  -8.493  0.00  0.00     0.067 H 
BRANCH  29  37
ATOM     37  C   LIG d   1       5.299   0.993  -9.626  0.00  0.00     0.073 C 
ATOM     38  H   LIG d   1       5.837   1.559  -8.866  0.00  0.00     0.058 H 
ATOM     39  H   LIG d   1       6.011   0.525 -10.304  0.00  0.00     0.058 H 
BRANCH  37  40
ATOM     40  O   LIG d   1       4.449   1.874 -10.363  0.00  0.00    -0.392 OA
ATOM     41  H   LIG d   1       4.464   2.789 -10.050  0.00  0.00     0.209 HD
ENDBRANCH  37  40
ENDBRANCH  29  37
BRANCH  30  42
ATOM     42  O   LIG d   1       3.587  -0.747 -11.113  0.00  0.00    -0.387 OA
ATOM     43  H   LIG d   1       3.953  -0.028 -11.646  0.00  0.00     0.210 HD
ENDBRANCH  30  42
BRANCH  32  44
ATOM     44  O   LIG d   1       1.257  -1.786  -9.960  0.00  0.00    -0.386 OA
ATOM     45  H   LIG d   1       1.318  -1.441 -10.863  0.00  0.00     0.210 HD
ENDBRANCH  32  44
BRANCH  34  46
ATOM     46  O   LIG d   1       3.662  -3.177 -10.302  0.00  0.00    -0.384 OA
ATOM     47  H   LIG d   1       4.611  -3.105 -10.476  0.00  0.00     0.210 HD
ENDBRANCH  34  46
ENDBRANCH  25  26
ENDBRANCH  22  25
ENDBRANCH   1  22
BRANCH   1  48
ATOM     48  C   LIG d   1       7.111  -2.892  -5.402  0.00  0.00     0.004 A 
ATOM     49  C   LIG d   1       7.957  -2.065  -6.125  0.00  0.00     0.162 A 
ATOM     50  C   LIG d   1       9.306  -1.980  -5.789  0.00  0.00     0.162 A 
ATOM     51  C   LIG d   1       9.806  -2.729  -4.741  0.00  0.00    -0.009 A 
ATOM     52  C   LIG d   1       8.955  -3.566  -4.016  0.00  0.00    -0.021 A 
ATOM     53  H   LIG d   1      10.854  -2.668  -4.483  0.00  0.00     0.066 H 
ATOM     54  C   LIG d   1       7.603  -3.642  -4.355  0.00  0.00    -0.047 A 
ATOM     55  H   LIG d   1       6.943  -4.288  -3.795  0.00  0.00     0.063 H 
BRANCH  49  56
ATOM     56  O   LIG d   1       7.468  -1.331  -7.160  0.00  0.00    -0.503 OA
ATOM     57  H   LIG d   1       8.058  -0.623  -7.452  0.00  0.00     0.292 HD
ENDBRANCH  49  56
BRANCH  50  58
ATOM     58  O   LIG d   1      10.134  -1.165  -6.497  0.00  0.00    -0.491 OA
BRANCH  58  59
ATOM     59  C   LIG d   1      10.779  -0.113  -5.778  0.00  0.00     0.079 C 
ATOM     60  H   LIG d   1      11.085  -0.477  -4.797  0.00  0.00     0.066 H 
ATOM     61  H   LIG d   1      11.656   0.220  -6.331  0.00  0.00     0.066 H 
ATOM     62  H   LIG d   1      10.088   0.721  -5.655  0.00  0.00     0.066 H 
ENDBRANCH  58  59
ENDBRANCH  50  58
BRANCH  52  63
ATOM     63  C   LIG d   1       9.485  -4.369  -2.895  0.00  0.00    -0.056 C 
ATOM     64  C   LIG d   1       9.566  -5.688  -3.003  0.00  0.00    -0.058 C 
ATOM     65  H   LIG d   1       9.245  -6.176  -3.911  0.00  0.00     0.059 H 
ATOM     66  H   LIG d   1       9.806  -3.881  -1.987  0.00  0.00     0.062 H 
BRANCH  64  67
ATOM     67  C   LIG d   1      10.107  -6.506  -1.858  0.00  0.00     0.063 C 
ATOM     68  H   LIG d   1       9.782  -7.541  -1.966  0.00  0.00     0.060 H 
ATOM     69  H   LIG d   1      11.197  -6.465  -1.866  0.00  0.00     0.060 H 
BRANCH  67  70
ATOM     70  O   LIG d   1       9.619  -5.979  -0.623  0.00  0.00    -0.391 OA
ATOM     71  H   LIG d   1      10.306  -5.603  -0.057  0.00  0.00     0.210 HD
ENDBRANCH  67  70
ENDBRANCH  64  67
ENDBRANCH  52  63
ENDBRANCH   1  48
TORSDOF 20
ENDMDL
MODEL 7
REMARK VINA RESULT:      -6.4      2.289      7.753
REMARK  20 active torsions:
REMARK  status: ('A' for Active; 'I' for Inactive)
REMARK    1  A    between atoms: C_1  and  O_2 
REMARK    2  A    between atoms: O_2  and  C_3 
REMARK    3  A    between atoms: C_5  and  C_10 
REMARK    4  A    between atoms: C_8  and  O_9 
REMARK    5  A    between atoms: C_10  and  C_11 
REMARK    6  A    between atoms: C_11  and  C_13 
REMARK    7  A    between atoms: C_11  and  C_31 
REMARK    8  A    between atoms: C_13  and  O_14 
REMARK    9  A    between atoms: O_14  and  C_15 
REMARK   10  A    between atoms: C_17  and  O_30 
REMARK   11  A    between atoms: C_19  and  O_29 
REMARK   12  A    between atoms: C_21  and  O_28 
REMARK   13  A    between atoms: C_23  and  C_26 
REMARK   14  A    between atoms: C_26  and  O_27 
REMARK   15  A    between atoms: C_33  and  C_40 
REMARK   16  A    between atoms: C_35  and  O_38 
REMARK   17  A    between atoms: C_36  and  O_37 
REMARK   18  A    between atoms: O_38  and  C_39 
REMARK   19  A    between atoms: C_41  and  C_42 
REMARK   20  A    between atoms: C_42  and  O_43 
ROOT
ATOM      1  C   LIG d   1       5.500  -4.122  -5.844  0.00  0.00     0.015 C 
ATOM      2  H   LIG d   1       6.332  -3.467  -6.100  0.00  0.00     0.037 H 
ENDROOT
BRANCH   1   3
ATOM      3  C   LIG d   1       4.834  -3.622  -4.560  0.00  0.00    -0.018 C 
ATOM      4  H   LIG d   1       5.017  -4.333  -3.755  0.00  0.00     0.032 H 
ATOM      5  H   LIG d   1       3.761  -3.524  -4.722  0.00  0.00     0.032 H 
BRANCH   3   6
ATOM      6  C   LIG d   1       5.410  -2.281  -4.184  0.00  0.00    -0.043 A 
ATOM      7  C   LIG d   1       4.818  -1.531  -3.184  0.00  0.00    -0.013 A 
ATOM      8  C   LIG d   1       5.347  -0.298  -2.837  0.00  0.00     0.162 A 
ATOM      9  H   LIG d   1       3.944  -1.907  -2.673  0.00  0.00     0.066 H 
ATOM     10  C   LIG d   1       6.470   0.185  -3.501  0.00  0.00     0.159 A 
ATOM     11  C   LIG d   1       7.063  -0.574  -4.498  0.00  0.00    -0.016 A 
ATOM     12  C   LIG d   1       6.530  -1.803  -4.839  0.00  0.00    -0.055 A 
ATOM     13  H   LIG d   1       7.938  -0.203  -5.012  0.00  0.00     0.066 H 
ATOM     14  H   LIG d   1       6.989  -2.391  -5.620  0.00  0.00     0.062 H 
BRANCH   8  15
ATOM     15  O   LIG d   1       4.766   0.440  -1.855  0.00  0.00    -0.491 OA
BRANCH  15  16
ATOM     16  C   LIG d   1       3.694   1.304  -2.239  0.00  0.00     0.079 C 
ATOM     17  H   LIG d   1       3.737   2.220  -1.652  0.00  0.00     0.066 H 
ATOM     18  H   LIG d   1       3.786   1.547  -3.298  0.00  0.00     0.066 H 
ATOM     19  H   LIG d   1       2.743   0.803  -2.063  0.00  0.00     0.066 H 
ENDBRANCH  15  16
ENDBRANCH   8  15
BRANCH  10  20
ATOM     20  O   LIG d   1       6.990   1.397  -3.168  0.00  0.00    -0.503 OA
ATOM     21  H   LIG d   1       7.835   1.594  -3.595  0.00  0.00     0.292 HD
ENDBRANCH  10  20
ENDBRANCH   3   6
ENDBRANCH   1   3
BRANCH   1  22
ATOM     22  C   LIG d   1       4.478  -4.118  -6.982  0.00  0.00     0.058 C 
ATOM     23  H   LIG d   1       4.417  -5.116  -7.419  0.00  0.00     0.057 H 
ATOM     24  H   LIG d   1       3.500  -3.833  -6.592  0.00  0.00     0.057 H 
BRANCH  22  25
ATOM     25  O   LIG d   1       4.884  -3.183  -7.983  0.00  0.00    -0.348 OA
BRANCH  25  26
ATOM     26  C   LIG d   1       3.937  -2.140  -8.221  0.00  0.00     0.188 C 
ATOM     27  H   LIG d   1       2.965  -2.577  -8.453  0.00  0.00     0.094 H 
ATOM     28  O   LIG d   1       3.826  -1.321  -7.056  0.00  0.00    -0.341 OA
ATOM     29  C   LIG d   1       2.881  -0.256  -7.178  0.00  0.00     0.113 C 
ATOM     30  C   LIG d   1       3.308   0.675  -8.315  0.00  0.00     0.112 C 
ATOM     31  H   LIG d   1       1.895  -0.669  -7.396  0.00  0.00     0.065 H 
ATOM     32  C   LIG d   1       3.417  -0.133  -9.612  0.00  0.00     0.114 C 
ATOM     33  H   LIG d   1       2.564   1.463  -8.439  0.00  0.00     0.065 H 
ATOM     34  C   LIG d   1       4.406  -1.284  -9.401  0.00  0.00     0.134 C 
ATOM     35  H   LIG d   1       2.438  -0.536  -9.874  0.00  0.00     0.065 H 
ATOM     36  H   LIG d   1       4.448  -1.898 -10.302  0.00  0.00     0.067 H 
BRANCH  29  37
ATOM     37  C   LIG d   1       2.827   0.531  -5.867  0.00  0.00     0.073 C 
ATOM     38  H   LIG d   1       3.826   0.588  -5.436  0.00  0.00     0.058 H 
ATOM     39  H   LIG d   1       2.458   1.537  -6.063  0.00  0.00     0.058 H 
BRANCH  37  40
ATOM     40  O   LIG d   1       1.949  -0.127  -4.952  0.00  0.00    -0.392 OA
ATOM     41  H   LIG d   1       1.072  -0.314  -5.312  0.00  0.00     0.209 HD
ENDBRANCH  37  40
ENDBRANCH  29  37
BRANCH  30  42
ATOM     42  O   LIG d   1       4.576   1.258  -8.007  0.00  0.00    -0.387 OA
ATOM     43  H   LIG d   1       4.518   2.105  -7.544  0.00  0.00     0.210 HD
ENDBRANCH  30  42
BRANCH  32  44
ATOM     44  O   LIG d   1       3.884   0.712 -10.665  0.00  0.00    -0.386 OA
ATOM     45  H   LIG d   1       3.221   0.898 -11.344  0.00  0.00     0.210 HD
ENDBRANCH  32  44
BRANCH  34  46
ATOM     46  O   LIG d   1       5.703  -0.756  -9.122  0.00  0.00    -0.384 OA
ATOM     47  H   LIG d   1       6.430  -1.303  -9.451  0.00  0.00     0.210 HD
ENDBRANCH  34  46
ENDBRANCH  25  26
ENDBRANCH  22  25
ENDBRANCH   1  22
BRANCH   1  48
ATOM     48  C   LIG d   1       6.011  -5.524  -5.632  0.00  0.00     0.004 A 
ATOM     49  C   LIG d   1       7.375  -5.771  -5.640  0.00  0.00     0.162 A 
ATOM     50  C   LIG d   1       7.853  -7.064  -5.438  0.00  0.00     0.162 A 
ATOM     51  C   LIG d   1       6.965  -8.105  -5.241  0.00  0.00    -0.009 A 
ATOM     52  C   LIG d   1       5.591  -7.857  -5.238  0.00  0.00    -0.021 A 
ATOM     53  H   LIG d   1       7.334  -9.110  -5.090  0.00  0.00     0.066 H 
ATOM     54  C   LIG d   1       5.120  -6.559  -5.435  0.00  0.00    -0.047 A 
ATOM     55  H   LIG d   1       4.058  -6.364  -5.432  0.00  0.00     0.063 H 
BRANCH  49  56
ATOM     56  O   LIG d   1       8.249  -4.748  -5.839  0.00  0.00    -0.503 OA
ATOM     57  H   LIG d   1       9.071  -4.830  -5.335  0.00  0.00     0.292 HD
ENDBRANCH  49  56
BRANCH  50  58
ATOM     58  O   LIG d   1       9.191  -7.304  -5.442  0.00  0.00    -0.491 OA
BRANCH  58  59
ATOM     59  C   LIG d   1       9.818  -7.506  -4.175  0.00  0.00     0.079 C 
ATOM     60  H   LIG d   1       9.962  -6.545  -3.683  0.00  0.00     0.066 H 
ATOM     61  H   LIG d   1       9.186  -8.141  -3.554  0.00  0.00     0.066 H 
ATOM     62  H   LIG d   1      10.786  -7.988  -4.320  0.00  0.00     0.066 H 
ENDBRANCH  58  59
ENDBRANCH  50  58
BRANCH  52  63
ATOM     63  C   LIG d   1       4.639  -8.967  -5.027  0.00  0.00    -0.056 C 
ATOM     64  C   LIG d   1       4.475  -9.480  -3.816  0.00  0.00    -0.058 C 
ATOM     65  H   LIG d   1       5.037  -9.085  -2.982  0.00  0.00     0.059 H 
ATOM     66  H   LIG d   1       4.077  -9.361  -5.861  0.00  0.00     0.062 H 
BRANCH  64  67
ATOM     67  C   LIG d   1       3.503 -10.612  -3.601  0.00  0.00     0.063 C 
ATOM     68  H   LIG d   1       3.262 -11.070  -4.560  0.00  0.00     0.060 H 
ATOM     69  H   LIG d   1       3.954 -11.357  -2.945  0.00  0.00     0.060 H 
BRANCH  67  70
ATOM     70  O   LIG d   1       2.309 -10.108  -3.000  0.00  0.00    -0.391 OA
ATOM     71  H   LIG d   1       1.892 -10.720  -2.379  0.00  0.00     0.210 HD
ENDBRANCH  67  70
ENDBRANCH  64  67
ENDBRANCH  52  63
ENDBRANCH   1  48
TORSDOF 20
ENDMDL
MODEL 8
REMARK VINA RESULT:      -6.3      3.916      7.946
REMARK  20 active torsions:
REMARK  status: ('A' for Active; 'I' for Inactive)
REMARK    1  A    between atoms: C_1  and  O_2 
REMARK    2  A    between atoms: O_2  and  C_3 
REMARK    3  A    between atoms: C_5  and  C_10 
REMARK    4  A    between atoms: C_8  and  O_9 
REMARK    5  A    between atoms: C_10  and  C_11 
REMARK    6  A    between atoms: C_11  and  C_13 
REMARK    7  A    between atoms: C_11  and  C_31 
REMARK    8  A    between atoms: C_13  and  O_14 
REMARK    9  A    between atoms: O_14  and  C_15 
REMARK   10  A    between atoms: C_17  and  O_30 
REMARK   11  A    between atoms: C_19  and  O_29 
REMARK   12  A    between atoms: C_21  and  O_28 
REMARK   13  A    between atoms: C_23  and  C_26 
REMARK   14  A    between atoms: C_26  and  O_27 
REMARK   15  A    between atoms: C_33  and  C_40 
REMARK   16  A    between atoms: C_35  and  O_38 
REMARK   17  A    between atoms: C_36  and  O_37 
REMARK   18  A    between atoms: O_38  and  C_39 
REMARK   19  A    between atoms: C_41  and  C_42 
REMARK   20  A    between atoms: C_42  and  O_43 
ROOT
ATOM      1  C   LIG d   1       8.329   0.262  -6.114  0.00  0.00     0.015 C 
ATOM      2  H   LIG d   1       8.010  -0.214  -5.188  0.00  0.00     0.037 H 
ENDROOT
BRANCH   1   3
ATOM      3  C   LIG d   1       9.490  -0.529  -6.722  0.00  0.00    -0.018 C 
ATOM      4  H   LIG d   1      10.290   0.156  -7.002  0.00  0.00     0.032 H 
ATOM      5  H   LIG d   1       9.141  -1.063  -7.606  0.00  0.00     0.032 H 
BRANCH   3   6
ATOM      6  C   LIG d   1      10.007  -1.519  -5.710  0.00  0.00    -0.043 A 
ATOM      7  C   LIG d   1       9.176  -2.516  -5.234  0.00  0.00    -0.013 A 
ATOM      8  C   LIG d   1       9.651  -3.427  -4.303  0.00  0.00     0.162 A 
ATOM      9  H   LIG d   1       8.158  -2.586  -5.587  0.00  0.00     0.066 H 
ATOM     10  C   LIG d   1      10.962  -3.331  -3.846  0.00  0.00     0.159 A 
ATOM     11  C   LIG d   1      11.791  -2.333  -4.332  0.00  0.00    -0.016 A 
ATOM     12  C   LIG d   1      11.311  -1.428  -5.260  0.00  0.00    -0.055 A 
ATOM     13  H   LIG d   1      12.811  -2.260  -3.983  0.00  0.00     0.066 H 
ATOM     14  H   LIG d   1      11.957  -0.648  -5.634  0.00  0.00     0.062 H 
BRANCH   8  15
ATOM     15  O   LIG d   1       8.835  -4.408  -3.833  0.00  0.00    -0.491 OA
BRANCH  15  16
ATOM     16  C   LIG d   1       8.117  -5.175  -4.803  0.00  0.00     0.079 C 
ATOM     17  H   LIG d   1       7.078  -5.273  -4.491  0.00  0.00     0.066 H 
ATOM     18  H   LIG d   1       8.161  -4.671  -5.768  0.00  0.00     0.066 H 
ATOM     19  H   LIG d   1       8.566  -6.164  -4.887  0.00  0.00     0.066 H 
ENDBRANCH  15  16
ENDBRANCH   8  15
BRANCH  10  20
ATOM     20  O   LIG d   1      11.430  -4.220  -2.929  0.00  0.00    -0.503 OA
ATOM     21  H   LIG d   1      12.393  -4.220  -2.836  0.00  0.00     0.292 HD
ENDBRANCH  10  20
ENDBRANCH   3   6
ENDBRANCH   1   3
BRANCH   1  22
ATOM     22  C   LIG d   1       7.161   0.293  -7.101  0.00  0.00     0.058 C 
ATOM     23  H   LIG d   1       7.242   1.179  -7.732  0.00  0.00     0.057 H 
ATOM     24  H   LIG d   1       7.189  -0.601  -7.726  0.00  0.00     0.057 H 
BRANCH  22  25
ATOM     25  O   LIG d   1       5.929   0.332  -6.379  0.00  0.00    -0.348 OA
BRANCH  25  26
ATOM     26  C   LIG d   1       5.911  -0.499  -5.217  0.00  0.00     0.188 C 
ATOM     27  H   LIG d   1       6.933  -0.698  -4.897  0.00  0.00     0.094 H 
ATOM     28  O   LIG d   1       5.203   0.164  -4.167  0.00  0.00    -0.341 OA
ATOM     29  C   LIG d   1       5.147  -0.572  -2.944  0.00  0.00     0.113 C 
ATOM     30  C   LIG d   1       4.417  -1.897  -3.182  0.00  0.00     0.112 C 
ATOM     31  H   LIG d   1       6.160  -0.773  -2.594  0.00  0.00     0.065 H 
ATOM     32  C   LIG d   1       5.143  -2.681  -4.279  0.00  0.00     0.114 C 
ATOM     33  H   LIG d   1       4.412  -2.480  -2.260  0.00  0.00     0.065 H 
ATOM     34  C   LIG d   1       5.211  -1.821  -5.545  0.00  0.00     0.134 C 
ATOM     35  H   LIG d   1       6.152  -2.924  -3.948  0.00  0.00     0.065 H 
ATOM     36  H   LIG d   1       5.774  -2.349  -6.315  0.00  0.00     0.067 H 
BRANCH  29  37
ATOM     37  C   LIG d   1       4.395   0.243  -1.891  0.00  0.00     0.073 C 
ATOM     38  H   LIG d   1       3.842  -0.431  -1.236  0.00  0.00     0.058 H 
ATOM     39  H   LIG d   1       5.106   0.820  -1.302  0.00  0.00     0.058 H 
BRANCH  37  40
ATOM     40  O   LIG d   1       3.482   1.132  -2.538  0.00  0.00    -0.392 OA
ATOM     41  H   LIG d   1       3.659   2.068  -2.372  0.00  0.00     0.209 HD
ENDBRANCH  37  40
ENDBRANCH  29  37
BRANCH  30  42
ATOM     42  O   LIG d   1       3.072  -1.637  -3.589  0.00  0.00    -0.387 OA
ATOM     43  H   LIG d   1       2.405  -2.091  -3.057  0.00  0.00     0.210 HD
ENDBRANCH  30  42
BRANCH  32  44
ATOM     44  O   LIG d   1       4.428  -3.886  -4.559  0.00  0.00    -0.386 OA
ATOM     45  H   LIG d   1       4.461  -4.156  -5.488  0.00  0.00     0.210 HD
ENDBRANCH  32  44
BRANCH  34  46
ATOM     46  O   LIG d   1       3.889  -1.557  -6.017  0.00  0.00    -0.384 OA
ATOM     47  H   LIG d   1       3.677  -0.616  -6.087  0.00  0.00     0.210 HD
ENDBRANCH  34  46
ENDBRANCH  25  26
ENDBRANCH  22  25
ENDBRANCH   1  22
BRANCH   1  48
ATOM     48  C   LIG d   1       8.780   1.671  -5.825  0.00  0.00     0.004 A 
ATOM     49  C   LIG d   1       8.883   2.108  -4.514  0.00  0.00     0.162 A 
ATOM     50  C   LIG d   1       9.305   3.408  -4.241  0.00  0.00     0.162 A 
ATOM     51  C   LIG d   1       9.609   4.267  -5.279  0.00  0.00    -0.009 A 
ATOM     52  C   LIG d   1       9.500   3.829  -6.600  0.00  0.00    -0.021 A 
ATOM     53  H   LIG d   1       9.932   5.277  -5.069  0.00  0.00     0.066 H 
ATOM     54  C   LIG d   1       9.082   2.524  -6.866  0.00  0.00    -0.047 A 
ATOM     55  H   LIG d   1       8.997   2.183  -7.887  0.00  0.00     0.063 H 
BRANCH  49  56
ATOM     56  O   LIG d   1       8.579   1.265  -3.490  0.00  0.00    -0.503 OA
ATOM     57  H   LIG d   1       8.691   0.329  -3.706  0.00  0.00     0.292 HD
ENDBRANCH  49  56
BRANCH  50  58
ATOM     58  O   LIG d   1       9.411   3.833  -2.953  0.00  0.00    -0.491 OA
BRANCH  58  59
ATOM     59  C   LIG d   1      10.730   3.997  -2.430  0.00  0.00     0.079 C 
ATOM     60  H   LIG d   1      11.009   5.049  -2.469  0.00  0.00     0.066 H 
ATOM     61  H   LIG d   1      10.756   3.652  -1.396  0.00  0.00     0.066 H 
ATOM     62  H   LIG d   1      11.432   3.413  -3.025  0.00  0.00     0.066 H 
ENDBRANCH  58  59
ENDBRANCH  50  58
BRANCH  52  63
ATOM     63  C   LIG d   1       9.824   4.745  -7.714  0.00  0.00    -0.056 C 
ATOM     64  C   LIG d   1       9.103   4.720  -8.825  0.00  0.00    -0.058 C 
ATOM     65  H   LIG d   1       8.277   4.030  -8.918  0.00  0.00     0.059 H 
ATOM     66  H   LIG d   1      10.650   5.434  -7.621  0.00  0.00     0.062 H 
BRANCH  64  67
ATOM     67  C   LIG d   1       9.434   5.654  -9.960  0.00  0.00     0.063 C 
ATOM     68  H   LIG d   1       9.989   6.510  -9.577  0.00  0.00     0.060 H 
ATOM     69  H   LIG d   1      10.042   5.128 -10.698  0.00  0.00     0.060 H 
BRANCH  67  70
ATOM     70  O   LIG d   1       8.226   6.107 -10.574  0.00  0.00    -0.391 OA
ATOM     71  H   LIG d   1       8.324   6.351 -11.504  0.00  0.00     0.210 HD
ENDBRANCH  67  70
ENDBRANCH  64  67
ENDBRANCH  52  63
ENDBRANCH   1  48
TORSDOF 20
ENDMDL
MODEL 9
REMARK VINA RESULT:      -6.3      2.221      7.267
REMARK  20 active torsions:
REMARK  status: ('A' for Active; 'I' for Inactive)
REMARK    1  A    between atoms: C_1  and  O_2 
REMARK    2  A    between atoms: O_2  and  C_3 
REMARK    3  A    between atoms: C_5  and  C_10 
REMARK    4  A    between atoms: C_8  and  O_9 
REMARK    5  A    between atoms: C_10  and  C_11 
REMARK    6  A    between atoms: C_11  and  C_13 
REMARK    7  A    between atoms: C_11  and  C_31 
REMARK    8  A    between atoms: C_13  and  O_14 
REMARK    9  A    between atoms: O_14  and  C_15 
REMARK   10  A    between atoms: C_17  and  O_30 
REMARK   11  A    between atoms: C_19  and  O_29 
REMARK   12  A    between atoms: C_21  and  O_28 
REMARK   13  A    between atoms: C_23  and  C_26 
REMARK   14  A    between atoms: C_26  and  O_27 
REMARK   15  A    between atoms: C_33  and  C_40 
REMARK   16  A    between atoms: C_35  and  O_38 
REMARK   17  A    between atoms: C_36  and  O_37 
REMARK   18  A    between atoms: O_38  and  C_39 
REMARK   19  A    between atoms: C_41  and  C_42 
REMARK   20  A    between atoms: C_42  and  O_43 
ROOT
ATOM      1  C   LIG d   1       5.191  -4.154  -5.510  0.00  0.00     0.015 C 
ATOM      2  H   LIG d   1       5.962  -3.388  -5.587  0.00  0.00     0.037 H 
ENDROOT
BRANCH   1   3
ATOM      3  C   LIG d   1       4.354  -3.913  -4.251  0.00  0.00    -0.018 C 
ATOM      4  H   LIG d   1       4.591  -4.673  -3.507  0.00  0.00     0.032 H 
ATOM      5  H   LIG d   1       3.296  -3.966  -4.504  0.00  0.00     0.032 H 
BRANCH   3   6
ATOM      6  C   LIG d   1       4.670  -2.549  -3.693  0.00  0.00    -0.043 A 
ATOM      7  C   LIG d   1       5.735  -1.826  -4.199  0.00  0.00    -0.013 A 
ATOM      8  C   LIG d   1       6.027  -0.572  -3.687  0.00  0.00     0.162 A 
ATOM      9  H   LIG d   1       6.338  -2.239  -4.994  0.00  0.00     0.066 H 
ATOM     10  C   LIG d   1       5.249  -0.046  -2.660  0.00  0.00     0.159 A 
ATOM     11  C   LIG d   1       4.180  -0.772  -2.161  0.00  0.00    -0.016 A 
ATOM     12  C   LIG d   1       3.895  -2.023  -2.676  0.00  0.00    -0.055 A 
ATOM     13  H   LIG d   1       3.572  -0.364  -1.367  0.00  0.00     0.066 H 
ATOM     14  H   LIG d   1       3.065  -2.590  -2.283  0.00  0.00     0.062 H 
BRANCH   8  15
ATOM     15  O   LIG d   1       7.073   0.140  -4.184  0.00  0.00    -0.491 OA
BRANCH  15  16
ATOM     16  C   LIG d   1       8.060  -0.585  -4.921  0.00  0.00     0.079 C 
ATOM     17  H   LIG d   1       7.571  -1.188  -5.686  0.00  0.00     0.066 H 
ATOM     18  H   LIG d   1       8.747   0.115  -5.395  0.00  0.00     0.066 H 
ATOM     19  H   LIG d   1       8.613  -1.236  -4.244  0.00  0.00     0.066 H 
ENDBRANCH  15  16
ENDBRANCH   8  15
BRANCH  10  20
ATOM     20  O   LIG d   1       5.535   1.183  -2.151  0.00  0.00    -0.503 OA
ATOM     21  H   LIG d   1       5.906   1.163  -1.258  0.00  0.00     0.292 HD
ENDBRANCH  10  20
ENDBRANCH   3   6
ENDBRANCH   1   3
BRANCH   1  22
ATOM     22  C   LIG d   1       4.286  -4.092  -6.743  0.00  0.00     0.058 C 
ATOM     23  H   LIG d   1       4.625  -4.820  -7.480  0.00  0.00     0.057 H 
ATOM     24  H   LIG d   1       3.260  -4.321  -6.452  0.00  0.00     0.057 H 
BRANCH  22  25
ATOM     25  O   LIG d   1       4.340  -2.780  -7.307  0.00  0.00    -0.348 OA
BRANCH  25  26
ATOM     26  C   LIG d   1       4.037  -2.736  -8.703  0.00  0.00     0.188 C 
ATOM     27  H   LIG d   1       4.929  -2.991  -9.276  0.00  0.00     0.094 H 
ATOM     28  O   LIG d   1       2.998  -3.672  -8.995  0.00  0.00    -0.341 OA
ATOM     29  C   LIG d   1       2.633  -3.728 -10.375  0.00  0.00     0.113 C 
ATOM     30  C   LIG d   1       2.113  -2.359 -10.820  0.00  0.00     0.112 C 
ATOM     31  H   LIG d   1       3.506  -3.996 -10.972  0.00  0.00     0.065 H 
ATOM     32  C   LIG d   1       3.193  -1.303 -10.564  0.00  0.00     0.114 C 
ATOM     33  H   LIG d   1       1.876  -2.387 -11.884  0.00  0.00     0.065 H 
ATOM     34  C   LIG d   1       3.573  -1.326  -9.080  0.00  0.00     0.134 C 
ATOM     35  H   LIG d   1       4.072  -1.526 -11.170  0.00  0.00     0.065 H 
ATOM     36  H   LIG d   1       4.381  -0.616  -8.900  0.00  0.00     0.067 H 
BRANCH  29  37
ATOM     37  C   LIG d   1       1.539  -4.778 -10.573  0.00  0.00     0.073 C 
ATOM     38  H   LIG d   1       0.579  -4.281 -10.712  0.00  0.00     0.058 H 
ATOM     39  H   LIG d   1       1.767  -5.381 -11.451  0.00  0.00     0.058 H 
BRANCH  37  40
ATOM     40  O   LIG d   1       1.475  -5.622  -9.421  0.00  0.00    -0.392 OA
ATOM     41  H   LIG d   1       2.249  -5.562  -8.845  0.00  0.00     0.209 HD
ENDBRANCH  37  40
ENDBRANCH  29  37
BRANCH  30  42
ATOM     42  O   LIG d   1       0.937  -2.029 -10.077  0.00  0.00    -0.387 OA
ATOM     43  H   LIG d   1       1.107  -1.791  -9.156  0.00  0.00     0.210 HD
ENDBRANCH  30  42
BRANCH  32  44
ATOM     44  O   LIG d   1       2.691  -0.010 -10.908  0.00  0.00    -0.386 OA
ATOM     45  H   LIG d   1       2.031  -0.021 -11.616  0.00  0.00     0.210 HD
ENDBRANCH  32  44
BRANCH  34  46
ATOM     46  O   LIG d   1       2.438  -0.970  -8.290  0.00  0.00    -0.384 OA
ATOM     47  H   LIG d   1       2.290  -0.016  -8.221  0.00  0.00     0.210 HD
ENDBRANCH  34  46
ENDBRANCH  25  26
ENDBRANCH  22  25
ENDBRANCH   1  22
BRANCH   1  48
ATOM     48  C   LIG d   1       5.839  -5.513  -5.431  0.00  0.00     0.004 A 
ATOM     49  C   LIG d   1       7.220  -5.621  -5.440  0.00  0.00     0.162 A 
ATOM     50  C   LIG d   1       7.824  -6.874  -5.361  0.00  0.00     0.162 A 
ATOM     51  C   LIG d   1       7.044  -8.013  -5.285  0.00  0.00    -0.009 A 
ATOM     52  C   LIG d   1       5.652  -7.904  -5.281  0.00  0.00    -0.021 A 
ATOM     53  H   LIG d   1       7.511  -8.986  -5.228  0.00  0.00     0.066 H 
ATOM     54  C   LIG d   1       5.055  -6.645  -5.355  0.00  0.00    -0.047 A 
ATOM     55  H   LIG d   1       3.978  -6.558  -5.352  0.00  0.00     0.063 H 
BRANCH  49  56
ATOM     56  O   LIG d   1       7.989  -4.502  -5.520  0.00  0.00    -0.503 OA
ATOM     57  H   LIG d   1       7.818  -3.964  -6.305  0.00  0.00     0.292 HD
ENDBRANCH  49  56
BRANCH  50  58
ATOM     58  O   LIG d   1       9.180  -6.979  -5.365  0.00  0.00    -0.491 OA
BRANCH  58  59
ATOM     59  C   LIG d   1       9.813  -7.261  -4.116  0.00  0.00     0.079 C 
ATOM     60  H   LIG d   1       9.809  -6.365  -3.496  0.00  0.00     0.066 H 
ATOM     61  H   LIG d   1       9.272  -8.058  -3.606  0.00  0.00     0.066 H 
ATOM     62  H   LIG d   1      10.842  -7.575  -4.293  0.00  0.00     0.066 H 
ENDBRANCH  58  59
ENDBRANCH  50  58
BRANCH  52  63
ATOM     63  C   LIG d   1       4.814  -9.119  -5.199  0.00  0.00    -0.056 C 
ATOM     64  C   LIG d   1       4.409  -9.567  -4.020  0.00  0.00    -0.058 C 
ATOM     65  H   LIG d   1       4.691  -9.045  -3.117  0.00  0.00     0.059 H 
ATOM     66  H   LIG d   1       4.533  -9.641  -6.102  0.00  0.00     0.062 H 
BRANCH  64  67
ATOM     67  C   LIG d   1       3.555 -10.806  -3.937  0.00  0.00     0.063 C 
ATOM     68  H   LIG d   1       3.205 -11.073  -4.934  0.00  0.00     0.060 H 
ATOM     69  H   LIG d   1       4.145 -11.627  -3.527  0.00  0.00     0.060 H 
BRANCH  67  70
ATOM     70  O   LIG d   1       2.433 -10.556  -3.089  0.00  0.00    -0.391 OA
ATOM     71  H   LIG d   1       2.223 -11.283  -2.488  0.00  0.00     0.210 HD
ENDBRANCH  67  70
ENDBRANCH  64  67
ENDBRANCH  52  63
ENDBRANCH   1  48
TORSDOF 20
ENDMDL
