MODEL 1
REMARK VINA RESULT:      -7.4      0.000      0.000
REMARK  4 active torsions:
REMARK  status: ('A' for Active; 'I' for Inactive)
REMARK    1  A    between atoms: C_4  and  C_7 
REMARK    2  A    between atoms: C_8  and  C_9 
REMARK    3  A    between atoms: C_14  and  N_15 
REMARK    4  A    between atoms: C_17  and  C_20 
ROOT
ATOM      1  C   LIG d   1       4.627  -4.118  -5.844  0.00  0.00    -0.004 A 
ATOM      2  C   LIG d   1       5.255  -5.156  -5.149  0.00  0.00    -0.048 A 
ATOM      3  C   LIG d   1       5.322  -6.416  -5.701  0.00  0.00    -0.024 A 
ATOM      4  C   LIG d   1       4.779  -6.672  -6.955  0.00  0.00     0.033 A 
ATOM      5  C   LIG d   1       4.154  -5.638  -7.656  0.00  0.00    -0.019 A 
ATOM      6  C   LIG d   1       4.076  -4.371  -7.111  0.00  0.00     0.034 A 
ATOM      7  N   LIG d   1       4.957  -8.004  -7.329  0.00  0.00    -0.336 N 
ATOM      8  C   LIG d   1       5.669  -8.733  -6.277  0.00  0.00     0.050 A 
ATOM      9  H   LIG d   1       6.613  -9.121  -6.658  0.00  0.00     0.055 H 
ATOM     10  C   LIG d   1       5.928  -7.696  -5.171  0.00  0.00    -0.003 A 
ATOM     11  H   LIG d   1       5.686  -4.970  -4.176  0.00  0.00     0.063 H 
ATOM     12  H   LIG d   1       3.731  -5.830  -8.631  0.00  0.00     0.066 H 
ATOM     13  H   LIG d   1       4.654  -8.391  -8.164  0.00  0.00     0.147 HD
ATOM     14  H   LIG d   1       5.435  -7.996  -4.246  0.00  0.00     0.034 H 
ATOM     15  H   LIG d   1       6.999  -7.573  -5.008  0.00  0.00     0.034 H 
ENDROOT
BRANCH   1  16
ATOM     16  C   LIG d   1       4.549  -2.772  -5.254  0.00  0.00    -0.052 C 
ATOM     17  C   LIG d   1       4.138  -2.616  -3.985  0.00  0.00    -0.054 C 
ATOM     18  H   LIG d   1       3.863  -3.479  -3.396  0.00  0.00     0.062 H 
ATOM     19  H   LIG d   1       4.823  -1.908  -5.843  0.00  0.00     0.062 H 
BRANCH  17  20
ATOM     20  C   LIG d   1       4.059  -1.268  -3.396  0.00  0.00    -0.025 A 
ATOM     21  C   LIG d   1       3.387  -0.244  -4.070  0.00  0.00    -0.055 A 
ATOM     22  C   LIG d   1       3.317   1.015  -3.511  0.00  0.00    -0.061 A 
ATOM     23  H   LIG d   1       2.920  -0.440  -5.023  0.00  0.00     0.062 H 
ATOM     24  C   LIG d   1       3.910   1.266  -2.286  0.00  0.00    -0.062 A 
ATOM     25  H   LIG d   1       2.798   1.806  -4.031  0.00  0.00     0.062 H 
ATOM     26  C   LIG d   1       4.577   0.257  -1.613  0.00  0.00    -0.061 A 
ATOM     27  H   LIG d   1       3.852   2.254  -1.854  0.00  0.00     0.062 H 
ATOM     28  C   LIG d   1       4.656  -1.007  -2.159  0.00  0.00    -0.055 A 
ATOM     29  H   LIG d   1       5.038   0.461  -0.657  0.00  0.00     0.062 H 
ATOM     30  H   LIG d   1       5.177  -1.792  -1.633  0.00  0.00     0.062 H 
ENDBRANCH  17  20
ENDBRANCH   1  16
BRANCH   6  31
ATOM     31  N   LIG d   1       3.452  -3.345  -7.817  0.00  0.00    -0.357 N 
ATOM     32  H   LIG d   1       3.947  -2.842  -8.483  0.00  0.00     0.142 HD
ATOM     33  H   LIG d   1       2.521  -3.131  -7.642  0.00  0.00     0.142 HD
ENDBRANCH   6  31
BRANCH   8  34
ATOM     34  C   LIG d   1       4.815  -9.858  -5.751  0.00  0.00    -0.027 A 
ATOM     35  C   LIG d   1       4.402  -9.854  -4.432  0.00  0.00    -0.057 A 
ATOM     36  C   LIG d   1       3.617 -10.885  -3.950  0.00  0.00    -0.061 A 
ATOM     37  H   LIG d   1       4.691  -9.044  -3.778  0.00  0.00     0.062 H 
ATOM     38  C   LIG d   1       3.248 -11.921  -4.787  0.00  0.00    -0.062 A 
ATOM     39  H   LIG d   1       3.295 -10.882  -2.920  0.00  0.00     0.062 H 
ATOM     40  C   LIG d   1       3.661 -11.925  -6.106  0.00  0.00    -0.061 A 
ATOM     41  H   LIG d   1       2.636 -12.728  -4.411  0.00  0.00     0.062 H 
ATOM     42  C   LIG d   1       4.441 -10.891  -6.590  0.00  0.00    -0.057 A 
ATOM     43  H   LIG d   1       3.372 -12.735  -6.760  0.00  0.00     0.062 H 
ATOM     44  H   LIG d   1       4.760 -10.892  -7.621  0.00  0.00     0.062 H 
ENDBRANCH   8  34
TORSDOF 4
ENDMDL
MODEL 2
REMARK VINA RESULT:      -7.3      6.150      7.421
REMARK  4 active torsions:
REMARK  status: ('A' for Active; 'I' for Inactive)
REMARK    1  A    between atoms: C_4  and  C_7 
REMARK    2  A    between atoms: C_8  and  C_9 
REMARK    3  A    between atoms: C_14  and  N_15 
REMARK    4  A    between atoms: C_17  and  C_20 
ROOT
ATOM      1  C   LIG d   1       3.251  -0.285  -7.810  0.00  0.00    -0.004 A 
ATOM      2  C   LIG d   1       3.149  -1.543  -8.411  0.00  0.00    -0.048 A 
ATOM      3  C   LIG d   1       2.662  -1.659  -9.695  0.00  0.00    -0.024 A 
ATOM      4  C   LIG d   1       2.276  -0.532 -10.412  0.00  0.00     0.033 A 
ATOM      5  C   LIG d   1       2.380   0.728  -9.819  0.00  0.00    -0.019 A 
ATOM      6  C   LIG d   1       2.863   0.856  -8.530  0.00  0.00     0.034 A 
ATOM      7  N   LIG d   1       1.818  -0.868 -11.686  0.00  0.00    -0.336 N 
ATOM      8  C   LIG d   1       1.885  -2.318 -11.881  0.00  0.00     0.050 A 
ATOM      9  H   LIG d   1       2.553  -2.558 -12.708  0.00  0.00     0.055 H 
ATOM     10  C   LIG d   1       2.447  -2.878 -10.563  0.00  0.00    -0.003 A 
ATOM     11  H   LIG d   1       3.450  -2.427  -7.867  0.00  0.00     0.063 H 
ATOM     12  H   LIG d   1       2.082   1.607 -10.370  0.00  0.00     0.066 H 
ATOM     13  H   LIG d   1       1.502  -0.233 -12.347  0.00  0.00     0.147 HD
ATOM     14  H   LIG d   1       1.727  -3.553 -10.099  0.00  0.00     0.034 H 
ATOM     15  H   LIG d   1       3.391  -3.393 -10.740  0.00  0.00     0.034 H 
ENDROOT
BRANCH   1  16
ATOM     16  C   LIG d   1       3.767  -0.159  -6.437  0.00  0.00    -0.052 C 
ATOM     17  C   LIG d   1       2.921  -0.203  -5.394  0.00  0.00    -0.054 C 
ATOM     18  H   LIG d   1       1.862  -0.332  -5.564  0.00  0.00     0.062 H 
ATOM     19  H   LIG d   1       4.826  -0.029  -6.268  0.00  0.00     0.062 H 
BRANCH  17  20
ATOM     20  C   LIG d   1       3.437  -0.076  -4.021  0.00  0.00    -0.025 A 
ATOM     21  C   LIG d   1       3.828  -1.213  -3.308  0.00  0.00    -0.055 A 
ATOM     22  C   LIG d   1       4.312  -1.084  -2.023  0.00  0.00    -0.061 A 
ATOM     23  H   LIG d   1       3.757  -2.188  -3.764  0.00  0.00     0.062 H 
ATOM     24  C   LIG d   1       4.409   0.166  -1.438  0.00  0.00    -0.062 A 
ATOM     25  H   LIG d   1       4.614  -1.963  -1.471  0.00  0.00     0.062 H 
ATOM     26  C   LIG d   1       4.024   1.297  -2.137  0.00  0.00    -0.061 A 
ATOM     27  H   LIG d   1       4.788   0.260  -0.431  0.00  0.00     0.062 H 
ATOM     28  C   LIG d   1       3.539   1.184  -3.423  0.00  0.00    -0.055 A 
ATOM     29  H   LIG d   1       4.103   2.269  -1.674  0.00  0.00     0.062 H 
ATOM     30  H   LIG d   1       3.239   2.067  -3.967  0.00  0.00     0.062 H 
ENDBRANCH  17  20
ENDBRANCH   1  16
BRANCH   6  31
ATOM     31  N   LIG d   1       2.964   2.117  -7.945  0.00  0.00    -0.357 N 
ATOM     32  H   LIG d   1       2.373   2.832  -8.228  0.00  0.00     0.142 HD
ATOM     33  H   LIG d   1       3.625   2.281  -7.254  0.00  0.00     0.142 HD
ENDBRANCH   6  31
BRANCH   8  34
ATOM     34  C   LIG d   1       0.509  -2.874 -12.142  0.00  0.00    -0.027 A 
ATOM     35  C   LIG d   1       0.072  -3.991 -11.454  0.00  0.00    -0.057 A 
ATOM     36  C   LIG d   1      -1.191  -4.500 -11.694  0.00  0.00    -0.061 A 
ATOM     37  H   LIG d   1       0.718  -4.465 -10.730  0.00  0.00     0.062 H 
ATOM     38  C   LIG d   1      -2.016  -3.893 -12.621  0.00  0.00    -0.062 A 
ATOM     39  H   LIG d   1      -1.531  -5.373 -11.156  0.00  0.00     0.062 H 
ATOM     40  C   LIG d   1      -1.580  -2.776 -13.309  0.00  0.00    -0.061 A 
ATOM     41  H   LIG d   1      -3.002  -4.291 -12.809  0.00  0.00     0.062 H 
ATOM     42  C   LIG d   1      -0.319  -2.263 -13.065  0.00  0.00    -0.057 A 
ATOM     43  H   LIG d   1      -2.225  -2.302 -14.033  0.00  0.00     0.062 H 
ATOM     44  H   LIG d   1       0.020  -1.388 -13.600  0.00  0.00     0.062 H 
ENDBRANCH   8  34
TORSDOF 4
ENDMDL
MODEL 3
REMARK VINA RESULT:      -7.0      5.947      8.312
REMARK  4 active torsions:
REMARK  status: ('A' for Active; 'I' for Inactive)
REMARK    1  A    between atoms: C_4  and  C_7 
REMARK    2  A    between atoms: C_8  and  C_9 
REMARK    3  A    between atoms: C_14  and  N_15 
REMARK    4  A    between atoms: C_17  and  C_20 
ROOT
ATOM      1  C   LIG d   1       3.607   0.153  -7.997  0.00  0.00    -0.004 A 
ATOM      2  C   LIG d   1       4.087  -0.842  -8.852  0.00  0.00    -0.048 A 
ATOM      3  C   LIG d   1       4.179  -0.605 -10.206  0.00  0.00    -0.024 A 
ATOM      4  C   LIG d   1       3.809   0.624 -10.738  0.00  0.00     0.033 A 
ATOM      5  C   LIG d   1       3.334   1.625  -9.888  0.00  0.00    -0.019 A 
ATOM      6  C   LIG d   1       3.232   1.397  -8.529  0.00  0.00     0.034 A 
ATOM      7  N   LIG d   1       3.984   0.657 -12.122  0.00  0.00    -0.336 N 
ATOM      8  C   LIG d   1       4.509  -0.626 -12.595  0.00  0.00     0.050 A 
ATOM      9  H   LIG d   1       5.481  -0.485 -13.069  0.00  0.00     0.055 H 
ATOM     10  C   LIG d   1       4.651  -1.494 -11.335  0.00  0.00    -0.003 A 
ATOM     11  H   LIG d   1       4.383  -1.802  -8.451  0.00  0.00     0.063 H 
ATOM     12  H   LIG d   1       3.044   2.582 -10.295  0.00  0.00     0.066 H 
ATOM     13  H   LIG d   1       3.786   1.419 -12.688  0.00  0.00     0.147 HD
ATOM     14  H   LIG d   1       4.020  -2.381 -11.410  0.00  0.00     0.034 H 
ATOM     15  H   LIG d   1       5.692  -1.781 -11.185  0.00  0.00     0.034 H 
ENDROOT
BRANCH   1  16
ATOM     16  C   LIG d   1       3.502  -0.099  -6.550  0.00  0.00    -0.052 C 
ATOM     17  C   LIG d   1       4.591  -0.460  -5.850  0.00  0.00    -0.054 C 
ATOM     18  H   LIG d   1       5.543  -0.567  -6.350  0.00  0.00     0.062 H 
ATOM     19  H   LIG d   1       2.550   0.007  -6.051  0.00  0.00     0.062 H 
BRANCH  17  20
ATOM     20  C   LIG d   1       4.486  -0.713  -4.403  0.00  0.00    -0.025 A 
ATOM     21  C   LIG d   1       4.087  -1.969  -3.936  0.00  0.00    -0.055 A 
ATOM     22  C   LIG d   1       3.993  -2.198  -2.579  0.00  0.00    -0.061 A 
ATOM     23  H   LIG d   1       3.859  -2.759  -4.635  0.00  0.00     0.062 H 
ATOM     24  C   LIG d   1       4.291  -1.188  -1.681  0.00  0.00    -0.062 A 
ATOM     25  H   LIG d   1       3.685  -3.168  -2.217  0.00  0.00     0.062 H 
ATOM     26  C   LIG d   1       4.686   0.058  -2.136  0.00  0.00    -0.061 A 
ATOM     27  H   LIG d   1       4.215  -1.374  -0.620  0.00  0.00     0.062 H 
ATOM     28  C   LIG d   1       4.785   0.302  -3.489  0.00  0.00    -0.055 A 
ATOM     29  H   LIG d   1       4.917   0.841  -1.429  0.00  0.00     0.062 H 
ATOM     30  H   LIG d   1       5.093   1.274  -3.843  0.00  0.00     0.062 H 
ENDBRANCH  17  20
ENDBRANCH   1  16
BRANCH   6  31
ATOM     31  N   LIG d   1       2.756   2.401  -7.687  0.00  0.00    -0.357 N 
ATOM     32  H   LIG d   1       3.252   3.229  -7.590  0.00  0.00     0.142 HD
ATOM     33  H   LIG d   1       1.928   2.272  -7.197  0.00  0.00     0.142 HD
ENDBRANCH   6  31
BRANCH   8  34
ATOM     34  C   LIG d   1       3.543  -1.260 -13.564  0.00  0.00    -0.027 A 
ATOM     35  C   LIG d   1       2.379  -1.842 -13.097  0.00  0.00    -0.057 A 
ATOM     36  C   LIG d   1       1.493  -2.423 -13.985  0.00  0.00    -0.061 A 
ATOM     37  H   LIG d   1       2.162  -1.843 -12.039  0.00  0.00     0.062 H 
ATOM     38  C   LIG d   1       1.772  -2.423 -15.339  0.00  0.00    -0.062 A 
ATOM     39  H   LIG d   1       0.584  -2.878 -13.621  0.00  0.00     0.062 H 
ATOM     40  C   LIG d   1       2.935  -1.840 -15.805  0.00  0.00    -0.061 A 
ATOM     41  H   LIG d   1       1.080  -2.877 -16.032  0.00  0.00     0.062 H 
ATOM     42  C   LIG d   1       3.819  -1.254 -14.918  0.00  0.00    -0.057 A 
ATOM     43  H   LIG d   1       3.152  -1.839 -16.863  0.00  0.00     0.062 H 
ATOM     44  H   LIG d   1       4.726  -0.795 -15.283  0.00  0.00     0.062 H 
ENDBRANCH   8  34
TORSDOF 4
ENDMDL
MODEL 4
REMARK VINA RESULT:      -6.7      1.895      2.273
REMARK  4 active torsions:
REMARK  status: ('A' for Active; 'I' for Inactive)
REMARK    1  A    between atoms: C_4  and  C_7 
REMARK    2  A    between atoms: C_8  and  C_9 
REMARK    3  A    between atoms: C_14  and  N_15 
REMARK    4  A    between atoms: C_17  and  C_20 
ROOT
ATOM      1  C   LIG d   1       5.220  -4.463  -5.459  0.00  0.00    -0.004 A 
ATOM      2  C   LIG d   1       6.384  -5.080  -4.993  0.00  0.00    -0.048 A 
ATOM      3  C   LIG d   1       6.694  -6.362  -5.390  0.00  0.00    -0.024 A 
ATOM      4  C   LIG d   1       5.864  -7.055  -6.264  0.00  0.00     0.033 A 
ATOM      5  C   LIG d   1       4.702  -6.443  -6.737  0.00  0.00    -0.019 A 
ATOM      6  C   LIG d   1       4.377  -5.158  -6.343  0.00  0.00     0.034 A 
ATOM      7  N   LIG d   1       6.360  -8.329  -6.540  0.00  0.00    -0.336 N 
ATOM      8  C   LIG d   1       7.616  -8.549  -5.818  0.00  0.00     0.050 A 
ATOM      9  H   LIG d   1       8.429  -8.731  -6.521  0.00  0.00     0.055 H 
ATOM     10  C   LIG d   1       7.867  -7.249  -5.038  0.00  0.00    -0.003 A 
ATOM     11  H   LIG d   1       7.041  -4.551  -4.317  0.00  0.00     0.063 H 
ATOM     12  H   LIG d   1       4.053  -6.975  -7.416  0.00  0.00     0.066 H 
ATOM     13  H   LIG d   1       5.936  -8.975  -7.125  0.00  0.00     0.147 HD
ATOM     14  H   LIG d   1       7.886  -7.446  -3.966  0.00  0.00     0.034 H 
ATOM     15  H   LIG d   1       8.803  -6.789  -5.356  0.00  0.00     0.034 H 
ENDROOT
BRANCH   1  16
ATOM     16  C   LIG d   1       4.883  -3.095  -5.034  0.00  0.00    -0.052 C 
ATOM     17  C   LIG d   1       4.627  -2.837  -3.740  0.00  0.00    -0.054 C 
ATOM     18  H   LIG d   1       4.667  -3.635  -3.012  0.00  0.00     0.062 H 
ATOM     19  H   LIG d   1       4.842  -2.298  -5.762  0.00  0.00     0.062 H 
BRANCH  17  20
ATOM     20  C   LIG d   1       4.289  -1.468  -3.314  0.00  0.00    -0.025 A 
ATOM     21  C   LIG d   1       4.748  -0.981  -2.087  0.00  0.00    -0.055 A 
ATOM     22  C   LIG d   1       4.428   0.303  -1.696  0.00  0.00    -0.061 A 
ATOM     23  H   LIG d   1       5.354  -1.605  -1.449  0.00  0.00     0.062 H 
ATOM     24  C   LIG d   1       3.655   1.107  -2.515  0.00  0.00    -0.062 A 
ATOM     25  H   LIG d   1       4.782   0.680  -0.748  0.00  0.00     0.062 H 
ATOM     26  C   LIG d   1       3.197   0.631  -3.731  0.00  0.00    -0.061 A 
ATOM     27  H   LIG d   1       3.408   2.111  -2.203  0.00  0.00     0.062 H 
ATOM     28  C   LIG d   1       3.509  -0.650  -4.136  0.00  0.00    -0.055 A 
ATOM     29  H   LIG d   1       2.594   1.265  -4.365  0.00  0.00     0.062 H 
ATOM     30  H   LIG d   1       3.151  -1.019  -5.085  0.00  0.00     0.062 H 
ENDBRANCH  17  20
ENDBRANCH   1  16
BRANCH   6  31
ATOM     31  N   LIG d   1       3.216  -4.554  -6.819  0.00  0.00    -0.357 N 
ATOM     32  H   LIG d   1       2.388  -5.058  -6.860  0.00  0.00     0.142 HD
ATOM     33  H   LIG d   1       3.234  -3.629  -7.112  0.00  0.00     0.142 HD
ENDBRANCH   6  31
BRANCH   8  34
ATOM     34  C   LIG d   1       7.476  -9.712  -4.869  0.00  0.00    -0.027 A 
ATOM     35  C   LIG d   1       7.567  -9.506  -3.506  0.00  0.00    -0.057 A 
ATOM     36  C   LIG d   1       7.437 -10.572  -2.635  0.00  0.00    -0.061 A 
ATOM     37  H   LIG d   1       7.739  -8.512  -3.120  0.00  0.00     0.062 H 
ATOM     38  C   LIG d   1       7.218 -11.844  -3.129  0.00  0.00    -0.062 A 
ATOM     39  H   LIG d   1       7.509 -10.411  -1.570  0.00  0.00     0.062 H 
ATOM     40  C   LIG d   1       7.126 -12.050  -4.492  0.00  0.00    -0.061 A 
ATOM     41  H   LIG d   1       7.118 -12.677  -2.449  0.00  0.00     0.062 H 
ATOM     42  C   LIG d   1       7.250 -10.983  -5.363  0.00  0.00    -0.057 A 
ATOM     43  H   LIG d   1       6.954 -13.045  -4.878  0.00  0.00     0.062 H 
ATOM     44  H   LIG d   1       7.174 -11.144  -6.428  0.00  0.00     0.062 H 
ENDBRANCH   8  34
TORSDOF 4
ENDMDL
MODEL 5
REMARK VINA RESULT:      -6.7      1.877      8.840
REMARK  4 active torsions:
REMARK  status: ('A' for Active; 'I' for Inactive)
REMARK    1  A    between atoms: C_4  and  C_7 
REMARK    2  A    between atoms: C_8  and  C_9 
REMARK    3  A    between atoms: C_14  and  N_15 
REMARK    4  A    between atoms: C_17  and  C_20 
ROOT
ATOM      1  C   LIG d   1       6.270  -5.773  -5.526  0.00  0.00    -0.004 A 
ATOM      2  C   LIG d   1       5.274  -4.822  -5.757  0.00  0.00    -0.048 A 
ATOM      3  C   LIG d   1       5.538  -3.483  -5.563  0.00  0.00    -0.024 A 
ATOM      4  C   LIG d   1       6.795  -3.060  -5.147  0.00  0.00     0.033 A 
ATOM      5  C   LIG d   1       7.796  -4.007  -4.919  0.00  0.00    -0.019 A 
ATOM      6  C   LIG d   1       7.542  -5.352  -5.106  0.00  0.00     0.034 A 
ATOM      7  N   LIG d   1       6.851  -1.673  -5.016  0.00  0.00    -0.336 N 
ATOM      8  C   LIG d   1       5.557  -1.080  -5.361  0.00  0.00     0.050 A 
ATOM      9  H   LIG d   1       5.664  -0.407  -6.211  0.00  0.00     0.055 H 
ATOM     10  C   LIG d   1       4.654  -2.267  -5.732  0.00  0.00    -0.003 A 
ATOM     11  H   LIG d   1       4.293  -5.136  -6.086  0.00  0.00     0.063 H 
ATOM     12  H   LIG d   1       8.775  -3.685  -4.596  0.00  0.00     0.066 H 
ATOM     13  H   LIG d   1       7.634  -1.173  -4.738  0.00  0.00     0.147 HD
ATOM     14  H   LIG d   1       3.800  -2.321  -5.057  0.00  0.00     0.034 H 
ATOM     15  H   LIG d   1       4.316  -2.181  -6.765  0.00  0.00     0.034 H 
ENDROOT
BRANCH   1  16
ATOM     16  C   LIG d   1       5.990  -7.204  -5.728  0.00  0.00    -0.052 C 
ATOM     17  C   LIG d   1       4.946  -7.779  -5.108  0.00  0.00    -0.054 C 
ATOM     18  H   LIG d   1       4.311  -7.191  -4.460  0.00  0.00     0.062 H 
ATOM     19  H   LIG d   1       6.625  -7.793  -6.375  0.00  0.00     0.062 H 
BRANCH  17  20
ATOM     20  C   LIG d   1       4.666  -9.211  -5.309  0.00  0.00    -0.025 A 
ATOM     21  C   LIG d   1       4.279 -10.010  -4.229  0.00  0.00    -0.055 A 
ATOM     22  C   LIG d   1       4.018 -11.350  -4.426  0.00  0.00    -0.061 A 
ATOM     23  H   LIG d   1       4.180  -9.579  -3.245  0.00  0.00     0.062 H 
ATOM     24  C   LIG d   1       4.139 -11.904  -5.689  0.00  0.00    -0.062 A 
ATOM     25  H   LIG d   1       3.718 -11.968  -3.593  0.00  0.00     0.062 H 
ATOM     26  C   LIG d   1       4.521 -11.119  -6.763  0.00  0.00    -0.061 A 
ATOM     27  H   LIG d   1       3.933 -12.954  -5.837  0.00  0.00     0.062 H 
ATOM     28  C   LIG d   1       4.786  -9.778  -6.581  0.00  0.00    -0.055 A 
ATOM     29  H   LIG d   1       4.614 -11.559  -7.745  0.00  0.00     0.062 H 
ATOM     30  H   LIG d   1       5.085  -9.167  -7.420  0.00  0.00     0.062 H 
ENDBRANCH  17  20
ENDBRANCH   1  16
BRANCH   6  31
ATOM     31  N   LIG d   1       8.547  -6.290  -4.876  0.00  0.00    -0.357 N 
ATOM     32  H   LIG d   1       8.338  -7.238  -4.888  0.00  0.00     0.142 HD
ATOM     33  H   LIG d   1       9.455  -5.997  -4.704  0.00  0.00     0.142 HD
ENDBRANCH   6  31
BRANCH   8  34
ATOM     34  C   LIG d   1       4.990  -0.339  -4.177  0.00  0.00    -0.027 A 
ATOM     35  C   LIG d   1       3.661  -0.502  -3.832  0.00  0.00    -0.057 A 
ATOM     36  C   LIG d   1       3.141   0.177  -2.745  0.00  0.00    -0.061 A 
ATOM     37  H   LIG d   1       3.029  -1.159  -4.411  0.00  0.00     0.062 H 
ATOM     38  C   LIG d   1       3.950   1.018  -2.004  0.00  0.00    -0.062 A 
ATOM     39  H   LIG d   1       2.103   0.050  -2.476  0.00  0.00     0.062 H 
ATOM     40  C   LIG d   1       5.278   1.179  -2.349  0.00  0.00    -0.061 A 
ATOM     41  H   LIG d   1       3.544   1.548  -1.156  0.00  0.00     0.062 H 
ATOM     42  C   LIG d   1       5.800   0.497  -3.432  0.00  0.00    -0.057 A 
ATOM     43  H   LIG d   1       5.910   1.836  -1.769  0.00  0.00     0.062 H 
ATOM     44  H   LIG d   1       6.840   0.620  -3.698  0.00  0.00     0.062 H 
ENDBRANCH   8  34
TORSDOF 4
ENDMDL
MODEL 6
REMARK VINA RESULT:      -6.6      4.195      5.239
REMARK  4 active torsions:
REMARK  status: ('A' for Active; 'I' for Inactive)
REMARK    1  A    between atoms: C_4  and  C_7 
REMARK    2  A    between atoms: C_8  and  C_9 
REMARK    3  A    between atoms: C_14  and  N_15 
REMARK    4  A    between atoms: C_17  and  C_20 
ROOT
ATOM      1  C   LIG d   1       7.411  -3.245  -4.143  0.00  0.00    -0.004 A 
ATOM      2  C   LIG d   1       8.403  -3.485  -3.188  0.00  0.00    -0.048 A 
ATOM      3  C   LIG d   1       9.162  -4.634  -3.253  0.00  0.00    -0.024 A 
ATOM      4  C   LIG d   1       8.962  -5.560  -4.269  0.00  0.00     0.033 A 
ATOM      5  C   LIG d   1       7.975  -5.324  -5.229  0.00  0.00    -0.019 A 
ATOM      6  C   LIG d   1       7.204  -4.178  -5.172  0.00  0.00     0.034 A 
ATOM      7  N   LIG d   1       9.833  -6.644  -4.153  0.00  0.00    -0.336 N 
ATOM      8  C   LIG d   1      10.701  -6.471  -2.986  0.00  0.00     0.050 A 
ATOM      9  H   LIG d   1      11.745  -6.429  -3.294  0.00  0.00     0.055 H 
ATOM     10  C   LIG d   1      10.276  -5.133  -2.360  0.00  0.00    -0.003 A 
ATOM     11  H   LIG d   1       8.572  -2.770  -2.395  0.00  0.00     0.063 H 
ATOM     12  H   LIG d   1       7.815  -6.040  -6.021  0.00  0.00     0.066 H 
ATOM     13  H   LIG d   1       9.861  -7.401  -4.758  0.00  0.00     0.147 HD
ATOM     14  H   LIG d   1       9.910  -5.286  -1.345  0.00  0.00     0.034 H 
ATOM     15  H   LIG d   1      11.109  -4.430  -2.361  0.00  0.00     0.034 H 
ENDROOT
BRANCH   1  16
ATOM     16  C   LIG d   1       6.595  -2.022  -4.074  0.00  0.00    -0.052 C 
ATOM     17  C   LIG d   1       5.636  -1.905  -3.142  0.00  0.00    -0.054 C 
ATOM     18  H   LIG d   1       5.462  -2.710  -2.442  0.00  0.00     0.062 H 
ATOM     19  H   LIG d   1       6.768  -1.217  -4.775  0.00  0.00     0.062 H 
BRANCH  17  20
ATOM     20  C   LIG d   1       4.819  -0.681  -3.073  0.00  0.00    -0.025 A 
ATOM     21  C   LIG d   1       4.927   0.176  -1.975  0.00  0.00    -0.055 A 
ATOM     22  C   LIG d   1       4.160   1.321  -1.919  0.00  0.00    -0.061 A 
ATOM     23  H   LIG d   1       5.614  -0.054  -1.175  0.00  0.00     0.062 H 
ATOM     24  C   LIG d   1       3.283   1.621  -2.947  0.00  0.00    -0.062 A 
ATOM     25  H   LIG d   1       4.243   1.984  -1.071  0.00  0.00     0.062 H 
ATOM     26  C   LIG d   1       3.170   0.777  -4.038  0.00  0.00    -0.061 A 
ATOM     27  H   LIG d   1       2.685   2.519  -2.898  0.00  0.00     0.062 H 
ATOM     28  C   LIG d   1       3.931  -0.371  -4.108  0.00  0.00    -0.055 A 
ATOM     29  H   LIG d   1       2.483   1.017  -4.836  0.00  0.00     0.062 H 
ATOM     30  H   LIG d   1       3.841  -1.029  -4.959  0.00  0.00     0.062 H 
ENDBRANCH  17  20
ENDBRANCH   1  16
BRANCH   6  31
ATOM     31  N   LIG d   1       6.223  -3.950  -6.134  0.00  0.00    -0.357 N 
ATOM     32  H   LIG d   1       5.355  -3.606  -5.870  0.00  0.00     0.142 HD
ATOM     33  H   LIG d   1       6.406  -4.135  -7.069  0.00  0.00     0.142 HD
ENDBRANCH   6  31
BRANCH   8  34
ATOM     34  C   LIG d   1      10.490  -7.598  -2.007  0.00  0.00    -0.027 A 
ATOM     35  C   LIG d   1       9.527  -8.558  -2.256  0.00  0.00    -0.057 A 
ATOM     36  C   LIG d   1       9.335  -9.592  -1.359  0.00  0.00    -0.061 A 
ATOM     37  H   LIG d   1       8.925  -8.500  -3.151  0.00  0.00     0.062 H 
ATOM     38  C   LIG d   1      10.105  -9.666  -0.214  0.00  0.00    -0.062 A 
ATOM     39  H   LIG d   1       8.582 -10.342  -1.553  0.00  0.00     0.062 H 
ATOM     40  C   LIG d   1      11.068  -8.706   0.034  0.00  0.00    -0.061 A 
ATOM     41  H   LIG d   1       9.955 -10.473   0.487  0.00  0.00     0.062 H 
ATOM     42  C   LIG d   1      11.265  -7.675  -0.865  0.00  0.00    -0.057 A 
ATOM     43  H   LIG d   1      11.670  -8.764   0.929  0.00  0.00     0.062 H 
ATOM     44  H   LIG d   1      12.021  -6.928  -0.673  0.00  0.00     0.062 H 
ENDBRANCH   8  34
TORSDOF 4
ENDMDL
MODEL 7
REMARK VINA RESULT:      -6.6      7.224     12.357
REMARK  4 active torsions:
REMARK  status: ('A' for Active; 'I' for Inactive)
REMARK    1  A    between atoms: C_4  and  C_7 
REMARK    2  A    between atoms: C_8  and  C_9 
REMARK    3  A    between atoms: C_14  and  N_15 
REMARK    4  A    between atoms: C_17  and  C_20 
ROOT
ATOM      1  C   LIG d   1       8.716   1.526  -4.151  0.00  0.00    -0.004 A 
ATOM      2  C   LIG d   1       8.674   2.879  -3.804  0.00  0.00    -0.048 A 
ATOM      3  C   LIG d   1       9.798   3.664  -3.943  0.00  0.00    -0.024 A 
ATOM      4  C   LIG d   1      10.981   3.128  -4.438  0.00  0.00     0.033 A 
ATOM      5  C   LIG d   1      11.028   1.777  -4.791  0.00  0.00    -0.019 A 
ATOM      6  C   LIG d   1       9.908   0.979  -4.652  0.00  0.00     0.034 A 
ATOM      7  N   LIG d   1      11.992   4.087  -4.502  0.00  0.00    -0.336 N 
ATOM      8  C   LIG d   1      11.492   5.379  -4.025  0.00  0.00     0.050 A 
ATOM      9  H   LIG d   1      11.554   6.124  -4.817  0.00  0.00     0.055 H 
ATOM     10  C   LIG d   1      10.024   5.128  -3.643  0.00  0.00    -0.003 A 
ATOM     11  H   LIG d   1       7.759   3.310  -3.423  0.00  0.00     0.063 H 
ATOM     12  H   LIG d   1      11.944   1.354  -5.175  0.00  0.00     0.066 H 
ATOM     13  H   LIG d   1      12.894   3.924  -4.817  0.00  0.00     0.147 HD
ATOM     14  H   LIG d   1       9.868   5.327  -2.582  0.00  0.00     0.034 H 
ATOM     15  H   LIG d   1       9.362   5.749  -4.246  0.00  0.00     0.034 H 
ENDROOT
BRANCH   1  16
ATOM     16  C   LIG d   1       7.518   0.684  -4.000  0.00  0.00    -0.052 C 
ATOM     17  C   LIG d   1       6.537   1.055  -3.159  0.00  0.00    -0.054 C 
ATOM     18  H   LIG d   1       6.628   1.971  -2.594  0.00  0.00     0.062 H 
ATOM     19  H   LIG d   1       7.427  -0.233  -4.565  0.00  0.00     0.062 H 
BRANCH  17  20
ATOM     20  C   LIG d   1       5.339   0.212  -3.007  0.00  0.00    -0.025 A 
ATOM     21  C   LIG d   1       4.068   0.793  -2.995  0.00  0.00    -0.055 A 
ATOM     22  C   LIG d   1       2.951  -0.004  -2.853  0.00  0.00    -0.061 A 
ATOM     23  H   LIG d   1       3.960   1.861  -3.101  0.00  0.00     0.062 H 
ATOM     24  C   LIG d   1       3.086  -1.375  -2.723  0.00  0.00    -0.062 A 
ATOM     25  H   LIG d   1       1.968   0.444  -2.843  0.00  0.00     0.062 H 
ATOM     26  C   LIG d   1       4.342  -1.958  -2.734  0.00  0.00    -0.061 A 
ATOM     27  H   LIG d   1       2.208  -1.993  -2.612  0.00  0.00     0.062 H 
ATOM     28  C   LIG d   1       5.468  -1.174  -2.875  0.00  0.00    -0.055 A 
ATOM     29  H   LIG d   1       4.439  -3.028  -2.631  0.00  0.00     0.062 H 
ATOM     30  H   LIG d   1       6.446  -1.630  -2.884  0.00  0.00     0.062 H 
ENDBRANCH  17  20
ENDBRANCH   1  16
BRANCH   6  31
ATOM     31  N   LIG d   1       9.963  -0.368  -5.006  0.00  0.00    -0.357 N 
ATOM     32  H   LIG d   1       9.895  -0.627  -5.938  0.00  0.00     0.142 HD
ATOM     33  H   LIG d   1      10.068  -1.047  -4.321  0.00  0.00     0.142 HD
ENDBRANCH   6  31
BRANCH   8  34
ATOM     34  C   LIG d   1      12.278   5.831  -2.821  0.00  0.00    -0.027 A 
ATOM     35  C   LIG d   1      11.888   6.960  -2.125  0.00  0.00    -0.057 A 
ATOM     36  C   LIG d   1      12.609   7.374  -1.020  0.00  0.00    -0.061 A 
ATOM     37  H   LIG d   1      11.021   7.519  -2.445  0.00  0.00     0.062 H 
ATOM     38  C   LIG d   1      13.719   6.659  -0.612  0.00  0.00    -0.062 A 
ATOM     39  H   LIG d   1      12.305   8.257  -0.477  0.00  0.00     0.062 H 
ATOM     40  C   LIG d   1      14.107   5.530  -1.306  0.00  0.00    -0.061 A 
ATOM     41  H   LIG d   1      14.282   6.983   0.251  0.00  0.00     0.062 H 
ATOM     42  C   LIG d   1      13.384   5.112  -2.408  0.00  0.00    -0.057 A 
ATOM     43  H   LIG d   1      14.975   4.971  -0.986  0.00  0.00     0.062 H 
ATOM     44  H   LIG d   1      13.685   4.227  -2.948  0.00  0.00     0.062 H 
ENDBRANCH   8  34
TORSDOF 4
ENDMDL
MODEL 8
REMARK VINA RESULT:      -6.4      2.898      9.161
REMARK  4 active torsions:
REMARK  status: ('A' for Active; 'I' for Inactive)
REMARK    1  A    between atoms: C_4  and  C_7 
REMARK    2  A    between atoms: C_8  and  C_9 
REMARK    3  A    between atoms: C_14  and  N_15 
REMARK    4  A    between atoms: C_17  and  C_20 
ROOT
ATOM      1  C   LIG d   1       7.946  -6.081  -4.823  0.00  0.00    -0.004 A 
ATOM      2  C   LIG d   1       7.032  -5.132  -5.287  0.00  0.00    -0.048 A 
ATOM      3  C   LIG d   1       7.168  -3.808  -4.929  0.00  0.00    -0.024 A 
ATOM      4  C   LIG d   1       8.217  -3.397  -4.115  0.00  0.00     0.033 A 
ATOM      5  C   LIG d   1       9.137  -4.341  -3.652  0.00  0.00    -0.019 A 
ATOM      6  C   LIG d   1       9.008  -5.672  -4.001  0.00  0.00     0.034 A 
ATOM      7  N   LIG d   1       8.174  -2.023  -3.878  0.00  0.00    -0.336 N 
ATOM      8  C   LIG d   1       7.026  -1.428  -4.566  0.00  0.00     0.050 A 
ATOM      9  H   LIG d   1       7.363  -0.688  -5.292  0.00  0.00     0.055 H 
ATOM     10  C   LIG d   1       6.331  -2.598  -5.280  0.00  0.00    -0.003 A 
ATOM     11  H   LIG d   1       6.214  -5.436  -5.925  0.00  0.00     0.063 H 
ATOM     12  H   LIG d   1       9.954  -4.028  -3.020  0.00  0.00     0.066 H 
ATOM     13  H   LIG d   1       8.812  -1.533  -3.336  0.00  0.00     0.147 HD
ATOM     14  H   LIG d   1       5.313  -2.720  -4.909  0.00  0.00     0.034 H 
ATOM     15  H   LIG d   1       6.325  -2.438  -6.358  0.00  0.00     0.034 H 
ENDROOT
BRANCH   1  16
ATOM     16  C   LIG d   1       7.801  -7.497  -5.200  0.00  0.00    -0.052 C 
ATOM     17  C   LIG d   1       6.766  -8.214  -4.733  0.00  0.00    -0.054 C 
ATOM     18  H   LIG d   1       6.040  -7.752  -4.079  0.00  0.00     0.062 H 
ATOM     19  H   LIG d   1       8.527  -7.959  -5.853  0.00  0.00     0.062 H 
BRANCH  17  20
ATOM     20  C   LIG d   1       6.621  -9.631  -5.109  0.00  0.00    -0.025 A 
ATOM     21  C   LIG d   1       7.536 -10.223  -5.984  0.00  0.00    -0.055 A 
ATOM     22  C   LIG d   1       7.394 -11.550  -6.331  0.00  0.00    -0.061 A 
ATOM     23  H   LIG d   1       8.354  -9.644  -6.384  0.00  0.00     0.062 H 
ATOM     24  C   LIG d   1       6.348 -12.296  -5.814  0.00  0.00    -0.062 A 
ATOM     25  H   LIG d   1       8.100 -12.008  -7.007  0.00  0.00     0.062 H 
ATOM     26  C   LIG d   1       5.438 -11.716  -4.947  0.00  0.00    -0.061 A 
ATOM     27  H   LIG d   1       6.242 -13.335  -6.090  0.00  0.00     0.062 H 
ATOM     28  C   LIG d   1       5.567 -10.390  -4.592  0.00  0.00    -0.055 A 
ATOM     29  H   LIG d   1       4.624 -12.304  -4.549  0.00  0.00     0.062 H 
ATOM     30  H   LIG d   1       4.856  -9.940  -3.916  0.00  0.00     0.062 H 
ENDBRANCH  17  20
ENDBRANCH   1  16
BRANCH   6  31
ATOM     31  N   LIG d   1       9.930  -6.607  -3.535  0.00  0.00    -0.357 N 
ATOM     32  H   LIG d   1      10.149  -7.383  -4.075  0.00  0.00     0.142 HD
ATOM     33  H   LIG d   1      10.354  -6.483  -2.671  0.00  0.00     0.142 HD
ENDBRANCH   6  31
BRANCH   8  34
ATOM     34  C   LIG d   1       6.092  -0.792  -3.568  0.00  0.00    -0.027 A 
ATOM     35  C   LIG d   1       5.227  -1.580  -2.832  0.00  0.00    -0.057 A 
ATOM     36  C   LIG d   1       4.371  -0.997  -1.916  0.00  0.00    -0.061 A 
ATOM     37  H   LIG d   1       5.221  -2.651  -2.971  0.00  0.00     0.062 H 
ATOM     38  C   LIG d   1       4.379   0.374  -1.739  0.00  0.00    -0.062 A 
ATOM     39  H   LIG d   1       3.695  -1.613  -1.341  0.00  0.00     0.062 H 
ATOM     40  C   LIG d   1       5.243   1.161  -2.474  0.00  0.00    -0.061 A 
ATOM     41  H   LIG d   1       3.709   0.829  -1.024  0.00  0.00     0.062 H 
ATOM     42  C   LIG d   1       6.104   0.578  -3.386  0.00  0.00    -0.057 A 
ATOM     43  H   LIG d   1       5.249   2.232  -2.335  0.00  0.00     0.062 H 
ATOM     44  H   LIG d   1       6.783   1.193  -3.958  0.00  0.00     0.062 H 
ENDBRANCH   8  34
TORSDOF 4
ENDMDL
MODEL 9
REMARK VINA RESULT:      -6.4      6.665      9.524
REMARK  4 active torsions:
REMARK  status: ('A' for Active; 'I' for Inactive)
REMARK    1  A    between atoms: C_4  and  C_7 
REMARK    2  A    between atoms: C_8  and  C_9 
REMARK    3  A    between atoms: C_14  and  N_15 
REMARK    4  A    between atoms: C_17  and  C_20 
ROOT
ATOM      1  C   LIG d   1       9.042   1.405  -7.110  0.00  0.00    -0.004 A 
ATOM      2  C   LIG d   1       8.326   1.934  -6.034  0.00  0.00    -0.048 A 
ATOM      3  C   LIG d   1       7.902   1.110  -5.013  0.00  0.00    -0.024 A 
ATOM      4  C   LIG d   1       8.190  -0.249  -5.033  0.00  0.00     0.033 A 
ATOM      5  C   LIG d   1       8.910  -0.783  -6.103  0.00  0.00    -0.019 A 
ATOM      6  C   LIG d   1       9.336   0.032  -7.135  0.00  0.00     0.034 A 
ATOM      7  N   LIG d   1       7.677  -0.898  -3.909  0.00  0.00    -0.336 N 
ATOM      8  C   LIG d   1       6.987   0.062  -3.044  0.00  0.00     0.050 A 
ATOM      9  H   LIG d   1       7.465   0.101  -2.065  0.00  0.00     0.055 H 
ATOM     10  C   LIG d   1       7.120   1.417  -3.756  0.00  0.00    -0.003 A 
ATOM     11  H   LIG d   1       8.099   2.990  -6.003  0.00  0.00     0.063 H 
ATOM     12  H   LIG d   1       9.137  -1.839  -6.125  0.00  0.00     0.066 H 
ATOM     13  H   LIG d   1       7.765  -1.846  -3.727  0.00  0.00     0.147 HD
ATOM     14  H   LIG d   1       6.136   1.813  -4.008  0.00  0.00     0.034 H 
ATOM     15  H   LIG d   1       7.664   2.125  -3.130  0.00  0.00     0.034 H 
ENDROOT
BRANCH   1  16
ATOM     16  C   LIG d   1       9.492   2.281  -8.205  0.00  0.00    -0.052 C 
ATOM     17  C   LIG d   1       8.732   3.320  -8.589  0.00  0.00    -0.054 C 
ATOM     18  H   LIG d   1       7.790   3.512  -8.095  0.00  0.00     0.062 H 
ATOM     19  H   LIG d   1      10.433   2.088  -8.699  0.00  0.00     0.062 H 
BRANCH  17  20
ATOM     20  C   LIG d   1       9.181   4.196  -9.685  0.00  0.00    -0.025 A 
ATOM     21  C   LIG d   1       8.762   5.529  -9.736  0.00  0.00    -0.055 A 
ATOM     22  C   LIG d   1       9.188   6.343 -10.764  0.00  0.00    -0.061 A 
ATOM     23  H   LIG d   1       8.111   5.921  -8.970  0.00  0.00     0.062 H 
ATOM     24  C   LIG d   1      10.028   5.843 -11.745  0.00  0.00    -0.062 A 
ATOM     25  H   LIG d   1       8.865   7.373 -10.805  0.00  0.00     0.062 H 
ATOM     26  C   LIG d   1      10.447   4.525 -11.701  0.00  0.00    -0.061 A 
ATOM     27  H   LIG d   1      10.358   6.486 -12.548  0.00  0.00     0.062 H 
ATOM     28  C   LIG d   1      10.029   3.699 -10.679  0.00  0.00    -0.055 A 
ATOM     29  H   LIG d   1      11.102   4.142 -12.470  0.00  0.00     0.062 H 
ATOM     30  H   LIG d   1      10.357   2.671 -10.646  0.00  0.00     0.062 H 
ENDBRANCH  17  20
ENDBRANCH   1  16
BRANCH   6  31
ATOM     31  N   LIG d   1      10.054  -0.509  -8.200  0.00  0.00    -0.357 N 
ATOM     32  H   LIG d   1       9.751  -0.369  -9.111  0.00  0.00     0.142 HD
ATOM     33  H   LIG d   1      10.857  -1.026  -8.031  0.00  0.00     0.142 HD
ENDBRANCH   6  31
BRANCH   8  34
ATOM     34  C   LIG d   1       5.534  -0.315  -2.900  0.00  0.00    -0.027 A 
ATOM     35  C   LIG d   1       5.172  -1.646  -2.799  0.00  0.00    -0.057 A 
ATOM     36  C   LIG d   1       3.840  -1.992  -2.666  0.00  0.00    -0.061 A 
ATOM     37  H   LIG d   1       5.930  -2.415  -2.824  0.00  0.00     0.062 H 
ATOM     38  C   LIG d   1       2.871  -1.007  -2.636  0.00  0.00    -0.062 A 
ATOM     39  H   LIG d   1       3.558  -3.031  -2.588  0.00  0.00     0.062 H 
ATOM     40  C   LIG d   1       3.233   0.323  -2.736  0.00  0.00    -0.061 A 
ATOM     41  H   LIG d   1       1.831  -1.277  -2.533  0.00  0.00     0.062 H 
ATOM     42  C   LIG d   1       4.565   0.669  -2.863  0.00  0.00    -0.057 A 
ATOM     43  H   LIG d   1       2.475   1.092  -2.712  0.00  0.00     0.062 H 
ATOM     44  H   LIG d   1       4.848   1.709  -2.937  0.00  0.00     0.062 H 
ENDBRANCH   8  34
TORSDOF 4
ENDMDL
