MODEL 1
REMARK VINA RESULT:      -4.2      0.000      0.000
REMARK  8 active torsions:
REMARK  status: ('A' for Active; 'I' for Inactive)
REMARK    1  A    between atoms: C_1  and  N_30 
REMARK    2  A    between atoms: C_2  and  C_3 
REMARK    3  A    between atoms: C_2  and  N_30 
REMARK    4  A    between atoms: C_3  and  C_5 
REMARK    5  A    between atoms: C_3  and  O_13 
REMARK    6  A    between atoms: C_8  and  O_11 
REMARK    7  A    between atoms: O_11  and  C_12 
REMARK    8  A    between atoms: O_13  and  C_14 
ROOT
ATOM      1  C   LIG d   1       5.451  -4.014  -5.169  0.00  0.00     0.123 C 
ATOM      2  H   LIG d   1       6.403  -4.497  -4.953  0.00  0.00     0.070 H 
ENDROOT
BRANCH   1   3
ATOM      3  C   LIG d   1       5.474  -3.457  -6.594  0.00  0.00    -0.003 C 
ATOM      4  H   LIG d   1       5.825  -4.229  -7.280  0.00  0.00     0.084 H 
ATOM      5  H   LIG d   1       6.144  -2.599  -6.639  0.00  0.00     0.084 H 
BRANCH   3   6
ATOM      6  N   LIG d   1       4.110  -3.041  -6.973  0.00  0.00     0.227 N 
ATOM      7  H   LIG d   1       3.711  -3.735  -7.616  0.00  0.00     0.201 HD
ATOM      8  H   LIG d   1       3.528  -2.981  -6.129  0.00  0.00     0.201 HD
BRANCH   6   9
ATOM      9  C   LIG d   1       4.143  -1.724  -7.637  0.00  0.00    -0.045 C 
ATOM     10  H   LIG d   1       4.800  -1.052  -7.086  0.00  0.00     0.078 H 
ATOM     11  H   LIG d   1       4.510  -1.838  -8.657  0.00  0.00     0.078 H 
ATOM     12  H   LIG d   1       3.135  -1.311  -7.658  0.00  0.00     0.078 H 
ENDBRANCH   6   9
ENDBRANCH   3   6
ENDBRANCH   1   3
BRANCH   1  13
ATOM     13  C   LIG d   1       5.226  -2.888  -4.193  0.00  0.00    -0.014 A 
ATOM     14  C   LIG d   1       6.112  -1.827  -4.147  0.00  0.00    -0.052 A 
ATOM     15  C   LIG d   1       5.907  -0.794  -3.254  0.00  0.00    -0.020 A 
ATOM     16  H   LIG d   1       6.964  -1.808  -4.810  0.00  0.00     0.062 H 
ATOM     17  C   LIG d   1       4.813  -0.820  -2.402  0.00  0.00     0.120 A 
ATOM     18  H   LIG d   1       6.599   0.034  -3.218  0.00  0.00     0.065 H 
ATOM     19  C   LIG d   1       3.925  -1.886  -2.450  0.00  0.00    -0.020 A 
ATOM     20  C   LIG d   1       4.130  -2.914  -3.350  0.00  0.00    -0.052 A 
ATOM     21  H   LIG d   1       3.071  -1.909  -1.789  0.00  0.00     0.065 H 
ATOM     22  H   LIG d   1       3.437  -3.741  -3.392  0.00  0.00     0.062 H 
BRANCH  17  23
ATOM     23  O   LIG d   1       4.609   0.195  -1.523  0.00  0.00    -0.495 OA
BRANCH  23  24
ATOM     24  C   LIG d   1       3.996   1.381  -2.032  0.00  0.00     0.079 C 
ATOM     25  H   LIG d   1       3.019   1.514  -1.568  0.00  0.00     0.066 H 
ATOM     26  H   LIG d   1       4.627   2.242  -1.805  0.00  0.00     0.066 H 
ATOM     27  H   LIG d   1       3.877   1.294  -3.112  0.00  0.00     0.066 H 
ENDBRANCH  23  24
ENDBRANCH  17  23
ENDBRANCH   1  13
BRANCH   1  28
ATOM     28  O   LIG d   1       4.394  -4.968  -5.047  0.00  0.00    -0.370 OA
BRANCH  28  29
ATOM     29  C   LIG d   1       4.731  -6.272  -5.523  0.00  0.00     0.037 C 
ATOM     30  H   LIG d   1       3.819  -6.846  -5.687  0.00  0.00     0.052 H 
ATOM     31  H   LIG d   1       5.279  -6.186  -6.462  0.00  0.00     0.052 H 
ATOM     32  H   LIG d   1       5.353  -6.779  -4.786  0.00  0.00     0.052 H 
ENDBRANCH  28  29
ENDBRANCH   1  28
TORSDOF 8
ENDMDL
MODEL 2
REMARK VINA RESULT:      -4.0      1.734      2.152
REMARK  8 active torsions:
REMARK  status: ('A' for Active; 'I' for Inactive)
REMARK    1  A    between atoms: C_1  and  N_30 
REMARK    2  A    between atoms: C_2  and  C_3 
REMARK    3  A    between atoms: C_2  and  N_30 
REMARK    4  A    between atoms: C_3  and  C_5 
REMARK    5  A    between atoms: C_3  and  O_13 
REMARK    6  A    between atoms: C_8  and  O_11 
REMARK    7  A    between atoms: O_11  and  C_12 
REMARK    8  A    between atoms: O_13  and  C_14 
ROOT
ATOM      1  C   LIG d   1       5.515  -3.802  -5.637  0.00  0.00     0.123 C 
ATOM      2  H   LIG d   1       5.647  -3.451  -6.659  0.00  0.00     0.070 H 
ENDROOT
BRANCH   1   3
ATOM      3  C   LIG d   1       4.658  -5.070  -5.639  0.00  0.00    -0.003 C 
ATOM      4  H   LIG d   1       4.370  -5.315  -4.617  0.00  0.00     0.084 H 
ATOM      5  H   LIG d   1       5.230  -5.895  -6.064  0.00  0.00     0.084 H 
BRANCH   3   6
ATOM      6  N   LIG d   1       3.449  -4.835  -6.452  0.00  0.00     0.227 N 
ATOM      7  H   LIG d   1       2.681  -5.412  -6.090  0.00  0.00     0.201 HD
ATOM      8  H   LIG d   1       3.190  -3.843  -6.394  0.00  0.00     0.201 HD
BRANCH   6   9
ATOM      9  C   LIG d   1       3.703  -5.191  -7.861  0.00  0.00    -0.045 C 
ATOM     10  H   LIG d   1       3.065  -4.591  -8.510  0.00  0.00     0.078 H 
ATOM     11  H   LIG d   1       4.749  -5.003  -8.104  0.00  0.00     0.078 H 
ATOM     12  H   LIG d   1       3.480  -6.247  -8.007  0.00  0.00     0.078 H 
ENDBRANCH   6   9
ENDBRANCH   3   6
ENDBRANCH   1   3
BRANCH   1  13
ATOM     13  C   LIG d   1       4.831  -2.734  -4.823  0.00  0.00    -0.014 A 
ATOM     14  C   LIG d   1       4.507  -2.976  -3.500  0.00  0.00    -0.052 A 
ATOM     15  C   LIG d   1       3.881  -1.998  -2.753  0.00  0.00    -0.020 A 
ATOM     16  H   LIG d   1       4.745  -3.929  -3.052  0.00  0.00     0.062 H 
ATOM     17  C   LIG d   1       3.576  -0.773  -3.328  0.00  0.00     0.120 A 
ATOM     18  H   LIG d   1       3.628  -2.186  -1.720  0.00  0.00     0.065 H 
ATOM     19  C   LIG d   1       3.901  -0.534  -4.656  0.00  0.00    -0.020 A 
ATOM     20  C   LIG d   1       4.534  -1.512  -5.398  0.00  0.00    -0.052 A 
ATOM     21  H   LIG d   1       3.666   0.419  -5.107  0.00  0.00     0.065 H 
ATOM     22  H   LIG d   1       4.792  -1.325  -6.430  0.00  0.00     0.062 H 
BRANCH  17  23
ATOM     23  O   LIG d   1       2.960   0.190  -2.595  0.00  0.00    -0.495 OA
BRANCH  23  24
ATOM     24  C   LIG d   1       3.708   1.376  -2.323  0.00  0.00     0.079 C 
ATOM     25  H   LIG d   1       4.513   1.475  -3.051  0.00  0.00     0.066 H 
ATOM     26  H   LIG d   1       3.051   2.244  -2.388  0.00  0.00     0.066 H 
ATOM     27  H   LIG d   1       4.131   1.317  -1.319  0.00  0.00     0.066 H 
ENDBRANCH  23  24
ENDBRANCH  17  23
ENDBRANCH   1  13
BRANCH   1  28
ATOM     28  O   LIG d   1       6.792  -4.093  -5.063  0.00  0.00    -0.370 OA
BRANCH  28  29
ATOM     29  C   LIG d   1       7.322  -5.365  -5.440  0.00  0.00     0.037 C 
ATOM     30  H   LIG d   1       8.407  -5.296  -5.522  0.00  0.00     0.052 H 
ATOM     31  H   LIG d   1       7.060  -6.106  -4.684  0.00  0.00     0.052 H 
ATOM     32  H   LIG d   1       6.903  -5.664  -6.401  0.00  0.00     0.052 H 
ENDBRANCH  28  29
ENDBRANCH   1  28
TORSDOF 8
ENDMDL
MODEL 3
REMARK VINA RESULT:      -4.0      3.252      4.490
REMARK  8 active torsions:
REMARK  status: ('A' for Active; 'I' for Inactive)
REMARK    1  A    between atoms: C_1  and  N_30 
REMARK    2  A    between atoms: C_2  and  C_3 
REMARK    3  A    between atoms: C_2  and  N_30 
REMARK    4  A    between atoms: C_3  and  C_5 
REMARK    5  A    between atoms: C_3  and  O_13 
REMARK    6  A    between atoms: C_8  and  O_11 
REMARK    7  A    between atoms: O_11  and  C_12 
REMARK    8  A    between atoms: O_13  and  C_14 
ROOT
ATOM      1  C   LIG d   1       3.338   0.046  -8.146  0.00  0.00     0.123 C 
ATOM      2  H   LIG d   1       4.333  -0.089  -8.569  0.00  0.00     0.070 H 
ENDROOT
BRANCH   1   3
ATOM      3  C   LIG d   1       2.811   1.435  -8.512  0.00  0.00    -0.003 C 
ATOM      4  H   LIG d   1       2.183   1.809  -7.703  0.00  0.00     0.084 H 
ATOM      5  H   LIG d   1       2.223   1.371  -9.428  0.00  0.00     0.084 H 
BRANCH   3   6
ATOM      6  N   LIG d   1       3.952   2.347  -8.718  0.00  0.00     0.227 N 
ATOM      7  H   LIG d   1       3.634   3.175  -9.234  0.00  0.00     0.201 HD
ATOM      8  H   LIG d   1       4.325   2.634  -7.805  0.00  0.00     0.201 HD
BRANCH   6   9
ATOM      9  C   LIG d   1       5.014   1.672  -9.488  0.00  0.00    -0.045 C 
ATOM     10  H   LIG d   1       4.991   2.017 -10.522  0.00  0.00     0.078 H 
ATOM     11  H   LIG d   1       5.986   1.900  -9.049  0.00  0.00     0.078 H 
ATOM     12  H   LIG d   1       4.846   0.596  -9.459  0.00  0.00     0.078 H 
ENDBRANCH   6   9
ENDBRANCH   3   6
ENDBRANCH   1   3
BRANCH   1  13
ATOM     13  C   LIG d   1       3.409  -0.086  -6.646  0.00  0.00    -0.014 A 
ATOM     14  C   LIG d   1       4.427  -0.820  -6.066  0.00  0.00    -0.052 A 
ATOM     15  C   LIG d   1       4.494  -0.942  -4.692  0.00  0.00    -0.020 A 
ATOM     16  H   LIG d   1       5.169  -1.298  -6.687  0.00  0.00     0.062 H 
ATOM     17  C   LIG d   1       3.540  -0.328  -3.894  0.00  0.00     0.120 A 
ATOM     18  H   LIG d   1       5.289  -1.515  -4.238  0.00  0.00     0.065 H 
ATOM     19  C   LIG d   1       2.519   0.408  -4.479  0.00  0.00    -0.020 A 
ATOM     20  C   LIG d   1       2.460   0.532  -5.853  0.00  0.00    -0.052 A 
ATOM     21  H   LIG d   1       1.775   0.887  -3.860  0.00  0.00     0.065 H 
ATOM     22  H   LIG d   1       1.669   1.109  -6.310  0.00  0.00     0.062 H 
BRANCH  17  23
ATOM     23  O   LIG d   1       3.604  -0.446  -2.542  0.00  0.00    -0.495 OA
BRANCH  23  24
ATOM     24  C   LIG d   1       4.364  -1.538  -2.020  0.00  0.00     0.079 C 
ATOM     25  H   LIG d   1       4.098  -2.452  -2.550  0.00  0.00     0.066 H 
ATOM     26  H   LIG d   1       5.427  -1.336  -2.153  0.00  0.00     0.066 H 
ATOM     27  H   LIG d   1       4.148  -1.657  -0.958  0.00  0.00     0.066 H 
ENDBRANCH  23  24
ENDBRANCH  17  23
ENDBRANCH   1  13
BRANCH   1  28
ATOM     28  O   LIG d   1       2.458  -0.951  -8.670  0.00  0.00    -0.370 OA
BRANCH  28  29
ATOM     29  C   LIG d   1       1.686  -0.513  -9.789  0.00  0.00     0.037 C 
ATOM     30  H   LIG d   1       2.351  -0.281 -10.621  0.00  0.00     0.052 H 
ATOM     31  H   LIG d   1       0.995  -1.302 -10.086  0.00  0.00     0.052 H 
ATOM     32  H   LIG d   1       1.122   0.379  -9.516  0.00  0.00     0.052 H 
ENDBRANCH  28  29
ENDBRANCH   1  28
TORSDOF 8
ENDMDL
MODEL 4
REMARK VINA RESULT:      -3.9      3.102      4.549
REMARK  8 active torsions:
REMARK  status: ('A' for Active; 'I' for Inactive)
REMARK    1  A    between atoms: C_1  and  N_30 
REMARK    2  A    between atoms: C_2  and  C_3 
REMARK    3  A    between atoms: C_2  and  N_30 
REMARK    4  A    between atoms: C_3  and  C_5 
REMARK    5  A    between atoms: C_3  and  O_13 
REMARK    6  A    between atoms: C_8  and  O_11 
REMARK    7  A    between atoms: O_11  and  C_12 
REMARK    8  A    between atoms: O_13  and  C_14 
ROOT
ATOM      1  C   LIG d   1       2.765   0.438  -7.738  0.00  0.00     0.123 C 
ATOM      2  H   LIG d   1       1.696   0.253  -7.836  0.00  0.00     0.070 H 
ENDROOT
BRANCH   1   3
ATOM      3  C   LIG d   1       3.530  -0.459  -8.713  0.00  0.00    -0.003 C 
ATOM      4  H   LIG d   1       4.436  -0.827  -8.233  0.00  0.00     0.084 H 
ATOM      5  H   LIG d   1       3.797   0.113  -9.602  0.00  0.00     0.084 H 
BRANCH   3   6
ATOM      6  N   LIG d   1       2.673  -1.598  -9.096  0.00  0.00     0.227 N 
ATOM      7  H   LIG d   1       3.228  -2.272  -9.637  0.00  0.00     0.201 HD
ATOM      8  H   LIG d   1       2.314  -2.051  -8.249  0.00  0.00     0.201 HD
BRANCH   6   9
ATOM      9  C   LIG d   1       1.539  -1.132  -9.918  0.00  0.00    -0.045 C 
ATOM     10  H   LIG d   1       1.605  -0.052 -10.053  0.00  0.00     0.078 H 
ATOM     11  H   LIG d   1       1.566  -1.623 -10.891  0.00  0.00     0.078 H 
ATOM     12  H   LIG d   1       0.607  -1.379  -9.412  0.00  0.00     0.078 H 
ENDBRANCH   6   9
ENDBRANCH   3   6
ENDBRANCH   1   3
BRANCH   1  13
ATOM     13  C   LIG d   1       3.200   0.135  -6.328  0.00  0.00    -0.014 A 
ATOM     14  C   LIG d   1       2.386   0.480  -5.265  0.00  0.00    -0.052 A 
ATOM     15  C   LIG d   1       2.783   0.202  -3.972  0.00  0.00    -0.020 A 
ATOM     16  H   LIG d   1       1.440   0.967  -5.447  0.00  0.00     0.062 H 
ATOM     17  C   LIG d   1       3.998  -0.424  -3.739  0.00  0.00     0.120 A 
ATOM     18  H   LIG d   1       2.147   0.471  -3.142  0.00  0.00     0.065 H 
ATOM     19  C   LIG d   1       4.814  -0.769  -4.807  0.00  0.00    -0.020 A 
ATOM     20  C   LIG d   1       4.410  -0.495  -6.099  0.00  0.00    -0.052 A 
ATOM     21  H   LIG d   1       5.761  -1.257  -4.629  0.00  0.00     0.065 H 
ATOM     22  H   LIG d   1       5.042  -0.768  -6.932  0.00  0.00     0.062 H 
BRANCH  17  23
ATOM     23  O   LIG d   1       4.391  -0.699  -2.467  0.00  0.00    -0.495 OA
BRANCH  23  24
ATOM     24  C   LIG d   1       4.600   0.415  -1.597  0.00  0.00     0.079 C 
ATOM     25  H   LIG d   1       4.914   0.057  -0.616  0.00  0.00     0.066 H 
ATOM     26  H   LIG d   1       5.374   1.060  -2.013  0.00  0.00     0.066 H 
ATOM     27  H   LIG d   1       3.672   0.979  -1.499  0.00  0.00     0.066 H 
ENDBRANCH  23  24
ENDBRANCH  17  23
ENDBRANCH   1  13
BRANCH   1  28
ATOM     28  O   LIG d   1       3.041   1.809  -8.037  0.00  0.00    -0.370 OA
BRANCH  28  29
ATOM     29  C   LIG d   1       3.574   2.022  -9.344  0.00  0.00     0.037 C 
ATOM     30  H   LIG d   1       4.657   2.132  -9.282  0.00  0.00     0.052 H 
ATOM     31  H   LIG d   1       3.332   1.170  -9.980  0.00  0.00     0.052 H 
ATOM     32  H   LIG d   1       3.141   2.927  -9.771  0.00  0.00     0.052 H 
ENDBRANCH  28  29
ENDBRANCH   1  28
TORSDOF 8
ENDMDL
MODEL 5
REMARK VINA RESULT:      -3.9      2.155      4.699
REMARK  8 active torsions:
REMARK  status: ('A' for Active; 'I' for Inactive)
REMARK    1  A    between atoms: C_1  and  N_30 
REMARK    2  A    between atoms: C_2  and  C_3 
REMARK    3  A    between atoms: C_2  and  N_30 
REMARK    4  A    between atoms: C_3  and  C_5 
REMARK    5  A    between atoms: C_3  and  O_13 
REMARK    6  A    between atoms: C_8  and  O_11 
REMARK    7  A    between atoms: O_11  and  C_12 
REMARK    8  A    between atoms: O_13  and  C_14 
ROOT
ATOM      1  C   LIG d   1       3.936  -0.986  -2.963  0.00  0.00     0.123 C 
ATOM      2  H   LIG d   1       3.023  -1.568  -2.843  0.00  0.00     0.070 H 
ENDROOT
BRANCH   1   3
ATOM      3  C   LIG d   1       3.675   0.183  -3.915  0.00  0.00    -0.003 C 
ATOM      4  H   LIG d   1       4.573   0.382  -4.500  0.00  0.00     0.084 H 
ATOM      5  H   LIG d   1       3.413   1.071  -3.338  0.00  0.00     0.084 H 
BRANCH   3   6
ATOM      6  N   LIG d   1       2.562  -0.167  -4.817  0.00  0.00     0.227 N 
ATOM      7  H   LIG d   1       2.376  -1.175  -4.750  0.00  0.00     0.201 HD
ATOM      8  H   LIG d   1       1.723   0.355  -4.539  0.00  0.00     0.201 HD
BRANCH   6   9
ATOM      9  C   LIG d   1       2.907   0.172  -6.211  0.00  0.00    -0.045 C 
ATOM     10  H   LIG d   1       2.678  -0.673  -6.861  0.00  0.00     0.078 H 
ATOM     11  H   LIG d   1       2.333   1.043  -6.529  0.00  0.00     0.078 H 
ATOM     12  H   LIG d   1       3.972   0.398  -6.270  0.00  0.00     0.078 H 
ENDBRANCH   6   9
ENDBRANCH   3   6
ENDBRANCH   1   3
BRANCH   1  13
ATOM     13  C   LIG d   1       5.020  -1.865  -3.531  0.00  0.00    -0.014 A 
ATOM     14  C   LIG d   1       6.345  -1.609  -3.229  0.00  0.00    -0.052 A 
ATOM     15  C   LIG d   1       7.340  -2.413  -3.749  0.00  0.00    -0.020 A 
ATOM     16  H   LIG d   1       6.601  -0.780  -2.586  0.00  0.00     0.062 H 
ATOM     17  C   LIG d   1       7.011  -3.478  -4.574  0.00  0.00     0.120 A 
ATOM     18  H   LIG d   1       8.375  -2.214  -3.512  0.00  0.00     0.065 H 
ATOM     19  C   LIG d   1       5.681  -3.733  -4.876  0.00  0.00    -0.020 A 
ATOM     20  C   LIG d   1       4.688  -2.929  -4.349  0.00  0.00    -0.052 A 
ATOM     21  H   LIG d   1       5.421  -4.561  -5.519  0.00  0.00     0.065 H 
ATOM     22  H   LIG d   1       3.652  -3.129  -4.580  0.00  0.00     0.062 H 
BRANCH  17  23
ATOM     23  O   LIG d   1       7.988  -4.271  -5.086  0.00  0.00    -0.495 OA
BRANCH  23  24
ATOM     24  C   LIG d   1       9.065  -4.619  -4.214  0.00  0.00     0.079 C 
ATOM     25  H   LIG d   1       9.001  -5.677  -3.960  0.00  0.00     0.066 H 
ATOM     26  H   LIG d   1      10.014  -4.421  -4.713  0.00  0.00     0.066 H 
ATOM     27  H   LIG d   1       9.003  -4.022  -3.304  0.00  0.00     0.066 H 
ENDBRANCH  23  24
ENDBRANCH  17  23
ENDBRANCH   1  13
BRANCH   1  28
ATOM     28  O   LIG d   1       4.350  -0.481  -1.692  0.00  0.00    -0.370 OA
BRANCH  28  29
ATOM     29  C   LIG d   1       4.498   0.939  -1.651  0.00  0.00     0.037 C 
ATOM     30  H   LIG d   1       4.720   1.252  -0.630  0.00  0.00     0.052 H 
ATOM     31  H   LIG d   1       5.315   1.238  -2.308  0.00  0.00     0.052 H 
ATOM     32  H   LIG d   1       3.574   1.411  -1.984  0.00  0.00     0.052 H 
ENDBRANCH  28  29
ENDBRANCH   1  28
TORSDOF 8
ENDMDL
MODEL 6
REMARK VINA RESULT:      -3.9      3.225      5.508
REMARK  8 active torsions:
REMARK  status: ('A' for Active; 'I' for Inactive)
REMARK    1  A    between atoms: C_1  and  N_30 
REMARK    2  A    between atoms: C_2  and  C_3 
REMARK    3  A    between atoms: C_2  and  N_30 
REMARK    4  A    between atoms: C_3  and  C_5 
REMARK    5  A    between atoms: C_3  and  O_13 
REMARK    6  A    between atoms: C_8  and  O_11 
REMARK    7  A    between atoms: O_11  and  C_12 
REMARK    8  A    between atoms: O_13  and  C_14 
ROOT
ATOM      1  C   LIG d   1       3.818  -0.527  -4.351  0.00  0.00     0.123 C 
ATOM      2  H   LIG d   1       2.978   0.041  -3.952  0.00  0.00     0.070 H 
ENDROOT
BRANCH   1   3
ATOM      3  C   LIG d   1       5.120  -0.010  -3.737  0.00  0.00    -0.003 C 
ATOM      4  H   LIG d   1       5.907  -0.020  -4.492  0.00  0.00     0.084 H 
ATOM      5  H   LIG d   1       5.409  -0.652  -2.904  0.00  0.00     0.084 H 
BRANCH   3   6
ATOM      6  N   LIG d   1       4.914   1.368  -3.253  0.00  0.00     0.227 N 
ATOM      7  H   LIG d   1       5.726   1.654  -2.693  0.00  0.00     0.201 HD
ATOM      8  H   LIG d   1       4.814   1.997  -4.057  0.00  0.00     0.201 HD
BRANCH   6   9
ATOM      9  C   LIG d   1       3.698   1.442  -2.420  0.00  0.00    -0.045 C 
ATOM     10  H   LIG d   1       2.879   0.926  -2.922  0.00  0.00     0.078 H 
ATOM     11  H   LIG d   1       3.887   0.972  -1.455  0.00  0.00     0.078 H 
ATOM     12  H   LIG d   1       3.432   2.488  -2.270  0.00  0.00     0.078 H 
ENDBRANCH   6   9
ENDBRANCH   3   6
ENDBRANCH   1   3
BRANCH   1  13
ATOM     13  C   LIG d   1       3.868  -0.363  -5.848  0.00  0.00    -0.014 A 
ATOM     14  C   LIG d   1       4.942  -0.865  -6.561  0.00  0.00    -0.052 A 
ATOM     15  C   LIG d   1       4.990  -0.717  -7.933  0.00  0.00    -0.020 A 
ATOM     16  H   LIG d   1       5.742  -1.373  -6.044  0.00  0.00     0.062 H 
ATOM     17  C   LIG d   1       3.961  -0.064  -8.597  0.00  0.00     0.120 A 
ATOM     18  H   LIG d   1       5.828  -1.109  -8.490  0.00  0.00     0.065 H 
ATOM     19  C   LIG d   1       2.886   0.439  -7.879  0.00  0.00    -0.020 A 
ATOM     20  C   LIG d   1       2.838   0.282  -6.507  0.00  0.00    -0.052 A 
ATOM     21  H   LIG d   1       2.083   0.947  -8.392  0.00  0.00     0.065 H 
ATOM     22  H   LIG d   1       1.999   0.669  -5.948  0.00  0.00     0.062 H 
BRANCH  17  23
ATOM     23  O   LIG d   1       4.006   0.083  -9.947  0.00  0.00    -0.495 OA
BRANCH  23  24
ATOM     24  C   LIG d   1       3.942   1.415 -10.457  0.00  0.00     0.079 C 
ATOM     25  H   LIG d   1       4.952   1.807 -10.578  0.00  0.00     0.066 H 
ATOM     26  H   LIG d   1       3.436   1.410 -11.423  0.00  0.00     0.066 H 
ATOM     27  H   LIG d   1       3.389   2.045  -9.761  0.00  0.00     0.066 H 
ENDBRANCH  23  24
ENDBRANCH  17  23
ENDBRANCH   1  13
BRANCH   1  28
ATOM     28  O   LIG d   1       3.655  -1.910  -4.028  0.00  0.00    -0.370 OA
BRANCH  28  29
ATOM     29  C   LIG d   1       3.958  -2.229  -2.669  0.00  0.00     0.037 C 
ATOM     30  H   LIG d   1       5.027  -2.418  -2.570  0.00  0.00     0.052 H 
ATOM     31  H   LIG d   1       3.676  -1.393  -2.028  0.00  0.00     0.052 H 
ATOM     32  H   LIG d   1       3.402  -3.117  -2.371  0.00  0.00     0.052 H 
ENDBRANCH  28  29
ENDBRANCH   1  28
TORSDOF 8
ENDMDL
MODEL 7
REMARK VINA RESULT:      -3.9      3.610      6.546
REMARK  8 active torsions:
REMARK  status: ('A' for Active; 'I' for Inactive)
REMARK    1  A    between atoms: C_1  and  N_30 
REMARK    2  A    between atoms: C_2  and  C_3 
REMARK    3  A    between atoms: C_2  and  N_30 
REMARK    4  A    between atoms: C_3  and  C_5 
REMARK    5  A    between atoms: C_3  and  O_13 
REMARK    6  A    between atoms: C_8  and  O_11 
REMARK    7  A    between atoms: O_11  and  C_12 
REMARK    8  A    between atoms: O_13  and  C_14 
ROOT
ATOM      1  C   LIG d   1       3.810  -0.382  -5.902  0.00  0.00     0.123 C 
ATOM      2  H   LIG d   1       3.865  -1.410  -5.547  0.00  0.00     0.070 H 
ENDROOT
BRANCH   1   3
ATOM      3  C   LIG d   1       2.785   0.392  -5.070  0.00  0.00    -0.003 C 
ATOM      4  H   LIG d   1       2.095   0.912  -5.735  0.00  0.00     0.084 H 
ATOM      5  H   LIG d   1       3.300   1.118  -4.441  0.00  0.00     0.084 H 
BRANCH   3   6
ATOM      6  N   LIG d   1       2.037  -0.555  -4.222  0.00  0.00     0.227 N 
ATOM      7  H   LIG d   1       1.184  -0.100  -3.877  0.00  0.00     0.201 HD
ATOM      8  H   LIG d   1       1.785  -1.381  -4.777  0.00  0.00     0.201 HD
BRANCH   6   9
ATOM      9  C   LIG d   1       2.862  -0.975  -3.072  0.00  0.00    -0.045 C 
ATOM     10  H   LIG d   1       3.122  -2.028  -3.173  0.00  0.00     0.078 H 
ATOM     11  H   LIG d   1       3.773  -0.377  -3.038  0.00  0.00     0.078 H 
ATOM     12  H   LIG d   1       2.295  -0.825  -2.154  0.00  0.00     0.078 H 
ENDBRANCH   6   9
ENDBRANCH   3   6
ENDBRANCH   1   3
BRANCH   1  13
ATOM     13  C   LIG d   1       3.393  -0.371  -7.350  0.00  0.00    -0.014 A 
ATOM     14  C   LIG d   1       3.560  -1.505  -8.124  0.00  0.00    -0.052 A 
ATOM     15  C   LIG d   1       3.178  -1.497  -9.451  0.00  0.00    -0.020 A 
ATOM     16  H   LIG d   1       3.989  -2.396  -7.690  0.00  0.00     0.062 H 
ATOM     17  C   LIG d   1       2.627  -0.353 -10.008  0.00  0.00     0.120 A 
ATOM     18  H   LIG d   1       3.308  -2.383 -10.056  0.00  0.00     0.065 H 
ATOM     19  C   LIG d   1       2.462   0.784  -9.230  0.00  0.00    -0.020 A 
ATOM     20  C   LIG d   1       2.839   0.770  -7.901  0.00  0.00    -0.052 A 
ATOM     21  H   LIG d   1       2.033   1.677  -9.660  0.00  0.00     0.065 H 
ATOM     22  H   LIG d   1       2.706   1.652  -7.292  0.00  0.00     0.062 H 
BRANCH  17  23
ATOM     23  O   LIG d   1       2.250  -0.343 -11.314  0.00  0.00    -0.495 OA
BRANCH  23  24
ATOM     24  C   LIG d   1       3.042  -1.109 -12.224  0.00  0.00     0.079 C 
ATOM     25  H   LIG d   1       2.389  -1.703 -12.864  0.00  0.00     0.066 H 
ATOM     26  H   LIG d   1       3.641  -0.437 -12.839  0.00  0.00     0.066 H 
ATOM     27  H   LIG d   1       3.701  -1.772 -11.663  0.00  0.00     0.066 H 
ENDBRANCH  23  24
ENDBRANCH  17  23
ENDBRANCH   1  13
BRANCH   1  28
ATOM     28  O   LIG d   1       5.092   0.236  -5.771  0.00  0.00    -0.370 OA
BRANCH  28  29
ATOM     29  C   LIG d   1       6.041  -0.544  -5.043  0.00  0.00     0.037 C 
ATOM     30  H   LIG d   1       7.050  -0.206  -5.282  0.00  0.00     0.052 H 
ATOM     31  H   LIG d   1       5.864  -0.427  -3.973  0.00  0.00     0.052 H 
ATOM     32  H   LIG d   1       5.936  -1.594  -5.315  0.00  0.00     0.052 H 
ENDBRANCH  28  29
ENDBRANCH   1  28
TORSDOF 8
ENDMDL
MODEL 8
REMARK VINA RESULT:      -3.8      9.844     12.876
REMARK  8 active torsions:
REMARK  status: ('A' for Active; 'I' for Inactive)
REMARK    1  A    between atoms: C_1  and  N_30 
REMARK    2  A    between atoms: C_2  and  C_3 
REMARK    3  A    between atoms: C_2  and  N_30 
REMARK    4  A    between atoms: C_3  and  C_5 
REMARK    5  A    between atoms: C_3  and  O_13 
REMARK    6  A    between atoms: C_8  and  O_11 
REMARK    7  A    between atoms: O_11  and  C_12 
REMARK    8  A    between atoms: O_13  and  C_14 
ROOT
ATOM      1  C   LIG d   1       9.477   9.383  -0.533  0.00  0.00     0.123 C 
ATOM      2  H   LIG d   1       8.441   9.391  -0.195  0.00  0.00     0.070 H 
ENDROOT
BRANCH   1   3
ATOM      3  C   LIG d   1       9.621  10.289  -1.758  0.00  0.00    -0.003 C 
ATOM      4  H   LIG d   1      10.040   9.716  -2.585  0.00  0.00     0.084 H 
ATOM      5  H   LIG d   1      10.285  11.120  -1.519  0.00  0.00     0.084 H 
BRANCH   3   6
ATOM      6  N   LIG d   1       8.293  10.807  -2.135  0.00  0.00     0.227 N 
ATOM      7  H   LIG d   1       7.685  10.022  -2.396  0.00  0.00     0.201 HD
ATOM      8  H   LIG d   1       7.885  11.306  -1.337  0.00  0.00     0.201 HD
BRANCH   6   9
ATOM      9  C   LIG d   1       8.410  11.732  -3.280  0.00  0.00    -0.045 C 
ATOM     10  H   LIG d   1       8.053  11.241  -4.185  0.00  0.00     0.078 H 
ATOM     11  H   LIG d   1       7.815  12.625  -3.091  0.00  0.00     0.078 H 
ATOM     12  H   LIG d   1       9.456  12.011  -3.406  0.00  0.00     0.078 H 
ENDBRANCH   6   9
ENDBRANCH   3   6
ENDBRANCH   1   3
BRANCH   1  13
ATOM     13  C   LIG d   1       9.875   7.976  -0.898  0.00  0.00    -0.014 A 
ATOM     14  C   LIG d   1      10.618   7.218  -0.011  0.00  0.00    -0.052 A 
ATOM     15  C   LIG d   1      10.983   5.928  -0.344  0.00  0.00    -0.020 A 
ATOM     16  H   LIG d   1      10.911   7.634   0.941  0.00  0.00     0.062 H 
ATOM     17  C   LIG d   1      10.606   5.394  -1.567  0.00  0.00     0.120 A 
ATOM     18  H   LIG d   1      11.563   5.335   0.348  0.00  0.00     0.065 H 
ATOM     19  C   LIG d   1       9.862   6.157  -2.455  0.00  0.00    -0.020 A 
ATOM     20  C   LIG d   1       9.492   7.444  -2.115  0.00  0.00    -0.052 A 
ATOM     21  H   LIG d   1       9.566   5.744  -3.408  0.00  0.00     0.065 H 
ATOM     22  H   LIG d   1       8.909   8.038  -2.803  0.00  0.00     0.062 H 
BRANCH  17  23
ATOM     23  O   LIG d   1      10.964   4.125  -1.896  0.00  0.00    -0.495 OA
BRANCH  23  24
ATOM     24  C   LIG d   1      10.237   3.499  -2.953  0.00  0.00     0.079 C 
ATOM     25  H   LIG d   1       9.599   2.716  -2.543  0.00  0.00     0.066 H 
ATOM     26  H   LIG d   1       9.620   4.242  -3.460  0.00  0.00     0.066 H 
ATOM     27  H   LIG d   1      10.936   3.061  -3.666  0.00  0.00     0.066 H 
ENDBRANCH  23  24
ENDBRANCH  17  23
ENDBRANCH   1  13
BRANCH   1  28
ATOM     28  O   LIG d   1      10.323   9.861   0.515  0.00  0.00    -0.370 OA
BRANCH  28  29
ATOM     29  C   LIG d   1      10.509  11.277   0.511  0.00  0.00     0.037 C 
ATOM     30  H   LIG d   1       9.537  11.771   0.505  0.00  0.00     0.052 H 
ATOM     31  H   LIG d   1      11.062  11.574   1.402  0.00  0.00     0.052 H 
ATOM     32  H   LIG d   1      11.070  11.569  -0.377  0.00  0.00     0.052 H 
ENDBRANCH  28  29
ENDBRANCH   1  28
TORSDOF 8
ENDMDL
MODEL 9
REMARK VINA RESULT:      -3.6      9.651     12.151
REMARK  8 active torsions:
REMARK  status: ('A' for Active; 'I' for Inactive)
REMARK    1  A    between atoms: C_1  and  N_30 
REMARK    2  A    between atoms: C_2  and  C_3 
REMARK    3  A    between atoms: C_2  and  N_30 
REMARK    4  A    between atoms: C_3  and  C_5 
REMARK    5  A    between atoms: C_3  and  O_13 
REMARK    6  A    between atoms: C_8  and  O_11 
REMARK    7  A    between atoms: O_11  and  C_12 
REMARK    8  A    between atoms: O_13  and  C_14 
ROOT
ATOM      1  C   LIG d   1      10.835   6.303  -0.958  0.00  0.00     0.123 C 
ATOM      2  H   LIG d   1      11.918   6.238  -0.860  0.00  0.00     0.070 H 
ENDROOT
BRANCH   1   3
ATOM      3  C   LIG d   1      10.350   5.261  -1.967  0.00  0.00    -0.003 C 
ATOM      4  H   LIG d   1      10.582   5.598  -2.978  0.00  0.00     0.084 H 
ATOM      5  H   LIG d   1       9.272   5.130  -1.867  0.00  0.00     0.084 H 
BRANCH   3   6
ATOM      6  N   LIG d   1      11.031   3.979  -1.704  0.00  0.00     0.227 N 
ATOM      7  H   LIG d   1      12.047   4.129  -1.705  0.00  0.00     0.201 HD
ATOM      8  H   LIG d   1      10.739   3.623  -0.787  0.00  0.00     0.201 HD
BRANCH   6   9
ATOM      9  C   LIG d   1      10.685   2.991  -2.744  0.00  0.00    -0.045 C 
ATOM     10  H   LIG d   1      10.058   3.463  -3.502  0.00  0.00     0.078 H 
ATOM     11  H   LIG d   1      11.596   2.614  -3.209  0.00  0.00     0.078 H 
ATOM     12  H   LIG d   1      10.142   2.166  -2.285  0.00  0.00     0.078 H 
ENDBRANCH   6   9
ENDBRANCH   3   6
ENDBRANCH   1   3
BRANCH   1  13
ATOM     13  C   LIG d   1      10.456   7.681  -1.437  0.00  0.00    -0.014 A 
ATOM     14  C   LIG d   1      11.089   8.226  -2.540  0.00  0.00    -0.052 A 
ATOM     15  C   LIG d   1      10.743   9.488  -2.981  0.00  0.00    -0.020 A 
ATOM     16  H   LIG d   1      11.853   7.664  -3.055  0.00  0.00     0.062 H 
ATOM     17  C   LIG d   1       9.761  10.210  -2.318  0.00  0.00     0.120 A 
ATOM     18  H   LIG d   1      11.236   9.914  -3.842  0.00  0.00     0.065 H 
ATOM     19  C   LIG d   1       9.128   9.661  -1.212  0.00  0.00    -0.020 A 
ATOM     20  C   LIG d   1       9.473   8.395  -0.778  0.00  0.00    -0.052 A 
ATOM     21  H   LIG d   1       8.363  10.220  -0.693  0.00  0.00     0.065 H 
ATOM     22  H   LIG d   1       8.977   7.965   0.080  0.00  0.00     0.062 H 
BRANCH  17  23
ATOM     23  O   LIG d   1       9.419  11.451  -2.750  0.00  0.00    -0.495 OA
BRANCH  23  24
ATOM     24  C   LIG d   1       8.889  11.555  -4.073  0.00  0.00     0.079 C 
ATOM     25  H   LIG d   1       8.786  10.559  -4.503  0.00  0.00     0.066 H 
ATOM     26  H   LIG d   1       7.912  12.038  -4.036  0.00  0.00     0.066 H 
ATOM     27  H   LIG d   1       9.564  12.150  -4.689  0.00  0.00     0.066 H 
ENDBRANCH  23  24
ENDBRANCH  17  23
ENDBRANCH   1  13
BRANCH   1  28
ATOM     28  O   LIG d   1      10.225   6.057   0.311  0.00  0.00    -0.370 OA
BRANCH  28  29
ATOM     29  C   LIG d   1      11.158   5.866   1.376  0.00  0.00     0.037 C 
ATOM     30  H   LIG d   1      12.172   5.989   0.997  0.00  0.00     0.052 H 
ATOM     31  H   LIG d   1      10.971   6.601   2.159  0.00  0.00     0.052 H 
ATOM     32  H   LIG d   1      11.042   4.862   1.786  0.00  0.00     0.052 H 
ENDBRANCH  28  29
ENDBRANCH   1  28
TORSDOF 8
ENDMDL
MODEL 10
REMARK VINA RESULT:      -3.6      3.580      4.561
REMARK  8 active torsions:
REMARK  status: ('A' for Active; 'I' for Inactive)
REMARK    1  A    between atoms: C_1  and  N_30 
REMARK    2  A    between atoms: C_2  and  C_3 
REMARK    3  A    between atoms: C_2  and  N_30 
REMARK    4  A    between atoms: C_3  and  C_5 
REMARK    5  A    between atoms: C_3  and  O_13 
REMARK    6  A    between atoms: C_8  and  O_11 
REMARK    7  A    between atoms: O_11  and  C_12 
REMARK    8  A    between atoms: O_13  and  C_14 
ROOT
ATOM      1  C   LIG d   1       8.523  -3.223  -4.683  0.00  0.00     0.123 C 
ATOM      2  H   LIG d   1       8.504  -3.745  -5.639  0.00  0.00     0.070 H 
ENDROOT
BRANCH   1   3
ATOM      3  C   LIG d   1       9.171  -4.118  -3.625  0.00  0.00    -0.003 C 
ATOM      4  H   LIG d   1       9.481  -5.057  -4.084  0.00  0.00     0.084 H 
ATOM      5  H   LIG d   1       8.452  -4.323  -2.831  0.00  0.00     0.084 H 
BRANCH   3   6
ATOM      6  N   LIG d   1      10.347  -3.429  -3.062  0.00  0.00     0.227 N 
ATOM      7  H   LIG d   1      10.435  -2.502  -3.494  0.00  0.00     0.201 HD
ATOM      8  H   LIG d   1      10.225  -3.324  -2.048  0.00  0.00     0.201 HD
BRANCH   6   9
ATOM      9  C   LIG d   1      11.573  -4.207  -3.328  0.00  0.00    -0.045 C 
ATOM     10  H   LIG d   1      11.468  -5.209  -2.911  0.00  0.00     0.078 H 
ATOM     11  H   LIG d   1      11.736  -4.276  -4.404  0.00  0.00     0.078 H 
ATOM     12  H   LIG d   1      12.421  -3.706  -2.862  0.00  0.00     0.078 H 
ENDBRANCH   6   9
ENDBRANCH   3   6
ENDBRANCH   1   3
BRANCH   1  13
ATOM     13  C   LIG d   1       7.114  -2.889  -4.265  0.00  0.00    -0.014 A 
ATOM     14  C   LIG d   1       6.051  -3.587  -4.807  0.00  0.00    -0.052 A 
ATOM     15  C   LIG d   1       4.759  -3.283  -4.425  0.00  0.00    -0.020 A 
ATOM     16  H   LIG d   1       6.231  -4.370  -5.529  0.00  0.00     0.062 H 
ATOM     17  C   LIG d   1       4.528  -2.278  -3.498  0.00  0.00     0.120 A 
ATOM     18  H   LIG d   1       3.928  -3.828  -4.848  0.00  0.00     0.065 H 
ATOM     19  C   LIG d   1       5.597  -1.578  -2.956  0.00  0.00    -0.020 A 
ATOM     20  C   LIG d   1       6.888  -1.891  -3.336  0.00  0.00    -0.052 A 
ATOM     21  H   LIG d   1       5.421  -0.795  -2.234  0.00  0.00     0.065 H 
ATOM     22  H   LIG d   1       7.721  -1.350  -2.911  0.00  0.00     0.062 H 
BRANCH  17  23
ATOM     23  O   LIG d   1       3.258  -1.977  -3.120  0.00  0.00    -0.495 OA
BRANCH  23  24
ATOM     24  C   LIG d   1       2.916  -0.593  -3.036  0.00  0.00     0.079 C 
ATOM     25  H   LIG d   1       2.184  -0.350  -3.807  0.00  0.00     0.066 H 
ATOM     26  H   LIG d   1       2.492  -0.382  -2.053  0.00  0.00     0.066 H 
ATOM     27  H   LIG d   1       3.811   0.012  -3.181  0.00  0.00     0.066 H 
ENDBRANCH  23  24
ENDBRANCH  17  23
ENDBRANCH   1  13
BRANCH   1  28
ATOM     28  O   LIG d   1       9.279  -2.017  -4.813  0.00  0.00    -0.370 OA
BRANCH  28  29
ATOM     29  C   LIG d   1       9.462  -1.589  -6.164  0.00  0.00     0.037 C 
ATOM     30  H   LIG d   1       9.140  -2.380  -6.842  0.00  0.00     0.052 H 
ATOM     31  H   LIG d   1       8.869  -0.692  -6.345  0.00  0.00     0.052 H 
ATOM     32  H   LIG d   1      10.515  -1.369  -6.337  0.00  0.00     0.052 H 
ENDBRANCH  28  29
ENDBRANCH   1  28
TORSDOF 8
ENDMDL
