MODEL 1
REMARK VINA RESULT:      -7.6      0.000      0.000
REMARK  3 active torsions:
REMARK  status: ('A' for Active; 'I' for Inactive)
REMARK    1  A    between atoms: C_5  and  C_7 
REMARK    2  A    between atoms: C_7  and  N_8 
REMARK    3  A    between atoms: C_18  and  C_19 
ROOT
ATOM      1  N   LIG d   1       7.074   0.857  -4.361  0.00  0.00    -0.260 N 
ATOM      2  C   LIG d   1       8.141   1.843  -4.143  0.00  0.00     0.034 C 
ATOM      3  C   LIG d   1       8.604   2.389  -5.469  0.00  0.00     0.051 A 
ATOM      4  C   LIG d   1       8.313   1.726  -6.650  0.00  0.00     0.130 A 
ATOM      5  C   LIG d   1       8.750   2.239  -7.872  0.00  0.00    -0.019 A 
ATOM      6  C   LIG d   1       9.467   3.401  -7.915  0.00  0.00    -0.044 A 
ATOM      7  C   LIG d   1       9.765   4.078  -6.733  0.00  0.00     0.068 A 
ATOM      8  C   LIG d   1       9.332   3.572  -5.496  0.00  0.00     0.147 A 
ATOM      9  O   LIG d   1       9.736   4.392  -4.501  0.00  0.00    -0.451 OA
ATOM     10  C   LIG d   1      10.434   5.451  -4.972  0.00  0.00     0.176 A 
ATOM     11  C   LIG d   1      10.972   6.450  -4.231  0.00  0.00    -0.008 C 
ATOM     12  C   LIG d   1      10.499   5.322  -6.441  0.00  0.00     0.232 A 
ATOM     13  O   LIG d   1      11.037   6.074  -7.232  0.00  0.00    -0.283 OA
ATOM     14  O   LIG d   1       7.597   0.571  -6.641  0.00  0.00    -0.476 OA
ATOM     15  C   LIG d   1       7.482  -0.113  -5.390  0.00  0.00     0.144 C 
ATOM     16  H   LIG d   1       7.759   2.666  -3.522  0.00  0.00     0.048 H 
ATOM     17  H   LIG d   1       8.986   1.360  -3.630  0.00  0.00     0.048 H 
ATOM     18  H   LIG d   1       8.520   1.715  -8.788  0.00  0.00     0.065 H 
ATOM     19  H   LIG d   1       9.802   3.794  -8.864  0.00  0.00     0.063 H 
ATOM     20  H   LIG d   1      11.592   7.220  -4.715  0.00  0.00     0.066 H 
ATOM     21  H   LIG d   1       8.450  -0.555  -5.114  0.00  0.00     0.087 H 
ATOM     22  H   LIG d   1       6.725  -0.907  -5.467  0.00  0.00     0.087 H 
ENDROOT
BRANCH   1  23
ATOM     23  C   LIG d   1       6.720   0.176  -3.108  0.00  0.00     0.044 C 
ATOM     24  H   LIG d   1       6.921   0.846  -2.258  0.00  0.00     0.049 H 
ATOM     25  H   LIG d   1       7.323  -0.738  -3.005  0.00  0.00     0.049 H 
BRANCH  23  26
ATOM     26  C   LIG d   1       5.258  -0.187  -3.128  0.00  0.00     0.055 A 
ATOM     27  N   LIG d   1       4.393   0.627  -3.700  0.00  0.00    -0.259 NA
ATOM     28  C   LIG d   1       3.103   0.351  -3.742  0.00  0.00     0.028 A 
ATOM     29  C   LIG d   1       2.611  -0.813  -3.181  0.00  0.00    -0.044 A 
ATOM     30  H   LIG d   1       2.425   1.042  -4.219  0.00  0.00     0.083 H 
ATOM     31  C   LIG d   1       3.492  -1.693  -2.571  0.00  0.00    -0.059 A 
ATOM     32  H   LIG d   1       1.556  -1.034  -3.220  0.00  0.00     0.063 H 
ATOM     33  C   LIG d   1       4.838  -1.366  -2.542  0.00  0.00    -0.039 A 
ATOM     34  H   LIG d   1       3.136  -2.610  -2.125  0.00  0.00     0.062 H 
ATOM     35  H   LIG d   1       5.552  -2.027  -2.071  0.00  0.00     0.064 H 
ENDBRANCH  23  26
ENDBRANCH   1  23
BRANCH  11  36
ATOM     36  C   LIG d   1      10.727   6.505  -2.782  0.00  0.00    -0.019 A 
ATOM     37  C   LIG d   1      11.429   5.671  -1.899  0.00  0.00    -0.036 A 
ATOM     38  C   LIG d   1      11.167   5.757  -0.548  0.00  0.00     0.028 A 
ATOM     39  H   LIG d   1      12.163   4.972  -2.272  0.00  0.00     0.064 H 
ATOM     40  N   LIG d   1      10.272   6.607  -0.084  0.00  0.00    -0.263 NA
ATOM     41  H   LIG d   1      11.701   5.118   0.140  0.00  0.00     0.083 H 
ATOM     42  C   LIG d   1       9.589   7.411  -0.877  0.00  0.00     0.028 A 
ATOM     43  C   LIG d   1       9.790   7.397  -2.241  0.00  0.00    -0.036 A 
ATOM     44  H   LIG d   1       8.866   8.091  -0.451  0.00  0.00     0.083 H 
ATOM     45  H   LIG d   1       9.230   8.061  -2.885  0.00  0.00     0.064 H 
ENDBRANCH  11  36
TORSDOF 3
ENDMDL
MODEL 2
REMARK VINA RESULT:      -7.5      5.949      9.098
REMARK  3 active torsions:
REMARK  status: ('A' for Active; 'I' for Inactive)
REMARK    1  A    between atoms: C_5  and  C_7 
REMARK    2  A    between atoms: C_7  and  N_8 
REMARK    3  A    between atoms: C_18  and  C_19 
ROOT
ATOM      1  N   LIG d   1       6.127  -3.284  -4.783  0.00  0.00    -0.260 N 
ATOM      2  C   LIG d   1       5.696  -2.763  -6.087  0.00  0.00     0.034 C 
ATOM      3  C   LIG d   1       4.974  -3.844  -6.850  0.00  0.00     0.051 A 
ATOM      4  C   LIG d   1       5.100  -5.174  -6.487  0.00  0.00     0.130 A 
ATOM      5  C   LIG d   1       4.429  -6.166  -7.203  0.00  0.00    -0.019 A 
ATOM      6  C   LIG d   1       3.640  -5.835  -8.267  0.00  0.00    -0.044 A 
ATOM      7  C   LIG d   1       3.504  -4.498  -8.641  0.00  0.00     0.068 A 
ATOM      8  C   LIG d   1       4.175  -3.489  -7.931  0.00  0.00     0.147 A 
ATOM      9  O   LIG d   1       3.893  -2.284  -8.473  0.00  0.00    -0.451 OA
ATOM     10  C   LIG d   1       3.058  -2.391  -9.532  0.00  0.00     0.176 A 
ATOM     11  C   LIG d   1       2.588  -1.369 -10.287  0.00  0.00    -0.008 C 
ATOM     12  C   LIG d   1       2.750  -3.823  -9.712  0.00  0.00     0.232 A 
ATOM     13  O   LIG d   1       2.034  -4.331 -10.555  0.00  0.00    -0.283 OA
ATOM     14  O   LIG d   1       5.873  -5.536  -5.429  0.00  0.00    -0.476 OA
ATOM     15  C   LIG d   1       6.817  -4.573  -4.954  0.00  0.00     0.144 C 
ATOM     16  H   LIG d   1       5.021  -1.909  -5.936  0.00  0.00     0.048 H 
ATOM     17  H   LIG d   1       6.577  -2.436  -6.660  0.00  0.00     0.048 H 
ATOM     18  H   LIG d   1       4.534  -7.201  -6.913  0.00  0.00     0.065 H 
ATOM     19  H   LIG d   1       3.122  -6.607  -8.817  0.00  0.00     0.063 H 
ATOM     20  H   LIG d   1       1.979  -1.580 -11.179  0.00  0.00     0.066 H 
ATOM     21  H   LIG d   1       7.634  -4.458  -5.682  0.00  0.00     0.087 H 
ATOM     22  H   LIG d   1       7.230  -4.900  -3.988  0.00  0.00     0.087 H 
ENDROOT
BRANCH   1  23
ATOM     23  C   LIG d   1       6.985  -2.317  -4.085  0.00  0.00     0.044 C 
ATOM     24  H   LIG d   1       7.607  -1.783  -4.819  0.00  0.00     0.049 H 
ATOM     25  H   LIG d   1       7.633  -2.849  -3.373  0.00  0.00     0.049 H 
BRANCH  23  26
ATOM     26  C   LIG d   1       6.126  -1.329  -3.340  0.00  0.00     0.055 A 
ATOM     27  N   LIG d   1       6.407  -0.042  -3.405  0.00  0.00    -0.259 NA
ATOM     28  C   LIG d   1       5.683   0.859  -2.769  0.00  0.00     0.028 A 
ATOM     29  C   LIG d   1       4.595   0.481  -2.005  0.00  0.00    -0.044 A 
ATOM     30  H   LIG d   1       5.943   1.904  -2.847  0.00  0.00     0.083 H 
ATOM     31  C   LIG d   1       4.270  -0.864  -1.913  0.00  0.00    -0.059 A 
ATOM     32  H   LIG d   1       4.006   1.223  -1.488  0.00  0.00     0.063 H 
ATOM     33  C   LIG d   1       5.057  -1.782  -2.591  0.00  0.00    -0.039 A 
ATOM     34  H   LIG d   1       3.425  -1.189  -1.323  0.00  0.00     0.062 H 
ATOM     35  H   LIG d   1       4.834  -2.838  -2.537  0.00  0.00     0.064 H 
ENDBRANCH  23  26
ENDBRANCH   1  23
BRANCH  11  36
ATOM     36  C   LIG d   1       2.893   0.021  -9.916  0.00  0.00    -0.019 A 
ATOM     37  C   LIG d   1       3.644   0.847 -10.766  0.00  0.00    -0.036 A 
ATOM     38  C   LIG d   1       3.905   2.145 -10.378  0.00  0.00     0.028 A 
ATOM     39  H   LIG d   1       4.012   0.472 -11.711  0.00  0.00     0.064 H 
ATOM     40  N   LIG d   1       3.460   2.610  -9.227  0.00  0.00    -0.263 NA
ATOM     41  H   LIG d   1       4.483   2.788 -11.025  0.00  0.00     0.083 H 
ATOM     42  C   LIG d   1       2.750   1.869  -8.397  0.00  0.00     0.028 A 
ATOM     43  C   LIG d   1       2.436   0.563  -8.706  0.00  0.00    -0.036 A 
ATOM     44  H   LIG d   1       2.407   2.294  -7.465  0.00  0.00     0.083 H 
ATOM     45  H   LIG d   1       1.851  -0.037  -8.024  0.00  0.00     0.064 H 
ENDBRANCH  11  36
TORSDOF 3
ENDMDL
MODEL 3
REMARK VINA RESULT:      -7.2      5.583      8.223
REMARK  3 active torsions:
REMARK  status: ('A' for Active; 'I' for Inactive)
REMARK    1  A    between atoms: C_5  and  C_7 
REMARK    2  A    between atoms: C_7  and  N_8 
REMARK    3  A    between atoms: C_18  and  C_19 
ROOT
ATOM      1  N   LIG d   1       3.532  -2.445  -9.310  0.00  0.00    -0.260 N 
ATOM      2  C   LIG d   1       3.910  -2.511  -7.892  0.00  0.00     0.034 C 
ATOM      3  C   LIG d   1       4.992  -3.543  -7.704  0.00  0.00     0.051 A 
ATOM      4  C   LIG d   1       5.236  -4.500  -8.675  0.00  0.00     0.130 A 
ATOM      5  C   LIG d   1       6.238  -5.453  -8.488  0.00  0.00    -0.019 A 
ATOM      6  C   LIG d   1       6.990  -5.449  -7.349  0.00  0.00    -0.044 A 
ATOM      7  C   LIG d   1       6.755  -4.489  -6.365  0.00  0.00     0.068 A 
ATOM      8  C   LIG d   1       5.748  -3.525  -6.538  0.00  0.00     0.147 A 
ATOM      9  O   LIG d   1       5.707  -2.709  -5.463  0.00  0.00    -0.451 OA
ATOM     10  C   LIG d   1       6.633  -3.048  -4.536  0.00  0.00     0.176 A 
ATOM     11  C   LIG d   1       6.846  -2.426  -3.351  0.00  0.00    -0.008 C 
ATOM     12  C   LIG d   1       7.371  -4.216  -5.054  0.00  0.00     0.232 A 
ATOM     13  O   LIG d   1       8.284  -4.818  -4.519  0.00  0.00    -0.283 OA
ATOM     14  O   LIG d   1       4.509  -4.527  -9.823  0.00  0.00    -0.476 OA
ATOM     15  C   LIG d   1       3.279  -3.798  -9.831  0.00  0.00     0.144 C 
ATOM     16  H   LIG d   1       4.281  -1.529  -7.565  0.00  0.00     0.048 H 
ATOM     17  H   LIG d   1       3.031  -2.788  -7.291  0.00  0.00     0.048 H 
ATOM     18  H   LIG d   1       6.421  -6.196  -9.250  0.00  0.00     0.065 H 
ATOM     19  H   LIG d   1       7.766  -6.188  -7.210  0.00  0.00     0.063 H 
ATOM     20  H   LIG d   1       7.573  -2.841  -2.636  0.00  0.00     0.066 H 
ATOM     21  H   LIG d   1       2.539  -4.304  -9.194  0.00  0.00     0.087 H 
ATOM     22  H   LIG d   1       2.892  -3.730 -10.858  0.00  0.00     0.087 H 
ENDROOT
BRANCH   1  23
ATOM     23  C   LIG d   1       2.361  -1.579  -9.505  0.00  0.00     0.044 C 
ATOM     24  H   LIG d   1       1.669  -1.704  -8.659  0.00  0.00     0.049 H 
ATOM     25  H   LIG d   1       1.851  -1.857 -10.439  0.00  0.00     0.049 H 
BRANCH  23  26
ATOM     26  C   LIG d   1       2.806  -0.142  -9.584  0.00  0.00     0.055 A 
ATOM     27  N   LIG d   1       3.473   0.276 -10.641  0.00  0.00    -0.259 NA
ATOM     28  C   LIG d   1       3.883   1.525 -10.753  0.00  0.00     0.028 A 
ATOM     29  C   LIG d   1       3.624   2.446  -9.756  0.00  0.00    -0.044 A 
ATOM     30  H   LIG d   1       4.427   1.831 -11.634  0.00  0.00     0.083 H 
ATOM     31  C   LIG d   1       2.925   2.043  -8.629  0.00  0.00    -0.059 A 
ATOM     32  H   LIG d   1       3.961   3.467  -9.854  0.00  0.00     0.063 H 
ATOM     33  C   LIG d   1       2.516   0.721  -8.544  0.00  0.00    -0.039 A 
ATOM     34  H   LIG d   1       2.708   2.741  -7.833  0.00  0.00     0.062 H 
ATOM     35  H   LIG d   1       1.972   0.371  -7.678  0.00  0.00     0.064 H 
ENDBRANCH  23  26
ENDBRANCH   1  23
BRANCH  11  36
ATOM     36  C   LIG d   1       6.105  -1.200  -3.020  0.00  0.00    -0.019 A 
ATOM     37  C   LIG d   1       6.586   0.060  -3.407  0.00  0.00    -0.036 A 
ATOM     38  C   LIG d   1       5.859   1.184  -3.075  0.00  0.00     0.028 A 
ATOM     39  H   LIG d   1       7.512   0.149  -3.956  0.00  0.00     0.064 H 
ATOM     40  N   LIG d   1       4.727   1.085  -2.405  0.00  0.00    -0.263 NA
ATOM     41  H   LIG d   1       6.221   2.158  -3.368  0.00  0.00     0.083 H 
ATOM     42  C   LIG d   1       4.237  -0.079  -2.021  0.00  0.00     0.028 A 
ATOM     43  C   LIG d   1       4.895  -1.255  -2.314  0.00  0.00    -0.036 A 
ATOM     44  H   LIG d   1       3.307  -0.110  -1.473  0.00  0.00     0.083 H 
ATOM     45  H   LIG d   1       4.486  -2.204  -2.001  0.00  0.00     0.064 H 
ENDBRANCH  11  36
TORSDOF 3
ENDMDL
MODEL 4
REMARK VINA RESULT:      -7.1      3.811      6.611
REMARK  3 active torsions:
REMARK  status: ('A' for Active; 'I' for Inactive)
REMARK    1  A    between atoms: C_5  and  C_7 
REMARK    2  A    between atoms: C_7  and  N_8 
REMARK    3  A    between atoms: C_18  and  C_19 
ROOT
ATOM      1  N   LIG d   1       6.760   0.590  -9.699  0.00  0.00    -0.260 N 
ATOM      2  C   LIG d   1       6.801   0.267  -8.266  0.00  0.00     0.034 C 
ATOM      3  C   LIG d   1       7.752   1.203  -7.564  0.00  0.00     0.051 A 
ATOM      4  C   LIG d   1       8.687   1.933  -8.279  0.00  0.00     0.130 A 
ATOM      5  C   LIG d   1       9.565   2.793  -7.618  0.00  0.00    -0.019 A 
ATOM      6  C   LIG d   1       9.508   2.925  -6.260  0.00  0.00    -0.044 A 
ATOM      7  C   LIG d   1       8.570   2.196  -5.529  0.00  0.00     0.068 A 
ATOM      8  C   LIG d   1       7.682   1.326  -6.182  0.00  0.00     0.147 A 
ATOM      9  O   LIG d   1       6.873   0.735  -5.275  0.00  0.00    -0.451 OA
ATOM     10  C   LIG d   1       7.146   1.143  -4.014  0.00  0.00     0.176 A 
ATOM     11  C   LIG d   1       6.514   0.738  -2.887  0.00  0.00    -0.008 C 
ATOM     12  C   LIG d   1       8.256   2.112  -4.092  0.00  0.00     0.232 A 
ATOM     13  O   LIG d   1       8.791   2.708  -3.175  0.00  0.00    -0.283 OA
ATOM     14  O   LIG d   1       8.765   1.827  -9.632  0.00  0.00    -0.476 OA
ATOM     15  C   LIG d   1       8.127   0.698 -10.235  0.00  0.00     0.144 C 
ATOM     16  H   LIG d   1       5.796   0.378  -7.836  0.00  0.00     0.048 H 
ATOM     17  H   LIG d   1       7.144  -0.770  -8.134  0.00  0.00     0.048 H 
ATOM     18  H   LIG d   1      10.291   3.357  -8.184  0.00  0.00     0.065 H 
ATOM     19  H   LIG d   1      10.189   3.593  -5.754  0.00  0.00     0.063 H 
ATOM     20  H   LIG d   1       6.876   1.074  -1.903  0.00  0.00     0.066 H 
ATOM     21  H   LIG d   1       8.687  -0.219  -9.998  0.00  0.00     0.087 H 
ATOM     22  H   LIG d   1       8.085   0.831 -11.325  0.00  0.00     0.087 H 
ENDROOT
BRANCH   1  23
ATOM     23  C   LIG d   1       5.982  -0.409 -10.443  0.00  0.00     0.044 C 
ATOM     24  H   LIG d   1       6.425  -1.405 -10.293  0.00  0.00     0.049 H 
ATOM     25  H   LIG d   1       5.994  -0.160 -11.514  0.00  0.00     0.049 H 
BRANCH  23  26
ATOM     26  C   LIG d   1       4.560  -0.412  -9.945  0.00  0.00     0.055 A 
ATOM     27  N   LIG d   1       4.025  -1.534  -9.507  0.00  0.00    -0.259 NA
ATOM     28  C   LIG d   1       2.784  -1.583  -9.061  0.00  0.00     0.028 A 
ATOM     29  C   LIG d   1       1.995  -0.449  -9.039  0.00  0.00    -0.044 A 
ATOM     30  H   LIG d   1       2.380  -2.521  -8.710  0.00  0.00     0.083 H 
ATOM     31  C   LIG d   1       2.524   0.750  -9.492  0.00  0.00    -0.059 A 
ATOM     32  H   LIG d   1       0.981  -0.495  -8.673  0.00  0.00     0.063 H 
ATOM     33  C   LIG d   1       3.830   0.761  -9.958  0.00  0.00    -0.039 A 
ATOM     34  H   LIG d   1       1.931   1.653  -9.487  0.00  0.00     0.062 H 
ATOM     35  H   LIG d   1       4.272   1.678 -10.322  0.00  0.00     0.064 H 
ENDBRANCH  23  26
ENDBRANCH   1  23
BRANCH  11  36
ATOM     36  C   LIG d   1       5.345  -0.150  -2.977  0.00  0.00    -0.019 A 
ATOM     37  C   LIG d   1       4.042   0.370  -2.988  0.00  0.00    -0.036 A 
ATOM     38  C   LIG d   1       2.975  -0.500  -3.074  0.00  0.00     0.028 A 
ATOM     39  H   LIG d   1       3.877   1.437  -2.930  0.00  0.00     0.064 H 
ATOM     40  N   LIG d   1       3.168  -1.802  -3.145  0.00  0.00    -0.263 NA
ATOM     41  H   LIG d   1       1.969  -0.109  -3.083  0.00  0.00     0.083 H 
ATOM     42  C   LIG d   1       4.375  -2.336  -3.138  0.00  0.00     0.028 A 
ATOM     43  C   LIG d   1       5.500  -1.541  -3.060  0.00  0.00    -0.036 A 
ATOM     44  H   LIG d   1       4.483  -3.409  -3.198  0.00  0.00     0.083 H 
ATOM     45  H   LIG d   1       6.485  -1.984  -3.059  0.00  0.00     0.064 H 
ENDBRANCH  11  36
TORSDOF 3
ENDMDL
MODEL 5
REMARK VINA RESULT:      -6.8      1.450      2.033
REMARK  3 active torsions:
REMARK  status: ('A' for Active; 'I' for Inactive)
REMARK    1  A    between atoms: C_5  and  C_7 
REMARK    2  A    between atoms: C_7  and  N_8 
REMARK    3  A    between atoms: C_18  and  C_19 
ROOT
ATOM      1  N   LIG d   1       6.677  -0.037  -5.830  0.00  0.00    -0.260 N 
ATOM      2  C   LIG d   1       7.779   0.919  -5.660  0.00  0.00     0.034 C 
ATOM      3  C   LIG d   1       8.147   1.511  -6.996  0.00  0.00     0.051 A 
ATOM      4  C   LIG d   1       7.748   0.903  -8.175  0.00  0.00     0.130 A 
ATOM      5  C   LIG d   1       8.098   1.458  -9.407  0.00  0.00    -0.019 A 
ATOM      6  C   LIG d   1       8.834   2.607  -9.461  0.00  0.00    -0.044 A 
ATOM      7  C   LIG d   1       9.240   3.229  -8.281  0.00  0.00     0.068 A 
ATOM      8  C   LIG d   1       8.896   2.681  -7.034  0.00  0.00     0.147 A 
ATOM      9  O   LIG d   1       9.396   3.451  -6.043  0.00  0.00    -0.451 OA
ATOM     10  C   LIG d   1      10.077   4.516  -6.527  0.00  0.00     0.176 A 
ATOM     11  C   LIG d   1      10.693   5.473  -5.792  0.00  0.00    -0.008 C 
ATOM     12  C   LIG d   1      10.022   4.446  -7.999  0.00  0.00     0.232 A 
ATOM     13  O   LIG d   1      10.511   5.220  -8.801  0.00  0.00    -0.283 OA
ATOM     14  O   LIG d   1       7.011  -0.238  -8.155  0.00  0.00    -0.476 OA
ATOM     15  C   LIG d   1       6.980  -0.971  -6.927  0.00  0.00     0.144 C 
ATOM     16  H   LIG d   1       7.465   1.723  -4.978  0.00  0.00     0.048 H 
ATOM     17  H   LIG d   1       8.652   0.400  -5.236  0.00  0.00     0.048 H 
ATOM     18  H   LIG d   1       7.784   0.977 -10.321  0.00  0.00     0.065 H 
ATOM     19  H   LIG d   1       9.101   3.033 -10.418  0.00  0.00     0.063 H 
ATOM     20  H   LIG d   1      11.290   6.250  -6.293  0.00  0.00     0.066 H 
ATOM     21  H   LIG d   1       7.958  -1.442  -6.748  0.00  0.00     0.087 H 
ATOM     22  H   LIG d   1       6.202  -1.747  -6.975  0.00  0.00     0.087 H 
ENDROOT
BRANCH   1  23
ATOM     23  C   LIG d   1       6.409  -0.763  -4.581  0.00  0.00     0.044 C 
ATOM     24  H   LIG d   1       7.329  -0.805  -3.978  0.00  0.00     0.049 H 
ATOM     25  H   LIG d   1       6.077  -1.785  -4.815  0.00  0.00     0.049 H 
BRANCH  23  26
ATOM     26  C   LIG d   1       5.332  -0.049  -3.807  0.00  0.00     0.055 A 
ATOM     27  N   LIG d   1       4.189   0.240  -4.396  0.00  0.00    -0.259 NA
ATOM     28  C   LIG d   1       3.217   0.863  -3.757  0.00  0.00     0.028 A 
ATOM     29  C   LIG d   1       3.367   1.239  -2.436  0.00  0.00    -0.044 A 
ATOM     30  H   LIG d   1       2.294   1.083  -4.274  0.00  0.00     0.083 H 
ATOM     31  C   LIG d   1       4.556   0.952  -1.783  0.00  0.00    -0.059 A 
ATOM     32  H   LIG d   1       2.568   1.748  -1.918  0.00  0.00     0.063 H 
ATOM     33  C   LIG d   1       5.555   0.300  -2.488  0.00  0.00    -0.039 A 
ATOM     34  H   LIG d   1       4.701   1.233  -0.750  0.00  0.00     0.062 H 
ATOM     35  H   LIG d   1       6.496   0.065  -2.012  0.00  0.00     0.064 H 
ENDBRANCH  23  26
ENDBRANCH   1  23
BRANCH  11  36
ATOM     36  C   LIG d   1      10.566   5.472  -4.327  0.00  0.00    -0.019 A 
ATOM     37  C   LIG d   1       9.689   6.355  -3.679  0.00  0.00    -0.036 A 
ATOM     38  C   LIG d   1       9.602   6.320  -2.302  0.00  0.00     0.028 A 
ATOM     39  H   LIG d   1       9.092   7.052  -4.249  0.00  0.00     0.064 H 
ATOM     40  N   LIG d   1      10.327   5.472  -1.599  0.00  0.00    -0.263 NA
ATOM     41  H   LIG d   1       8.931   6.996  -1.794  0.00  0.00     0.083 H 
ATOM     42  C   LIG d   1      11.164   4.624  -2.167  0.00  0.00     0.028 A 
ATOM     43  C   LIG d   1      11.312   4.586  -3.537  0.00  0.00    -0.036 A 
ATOM     44  H   LIG d   1      11.738   3.949  -1.549  0.00  0.00     0.083 H 
ATOM     45  H   LIG d   1      11.995   3.886  -3.996  0.00  0.00     0.064 H 
ENDBRANCH  11  36
TORSDOF 3
ENDMDL
MODEL 6
REMARK VINA RESULT:      -6.7      2.544      3.894
REMARK  3 active torsions:
REMARK  status: ('A' for Active; 'I' for Inactive)
REMARK    1  A    between atoms: C_5  and  C_7 
REMARK    2  A    between atoms: C_7  and  N_8 
REMARK    3  A    between atoms: C_18  and  C_19 
ROOT
ATOM      1  N   LIG d   1       4.582  -1.199  -6.100  0.00  0.00    -0.260 N 
ATOM      2  C   LIG d   1       5.896  -0.545  -6.179  0.00  0.00     0.034 C 
ATOM      3  C   LIG d   1       6.167  -0.126  -7.602  0.00  0.00     0.051 A 
ATOM      4  C   LIG d   1       5.442  -0.665  -8.651  0.00  0.00     0.130 A 
ATOM      5  C   LIG d   1       5.705  -0.273  -9.964  0.00  0.00    -0.019 A 
ATOM      6  C   LIG d   1       6.677   0.649 -10.226  0.00  0.00    -0.044 A 
ATOM      7  C   LIG d   1       7.413   1.200  -9.178  0.00  0.00     0.068 A 
ATOM      8  C   LIG d   1       7.160   0.813  -7.851  0.00  0.00     0.147 A 
ATOM      9  O   LIG d   1       7.990   1.475  -7.016  0.00  0.00    -0.451 OA
ATOM     10  C   LIG d   1       8.818   2.311  -7.685  0.00  0.00     0.176 A 
ATOM     11  C   LIG d   1       9.762   3.112  -7.136  0.00  0.00    -0.008 C 
ATOM     12  C   LIG d   1       8.503   2.191  -9.122  0.00  0.00     0.232 A 
ATOM     13  O   LIG d   1       9.024   2.780 -10.051  0.00  0.00    -0.283 OA
ATOM     14  O   LIG d   1       4.464  -1.581  -8.423  0.00  0.00    -0.476 OA
ATOM     15  C   LIG d   1       4.462  -2.227  -7.147  0.00  0.00     0.144 C 
ATOM     16  H   LIG d   1       5.904   0.341  -5.529  0.00  0.00     0.048 H 
ATOM     17  H   LIG d   1       6.675  -1.249  -5.849  0.00  0.00     0.048 H 
ATOM     18  H   LIG d   1       5.135  -0.699 -10.776  0.00  0.00     0.065 H 
ATOM     19  H   LIG d   1       6.876   0.951 -11.244  0.00  0.00     0.063 H 
ATOM     20  H   LIG d   1      10.437   3.691  -7.785  0.00  0.00     0.066 H 
ATOM     21  H   LIG d   1       5.312  -2.921  -7.077  0.00  0.00     0.087 H 
ATOM     22  H   LIG d   1       3.523  -2.782  -7.010  0.00  0.00     0.087 H 
ENDROOT
BRANCH   1  23
ATOM     23  C   LIG d   1       4.359  -1.776  -4.768  0.00  0.00     0.044 C 
ATOM     24  H   LIG d   1       5.214  -2.414  -4.497  0.00  0.00     0.049 H 
ATOM     25  H   LIG d   1       3.440  -2.381  -4.780  0.00  0.00     0.049 H 
BRANCH  23  26
ATOM     26  C   LIG d   1       4.218  -0.668  -3.757  0.00  0.00     0.055 A 
ATOM     27  N   LIG d   1       3.584   0.439  -4.089  0.00  0.00    -0.259 NA
ATOM     28  C   LIG d   1       3.436   1.436  -3.237  0.00  0.00     0.028 A 
ATOM     29  C   LIG d   1       3.946   1.352  -1.955  0.00  0.00    -0.044 A 
ATOM     30  H   LIG d   1       2.911   2.327  -3.545  0.00  0.00     0.083 H 
ATOM     31  C   LIG d   1       4.619   0.202  -1.571  0.00  0.00    -0.059 A 
ATOM     32  H   LIG d   1       3.821   2.170  -1.262  0.00  0.00     0.063 H 
ATOM     33  C   LIG d   1       4.759  -0.821  -2.495  0.00  0.00    -0.039 A 
ATOM     34  H   LIG d   1       5.028   0.108  -0.575  0.00  0.00     0.062 H 
ATOM     35  H   LIG d   1       5.281  -1.729  -2.230  0.00  0.00     0.064 H 
ENDBRANCH  23  26
ENDBRANCH   1  23
BRANCH  11  36
ATOM     36  C   LIG d   1       9.885   3.210  -5.673  0.00  0.00    -0.019 A 
ATOM     37  C   LIG d   1      10.448   2.164  -4.925  0.00  0.00    -0.036 A 
ATOM     38  C   LIG d   1      10.543   2.299  -3.556  0.00  0.00     0.028 A 
ATOM     39  H   LIG d   1      10.800   1.268  -5.415  0.00  0.00     0.064 H 
ATOM     40  N   LIG d   1      10.115   3.390  -2.951  0.00  0.00    -0.263 NA
ATOM     41  H   LIG d   1      10.974   1.499  -2.972  0.00  0.00     0.083 H 
ATOM     42  C   LIG d   1       9.580   4.397  -3.615  0.00  0.00     0.028 A 
ATOM     43  C   LIG d   1       9.450   4.352  -4.986  0.00  0.00    -0.036 A 
ATOM     44  H   LIG d   1       9.243   5.271  -3.075  0.00  0.00     0.083 H 
ATOM     45  H   LIG d   1       9.015   5.182  -5.524  0.00  0.00     0.064 H 
ENDBRANCH  11  36
TORSDOF 3
ENDMDL
MODEL 7
REMARK VINA RESULT:      -6.7      6.360     10.893
REMARK  3 active torsions:
REMARK  status: ('A' for Active; 'I' for Inactive)
REMARK    1  A    between atoms: C_5  and  C_7 
REMARK    2  A    between atoms: C_7  and  N_8 
REMARK    3  A    between atoms: C_18  and  C_19 
ROOT
ATOM      1  N   LIG d   1       6.845  -2.604  -4.882  0.00  0.00    -0.260 N 
ATOM      2  C   LIG d   1       7.030  -4.057  -5.000  0.00  0.00     0.034 C 
ATOM      3  C   LIG d   1       8.381  -4.441  -4.454  0.00  0.00     0.051 A 
ATOM      4  C   LIG d   1       9.370  -3.489  -4.273  0.00  0.00     0.130 A 
ATOM      5  C   LIG d   1      10.618  -3.857  -3.770  0.00  0.00    -0.019 A 
ATOM      6  C   LIG d   1      10.875  -5.159  -3.448  0.00  0.00    -0.044 A 
ATOM      7  C   LIG d   1       9.887  -6.127  -3.624  0.00  0.00     0.068 A 
ATOM      8  C   LIG d   1       8.626  -5.771  -4.131  0.00  0.00     0.147 A 
ATOM      9  O   LIG d   1       7.841  -6.866  -4.213  0.00  0.00    -0.451 OA
ATOM     10  C   LIG d   1       8.482  -7.980  -3.790  0.00  0.00     0.176 A 
ATOM     11  C   LIG d   1       7.969  -9.233  -3.747  0.00  0.00    -0.008 C 
ATOM     12  C   LIG d   1       9.843  -7.580  -3.381  0.00  0.00     0.232 A 
ATOM     13  O   LIG d   1      10.728  -8.290  -2.942  0.00  0.00    -0.283 OA
ATOM     14  O   LIG d   1       9.144  -2.184  -4.579  0.00  0.00    -0.476 OA
ATOM     15  C   LIG d   1       8.021  -1.897  -5.416  0.00  0.00     0.144 C 
ATOM     16  H   LIG d   1       6.245  -4.574  -4.431  0.00  0.00     0.048 H 
ATOM     17  H   LIG d   1       6.966  -4.349  -6.059  0.00  0.00     0.048 H 
ATOM     18  H   LIG d   1      11.385  -3.108  -3.633  0.00  0.00     0.065 H 
ATOM     19  H   LIG d   1      11.843  -5.438  -3.057  0.00  0.00     0.063 H 
ATOM     20  H   LIG d   1       8.611 -10.080  -3.462  0.00  0.00     0.066 H 
ATOM     21  H   LIG d   1       8.220  -2.241  -6.442  0.00  0.00     0.087 H 
ATOM     22  H   LIG d   1       7.827  -0.815  -5.423  0.00  0.00     0.087 H 
ENDROOT
BRANCH   1  23
ATOM     23  C   LIG d   1       5.617  -2.171  -5.562  0.00  0.00     0.044 C 
ATOM     24  H   LIG d   1       5.180  -3.022  -6.106  0.00  0.00     0.049 H 
ATOM     25  H   LIG d   1       5.857  -1.367  -6.273  0.00  0.00     0.049 H 
BRANCH  23  26
ATOM     26  C   LIG d   1       4.630  -1.664  -4.544  0.00  0.00     0.055 A 
ATOM     27  N   LIG d   1       3.931  -0.575  -4.800  0.00  0.00    -0.259 NA
ATOM     28  C   LIG d   1       3.056  -0.094  -3.938  0.00  0.00     0.028 A 
ATOM     29  C   LIG d   1       2.840  -0.720  -2.725  0.00  0.00    -0.044 A 
ATOM     30  H   LIG d   1       2.502   0.800  -4.184  0.00  0.00     0.083 H 
ATOM     31  C   LIG d   1       3.558  -1.867  -2.421  0.00  0.00    -0.059 A 
ATOM     32  H   LIG d   1       2.122  -0.322  -2.025  0.00  0.00     0.063 H 
ATOM     33  C   LIG d   1       4.472  -2.340  -3.349  0.00  0.00    -0.039 A 
ATOM     34  H   LIG d   1       3.410  -2.378  -1.481  0.00  0.00     0.062 H 
ATOM     35  H   LIG d   1       5.051  -3.228  -3.143  0.00  0.00     0.064 H 
ENDBRANCH  23  26
ENDBRANCH   1  23
BRANCH  11  36
ATOM     36  C   LIG d   1       6.555  -9.461  -4.081  0.00  0.00    -0.019 A 
ATOM     37  C   LIG d   1       5.652  -9.930  -3.115  0.00  0.00    -0.036 A 
ATOM     38  C   LIG d   1       4.335 -10.130  -3.472  0.00  0.00     0.028 A 
ATOM     39  H   LIG d   1       5.984 -10.132  -2.106  0.00  0.00     0.064 H 
ATOM     40  N   LIG d   1       3.922  -9.885  -4.700  0.00  0.00    -0.263 NA
ATOM     41  H   LIG d   1       3.633 -10.491  -2.736  0.00  0.00     0.083 H 
ATOM     42  C   LIG d   1       4.736  -9.443  -5.640  0.00  0.00     0.028 A 
ATOM     43  C   LIG d   1       6.068  -9.210  -5.371  0.00  0.00    -0.036 A 
ATOM     44  H   LIG d   1       4.352  -9.257  -6.633  0.00  0.00     0.083 H 
ATOM     45  H   LIG d   1       6.728  -8.844  -6.144  0.00  0.00     0.064 H 
ENDBRANCH  11  36
TORSDOF 3
ENDMDL
MODEL 8
REMARK VINA RESULT:      -6.5      6.294      9.159
REMARK  3 active torsions:
REMARK  status: ('A' for Active; 'I' for Inactive)
REMARK    1  A    between atoms: C_5  and  C_7 
REMARK    2  A    between atoms: C_7  and  N_8 
REMARK    3  A    between atoms: C_18  and  C_19 
ROOT
ATOM      1  N   LIG d   1       4.807  -4.533  -6.162  0.00  0.00    -0.260 N 
ATOM      2  C   LIG d   1       4.850  -3.612  -7.306  0.00  0.00     0.034 C 
ATOM      3  C   LIG d   1       3.903  -4.092  -8.377  0.00  0.00     0.051 A 
ATOM      4  C   LIG d   1       3.429  -5.393  -8.373  0.00  0.00     0.130 A 
ATOM      5  C   LIG d   1       2.556  -5.827  -9.372  0.00  0.00    -0.019 A 
ATOM      6  C   LIG d   1       2.159  -4.972 -10.360  0.00  0.00    -0.044 A 
ATOM      7  C   LIG d   1       2.629  -3.659 -10.373  0.00  0.00     0.068 A 
ATOM      8  C   LIG d   1       3.509  -3.209  -9.375  0.00  0.00     0.147 A 
ATOM      9  O   LIG d   1       3.825  -1.914  -9.594  0.00  0.00    -0.451 OA
ATOM     10  C   LIG d   1       3.212  -1.426 -10.698  0.00  0.00     0.176 A 
ATOM     11  C   LIG d   1       3.323  -0.166 -11.184  0.00  0.00    -0.008 C 
ATOM     12  C   LIG d   1       2.401  -2.515 -11.274  0.00  0.00     0.232 A 
ATOM     13  O   LIG d   1       1.699  -2.477 -12.268  0.00  0.00    -0.283 OA
ATOM     14  O   LIG d   1       3.801  -6.266  -7.401  0.00  0.00    -0.476 OA
ATOM     15  C   LIG d   1       4.951  -5.923  -6.623  0.00  0.00     0.144 C 
ATOM     16  H   LIG d   1       4.552  -2.606  -6.979  0.00  0.00     0.048 H 
ATOM     17  H   LIG d   1       5.873  -3.577  -7.710  0.00  0.00     0.048 H 
ATOM     18  H   LIG d   1       2.192  -6.844  -9.362  0.00  0.00     0.065 H 
ATOM     19  H   LIG d   1       1.482  -5.313 -11.129  0.00  0.00     0.063 H 
ATOM     20  H   LIG d   1       2.844   0.099 -12.139  0.00  0.00     0.066 H 
ATOM     21  H   LIG d   1       5.859  -6.014  -7.237  0.00  0.00     0.087 H 
ATOM     22  H   LIG d   1       5.027  -6.592  -5.754  0.00  0.00     0.087 H 
ENDROOT
BRANCH   1  23
ATOM     23  C   LIG d   1       5.843  -4.196  -5.175  0.00  0.00     0.044 C 
ATOM     24  H   LIG d   1       6.785  -3.971  -5.696  0.00  0.00     0.049 H 
ATOM     25  H   LIG d   1       5.993  -5.049  -4.497  0.00  0.00     0.049 H 
BRANCH  23  26
ATOM     26  C   LIG d   1       5.407  -2.993  -4.380  0.00  0.00     0.055 A 
ATOM     27  N   LIG d   1       6.109  -1.879  -4.448  0.00  0.00    -0.259 NA
ATOM     28  C   LIG d   1       5.765  -0.801  -3.769  0.00  0.00     0.028 A 
ATOM     29  C   LIG d   1       4.648  -0.804  -2.955  0.00  0.00    -0.044 A 
ATOM     30  H   LIG d   1       6.365   0.094  -3.850  0.00  0.00     0.083 H 
ATOM     31  C   LIG d   1       3.886  -1.958  -2.859  0.00  0.00    -0.059 A 
ATOM     32  H   LIG d   1       4.372   0.082  -2.403  0.00  0.00     0.063 H 
ATOM     33  C   LIG d   1       4.281  -3.072  -3.583  0.00  0.00    -0.039 A 
ATOM     34  H   LIG d   1       3.008  -1.990  -2.231  0.00  0.00     0.062 H 
ATOM     35  H   LIG d   1       3.713  -3.990  -3.528  0.00  0.00     0.064 H 
ENDBRANCH  23  26
ENDBRANCH   1  23
BRANCH  11  36
ATOM     36  C   LIG d   1       4.082   0.848 -10.436  0.00  0.00    -0.019 A 
ATOM     37  C   LIG d   1       3.454   2.001  -9.943  0.00  0.00    -0.036 A 
ATOM     38  C   LIG d   1       4.205   2.926  -9.247  0.00  0.00     0.028 A 
ATOM     39  H   LIG d   1       2.398   2.163 -10.106  0.00  0.00     0.064 H 
ATOM     40  N   LIG d   1       5.494   2.735  -9.043  0.00  0.00    -0.263 NA
ATOM     41  H   LIG d   1       3.731   3.817  -8.864  0.00  0.00     0.083 H 
ATOM     42  C   LIG d   1       6.125   1.665  -9.488  0.00  0.00     0.028 A 
ATOM     43  C   LIG d   1       5.453   0.687 -10.189  0.00  0.00    -0.036 A 
ATOM     44  H   LIG d   1       7.183   1.553  -9.297  0.00  0.00     0.083 H 
ATOM     45  H   LIG d   1       5.975  -0.189 -10.547  0.00  0.00     0.064 H 
ENDBRANCH  11  36
TORSDOF 3
ENDMDL
MODEL 9
REMARK VINA RESULT:      -6.4      7.065      9.786
REMARK  3 active torsions:
REMARK  status: ('A' for Active; 'I' for Inactive)
REMARK    1  A    between atoms: C_5  and  C_7 
REMARK    2  A    between atoms: C_7  and  N_8 
REMARK    3  A    between atoms: C_18  and  C_19 
ROOT
ATOM      1  N   LIG d   1       2.362  -4.722 -10.282  0.00  0.00    -0.260 N 
ATOM      2  C   LIG d   1       2.977  -3.793  -9.323  0.00  0.00     0.034 C 
ATOM      3  C   LIG d   1       2.863  -2.382  -9.842  0.00  0.00     0.051 A 
ATOM      4  C   LIG d   1       2.586  -2.137 -11.176  0.00  0.00     0.130 A 
ATOM      5  C   LIG d   1       2.487  -0.826 -11.646  0.00  0.00    -0.019 A 
ATOM      6  C   LIG d   1       2.660   0.226 -10.793  0.00  0.00    -0.044 A 
ATOM      7  C   LIG d   1       2.938  -0.008  -9.447  0.00  0.00     0.068 A 
ATOM      8  C   LIG d   1       3.042  -1.322  -8.961  0.00  0.00     0.147 A 
ATOM      9  O   LIG d   1       3.314  -1.300  -7.638  0.00  0.00    -0.451 OA
ATOM     10  C   LIG d   1       3.409  -0.036  -7.164  0.00  0.00     0.176 A 
ATOM     11  C   LIG d   1       3.671   0.322  -5.884  0.00  0.00    -0.008 C 
ATOM     12  C   LIG d   1       3.173   0.881  -8.296  0.00  0.00     0.232 A 
ATOM     13  O   LIG d   1       3.171   2.098  -8.281  0.00  0.00    -0.283 OA
ATOM     14  O   LIG d   1       2.404  -3.163 -12.049  0.00  0.00    -0.476 OA
ATOM     15  C   LIG d   1       2.863  -4.454 -11.641  0.00  0.00     0.144 C 
ATOM     16  H   LIG d   1       2.460  -3.870  -8.356  0.00  0.00     0.048 H 
ATOM     17  H   LIG d   1       4.038  -4.051  -9.193  0.00  0.00     0.048 H 
ATOM     18  H   LIG d   1       2.272  -0.644 -12.688  0.00  0.00     0.065 H 
ATOM     19  H   LIG d   1       2.580   1.239 -11.161  0.00  0.00     0.063 H 
ATOM     20  H   LIG d   1       3.808   1.383  -5.627  0.00  0.00     0.066 H 
ATOM     21  H   LIG d   1       3.963  -4.477 -11.637  0.00  0.00     0.087 H 
ATOM     22  H   LIG d   1       2.482  -5.221 -12.330  0.00  0.00     0.087 H 
ENDROOT
BRANCH   1  23
ATOM     23  C   LIG d   1       2.608  -6.118  -9.897  0.00  0.00     0.044 C 
ATOM     24  H   LIG d   1       2.868  -6.162  -8.829  0.00  0.00     0.049 H 
ATOM     25  H   LIG d   1       3.440  -6.521 -10.494  0.00  0.00     0.049 H 
BRANCH  23  26
ATOM     26  C   LIG d   1       1.368  -6.935 -10.148  0.00  0.00     0.055 A 
ATOM     27  N   LIG d   1       0.189  -6.448  -9.815  0.00  0.00    -0.259 NA
ATOM     28  C   LIG d   1      -0.924  -7.127 -10.015  0.00  0.00     0.028 A 
ATOM     29  C   LIG d   1      -0.891  -8.386 -10.586  0.00  0.00    -0.044 A 
ATOM     30  H   LIG d   1      -1.872  -6.695  -9.730  0.00  0.00     0.083 H 
ATOM     31  C   LIG d   1       0.331  -8.930 -10.949  0.00  0.00    -0.059 A 
ATOM     32  H   LIG d   1      -1.805  -8.936 -10.749  0.00  0.00     0.063 H 
ATOM     33  C   LIG d   1       1.479  -8.189 -10.718  0.00  0.00    -0.039 A 
ATOM     34  H   LIG d   1       0.388  -9.912 -11.397  0.00  0.00     0.062 H 
ATOM     35  H   LIG d   1       2.449  -8.584 -10.984  0.00  0.00     0.064 H 
ENDBRANCH  23  26
ENDBRANCH   1  23
BRANCH  11  36
ATOM     36  C   LIG d   1       3.772  -0.707  -4.838  0.00  0.00    -0.019 A 
ATOM     37  C   LIG d   1       4.601  -1.827  -5.005  0.00  0.00    -0.036 A 
ATOM     38  C   LIG d   1       4.665  -2.767  -3.998  0.00  0.00     0.028 A 
ATOM     39  H   LIG d   1       5.180  -1.951  -5.909  0.00  0.00     0.064 H 
ATOM     40  N   LIG d   1       3.962  -2.624  -2.892  0.00  0.00    -0.263 NA
ATOM     41  H   LIG d   1       5.300  -3.633  -4.118  0.00  0.00     0.083 H 
ATOM     42  C   LIG d   1       3.170  -1.587  -2.692  0.00  0.00     0.028 A 
ATOM     43  C   LIG d   1       3.048  -0.596  -3.642  0.00  0.00    -0.036 A 
ATOM     44  H   LIG d   1       2.613  -1.513  -1.769  0.00  0.00     0.083 H 
ATOM     45  H   LIG d   1       2.402   0.252  -3.471  0.00  0.00     0.064 H 
ENDBRANCH  11  36
TORSDOF 3
ENDMDL
