MODEL 1
REMARK VINA RESULT:      -5.1      0.000      0.000
REMARK  1 active torsions:
REMARK  status: ('A' for Active; 'I' for Inactive)
REMARK    1  A    between atoms: C_8  and  C_12 
ROOT
ATOM      1  C   LIG d   1       4.583  -1.868  -7.083  0.00  0.00     0.046 C 
ATOM      2  C   LIG d   1       4.699  -1.058  -8.396  0.00  0.00     0.092 C 
ATOM      3  S   LIG d   1       3.438   0.239  -8.032  0.00  0.00     0.032 S 
ATOM      4  O   LIG d   1       2.140  -0.157  -8.454  0.00  0.00    -0.166 OA
ATOM      5  O   LIG d   1       3.953   1.532  -8.320  0.00  0.00    -0.166 OA
ATOM      6  C   LIG d   1       3.441   0.094  -6.255  0.00  0.00     0.253 A 
ATOM      7  N   LIG d   1       4.107  -1.040  -5.969  0.00  0.00    -0.305 N 
ATOM      8  C   LIG d   1       4.134  -1.111  -4.570  0.00  0.00     0.104 A 
ATOM      9  C   LIG d   1       3.458  -0.008  -4.105  0.00  0.00     0.158 A 
ATOM     10  N   LIG d   1       3.050   0.691  -5.165  0.00  0.00    -0.199 NA
ATOM     11 CL   LIG d   1       3.184   0.401  -2.440  0.00  0.00    -0.060 Cl
ATOM     12  H   LIG d   1       5.562  -2.276  -6.829  0.00  0.00     0.051 H 
ATOM     13  H   LIG d   1       3.885  -2.692  -7.237  0.00  0.00     0.051 H 
ATOM     14  H   LIG d   1       5.695  -0.633  -8.517  0.00  0.00     0.052 H 
ATOM     15  H   LIG d   1       4.414  -1.655  -9.262  0.00  0.00     0.052 H 
ENDROOT
BRANCH   8  16
ATOM     16  C   LIG d   1       4.767  -2.154  -3.760  0.00  0.00     0.091 C 
ATOM     17  O   LIG d   1       5.737  -1.888  -3.077  0.00  0.00    -0.543 OA
ATOM     18  O   LIG d   1       4.269  -3.408  -3.766  0.00  0.00    -0.543 OA
ENDBRANCH   8  16
TORSDOF 1
ENDMDL
MODEL 2
REMARK VINA RESULT:      -4.9      2.815      3.272
REMARK  1 active torsions:
REMARK  status: ('A' for Active; 'I' for Inactive)
REMARK    1  A    between atoms: C_8  and  C_12 
ROOT
ATOM      1  C   LIG d   1       5.747  -1.428  -6.026  0.00  0.00     0.046 C 
ATOM      2  C   LIG d   1       7.145  -1.332  -6.683  0.00  0.00     0.092 C 
ATOM      3  S   LIG d   1       7.627   0.338  -6.064  0.00  0.00     0.032 S 
ATOM      4  O   LIG d   1       7.201   1.368  -6.944  0.00  0.00    -0.166 OA
ATOM      5  O   LIG d   1       8.943   0.313  -5.528  0.00  0.00    -0.166 OA
ATOM      6  C   LIG d   1       6.528   0.407  -4.661  0.00  0.00     0.253 A 
ATOM      7  N   LIG d   1       5.654  -0.605  -4.815  0.00  0.00    -0.305 N 
ATOM      8  C   LIG d   1       4.831  -0.559  -3.683  0.00  0.00     0.104 A 
ATOM      9  C   LIG d   1       5.260   0.505  -2.924  0.00  0.00     0.158 A 
ATOM     10  N   LIG d   1       6.289   1.064  -3.561  0.00  0.00    -0.199 NA
ATOM     11 CL   LIG d   1       4.586   1.025  -1.412  0.00  0.00    -0.060 Cl
ATOM     12  H   LIG d   1       5.548  -2.468  -5.766  0.00  0.00     0.051 H 
ATOM     13  H   LIG d   1       4.997  -1.093  -6.742  0.00  0.00     0.051 H 
ATOM     14  H   LIG d   1       7.814  -2.110  -6.316  0.00  0.00     0.052 H 
ATOM     15  H   LIG d   1       7.078  -1.346  -7.771  0.00  0.00     0.052 H 
ENDROOT
BRANCH   8  16
ATOM     16  C   LIG d   1       3.730  -1.470  -3.365  0.00  0.00     0.091 C 
ATOM     17  O   LIG d   1       2.592  -1.047  -3.293  0.00  0.00    -0.543 OA
ATOM     18  O   LIG d   1       3.976  -2.780  -3.158  0.00  0.00    -0.543 OA
ENDBRANCH   8  16
TORSDOF 1
ENDMDL
MODEL 3
REMARK VINA RESULT:      -4.8      3.653      4.282
REMARK  1 active torsions:
REMARK  status: ('A' for Active; 'I' for Inactive)
REMARK    1  A    between atoms: C_8  and  C_12 
ROOT
ATOM      1  C   LIG d   1       4.154  -1.796  -2.938  0.00  0.00     0.046 C 
ATOM      2  C   LIG d   1       2.846  -0.978  -3.057  0.00  0.00     0.092 C 
ATOM      3  S   LIG d   1       3.582   0.712  -3.123  0.00  0.00     0.032 S 
ATOM      4  O   LIG d   1       3.746   1.265  -1.824  0.00  0.00    -0.166 OA
ATOM      5  O   LIG d   1       3.014   1.465  -4.186  0.00  0.00    -0.166 OA
ATOM      6  C   LIG d   1       5.215   0.249  -3.667  0.00  0.00     0.253 A 
ATOM      7  N   LIG d   1       5.298  -1.087  -3.522  0.00  0.00    -0.305 N 
ATOM      8  C   LIG d   1       6.570  -1.433  -3.996  0.00  0.00     0.104 A 
ATOM      9  C   LIG d   1       7.181  -0.263  -4.382  0.00  0.00     0.158 A 
ATOM     10  N   LIG d   1       6.322   0.732  -4.159  0.00  0.00    -0.199 NA
ATOM     11 CL   LIG d   1       8.779  -0.109  -5.041  0.00  0.00    -0.060 Cl
ATOM     12  H   LIG d   1       4.026  -2.749  -3.452  0.00  0.00     0.051 H 
ATOM     13  H   LIG d   1       4.356  -1.988  -1.883  0.00  0.00     0.051 H 
ATOM     14  H   LIG d   1       2.304  -1.221  -3.971  0.00  0.00     0.052 H 
ATOM     15  H   LIG d   1       2.215  -1.101  -2.177  0.00  0.00     0.052 H 
ENDROOT
BRANCH   8  16
ATOM     16  C   LIG d   1       7.138  -2.781  -4.071  0.00  0.00     0.091 C 
ATOM     17  O   LIG d   1       6.602  -3.628  -4.759  0.00  0.00    -0.543 OA
ATOM     18  O   LIG d   1       8.259  -3.080  -3.383  0.00  0.00    -0.543 OA
ENDBRANCH   8  16
TORSDOF 1
ENDMDL
MODEL 4
REMARK VINA RESULT:      -4.7      2.497      5.019
REMARK  1 active torsions:
REMARK  status: ('A' for Active; 'I' for Inactive)
REMARK    1  A    between atoms: C_8  and  C_12 
ROOT
ATOM      1  C   LIG d   1       2.672   0.304  -4.363  0.00  0.00     0.046 C 
ATOM      2  C   LIG d   1       3.285   0.293  -2.943  0.00  0.00     0.092 C 
ATOM      3  S   LIG d   1       4.329  -1.220  -3.104  0.00  0.00     0.032 S 
ATOM      4  O   LIG d   1       3.612  -2.393  -2.746  0.00  0.00    -0.166 OA
ATOM      5  O   LIG d   1       5.644  -0.975  -2.624  0.00  0.00    -0.166 OA
ATOM      6  C   LIG d   1       4.452  -1.246  -4.882  0.00  0.00     0.253 A 
ATOM      7  N   LIG d   1       3.538  -0.369  -5.338  0.00  0.00    -0.305 N 
ATOM      8  C   LIG d   1       3.682  -0.373  -6.731  0.00  0.00     0.104 A 
ATOM      9  C   LIG d   1       4.676  -1.278  -7.023  0.00  0.00     0.158 A 
ATOM     10  N   LIG d   1       5.109  -1.786  -5.870  0.00  0.00    -0.199 NA
ATOM     11 CL   LIG d   1       5.260  -1.685  -8.606  0.00  0.00    -0.060 Cl
ATOM     12  H   LIG d   1       2.521   1.338  -4.676  0.00  0.00     0.051 H 
ATOM     13  H   LIG d   1       1.707  -0.202  -4.335  0.00  0.00     0.051 H 
ATOM     14  H   LIG d   1       3.887   1.184  -2.759  0.00  0.00     0.052 H 
ATOM     15  H   LIG d   1       2.520   0.166  -2.177  0.00  0.00     0.052 H 
ENDROOT
BRANCH   8  16
ATOM     16  C   LIG d   1       2.927   0.434  -7.691  0.00  0.00     0.091 C 
ATOM     17  O   LIG d   1       2.196  -0.107  -8.498  0.00  0.00    -0.543 OA
ATOM     18  O   LIG d   1       3.036   1.779  -7.675  0.00  0.00    -0.543 OA
ENDBRANCH   8  16
TORSDOF 1
ENDMDL
MODEL 5
REMARK VINA RESULT:      -4.4      3.133      4.101
REMARK  1 active torsions:
REMARK  status: ('A' for Active; 'I' for Inactive)
REMARK    1  A    between atoms: C_8  and  C_12 
ROOT
ATOM      1  C   LIG d   1       4.216  -2.303  -3.277  0.00  0.00     0.046 C 
ATOM      2  C   LIG d   1       3.550  -1.033  -2.696  0.00  0.00     0.092 C 
ATOM      3  S   LIG d   1       4.056   0.167  -4.003  0.00  0.00     0.032 S 
ATOM      4  O   LIG d   1       5.315   0.759  -3.713  0.00  0.00    -0.166 OA
ATOM      5  O   LIG d   1       2.946   0.947  -4.425  0.00  0.00    -0.166 OA
ATOM      6  C   LIG d   1       4.357  -1.006  -5.311  0.00  0.00     0.253 A 
ATOM      7  N   LIG d   1       4.370  -2.222  -4.734  0.00  0.00    -0.305 N 
ATOM      8  C   LIG d   1       4.564  -3.129  -5.784  0.00  0.00     0.104 A 
ATOM      9  C   LIG d   1       4.673  -2.384  -6.935  0.00  0.00     0.158 A 
ATOM     10  N   LIG d   1       4.547  -1.101  -6.598  0.00  0.00    -0.199 NA
ATOM     11 CL   LIG d   1       4.929  -3.003  -8.537  0.00  0.00    -0.060 Cl
ATOM     12  H   LIG d   1       3.601  -3.170  -3.033  0.00  0.00     0.051 H 
ATOM     13  H   LIG d   1       5.198  -2.426  -2.822  0.00  0.00     0.051 H 
ATOM     14  H   LIG d   1       2.466  -1.139  -2.640  0.00  0.00     0.052 H 
ATOM     15  H   LIG d   1       3.973  -0.765  -1.729  0.00  0.00     0.052 H 
ENDROOT
BRANCH   8  16
ATOM     16  C   LIG d   1       4.630  -4.588  -5.678  0.00  0.00     0.091 C 
ATOM     17  O   LIG d   1       5.663  -5.125  -5.326  0.00  0.00    -0.543 OA
ATOM     18  O   LIG d   1       3.544  -5.335  -5.964  0.00  0.00    -0.543 OA
ENDBRANCH   8  16
TORSDOF 1
ENDMDL
MODEL 6
REMARK VINA RESULT:      -4.3      3.253      4.972
REMARK  1 active torsions:
REMARK  status: ('A' for Active; 'I' for Inactive)
REMARK    1  A    between atoms: C_8  and  C_12 
ROOT
ATOM      1  C   LIG d   1       3.834  -0.471  -5.101  0.00  0.00     0.046 C 
ATOM      2  C   LIG d   1       3.033  -0.348  -3.783  0.00  0.00     0.092 C 
ATOM      3  S   LIG d   1       4.140  -1.345  -2.694  0.00  0.00     0.032 S 
ATOM      4  O   LIG d   1       3.794  -2.723  -2.713  0.00  0.00    -0.166 OA
ATOM      5  O   LIG d   1       4.395  -0.658  -1.476  0.00  0.00    -0.166 OA
ATOM      6  C   LIG d   1       5.631  -1.201  -3.660  0.00  0.00     0.253 A 
ATOM      7  N   LIG d   1       5.261  -0.702  -4.854  0.00  0.00    -0.305 N 
ATOM      8  C   LIG d   1       6.451  -0.557  -5.579  0.00  0.00     0.104 A 
ATOM      9  C   LIG d   1       7.467  -1.001  -4.766  0.00  0.00     0.158 A 
ATOM     10  N   LIG d   1       6.920  -1.387  -3.613  0.00  0.00    -0.199 NA
ATOM     11 CL   LIG d   1       9.155  -1.050  -5.167  0.00  0.00    -0.060 Cl
ATOM     12  H   LIG d   1       3.716   0.449  -5.674  0.00  0.00     0.051 H 
ATOM     13  H   LIG d   1       3.434  -1.303  -5.681  0.00  0.00     0.051 H 
ATOM     14  H   LIG d   1       2.963   0.688  -3.452  0.00  0.00     0.052 H 
ATOM     15  H   LIG d   1       2.047  -0.805  -3.868  0.00  0.00     0.052 H 
ENDROOT
BRANCH   8  16
ATOM     16  C   LIG d   1       6.588  -0.028  -6.938  0.00  0.00     0.091 C 
ATOM     17  O   LIG d   1       6.591  -0.787  -7.888  0.00  0.00    -0.543 OA
ATOM     18  O   LIG d   1       6.703   1.301  -7.136  0.00  0.00    -0.543 OA
ENDBRANCH   8  16
TORSDOF 1
ENDMDL
MODEL 7
REMARK VINA RESULT:      -4.3      2.915      4.514
REMARK  1 active torsions:
REMARK  status: ('A' for Active; 'I' for Inactive)
REMARK    1  A    between atoms: C_8  and  C_12 
ROOT
ATOM      1  C   LIG d   1       6.749  -1.161  -4.583  0.00  0.00     0.046 C 
ATOM      2  C   LIG d   1       6.666  -1.205  -3.039  0.00  0.00     0.092 C 
ATOM      3  S   LIG d   1       5.311   0.024  -2.800  0.00  0.00     0.032 S 
ATOM      4  O   LIG d   1       5.815   1.347  -2.683  0.00  0.00    -0.166 OA
ATOM      5  O   LIG d   1       4.328  -0.480  -1.905  0.00  0.00    -0.166 OA
ATOM      6  C   LIG d   1       4.592  -0.082  -4.428  0.00  0.00     0.253 A 
ATOM      7  N   LIG d   1       5.475  -0.757  -5.188  0.00  0.00    -0.305 N 
ATOM      8  C   LIG d   1       4.872  -0.867  -6.448  0.00  0.00     0.104 A 
ATOM      9  C   LIG d   1       3.658  -0.226  -6.363  0.00  0.00     0.158 A 
ATOM     10  N   LIG d   1       3.535   0.239  -5.119  0.00  0.00    -0.199 NA
ATOM     11 CL   LIG d   1       2.497  -0.054  -7.642  0.00  0.00    -0.060 Cl
ATOM     12  H   LIG d   1       7.020  -2.151  -4.952  0.00  0.00     0.051 H 
ATOM     13  H   LIG d   1       7.523  -0.451  -4.875  0.00  0.00     0.051 H 
ATOM     14  H   LIG d   1       6.384  -2.195  -2.680  0.00  0.00     0.052 H 
ATOM     15  H   LIG d   1       7.593  -0.865  -2.578  0.00  0.00     0.052 H 
ENDROOT
BRANCH   8  16
ATOM     16  C   LIG d   1       5.424  -1.540  -7.625  0.00  0.00     0.091 C 
ATOM     17  O   LIG d   1       5.425  -2.754  -7.687  0.00  0.00    -0.543 OA
ATOM     18  O   LIG d   1       5.925  -0.812  -8.645  0.00  0.00    -0.543 OA
ENDBRANCH   8  16
TORSDOF 1
ENDMDL
MODEL 8
REMARK VINA RESULT:      -4.3      3.849      4.808
REMARK  1 active torsions:
REMARK  status: ('A' for Active; 'I' for Inactive)
REMARK    1  A    between atoms: C_8  and  C_12 
ROOT
ATOM      1  C   LIG d   1       5.755  -1.841  -4.297  0.00  0.00     0.046 C 
ATOM      2  C   LIG d   1       4.234  -1.870  -4.014  0.00  0.00     0.092 C 
ATOM      3  S   LIG d   1       4.149  -0.468  -2.817  0.00  0.00     0.032 S 
ATOM      4  O   LIG d   1       4.352  -0.905  -1.480  0.00  0.00    -0.166 OA
ATOM      5  O   LIG d   1       3.092   0.418  -3.158  0.00  0.00    -0.166 OA
ATOM      6  C   LIG d   1       5.656   0.356  -3.296  0.00  0.00     0.253 A 
ATOM      7  N   LIG d   1       6.326  -0.507  -4.081  0.00  0.00    -0.305 N 
ATOM      8  C   LIG d   1       7.482   0.176  -4.481  0.00  0.00     0.104 A 
ATOM      9  C   LIG d   1       7.435   1.415  -3.885  0.00  0.00     0.158 A 
ATOM     10  N   LIG d   1       6.311   1.476  -3.171  0.00  0.00    -0.199 NA
ATOM     11 CL   LIG d   1       8.623   2.671  -4.035  0.00  0.00    -0.060 Cl
ATOM     12  H   LIG d   1       5.929  -2.140  -5.331  0.00  0.00     0.051 H 
ATOM     13  H   LIG d   1       6.251  -2.551  -3.634  0.00  0.00     0.051 H 
ATOM     14  H   LIG d   1       3.655  -1.670  -4.915  0.00  0.00     0.052 H 
ATOM     15  H   LIG d   1       3.931  -2.807  -3.547  0.00  0.00     0.052 H 
ENDROOT
BRANCH   8  16
ATOM     16  C   LIG d   1       8.534  -0.328  -5.366  0.00  0.00     0.091 C 
ATOM     17  O   LIG d   1       9.201  -1.288  -5.032  0.00  0.00    -0.543 OA
ATOM     18  O   LIG d   1       8.758   0.268  -6.555  0.00  0.00    -0.543 OA
ENDBRANCH   8  16
TORSDOF 1
ENDMDL
MODEL 9
REMARK VINA RESULT:      -4.3      9.705     10.539
REMARK  1 active torsions:
REMARK  status: ('A' for Active; 'I' for Inactive)
REMARK    1  A    between atoms: C_8  and  C_12 
ROOT
ATOM      1  C   LIG d   1       9.751   6.072  -3.631  0.00  0.00     0.046 C 
ATOM      2  C   LIG d   1       9.681   4.694  -4.330  0.00  0.00     0.092 C 
ATOM      3  S   LIG d   1      10.969   3.817  -3.343  0.00  0.00     0.032 S 
ATOM      4  O   LIG d   1      12.263   3.977  -3.907  0.00  0.00    -0.166 OA
ATOM      5  O   LIG d   1      10.495   2.547  -2.916  0.00  0.00    -0.166 OA
ATOM      6  C   LIG d   1      10.931   4.865  -1.902  0.00  0.00     0.253 A 
ATOM      7  N   LIG d   1      10.229   5.960  -2.249  0.00  0.00    -0.305 N 
ATOM      8  C   LIG d   1      10.174   6.747  -1.091  0.00  0.00     0.104 A 
ATOM      9  C   LIG d   1      10.872   6.070  -0.118  0.00  0.00     0.158 A 
ATOM     10  N   LIG d   1      11.317   4.936  -0.659  0.00  0.00    -0.199 NA
ATOM     11 CL   LIG d   1      11.126   6.596   1.516  0.00  0.00    -0.060 Cl
ATOM     12  H   LIG d   1       8.757   6.520  -3.629  0.00  0.00     0.051 H 
ATOM     13  H   LIG d   1      10.429   6.718  -4.191  0.00  0.00     0.051 H 
ATOM     14  H   LIG d   1       8.699   4.236  -4.215  0.00  0.00     0.052 H 
ATOM     15  H   LIG d   1       9.966   4.762  -5.380  0.00  0.00     0.052 H 
ENDROOT
BRANCH   8  16
ATOM     16  C   LIG d   1       9.499   8.038  -0.943  0.00  0.00     0.091 C 
ATOM     17  O   LIG d   1      10.152   9.064  -0.898  0.00  0.00    -0.543 OA
ATOM     18  O   LIG d   1       8.154   8.091  -0.863  0.00  0.00    -0.543 OA
ENDBRANCH   8  16
TORSDOF 1
ENDMDL
MODEL 10
REMARK VINA RESULT:      -4.3     13.013     13.974
REMARK  1 active torsions:
REMARK  status: ('A' for Active; 'I' for Inactive)
REMARK    1  A    between atoms: C_8  and  C_12 
ROOT
ATOM      1  C   LIG d   1      10.862  10.384  -0.793  0.00  0.00     0.046 C 
ATOM      2  C   LIG d   1      11.950  11.461  -0.565  0.00  0.00     0.092 C 
ATOM      3  S   LIG d   1      12.408  11.027   1.169  0.00  0.00     0.032 S 
ATOM      4  O   LIG d   1      11.603  11.718   2.114  0.00  0.00    -0.166 OA
ATOM      5  O   LIG d   1      13.821  10.950   1.309  0.00  0.00    -0.166 OA
ATOM      6  C   LIG d   1      11.823   9.343   1.164  0.00  0.00     0.253 A 
ATOM      7  N   LIG d   1      11.071   9.207   0.056  0.00  0.00    -0.305 N 
ATOM      8  C   LIG d   1      10.660   7.868   0.051  0.00  0.00     0.104 A 
ATOM      9  C   LIG d   1      11.185   7.287   1.182  0.00  0.00     0.158 A 
ATOM     10  N   LIG d   1      11.879   8.223   1.829  0.00  0.00    -0.199 NA
ATOM     11 CL   LIG d   1      10.981   5.636   1.676  0.00  0.00    -0.060 Cl
ATOM     12  H   LIG d   1      10.881  10.077  -1.839  0.00  0.00     0.051 H 
ATOM     13  H   LIG d   1       9.886  10.816  -0.569  0.00  0.00     0.051 H 
ATOM     14  H   LIG d   1      12.788  11.335  -1.251  0.00  0.00     0.052 H 
ATOM     15  H   LIG d   1      11.536  12.467  -0.625  0.00  0.00     0.052 H 
ENDROOT
BRANCH   8  16
ATOM     16  C   LIG d   1       9.835   7.211  -0.966  0.00  0.00     0.091 C 
ATOM     17  O   LIG d   1       8.680   7.556  -1.127  0.00  0.00    -0.543 OA
ATOM     18  O   LIG d   1      10.358   6.228  -1.727  0.00  0.00    -0.543 OA
ENDBRANCH   8  16
TORSDOF 1
ENDMDL
