MODEL 1
REMARK VINA RESULT:      -6.5      0.000      0.000
REMARK  5 active torsions:
REMARK  status: ('A' for Active; 'I' for Inactive)
REMARK    1  A    between atoms: C_1  and  C_2 
REMARK    2  A    between atoms: C_13  and  C_15 
REMARK    3  A    between atoms: C_15  and  C_18 
REMARK    4  A    between atoms: C_22  and  C_29 
REMARK    5  A    between atoms: C_25  and  O_28 
ROOT
ATOM      1  C   LIG d   1       4.057  -0.893  -9.098  0.00  0.00    -0.025 C 
ATOM      2  C   LIG d   1       4.730  -2.068  -8.434  0.00  0.00    -0.047 C 
ATOM      3  C   LIG d   1       4.300  -2.134  -6.955  0.00  0.00    -0.049 C 
ATOM      4  C   LIG d   1       4.673  -0.855  -6.228  0.00  0.00    -0.029 C 
ATOM      5  H   LIG d   1       5.761  -0.718  -6.381  0.00  0.00     0.031 H 
ATOM      6  C   LIG d   1       3.998   0.369  -6.878  0.00  0.00    -0.031 C 
ATOM      7  H   LIG d   1       4.404   1.280  -6.381  0.00  0.00     0.031 H 
ATOM      8  C   LIG d   1       4.375   0.399  -8.325  0.00  0.00    -0.032 C 
ATOM      9  H   LIG d   1       5.487   0.552  -8.376  0.00  0.00     0.031 H 
ATOM     10  C   LIG d   1       3.759   1.462  -9.244  0.00  0.00    -0.049 C 
ATOM     11  C   LIG d   1       4.269   0.989 -10.639  0.00  0.00    -0.048 C 
ATOM     12  C   LIG d   1       4.589  -0.523 -10.497  0.00  0.00    -0.020 C 
ATOM     13  H   LIG d   1       5.656  -0.701 -10.546  0.00  0.00     0.032 H 
ATOM     14  C   LIG d   1       2.501   0.312  -6.604  0.00  0.00    -0.031 C 
ATOM     15  C   LIG d   1       2.292   0.294  -5.111  0.00  0.00    -0.084 C 
ATOM     16  C   LIG d   1       3.154  -0.232  -4.300  0.00  0.00    -0.065 C 
ATOM     17  C   LIG d   1       4.449  -0.868  -4.733  0.00  0.00    -0.008 C 
ATOM     18  C   LIG d   1       5.597  -0.136  -4.023  0.00  0.00    -0.041 C 
ATOM     19  C   LIG d   1       5.040   0.948  -3.104  0.00  0.00    -0.026 C 
ATOM     20  C   LIG d   1       4.062   0.369  -2.087  0.00  0.00     0.059 C 
ATOM     21  H   LIG d   1       3.728   1.165  -1.417  0.00  0.00     0.060 H 
ATOM     22  C   LIG d   1       2.849  -0.225  -2.812  0.00  0.00    -0.005 C 
ATOM     23  H   LIG d   1       4.442  -2.998  -8.933  0.00  0.00     0.027 H 
ATOM     24  H   LIG d   1       5.816  -1.957  -8.487  0.00  0.00     0.027 H 
ATOM     25  H   LIG d   1       4.831  -2.990  -6.527  0.00  0.00     0.027 H 
ATOM     26  H   LIG d   1       3.231  -2.307  -6.888  0.00  0.00     0.027 H 
ATOM     27  H   LIG d   1       2.678   1.474  -9.197  0.00  0.00     0.027 H 
ATOM     28  H   LIG d   1       4.167   2.447  -9.012  0.00  0.00     0.027 H 
ATOM     29  H   LIG d   1       5.171   1.537 -10.908  0.00  0.00     0.027 H 
ATOM     30  H   LIG d   1       3.495   1.141 -11.389  0.00  0.00     0.027 H 
ATOM     31  H   LIG d   1       2.000   1.181  -7.024  0.00  0.00     0.031 H 
ATOM     32  H   LIG d   1       2.054  -0.603  -6.982  0.00  0.00     0.031 H 
ATOM     33  H   LIG d   1       1.396   0.731  -4.712  0.00  0.00     0.057 H 
ATOM     34  H   LIG d   1       6.167  -0.857  -3.439  0.00  0.00     0.027 H 
ATOM     35  H   LIG d   1       6.245   0.319  -4.772  0.00  0.00     0.027 H 
ATOM     36  H   LIG d   1       5.868   1.421  -2.571  0.00  0.00     0.029 H 
ATOM     37  H   LIG d   1       4.533   1.704  -3.704  0.00  0.00     0.029 H 
ATOM     38  H   LIG d   1       2.649  -1.234  -2.454  0.00  0.00     0.034 H 
ATOM     39  H   LIG d   1       1.971   0.402  -2.625  0.00  0.00     0.034 H 
ENDROOT
BRANCH  12  40
ATOM     40  C   LIG d   1       3.844  -1.328 -11.563  0.00  0.00     0.026 A 
ATOM     41  S   LIG d   1       4.834  -2.014 -12.915  0.00  0.00    -0.152 SA
ATOM     42  C   LIG d   1       4.015  -2.848 -11.527  0.00  0.00     0.009 A 
ATOM     43  H   LIG d   1       3.137  -3.449 -11.763  0.00  0.00     0.039 H 
ATOM     44  H   LIG d   1       4.658  -3.253 -10.746  0.00  0.00     0.039 H 
BRANCH  40  45
ATOM     45  C   LIG d   1       2.455  -0.796 -11.924  0.00  0.00    -0.049 C 
ATOM     46  H   LIG d   1       1.786  -1.632 -12.125  0.00  0.00     0.024 H 
ATOM     47  H   LIG d   1       2.063  -0.208 -11.095  0.00  0.00     0.024 H 
ATOM     48  H   LIG d   1       2.528  -0.167 -12.813  0.00  0.00     0.024 H 
ENDBRANCH  40  45
ENDBRANCH  12  40
BRANCH   1  49
ATOM     49  C   LIG d   1       2.564  -1.163  -9.271  0.00  0.00    -0.059 C 
ATOM     50  H   LIG d   1       1.998  -0.520  -8.597  0.00  0.00     0.024 H 
ATOM     51  H   LIG d   1       2.274  -0.954 -10.302  0.00  0.00     0.024 H 
ATOM     52  H   LIG d   1       2.354  -2.208  -9.041  0.00  0.00     0.024 H 
ENDBRANCH   1  49
BRANCH  17  53
ATOM     53  C   LIG d   1       4.457  -2.311  -4.217  0.00  0.00    -0.056 C 
ATOM     54  H   LIG d   1       5.372  -2.808  -4.544  0.00  0.00     0.024 H 
ATOM     55  H   LIG d   1       4.414  -2.309  -3.129  0.00  0.00     0.024 H 
ATOM     56  H   LIG d   1       3.593  -2.843  -4.615  0.00  0.00     0.024 H 
ENDBRANCH  17  53
BRANCH  20  57
ATOM     57  O   LIG d   1       4.711  -0.645  -1.319  0.00  0.00    -0.392 OA
ATOM     58  H   LIG d   1       5.292  -1.220  -1.837  0.00  0.00     0.210 HD
ENDBRANCH  20  57
TORSDOF 5
ENDMDL
MODEL 2
REMARK VINA RESULT:      -6.2      3.223      4.918
REMARK  5 active torsions:
REMARK  status: ('A' for Active; 'I' for Inactive)
REMARK    1  A    between atoms: C_1  and  C_2 
REMARK    2  A    between atoms: C_13  and  C_15 
REMARK    3  A    between atoms: C_15  and  C_18 
REMARK    4  A    between atoms: C_22  and  C_29 
REMARK    5  A    between atoms: C_25  and  O_28 
ROOT
ATOM      1  C   LIG d   1       6.162  -4.203  -6.606  0.00  0.00    -0.025 C 
ATOM      2  C   LIG d   1       4.812  -3.631  -6.957  0.00  0.00    -0.047 C 
ATOM      3  C   LIG d   1       4.668  -2.235  -6.322  0.00  0.00    -0.049 C 
ATOM      4  C   LIG d   1       4.812  -2.310  -4.813  0.00  0.00    -0.029 C 
ATOM      5  H   LIG d   1       4.062  -3.048  -4.467  0.00  0.00     0.031 H 
ATOM      6  C   LIG d   1       6.186  -2.888  -4.416  0.00  0.00    -0.031 C 
ATOM      7  H   LIG d   1       6.182  -3.032  -3.312  0.00  0.00     0.031 H 
ATOM      8  C   LIG d   1       6.343  -4.220  -5.078  0.00  0.00    -0.032 C 
ATOM      9  H   LIG d   1       5.551  -4.896  -4.656  0.00  0.00     0.031 H 
ATOM     10  C   LIG d   1       7.668  -4.981  -4.937  0.00  0.00    -0.049 C 
ATOM     11  C   LIG d   1       7.442  -6.167  -5.922  0.00  0.00    -0.048 C 
ATOM     12  C   LIG d   1       6.359  -5.699  -6.929  0.00  0.00    -0.020 C 
ATOM     13  H   LIG d   1       5.430  -6.234  -6.778  0.00  0.00     0.032 H 
ATOM     14  C   LIG d   1       7.266  -1.869  -4.754  0.00  0.00    -0.031 C 
ATOM     15  C   LIG d   1       6.967  -0.594  -4.009  0.00  0.00    -0.084 C 
ATOM     16  C   LIG d   1       5.757  -0.233  -3.718  0.00  0.00    -0.065 C 
ATOM     17  C   LIG d   1       4.527  -1.028  -4.067  0.00  0.00    -0.008 C 
ATOM     18  C   LIG d   1       3.773  -1.333  -2.765  0.00  0.00    -0.041 C 
ATOM     19  C   LIG d   1       4.499  -0.704  -1.579  0.00  0.00    -0.026 C 
ATOM     20  C   LIG d   1       4.668   0.801  -1.761  0.00  0.00     0.059 C 
ATOM     21  H   LIG d   1       5.143   1.219  -0.870  0.00  0.00     0.060 H 
ATOM     22  C   LIG d   1       5.549   1.081  -2.984  0.00  0.00    -0.005 C 
ATOM     23  H   LIG d   1       4.712  -3.545  -8.043  0.00  0.00     0.027 H 
ATOM     24  H   LIG d   1       4.020  -4.282  -6.577  0.00  0.00     0.027 H 
ATOM     25  H   LIG d   1       3.668  -1.882  -6.597  0.00  0.00     0.027 H 
ATOM     26  H   LIG d   1       5.411  -1.561  -6.737  0.00  0.00     0.027 H 
ATOM     27  H   LIG d   1       8.522  -4.381  -5.223  0.00  0.00     0.027 H 
ATOM     28  H   LIG d   1       7.783  -5.358  -3.920  0.00  0.00     0.027 H 
ATOM     29  H   LIG d   1       7.090  -7.041  -5.374  0.00  0.00     0.027 H 
ATOM     30  H   LIG d   1       8.368  -6.397  -6.446  0.00  0.00     0.027 H 
ATOM     31  H   LIG d   1       8.246  -2.236  -4.457  0.00  0.00     0.031 H 
ATOM     32  H   LIG d   1       7.263  -1.610  -5.809  0.00  0.00     0.031 H 
ATOM     33  H   LIG d   1       7.787   0.034  -3.714  0.00  0.00     0.057 H 
ATOM     34  H   LIG d   1       2.766  -0.927  -2.836  0.00  0.00     0.027 H 
ATOM     35  H   LIG d   1       3.722  -2.413  -2.629  0.00  0.00     0.027 H 
ATOM     36  H   LIG d   1       3.921  -0.890  -0.670  0.00  0.00     0.029 H 
ATOM     37  H   LIG d   1       5.480  -1.167  -1.469  0.00  0.00     0.029 H 
ATOM     38  H   LIG d   1       5.075   1.815  -3.633  0.00  0.00     0.034 H 
ATOM     39  H   LIG d   1       6.518   1.468  -2.652  0.00  0.00     0.034 H 
ENDROOT
BRANCH  12  40
ATOM     40  C   LIG d   1       6.861  -5.855  -8.364  0.00  0.00     0.026 A 
ATOM     41  S   LIG d   1       5.966  -7.018  -9.425  0.00  0.00    -0.152 SA
ATOM     42  C   LIG d   1       6.021  -5.205  -9.467  0.00  0.00     0.009 A 
ATOM     43  H   LIG d   1       6.563  -4.747 -10.294  0.00  0.00     0.039 H 
ATOM     44  H   LIG d   1       5.121  -4.677  -9.153  0.00  0.00     0.039 H 
BRANCH  40  45
ATOM     45  C   LIG d   1       8.382  -5.799  -8.529  0.00  0.00    -0.049 C 
ATOM     46  H   LIG d   1       8.845  -6.542  -7.880  0.00  0.00     0.024 H 
ATOM     47  H   LIG d   1       8.643  -6.009  -9.566  0.00  0.00     0.024 H 
ATOM     48  H   LIG d   1       8.740  -4.805  -8.258  0.00  0.00     0.024 H 
ENDBRANCH  40  45
ENDBRANCH  12  40
BRANCH   1  49
ATOM     49  C   LIG d   1       7.266  -3.461  -7.354  0.00  0.00    -0.059 C 
ATOM     50  H   LIG d   1       6.843  -2.593  -7.859  0.00  0.00     0.024 H 
ATOM     51  H   LIG d   1       8.030  -3.134  -6.647  0.00  0.00     0.024 H 
ATOM     52  H   LIG d   1       7.717  -4.126  -8.091  0.00  0.00     0.024 H 
ENDBRANCH   1  49
BRANCH  17  53
ATOM     53  C   LIG d   1       3.613  -0.128  -4.908  0.00  0.00    -0.056 C 
ATOM     54  H   LIG d   1       2.590  -0.506  -4.862  0.00  0.00     0.024 H 
ATOM     55  H   LIG d   1       3.642   0.887  -4.516  0.00  0.00     0.024 H 
ATOM     56  H   LIG d   1       3.954  -0.129  -5.942  0.00  0.00     0.024 H 
ENDBRANCH  17  53
BRANCH  20  57
ATOM     57  O   LIG d   1       3.388   1.410  -1.937  0.00  0.00    -0.392 OA
ATOM     58  H   LIG d   1       2.925   1.128  -2.739  0.00  0.00     0.210 HD
ENDBRANCH  20  57
TORSDOF 5
ENDMDL
MODEL 3
REMARK VINA RESULT:      -6.2      3.434      6.933
REMARK  5 active torsions:
REMARK  status: ('A' for Active; 'I' for Inactive)
REMARK    1  A    between atoms: C_1  and  C_2 
REMARK    2  A    between atoms: C_13  and  C_15 
REMARK    3  A    between atoms: C_15  and  C_18 
REMARK    4  A    between atoms: C_22  and  C_29 
REMARK    5  A    between atoms: C_25  and  O_28 
ROOT
ATOM      1  C   LIG d   1       4.226  -0.954  -5.563  0.00  0.00    -0.025 C 
ATOM      2  C   LIG d   1       4.618  -2.314  -6.083  0.00  0.00    -0.047 C 
ATOM      3  C   LIG d   1       4.835  -2.235  -7.607  0.00  0.00    -0.049 C 
ATOM      4  C   LIG d   1       3.573  -1.765  -8.308  0.00  0.00    -0.029 C 
ATOM      5  H   LIG d   1       2.770  -2.461  -7.998  0.00  0.00     0.031 H 
ATOM      6  C   LIG d   1       3.145  -0.373  -7.802  0.00  0.00    -0.031 C 
ATOM      7  H   LIG d   1       2.156  -0.140  -8.260  0.00  0.00     0.031 H 
ATOM      8  C   LIG d   1       2.986  -0.442  -6.316  0.00  0.00    -0.032 C 
ATOM      9  H   LIG d   1       2.148  -1.158  -6.105  0.00  0.00     0.031 H 
ATOM     10  C   LIG d   1       2.661   0.836  -5.532  0.00  0.00    -0.049 C 
ATOM     11  C   LIG d   1       2.790   0.331  -4.063  0.00  0.00    -0.048 C 
ATOM     12  C   LIG d   1       3.707  -0.920  -4.111  0.00  0.00    -0.020 C 
ATOM     13  H   LIG d   1       3.146  -1.821  -3.897  0.00  0.00     0.032 H 
ATOM     14  C   LIG d   1       4.146   0.663  -8.296  0.00  0.00    -0.031 C 
ATOM     15  C   LIG d   1       4.182   0.608  -9.802  0.00  0.00    -0.084 C 
ATOM     16  C   LIG d   1       3.952  -0.484 -10.459  0.00  0.00    -0.065 C 
ATOM     17  C   LIG d   1       3.615  -1.805  -9.818  0.00  0.00    -0.008 C 
ATOM     18  C   LIG d   1       2.259  -2.268 -10.369  0.00  0.00    -0.041 C 
ATOM     19  C   LIG d   1       1.738  -1.263 -11.393  0.00  0.00    -0.026 C 
ATOM     20  C   LIG d   1       2.735  -1.053 -12.528  0.00  0.00     0.059 C 
ATOM     21  H   LIG d   1       2.303  -0.370 -13.263  0.00  0.00     0.060 H 
ATOM     22  C   LIG d   1       4.032  -0.450 -11.975  0.00  0.00    -0.005 C 
ATOM     23  H   LIG d   1       5.544  -2.647  -5.605  0.00  0.00     0.027 H 
ATOM     24  H   LIG d   1       3.828  -3.039  -5.871  0.00  0.00     0.027 H 
ATOM     25  H   LIG d   1       5.099  -3.249  -7.925  0.00  0.00     0.027 H 
ATOM     26  H   LIG d   1       5.660  -1.565  -7.829  0.00  0.00     0.027 H 
ATOM     27  H   LIG d   1       3.356   1.638  -5.741  0.00  0.00     0.027 H 
ATOM     28  H   LIG d   1       1.636   1.152  -5.729  0.00  0.00     0.027 H 
ATOM     29  H   LIG d   1       1.807   0.059  -3.678  0.00  0.00     0.027 H 
ATOM     30  H   LIG d   1       3.240   1.103  -3.443  0.00  0.00     0.027 H 
ATOM     31  H   LIG d   1       3.853   1.661  -7.981  0.00  0.00     0.031 H 
ATOM     32  H   LIG d   1       5.156   0.441  -7.962  0.00  0.00     0.031 H 
ATOM     33  H   LIG d   1       4.409   1.508 -10.343  0.00  0.00     0.057 H 
ATOM     34  H   LIG d   1       2.383  -3.241 -10.840  0.00  0.00     0.027 H 
ATOM     35  H   LIG d   1       1.550  -2.349  -9.546  0.00  0.00     0.027 H 
ATOM     36  H   LIG d   1       0.798  -1.635 -11.810  0.00  0.00     0.029 H 
ATOM     37  H   LIG d   1       1.547  -0.310 -10.899  0.00  0.00     0.029 H 
ATOM     38  H   LIG d   1       4.894  -1.013 -12.329  0.00  0.00     0.034 H 
ATOM     39  H   LIG d   1       4.120   0.589 -12.310  0.00  0.00     0.034 H 
ENDROOT
BRANCH  12  40
ATOM     40  C   LIG d   1       4.881  -0.757  -3.146  0.00  0.00     0.026 A 
ATOM     41  S   LIG d   1       5.441   0.932  -2.811  0.00  0.00    -0.152 SA
ATOM     42  C   LIG d   1       4.558  -0.239  -1.743  0.00  0.00     0.009 A 
ATOM     43  H   LIG d   1       5.121  -0.671  -0.915  0.00  0.00     0.039 H 
ATOM     44  H   LIG d   1       3.513  -0.019  -1.528  0.00  0.00     0.039 H 
BRANCH  40  45
ATOM     45  C   LIG d   1       5.963  -1.835  -3.253  0.00  0.00    -0.049 C 
ATOM     46  H   LIG d   1       6.066  -2.144  -4.293  0.00  0.00     0.024 H 
ATOM     47  H   LIG d   1       6.912  -1.434  -2.898  0.00  0.00     0.024 H 
ATOM     48  H   LIG d   1       5.681  -2.694  -2.644  0.00  0.00     0.024 H 
ENDBRANCH  40  45
ENDBRANCH  12  40
BRANCH   1  49
ATOM     49  C   LIG d   1       5.419  -0.003  -5.607  0.00  0.00    -0.059 C 
ATOM     50  H   LIG d   1       6.320  -0.562  -5.859  0.00  0.00     0.024 H 
ATOM     51  H   LIG d   1       5.244   0.765  -6.362  0.00  0.00     0.024 H 
ATOM     52  H   LIG d   1       5.544   0.469  -4.632  0.00  0.00     0.024 H 
ENDBRANCH   1  49
BRANCH  17  53
ATOM     53  C   LIG d   1       4.656  -2.829 -10.284  0.00  0.00    -0.056 C 
ATOM     54  H   LIG d   1       5.547  -2.750  -9.660  0.00  0.00     0.024 H 
ATOM     55  H   LIG d   1       4.241  -3.833 -10.199  0.00  0.00     0.024 H 
ATOM     56  H   LIG d   1       4.921  -2.631 -11.322  0.00  0.00     0.024 H 
ENDBRANCH  17  53
BRANCH  20  57
ATOM     57  O   LIG d   1       3.014  -2.303 -13.159  0.00  0.00    -0.392 OA
ATOM     58  H   LIG d   1       3.755  -2.273 -13.782  0.00  0.00     0.210 HD
ENDBRANCH  20  57
TORSDOF 5
ENDMDL
MODEL 4
REMARK VINA RESULT:      -5.8      1.376      2.800
REMARK  5 active torsions:
REMARK  status: ('A' for Active; 'I' for Inactive)
REMARK    1  A    between atoms: C_1  and  C_2 
REMARK    2  A    between atoms: C_13  and  C_15 
REMARK    3  A    between atoms: C_15  and  C_18 
REMARK    4  A    between atoms: C_22  and  C_29 
REMARK    5  A    between atoms: C_25  and  O_28 
ROOT
ATOM      1  C   LIG d   1       3.525  -1.439  -8.774  0.00  0.00    -0.025 C 
ATOM      2  C   LIG d   1       2.468  -0.468  -8.312  0.00  0.00    -0.047 C 
ATOM      3  C   LIG d   1       2.980   0.294  -7.074  0.00  0.00    -0.049 C 
ATOM      4  C   LIG d   1       3.314  -0.668  -5.949  0.00  0.00    -0.029 C 
ATOM      5  H   LIG d   1       2.399  -1.265  -5.770  0.00  0.00     0.031 H 
ATOM      6  C   LIG d   1       4.397  -1.676  -6.385  0.00  0.00    -0.031 C 
ATOM      7  H   LIG d   1       4.509  -2.423  -5.567  0.00  0.00     0.031 H 
ATOM      8  C   LIG d   1       3.918  -2.375  -7.618  0.00  0.00    -0.032 C 
ATOM      9  H   LIG d   1       3.001  -2.957  -7.333  0.00  0.00     0.031 H 
ATOM     10  C   LIG d   1       4.845  -3.367  -8.332  0.00  0.00    -0.049 C 
ATOM     11  C   LIG d   1       4.025  -3.673  -9.621  0.00  0.00    -0.048 C 
ATOM     12  C   LIG d   1       3.069  -2.469  -9.828  0.00  0.00    -0.020 C 
ATOM     13  H   LIG d   1       2.040  -2.754  -9.646  0.00  0.00     0.032 H 
ATOM     14  C   LIG d   1       5.723  -0.942  -6.535  0.00  0.00    -0.031 C 
ATOM     15  C   LIG d   1       6.064  -0.302  -5.214  0.00  0.00    -0.084 C 
ATOM     16  C   LIG d   1       5.152   0.101  -4.387  0.00  0.00    -0.065 C 
ATOM     17  C   LIG d   1       3.671  -0.026  -4.628  0.00  0.00    -0.008 C 
ATOM     18  C   LIG d   1       3.069  -0.835  -3.470  0.00  0.00    -0.041 C 
ATOM     19  C   LIG d   1       4.157  -1.199  -2.463  0.00  0.00    -0.026 C 
ATOM     20  C   LIG d   1       4.869   0.043  -1.937  0.00  0.00     0.059 C 
ATOM     21  H   LIG d   1       5.601  -0.256  -1.183  0.00  0.00     0.060 H 
ATOM     22  C   LIG d   1       5.589   0.756  -3.087  0.00  0.00    -0.005 C 
ATOM     23  H   LIG d   1       2.243   0.249  -9.107  0.00  0.00     0.027 H 
ATOM     24  H   LIG d   1       1.553  -1.006  -8.049  0.00  0.00     0.027 H 
ATOM     25  H   LIG d   1       2.168   0.966  -6.779  0.00  0.00     0.027 H 
ATOM     26  H   LIG d   1       3.853   0.883  -7.337  0.00  0.00     0.027 H 
ATOM     27  H   LIG d   1       5.810  -2.937  -8.565  0.00  0.00     0.027 H 
ATOM     28  H   LIG d   1       4.960  -4.274  -7.738  0.00  0.00     0.027 H 
ATOM     29  H   LIG d   1       3.449  -4.588  -9.484  0.00  0.00     0.027 H 
ATOM     30  H   LIG d   1       4.695  -3.772 -10.473  0.00  0.00     0.027 H 
ATOM     31  H   LIG d   1       6.515  -1.633  -6.812  0.00  0.00     0.031 H 
ATOM     32  H   LIG d   1       5.659  -0.131  -7.255  0.00  0.00     0.031 H 
ATOM     33  H   LIG d   1       7.099  -0.176  -4.956  0.00  0.00     0.057 H 
ATOM     34  H   LIG d   1       2.302  -0.236  -2.983  0.00  0.00     0.027 H 
ATOM     35  H   LIG d   1       2.623  -1.746  -3.868  0.00  0.00     0.027 H 
ATOM     36  H   LIG d   1       3.700  -1.730  -1.624  0.00  0.00     0.029 H 
ATOM     37  H   LIG d   1       4.883  -1.858  -2.939  0.00  0.00     0.029 H 
ATOM     38  H   LIG d   1       5.345   1.817  -3.089  0.00  0.00     0.034 H 
ATOM     39  H   LIG d   1       6.671   0.637  -2.968  0.00  0.00     0.034 H 
ENDROOT
BRANCH  12  40
ATOM     40  C   LIG d   1       3.242  -1.885 -11.230  0.00  0.00     0.026 A 
ATOM     41  S   LIG d   1       1.756  -1.763 -12.257  0.00  0.00    -0.152 SA
ATOM     42  C   LIG d   1       2.731  -0.460 -11.454  0.00  0.00     0.009 A 
ATOM     43  H   LIG d   1       3.326   0.181 -12.104  0.00  0.00     0.039 H 
ATOM     44  H   LIG d   1       2.275   0.040 -10.600  0.00  0.00     0.039 H 
BRANCH  40  45
ATOM     45  C   LIG d   1       4.542  -2.273 -11.938  0.00  0.00    -0.049 C 
ATOM     46  H   LIG d   1       5.227  -1.425 -11.932  0.00  0.00     0.024 H 
ATOM     47  H   LIG d   1       5.002  -3.114 -11.420  0.00  0.00     0.024 H 
ATOM     48  H   LIG d   1       4.324  -2.557 -12.968  0.00  0.00     0.024 H 
ENDBRANCH  40  45
ENDBRANCH  12  40
BRANCH   1  49
ATOM     49  C   LIG d   1       4.700  -0.690  -9.396  0.00  0.00    -0.059 C 
ATOM     50  H   LIG d   1       4.392  -0.254 -10.346  0.00  0.00     0.024 H 
ATOM     51  H   LIG d   1       5.025   0.102  -8.721  0.00  0.00     0.024 H 
ATOM     52  H   LIG d   1       5.525  -1.384  -9.564  0.00  0.00     0.024 H 
ENDBRANCH   1  49
BRANCH  17  53
ATOM     53  C   LIG d   1       3.063   1.379  -4.551  0.00  0.00    -0.056 C 
ATOM     54  H   LIG d   1       2.649   1.540  -3.554  0.00  0.00     0.024 H 
ATOM     55  H   LIG d   1       3.835   2.121  -4.748  0.00  0.00     0.024 H 
ATOM     56  H   LIG d   1       2.270   1.473  -5.292  0.00  0.00     0.024 H 
ENDBRANCH  17  53
BRANCH  20  57
ATOM     57  O   LIG d   1       3.918   0.926  -1.341  0.00  0.00    -0.392 OA
ATOM     58  H   LIG d   1       3.190   1.176  -1.928  0.00  0.00     0.210 HD
ENDBRANCH  20  57
TORSDOF 5
ENDMDL
MODEL 5
REMARK VINA RESULT:      -5.6      5.036      7.379
REMARK  5 active torsions:
REMARK  status: ('A' for Active; 'I' for Inactive)
REMARK    1  A    between atoms: C_1  and  C_2 
REMARK    2  A    between atoms: C_13  and  C_15 
REMARK    3  A    between atoms: C_15  and  C_18 
REMARK    4  A    between atoms: C_22  and  C_29 
REMARK    5  A    between atoms: C_25  and  O_28 
ROOT
ATOM      1  C   LIG d   1       5.447  -1.606  -4.184  0.00  0.00    -0.025 C 
ATOM      2  C   LIG d   1       4.631  -2.679  -4.861  0.00  0.00    -0.047 C 
ATOM      3  C   LIG d   1       5.420  -4.003  -4.850  0.00  0.00    -0.049 C 
ATOM      4  C   LIG d   1       6.749  -3.846  -5.566  0.00  0.00    -0.029 C 
ATOM      5  H   LIG d   1       6.512  -3.465  -6.578  0.00  0.00     0.031 H 
ATOM      6  C   LIG d   1       7.613  -2.757  -4.896  0.00  0.00    -0.031 C 
ATOM      7  H   LIG d   1       8.513  -2.605  -5.535  0.00  0.00     0.031 H 
ATOM      8  C   LIG d   1       6.823  -1.487  -4.862  0.00  0.00    -0.032 C 
ATOM      9  H   LIG d   1       6.645  -1.178  -5.927  0.00  0.00     0.031 H 
ATOM     10  C   LIG d   1       7.404  -0.256  -4.156  0.00  0.00    -0.049 C 
ATOM     11  C   LIG d   1       6.190   0.720  -4.199  0.00  0.00    -0.048 C 
ATOM     12  C   LIG d   1       4.925  -0.164  -4.353  0.00  0.00    -0.020 C 
ATOM     13  H   LIG d   1       4.483  -0.044  -5.335  0.00  0.00     0.032 H 
ATOM     14  C   LIG d   1       8.079  -3.263  -3.538  0.00  0.00    -0.031 C 
ATOM     15  C   LIG d   1       8.859  -4.536  -3.747  0.00  0.00    -0.084 C 
ATOM     16  C   LIG d   1       8.606  -5.346  -4.725  0.00  0.00    -0.065 C 
ATOM     17  C   LIG d   1       7.537  -5.120  -5.761  0.00  0.00    -0.008 C 
ATOM     18  C   LIG d   1       8.207  -5.117  -7.143  0.00  0.00    -0.041 C 
ATOM     19  C   LIG d   1       9.704  -5.377  -7.000  0.00  0.00    -0.026 C 
ATOM     20  C   LIG d   1       9.976  -6.691  -6.274  0.00  0.00     0.059 C 
ATOM     21  H   LIG d   1      11.054  -6.865  -6.240  0.00  0.00     0.060 H 
ATOM     22  C   LIG d   1       9.429  -6.618  -4.844  0.00  0.00    -0.005 C 
ATOM     23  H   LIG d   1       3.684  -2.820  -4.333  0.00  0.00     0.027 H 
ATOM     24  H   LIG d   1       4.423  -2.394  -5.896  0.00  0.00     0.027 H 
ATOM     25  H   LIG d   1       4.787  -4.732  -5.366  0.00  0.00     0.027 H 
ATOM     26  H   LIG d   1       5.580  -4.330  -3.827  0.00  0.00     0.027 H 
ATOM     27  H   LIG d   1       7.711  -0.468  -3.140  0.00  0.00     0.027 H 
ATOM     28  H   LIG d   1       8.235   0.156  -4.732  0.00  0.00     0.027 H 
ATOM     29  H   LIG d   1       6.284   1.389  -5.054  0.00  0.00     0.027 H 
ATOM     30  H   LIG d   1       6.139   1.291  -3.275  0.00  0.00     0.027 H 
ATOM     31  H   LIG d   1       8.718  -2.528  -3.054  0.00  0.00     0.031 H 
ATOM     32  H   LIG d   1       7.245  -3.522  -2.893  0.00  0.00     0.031 H 
ATOM     33  H   LIG d   1       9.646  -4.775  -3.057  0.00  0.00     0.057 H 
ATOM     34  H   LIG d   1       7.755  -5.895  -7.756  0.00  0.00     0.027 H 
ATOM     35  H   LIG d   1       8.050  -4.146  -7.611  0.00  0.00     0.027 H 
ATOM     36  H   LIG d   1      10.153  -5.421  -7.996  0.00  0.00     0.029 H 
ATOM     37  H   LIG d   1      10.162  -4.557  -6.447  0.00  0.00     0.029 H 
ATOM     38  H   LIG d   1       8.819  -7.493  -4.625  0.00  0.00     0.034 H 
ATOM     39  H   LIG d   1      10.264  -6.577  -4.137  0.00  0.00     0.034 H 
ENDROOT
BRANCH  12  40
ATOM     40  C   LIG d   1       3.915   0.152  -3.250  0.00  0.00     0.026 A 
ATOM     41  S   LIG d   1       4.580   0.770  -1.682  0.00  0.00    -0.152 SA
ATOM     42  C   LIG d   1       3.635   1.631  -2.971  0.00  0.00     0.009 A 
ATOM     43  H   LIG d   1       2.607   1.901  -2.730  0.00  0.00     0.039 H 
ATOM     44  H   LIG d   1       4.177   2.357  -3.576  0.00  0.00     0.039 H 
BRANCH  40  45
ATOM     45  C   LIG d   1       2.725  -0.806  -3.166  0.00  0.00    -0.049 C 
ATOM     46  H   LIG d   1       2.926  -1.690  -3.771  0.00  0.00     0.024 H 
ATOM     47  H   LIG d   1       2.570  -1.103  -2.129  0.00  0.00     0.024 H 
ATOM     48  H   LIG d   1       1.830  -0.306  -3.538  0.00  0.00     0.024 H 
ENDBRANCH  40  45
ENDBRANCH  12  40
BRANCH   1  49
ATOM     49  C   LIG d   1       5.514  -1.857  -2.680  0.00  0.00    -0.059 C 
ATOM     50  H   LIG d   1       5.737  -2.908  -2.497  0.00  0.00     0.024 H 
ATOM     51  H   LIG d   1       6.297  -1.237  -2.242  0.00  0.00     0.024 H 
ATOM     52  H   LIG d   1       4.555  -1.604  -2.226  0.00  0.00     0.024 H 
ENDBRANCH   1  49
BRANCH  17  53
ATOM     53  C   LIG d   1       6.592  -6.327  -5.729  0.00  0.00    -0.056 C 
ATOM     54  H   LIG d   1       6.999  -7.122  -6.355  0.00  0.00     0.024 H 
ATOM     55  H   LIG d   1       6.495  -6.685  -4.705  0.00  0.00     0.024 H 
ATOM     56  H   LIG d   1       5.614  -6.032  -6.107  0.00  0.00     0.024 H 
ENDBRANCH  17  53
BRANCH  20  57
ATOM     57  O   LIG d   1       9.352  -7.767  -6.977  0.00  0.00    -0.392 OA
ATOM     58  H   LIG d   1       8.727  -8.276  -6.442  0.00  0.00     0.210 HD
ENDBRANCH  20  57
TORSDOF 5
ENDMDL
MODEL 6
REMARK VINA RESULT:      -5.4      4.981      6.997
REMARK  5 active torsions:
REMARK  status: ('A' for Active; 'I' for Inactive)
REMARK    1  A    between atoms: C_1  and  C_2 
REMARK    2  A    between atoms: C_13  and  C_15 
REMARK    3  A    between atoms: C_15  and  C_18 
REMARK    4  A    between atoms: C_22  and  C_29 
REMARK    5  A    between atoms: C_25  and  O_28 
ROOT
ATOM      1  C   LIG d   1       9.287  -4.015  -5.019  0.00  0.00    -0.025 C 
ATOM      2  C   LIG d   1       8.212  -4.274  -6.045  0.00  0.00    -0.047 C 
ATOM      3  C   LIG d   1       7.133  -3.179  -5.942  0.00  0.00    -0.049 C 
ATOM      4  C   LIG d   1       6.518  -3.155  -4.555  0.00  0.00    -0.029 C 
ATOM      5  H   LIG d   1       6.146  -4.180  -4.363  0.00  0.00     0.031 H 
ATOM      6  C   LIG d   1       7.590  -2.886  -3.479  0.00  0.00    -0.031 C 
ATOM      7  H   LIG d   1       7.103  -3.002  -2.484  0.00  0.00     0.031 H 
ATOM      8  C   LIG d   1       8.662  -3.921  -3.616  0.00  0.00    -0.032 C 
ATOM      9  H   LIG d   1       8.192  -4.917  -3.394  0.00  0.00     0.031 H 
ATOM     10  C   LIG d   1       9.912  -3.835  -2.732  0.00  0.00    -0.049 C 
ATOM     11  C   LIG d   1      10.798  -4.958  -3.350  0.00  0.00    -0.048 C 
ATOM     12  C   LIG d   1      10.294  -5.163  -4.803  0.00  0.00    -0.020 C 
ATOM     13  H   LIG d   1       9.794  -6.118  -4.910  0.00  0.00     0.032 H 
ATOM     14  C   LIG d   1       8.066  -1.445  -3.604  0.00  0.00    -0.031 C 
ATOM     15  C   LIG d   1       6.876  -0.536  -3.437  0.00  0.00    -0.084 C 
ATOM     16  C   LIG d   1       5.682  -0.891  -3.789  0.00  0.00    -0.065 C 
ATOM     17  C   LIG d   1       5.335  -2.231  -4.384  0.00  0.00    -0.008 C 
ATOM     18  C   LIG d   1       4.279  -2.890  -3.485  0.00  0.00    -0.041 C 
ATOM     19  C   LIG d   1       3.918  -1.960  -2.330  0.00  0.00    -0.026 C 
ATOM     20  C   LIG d   1       3.424  -0.608  -2.834  0.00  0.00     0.059 C 
ATOM     21  H   LIG d   1       3.128   0.007  -1.981  0.00  0.00     0.060 H 
ATOM     22  C   LIG d   1       4.545   0.100  -3.604  0.00  0.00    -0.005 C 
ATOM     23  H   LIG d   1       8.641  -4.263  -7.051  0.00  0.00     0.027 H 
ATOM     24  H   LIG d   1       7.751  -5.250  -5.866  0.00  0.00     0.027 H 
ATOM     25  H   LIG d   1       6.378  -3.431  -6.695  0.00  0.00     0.027 H 
ATOM     26  H   LIG d   1       7.564  -2.211  -6.179  0.00  0.00     0.027 H 
ATOM     27  H   LIG d   1      10.394  -2.868  -2.790  0.00  0.00     0.027 H 
ATOM     28  H   LIG d   1       9.664  -4.082  -1.699  0.00  0.00     0.027 H 
ATOM     29  H   LIG d   1      10.678  -5.879  -2.780  0.00  0.00     0.027 H 
ATOM     30  H   LIG d   1      11.841  -4.649  -3.355  0.00  0.00     0.027 H 
ATOM     31  H   LIG d   1       8.802  -1.216  -2.837  0.00  0.00     0.031 H 
ATOM     32  H   LIG d   1       8.470  -1.236  -4.590  0.00  0.00     0.031 H 
ATOM     33  H   LIG d   1       7.030   0.440  -3.015  0.00  0.00     0.057 H 
ATOM     34  H   LIG d   1       3.391  -3.100  -4.079  0.00  0.00     0.027 H 
ATOM     35  H   LIG d   1       4.681  -3.822  -3.089  0.00  0.00     0.027 H 
ATOM     36  H   LIG d   1       3.130  -2.425  -1.732  0.00  0.00     0.029 H 
ATOM     37  H   LIG d   1       4.794  -1.813  -1.698  0.00  0.00     0.029 H 
ATOM     38  H   LIG d   1       4.181   0.453  -4.568  0.00  0.00     0.034 H 
ATOM     39  H   LIG d   1       4.902   0.955  -3.021  0.00  0.00     0.034 H 
ENDROOT
BRANCH  12  40
ATOM     40  C   LIG d   1      11.451  -5.028  -5.793  0.00  0.00     0.026 A 
ATOM     41  S   LIG d   1      12.832  -3.965  -5.302  0.00  0.00    -0.152 SA
ATOM     42  C   LIG d   1      12.745  -5.771  -5.452  0.00  0.00     0.009 A 
ATOM     43  H   LIG d   1      13.287  -6.224  -6.281  0.00  0.00     0.039 H 
ATOM     44  H   LIG d   1      12.754  -6.343  -4.524  0.00  0.00     0.039 H 
BRANCH  40  45
ATOM     45  C   LIG d   1      11.042  -4.993  -7.268  0.00  0.00    -0.049 C 
ATOM     46  H   LIG d   1      11.132  -5.992  -7.694  0.00  0.00     0.024 H 
ATOM     47  H   LIG d   1      10.009  -4.655  -7.351  0.00  0.00     0.024 H 
ATOM     48  H   LIG d   1      11.694  -4.306  -7.809  0.00  0.00     0.024 H 
ENDBRANCH  40  45
ENDBRANCH  12  40
BRANCH   1  49
ATOM     49  C   LIG d   1      10.115  -2.795  -5.414  0.00  0.00    -0.059 C 
ATOM     50  H   LIG d   1      10.454  -2.903  -6.444  0.00  0.00     0.024 H 
ATOM     51  H   LIG d   1       9.504  -1.896  -5.324  0.00  0.00     0.024 H 
ATOM     52  H   LIG d   1      10.979  -2.713  -4.754  0.00  0.00     0.024 H 
ENDBRANCH   1  49
BRANCH  17  53
ATOM     53  C   LIG d   1       4.668  -1.981  -5.741  0.00  0.00    -0.056 C 
ATOM     54  H   LIG d   1       3.641  -1.648  -5.585  0.00  0.00     0.024 H 
ATOM     55  H   LIG d   1       5.220  -1.213  -6.282  0.00  0.00     0.024 H 
ATOM     56  H   LIG d   1       4.666  -2.904  -6.320  0.00  0.00     0.024 H 
ENDBRANCH  17  53
BRANCH  20  57
ATOM     57  O   LIG d   1       2.296  -0.797  -3.689  0.00  0.00    -0.392 OA
ATOM     58  H   LIG d   1       2.448  -0.530  -4.607  0.00  0.00     0.210 HD
ENDBRANCH  20  57
TORSDOF 5
ENDMDL
MODEL 7
REMARK VINA RESULT:      -5.3      3.478      7.020
REMARK  5 active torsions:
REMARK  status: ('A' for Active; 'I' for Inactive)
REMARK    1  A    between atoms: C_1  and  C_2 
REMARK    2  A    between atoms: C_13  and  C_15 
REMARK    3  A    between atoms: C_15  and  C_18 
REMARK    4  A    between atoms: C_22  and  C_29 
REMARK    5  A    between atoms: C_25  and  O_28 
ROOT
ATOM      1  C   LIG d   1       4.173  -0.427  -5.702  0.00  0.00    -0.025 C 
ATOM      2  C   LIG d   1       2.962   0.208  -6.340  0.00  0.00    -0.047 C 
ATOM      3  C   LIG d   1       2.732  -0.414  -7.730  0.00  0.00    -0.049 C 
ATOM      4  C   LIG d   1       3.943  -0.208  -8.621  0.00  0.00    -0.029 C 
ATOM      5  H   LIG d   1       4.134   0.882  -8.636  0.00  0.00     0.031 H 
ATOM      6  C   LIG d   1       5.202  -0.849  -8.002  0.00  0.00    -0.031 C 
ATOM      7  H   LIG d   1       6.071  -0.560  -8.635  0.00  0.00     0.031 H 
ATOM      8  C   LIG d   1       5.391  -0.281  -6.631  0.00  0.00    -0.032 C 
ATOM      9  H   LIG d   1       5.589   0.818  -6.752  0.00  0.00     0.031 H 
ATOM     10  C   LIG d   1       6.518  -0.819  -5.740  0.00  0.00    -0.049 C 
ATOM     11  C   LIG d   1       6.207  -0.101  -4.392  0.00  0.00    -0.048 C 
ATOM     12  C   LIG d   1       4.701   0.271  -4.433  0.00  0.00    -0.020 C 
ATOM     13  H   LIG d   1       4.568   1.343  -4.517  0.00  0.00     0.032 H 
ATOM     14  C   LIG d   1       5.062  -2.365  -8.057  0.00  0.00    -0.031 C 
ATOM     15  C   LIG d   1       4.886  -2.773  -9.498  0.00  0.00    -0.084 C 
ATOM     16  C   LIG d   1       4.312  -2.004 -10.367  0.00  0.00    -0.065 C 
ATOM     17  C   LIG d   1       3.771  -0.632 -10.061  0.00  0.00    -0.008 C 
ATOM     18  C   LIG d   1       4.469   0.371 -10.992  0.00  0.00    -0.041 C 
ATOM     19  C   LIG d   1       5.433  -0.359 -11.922  0.00  0.00    -0.026 C 
ATOM     20  C   LIG d   1       4.720  -1.436 -12.733  0.00  0.00     0.059 C 
ATOM     21  H   LIG d   1       5.431  -1.897 -13.422  0.00  0.00     0.060 H 
ATOM     22  C   LIG d   1       4.158  -2.508 -11.792  0.00  0.00    -0.005 C 
ATOM     23  H   LIG d   1       2.078   0.037  -5.719  0.00  0.00     0.027 H 
ATOM     24  H   LIG d   1       3.117   1.285  -6.449  0.00  0.00     0.027 H 
ATOM     25  H   LIG d   1       1.856   0.096  -8.145  0.00  0.00     0.027 H 
ATOM     26  H   LIG d   1       2.514  -1.473  -7.631  0.00  0.00     0.027 H 
ATOM     27  H   LIG d   1       6.486  -1.895  -5.637  0.00  0.00     0.027 H 
ATOM     28  H   LIG d   1       7.489  -0.496  -6.119  0.00  0.00     0.027 H 
ATOM     29  H   LIG d   1       6.813   0.800  -4.305  0.00  0.00     0.027 H 
ATOM     30  H   LIG d   1       6.406  -0.773  -3.559  0.00  0.00     0.027 H 
ATOM     31  H   LIG d   1       5.950  -2.846  -7.655  0.00  0.00     0.031 H 
ATOM     32  H   LIG d   1       4.175  -2.710  -7.535  0.00  0.00     0.031 H 
ATOM     33  H   LIG d   1       5.248  -3.736  -9.807  0.00  0.00     0.057 H 
ATOM     34  H   LIG d   1       3.714   0.891 -11.579  0.00  0.00     0.027 H 
ATOM     35  H   LIG d   1       5.020   1.091 -10.388  0.00  0.00     0.027 H 
ATOM     36  H   LIG d   1       5.880   0.365 -12.609  0.00  0.00     0.029 H 
ATOM     37  H   LIG d   1       6.227  -0.817 -11.332  0.00  0.00     0.029 H 
ATOM     38  H   LIG d   1       3.111  -2.704 -12.021  0.00  0.00     0.034 H 
ATOM     39  H   LIG d   1       4.730  -3.433 -11.913  0.00  0.00     0.034 H 
ENDROOT
BRANCH  12  40
ATOM     40  C   LIG d   1       3.982  -0.281  -3.202  0.00  0.00     0.026 A 
ATOM     41  S   LIG d   1       4.824  -1.590  -2.278  0.00  0.00    -0.152 SA
ATOM     42  C   LIG d   1       4.523   0.143  -1.835  0.00  0.00     0.009 A 
ATOM     43  H   LIG d   1       3.790   0.331  -1.051  0.00  0.00     0.039 H 
ATOM     44  H   LIG d   1       5.387   0.808  -1.832  0.00  0.00     0.039 H 
BRANCH  40  45
ATOM     45  C   LIG d   1       2.462  -0.399  -3.338  0.00  0.00    -0.049 C 
ATOM     46  H   LIG d   1       2.163  -0.101  -4.343  0.00  0.00     0.024 H 
ATOM     47  H   LIG d   1       2.160  -1.431  -3.161  0.00  0.00     0.024 H 
ATOM     48  H   LIG d   1       1.980   0.251  -2.607  0.00  0.00     0.024 H 
ENDBRANCH  40  45
ENDBRANCH  12  40
BRANCH   1  49
ATOM     49  C   LIG d   1       3.868  -1.866  -5.297  0.00  0.00    -0.059 C 
ATOM     50  H   LIG d   1       3.872  -2.502  -6.182  0.00  0.00     0.024 H 
ATOM     51  H   LIG d   1       4.627  -2.215  -4.596  0.00  0.00     0.024 H 
ATOM     52  H   LIG d   1       2.888  -1.910  -4.821  0.00  0.00     0.024 H 
ENDBRANCH   1  49
BRANCH  17  53
ATOM     53  C   LIG d   1       2.284  -0.622 -10.434  0.00  0.00    -0.056 C 
ATOM     54  H   LIG d   1       2.172  -0.878 -11.488  0.00  0.00     0.024 H 
ATOM     55  H   LIG d   1       1.752  -1.351  -9.824  0.00  0.00     0.024 H 
ATOM     56  H   LIG d   1       1.872   0.371 -10.256  0.00  0.00     0.024 H 
ENDBRANCH  17  53
BRANCH  20  57
ATOM     57  O   LIG d   1       3.657  -0.847 -13.484  0.00  0.00    -0.392 OA
ATOM     58  H   LIG d   1       2.780  -1.195 -13.265  0.00  0.00     0.210 HD
ENDBRANCH  20  57
TORSDOF 5
ENDMDL
MODEL 8
REMARK VINA RESULT:      -5.3      9.364     12.241
REMARK  5 active torsions:
REMARK  status: ('A' for Active; 'I' for Inactive)
REMARK    1  A    between atoms: C_1  and  C_2 
REMARK    2  A    between atoms: C_13  and  C_15 
REMARK    3  A    between atoms: C_15  and  C_18 
REMARK    4  A    between atoms: C_22  and  C_29 
REMARK    5  A    between atoms: C_25  and  O_28 
ROOT
ATOM      1  C   LIG d   1      10.672   7.153  -3.778  0.00  0.00    -0.025 C 
ATOM      2  C   LIG d   1      10.019   8.420  -4.269  0.00  0.00    -0.047 C 
ATOM      3  C   LIG d   1       9.380   8.163  -5.648  0.00  0.00    -0.049 C 
ATOM      4  C   LIG d   1      10.425   7.708  -6.650  0.00  0.00    -0.029 C 
ATOM      5  H   LIG d   1      11.213   8.485  -6.650  0.00  0.00     0.031 H 
ATOM      6  C   LIG d   1      11.112   6.409  -6.181  0.00  0.00    -0.031 C 
ATOM      7  H   LIG d   1      11.944   6.195  -6.891  0.00  0.00     0.031 H 
ATOM      8  C   LIG d   1      11.685   6.647  -4.820  0.00  0.00    -0.032 C 
ATOM      9  H   LIG d   1      12.476   7.436  -4.926  0.00  0.00     0.031 H 
ATOM     10  C   LIG d   1      12.343   5.485  -4.065  0.00  0.00    -0.049 C 
ATOM     11  C   LIG d   1      12.596   6.135  -2.671  0.00  0.00    -0.048 C 
ATOM     12  C   LIG d   1      11.589   7.309  -2.547  0.00  0.00    -0.020 C 
ATOM     13  H   LIG d   1      12.099   8.263  -2.585  0.00  0.00     0.032 H 
ATOM     14  C   LIG d   1      10.114   5.262  -6.269  0.00  0.00    -0.031 C 
ATOM     15  C   LIG d   1       9.640   5.153  -7.696  0.00  0.00    -0.084 C 
ATOM     16  C   LIG d   1       9.566   6.181  -8.479  0.00  0.00    -0.065 C 
ATOM     17  C   LIG d   1       9.945   7.583  -8.078  0.00  0.00    -0.008 C 
ATOM     18  C   LIG d   1      11.034   8.074  -9.043  0.00  0.00    -0.041 C 
ATOM     19  C   LIG d   1      11.331   7.003 -10.088  0.00  0.00    -0.026 C 
ATOM     20  C   LIG d   1      10.074   6.606 -10.855  0.00  0.00     0.059 C 
ATOM     21  H   LIG d   1      10.338   5.879 -11.626  0.00  0.00     0.060 H 
ATOM     22  C   LIG d   1       9.055   5.980  -9.895  0.00  0.00    -0.005 C 
ATOM     23  H   LIG d   1       9.243   8.739  -3.567  0.00  0.00     0.027 H 
ATOM     24  H   LIG d   1      10.764   9.214  -4.361  0.00  0.00     0.027 H 
ATOM     25  H   LIG d   1       8.940   9.118  -5.956  0.00  0.00     0.027 H 
ATOM     26  H   LIG d   1       8.594   7.420  -5.559  0.00  0.00     0.027 H 
ATOM     27  H   LIG d   1      11.698   4.620  -3.992  0.00  0.00     0.027 H 
ATOM     28  H   LIG d   1      13.293   5.219  -4.530  0.00  0.00     0.027 H 
ATOM     29  H   LIG d   1      13.617   6.511  -2.618  0.00  0.00     0.027 H 
ATOM     30  H   LIG d   1      12.420   5.405  -1.883  0.00  0.00     0.027 H 
ATOM     31  H   LIG d   1      10.579   4.325  -5.974  0.00  0.00     0.031 H 
ATOM     32  H   LIG d   1       9.227   5.449  -5.670  0.00  0.00     0.031 H 
ATOM     33  H   LIG d   1       9.354   4.187  -8.069  0.00  0.00     0.057 H 
ATOM     34  H   LIG d   1      10.687   8.981  -9.534  0.00  0.00     0.027 H 
ATOM     35  H   LIG d   1      11.939   8.290  -8.476  0.00  0.00     0.027 H 
ATOM     36  H   LIG d   1      12.071   7.390 -10.794  0.00  0.00     0.029 H 
ATOM     37  H   LIG d   1      11.747   6.123  -9.596  0.00  0.00     0.029 H 
ATOM     38  H   LIG d   1       8.078   6.443 -10.023  0.00  0.00     0.034 H 
ATOM     39  H   LIG d   1       8.974   4.908 -10.102  0.00  0.00     0.034 H 
ENDROOT
BRANCH  12  40
ATOM     40  C   LIG d   1      10.764   7.171  -1.268  0.00  0.00     0.026 A 
ATOM     41  S   LIG d   1      10.850   8.540  -0.085  0.00  0.00    -0.152 SA
ATOM     42  C   LIG d   1       9.493   8.018  -1.170  0.00  0.00     0.009 A 
ATOM     43  H   LIG d   1       8.629   7.557  -0.691  0.00  0.00     0.039 H 
ATOM     44  H   LIG d   1       9.264   8.662  -2.018  0.00  0.00     0.039 H 
BRANCH  40  45
ATOM     45  C   LIG d   1      10.701   5.758  -0.685  0.00  0.00    -0.049 C 
ATOM     46  H   LIG d   1      11.257   5.726   0.252  0.00  0.00     0.024 H 
ATOM     47  H   LIG d   1       9.663   5.486  -0.500  0.00  0.00     0.024 H 
ATOM     48  H   LIG d   1      11.141   5.054  -1.393  0.00  0.00     0.024 H 
ENDBRANCH  40  45
ENDBRANCH  12  40
BRANCH   1  49
ATOM     49  C   LIG d   1       9.614   6.124  -3.388  0.00  0.00    -0.059 C 
ATOM     50  H   LIG d   1       9.522   5.380  -4.179  0.00  0.00     0.024 H 
ATOM     51  H   LIG d   1       9.908   5.634  -2.459  0.00  0.00     0.024 H 
ATOM     52  H   LIG d   1       8.656   6.625  -3.245  0.00  0.00     0.024 H 
ENDBRANCH   1  49
BRANCH  17  53
ATOM     53  C   LIG d   1       8.722   8.479  -8.297  0.00  0.00    -0.056 C 
ATOM     54  H   LIG d   1       9.049   9.508  -8.453  0.00  0.00     0.024 H 
ATOM     55  H   LIG d   1       8.172   8.136  -9.172  0.00  0.00     0.024 H 
ATOM     56  H   LIG d   1       8.076   8.433  -7.420  0.00  0.00     0.024 H 
ENDBRANCH  17  53
BRANCH  20  57
ATOM     57  O   LIG d   1       9.506   7.760 -11.477  0.00  0.00    -0.392 OA
ATOM     58  H   LIG d   1       8.671   8.050 -11.081  0.00  0.00     0.210 HD
ENDBRANCH  20  57
TORSDOF 5
ENDMDL
MODEL 9
REMARK VINA RESULT:      -5.3      4.836      7.535
REMARK  5 active torsions:
REMARK  status: ('A' for Active; 'I' for Inactive)
REMARK    1  A    between atoms: C_1  and  C_2 
REMARK    2  A    between atoms: C_13  and  C_15 
REMARK    3  A    between atoms: C_15  and  C_18 
REMARK    4  A    between atoms: C_22  and  C_29 
REMARK    5  A    between atoms: C_25  and  O_28 
ROOT
ATOM      1  C   LIG d   1       6.545  -0.006  -4.084  0.00  0.00    -0.025 C 
ATOM      2  C   LIG d   1       7.204   1.188  -3.441  0.00  0.00    -0.047 C 
ATOM      3  C   LIG d   1       7.801   2.093  -4.536  0.00  0.00    -0.049 C 
ATOM      4  C   LIG d   1       8.820   1.335  -5.367  0.00  0.00    -0.029 C 
ATOM      5  H   LIG d   1       9.564   0.933  -4.653  0.00  0.00     0.031 H 
ATOM      6  C   LIG d   1       8.177   0.107  -6.045  0.00  0.00    -0.031 C 
ATOM      7  H   LIG d   1       8.995  -0.470  -6.535  0.00  0.00     0.031 H 
ATOM      8  C   LIG d   1       7.554  -0.742  -4.983  0.00  0.00    -0.032 C 
ATOM      9  H   LIG d   1       8.384  -1.108  -4.321  0.00  0.00     0.031 H 
ATOM     10  C   LIG d   1       6.752  -1.986  -5.386  0.00  0.00    -0.049 C 
ATOM     11  C   LIG d   1       6.149  -2.414  -4.014  0.00  0.00    -0.048 C 
ATOM     12  C   LIG d   1       6.141  -1.143  -3.124  0.00  0.00    -0.020 C 
ATOM     13  H   LIG d   1       6.866  -1.226  -2.323  0.00  0.00     0.032 H 
ATOM     14  C   LIG d   1       7.223   0.585  -7.131  0.00  0.00    -0.031 C 
ATOM     15  C   LIG d   1       8.004   1.416  -8.118  0.00  0.00    -0.084 C 
ATOM     16  C   LIG d   1       9.040   2.110  -7.767  0.00  0.00    -0.065 C 
ATOM     17  C   LIG d   1       9.591   2.165  -6.367  0.00  0.00    -0.008 C 
ATOM     18  C   LIG d   1      11.055   1.705  -6.415  0.00  0.00    -0.041 C 
ATOM     19  C   LIG d   1      11.459   1.387  -7.852  0.00  0.00    -0.026 C 
ATOM     20  C   LIG d   1      11.243   2.585  -8.771  0.00  0.00     0.059 C 
ATOM     21  H   LIG d   1      11.592   2.334  -9.775  0.00  0.00     0.060 H 
ATOM     22  C   LIG d   1       9.751   2.936  -8.825  0.00  0.00    -0.005 C 
ATOM     23  H   LIG d   1       6.470   1.758  -2.865  0.00  0.00     0.027 H 
ATOM     24  H   LIG d   1       8.004   0.859  -2.772  0.00  0.00     0.027 H 
ATOM     25  H   LIG d   1       8.277   2.927  -4.009  0.00  0.00     0.027 H 
ATOM     26  H   LIG d   1       7.009   2.478  -5.171  0.00  0.00     0.027 H 
ATOM     27  H   LIG d   1       5.979  -1.763  -6.110  0.00  0.00     0.027 H 
ATOM     28  H   LIG d   1       7.419  -2.763  -5.759  0.00  0.00     0.027 H 
ATOM     29  H   LIG d   1       6.772  -3.184  -3.561  0.00  0.00     0.027 H 
ATOM     30  H   LIG d   1       5.134  -2.782  -4.153  0.00  0.00     0.027 H 
ATOM     31  H   LIG d   1       6.778  -0.260  -7.649  0.00  0.00     0.031 H 
ATOM     32  H   LIG d   1       6.450   1.236  -6.734  0.00  0.00     0.031 H 
ATOM     33  H   LIG d   1       7.684   1.431  -9.143  0.00  0.00     0.057 H 
ATOM     34  H   LIG d   1      11.688   2.499  -6.022  0.00  0.00     0.027 H 
ATOM     35  H   LIG d   1      11.166   0.812  -5.800  0.00  0.00     0.027 H 
ATOM     36  H   LIG d   1      12.516   1.110  -7.871  0.00  0.00     0.029 H 
ATOM     37  H   LIG d   1      10.871   0.543  -8.213  0.00  0.00     0.029 H 
ATOM     38  H   LIG d   1       9.604   4.000  -8.648  0.00  0.00     0.034 H 
ATOM     39  H   LIG d   1       9.354   2.679  -9.813  0.00  0.00     0.034 H 
ENDROOT
BRANCH  12  40
ATOM     40  C   LIG d   1       4.738  -0.884  -2.576  0.00  0.00     0.026 A 
ATOM     41  S   LIG d   1       3.346  -1.263  -3.671  0.00  0.00    -0.152 SA
ATOM     42  C   LIG d   1       3.916  -2.109  -2.170  0.00  0.00     0.009 A 
ATOM     43  H   LIG d   1       3.290  -2.011  -1.282  0.00  0.00     0.039 H 
ATOM     44  H   LIG d   1       4.386  -3.083  -2.301  0.00  0.00     0.039 H 
BRANCH  40  45
ATOM     45  C   LIG d   1       4.605   0.362  -1.697  0.00  0.00    -0.049 C 
ATOM     46  H   LIG d   1       3.739   0.941  -2.016  0.00  0.00     0.024 H 
ATOM     47  H   LIG d   1       4.478   0.061  -0.657  0.00  0.00     0.024 H 
ATOM     48  H   LIG d   1       5.505   0.970  -1.791  0.00  0.00     0.024 H 
ENDBRANCH  40  45
ENDBRANCH  12  40
BRANCH   1  49
ATOM     49  C   LIG d   1       5.264   0.415  -4.801  0.00  0.00    -0.059 C 
ATOM     50  H   LIG d   1       4.861  -0.433  -5.354  0.00  0.00     0.024 H 
ATOM     51  H   LIG d   1       4.531   0.753  -4.068  0.00  0.00     0.024 H 
ATOM     52  H   LIG d   1       5.486   1.229  -5.493  0.00  0.00     0.024 H 
ENDBRANCH   1  49
BRANCH  17  53
ATOM     53  C   LIG d   1       9.602   3.634  -5.927  0.00  0.00    -0.056 C 
ATOM     54  H   LIG d   1       8.800   3.803  -5.207  0.00  0.00     0.024 H 
ATOM     55  H   LIG d   1      10.560   3.867  -5.463  0.00  0.00     0.024 H 
ATOM     56  H   LIG d   1       9.452   4.274  -6.795  0.00  0.00     0.024 H 
ENDBRANCH  17  53
BRANCH  20  57
ATOM     57  O   LIG d   1      11.985   3.704  -8.284  0.00  0.00    -0.392 OA
ATOM     58  H   LIG d   1      11.438   4.467  -8.048  0.00  0.00     0.210 HD
ENDBRANCH  20  57
TORSDOF 5
ENDMDL
MODEL 10
REMARK VINA RESULT:      -5.2      3.294      4.353
REMARK  5 active torsions:
REMARK  status: ('A' for Active; 'I' for Inactive)
REMARK    1  A    between atoms: C_1  and  C_2 
REMARK    2  A    between atoms: C_13  and  C_15 
REMARK    3  A    between atoms: C_15  and  C_18 
REMARK    4  A    between atoms: C_22  and  C_29 
REMARK    5  A    between atoms: C_25  and  O_28 
ROOT
ATOM      1  C   LIG d   1       6.363  -3.983  -7.117  0.00  0.00    -0.025 C 
ATOM      2  C   LIG d   1       7.493  -3.052  -6.758  0.00  0.00    -0.047 C 
ATOM      3  C   LIG d   1       7.249  -2.470  -5.352  0.00  0.00    -0.049 C 
ATOM      4  C   LIG d   1       5.933  -1.716  -5.301  0.00  0.00    -0.029 C 
ATOM      5  H   LIG d   1       5.979  -0.958  -6.106  0.00  0.00     0.031 H 
ATOM      6  C   LIG d   1       4.751  -2.641  -5.659  0.00  0.00    -0.031 C 
ATOM      7  H   LIG d   1       3.838  -2.007  -5.723  0.00  0.00     0.031 H 
ATOM      8  C   LIG d   1       5.018  -3.244  -7.001  0.00  0.00    -0.032 C 
ATOM      9  H   LIG d   1       5.034  -2.404  -7.745  0.00  0.00     0.031 H 
ATOM     10  C   LIG d   1       4.047  -4.290  -7.565  0.00  0.00    -0.049 C 
ATOM     11  C   LIG d   1       4.815  -4.761  -8.837  0.00  0.00    -0.048 C 
ATOM     12  C   LIG d   1       6.311  -4.433  -8.591  0.00  0.00    -0.020 C 
ATOM     13  H   LIG d   1       6.644  -3.629  -9.235  0.00  0.00     0.032 H 
ATOM     14  C   LIG d   1       4.549  -3.644  -4.530  0.00  0.00    -0.031 C 
ATOM     15  C   LIG d   1       4.288  -2.880  -3.257  0.00  0.00    -0.084 C 
ATOM     16  C   LIG d   1       4.788  -1.705  -3.043  0.00  0.00    -0.065 C 
ATOM     17  C   LIG d   1       5.664  -0.964  -4.019  0.00  0.00    -0.008 C 
ATOM     18  C   LIG d   1       4.994   0.383  -4.330  0.00  0.00    -0.041 C 
ATOM     19  C   LIG d   1       3.704   0.525  -3.527  0.00  0.00    -0.026 C 
ATOM     20  C   LIG d   1       3.960   0.386  -2.030  0.00  0.00     0.059 C 
ATOM     21  H   LIG d   1       3.024   0.547  -1.490  0.00  0.00     0.060 H 
ATOM     22  C   LIG d   1       4.489  -1.019  -1.721  0.00  0.00    -0.005 C 
ATOM     23  H   LIG d   1       8.443  -3.595  -6.763  0.00  0.00     0.027 H 
ATOM     24  H   LIG d   1       7.548  -2.233  -7.481  0.00  0.00     0.027 H 
ATOM     25  H   LIG d   1       8.089  -1.794  -5.158  0.00  0.00     0.027 H 
ATOM     26  H   LIG d   1       7.255  -3.267  -4.616  0.00  0.00     0.027 H 
ATOM     27  H   LIG d   1       3.875  -5.108  -6.877  0.00  0.00     0.027 H 
ATOM     28  H   LIG d   1       3.105  -3.820  -7.849  0.00  0.00     0.027 H 
ATOM     29  H   LIG d   1       4.452  -4.217  -9.709  0.00  0.00     0.027 H 
ATOM     30  H   LIG d   1       4.682  -5.832  -8.976  0.00  0.00     0.027 H 
ATOM     31  H   LIG d   1       3.701  -4.291  -4.739  0.00  0.00     0.031 H 
ATOM     32  H   LIG d   1       5.442  -4.235  -4.349  0.00  0.00     0.031 H 
ATOM     33  H   LIG d   1       3.668  -3.331  -2.506  0.00  0.00     0.057 H 
ATOM     34  H   LIG d   1       5.680   1.187  -4.069  0.00  0.00     0.027 H 
ATOM     35  H   LIG d   1       4.767   0.428  -5.394  0.00  0.00     0.027 H 
ATOM     36  H   LIG d   1       3.270   1.509  -3.724  0.00  0.00     0.029 H 
ATOM     37  H   LIG d   1       2.995  -0.239  -3.845  0.00  0.00     0.029 H 
ATOM     38  H   LIG d   1       5.385  -0.961  -1.105  0.00  0.00     0.034 H 
ATOM     39  H   LIG d   1       3.722  -1.586  -1.184  0.00  0.00     0.034 H 
ENDROOT
BRANCH  12  40
ATOM     40  C   LIG d   1       7.169  -5.685  -8.780  0.00  0.00     0.026 A 
ATOM     41  S   LIG d   1       8.383  -5.653 -10.123  0.00  0.00    -0.152 SA
ATOM     42  C   LIG d   1       8.628  -5.599  -8.326  0.00  0.00     0.009 A 
ATOM     43  H   LIG d   1       9.052  -6.488  -7.859  0.00  0.00     0.039 H 
ATOM     44  H   LIG d   1       8.956  -4.650  -7.901  0.00  0.00     0.039 H 
BRANCH  40  45
ATOM     45  C   LIG d   1       6.444  -7.010  -8.534  0.00  0.00    -0.049 C 
ATOM     46  H   LIG d   1       7.164  -7.763  -8.212  0.00  0.00     0.024 H 
ATOM     47  H   LIG d   1       5.690  -6.875  -7.760  0.00  0.00     0.024 H 
ATOM     48  H   LIG d   1       5.964  -7.338  -9.457  0.00  0.00     0.024 H 
ENDBRANCH  40  45
ENDBRANCH  12  40
BRANCH   1  49
ATOM     49  C   LIG d   1       6.443  -5.262  -6.287  0.00  0.00    -0.059 C 
ATOM     50  H   LIG d   1       6.980  -6.027  -6.849  0.00  0.00     0.024 H 
ATOM     51  H   LIG d   1       6.971  -5.058  -5.355  0.00  0.00     0.024 H 
ATOM     52  H   LIG d   1       5.436  -5.615  -6.064  0.00  0.00     0.024 H 
ENDBRANCH   1  49
BRANCH  17  53
ATOM     53  C   LIG d   1       6.987  -0.647  -3.313  0.00  0.00    -0.056 C 
ATOM     54  H   LIG d   1       7.727  -1.406  -3.572  0.00  0.00     0.024 H 
ATOM     55  H   LIG d   1       7.344   0.331  -3.630  0.00  0.00     0.024 H 
ATOM     56  H   LIG d   1       6.832  -0.646  -2.234  0.00  0.00     0.024 H 
ENDBRANCH  17  53
BRANCH  20  57
ATOM     57  O   LIG d   1       4.913   1.365  -1.612  0.00  0.00    -0.392 OA
ATOM     58  H   LIG d   1       4.790   1.672  -0.703  0.00  0.00     0.210 HD
ENDBRANCH  20  57
TORSDOF 5
ENDMDL
