MODEL 1
REMARK VINA RESULT:      -6.7      0.000      0.000
REMARK  11 active torsions:
REMARK  status: ('A' for Active; 'I' for Inactive)
REMARK    1  A    between atoms: C_1  and  C_2 
REMARK    2  A    between atoms: C_4  and  N_33 
REMARK    3  A    between atoms: C_8  and  C_32 
REMARK    4  A    between atoms: C_11  and  O_31 
REMARK    5  A    between atoms: C_13  and  C_17 
REMARK    6  A    between atoms: C_17  and  C_19 
REMARK    7  A    between atoms: C_17  and  C_20 
REMARK       I    between atoms: C_20  and  N_22 
REMARK    8  A    between atoms: N_22  and  C_23 
REMARK    9  A    between atoms: C_23  and  C_24 
REMARK   10  A    between atoms: C_24  and  N_25 
REMARK       I    between atoms: N_33  and  C_34 
REMARK   11  A    between atoms: C_34  and  C_36 
ROOT
ATOM      1  C   LIG d   1       9.002   2.664  -5.080  0.00  0.00    -0.020 C 
ATOM      2  H   LIG d   1       9.844   1.980  -4.895  0.00  0.00     0.032 H 
ATOM      3  C   LIG d   1       9.532   4.082  -5.291  0.00  0.00     0.026 C 
ATOM      4  H   LIG d   1       8.702   4.788  -5.438  0.00  0.00     0.050 H 
ATOM      5  C   LIG d   1      10.476   4.100  -6.495  0.00  0.00    -0.034 C 
ATOM      6  C   LIG d   1       9.717   3.649  -7.745  0.00  0.00    -0.046 C 
ATOM      7  C   LIG d   1       9.186   2.229  -7.534  0.00  0.00    -0.026 C 
ATOM      8  C   LIG d   1       8.243   2.211  -6.329  0.00  0.00    -0.005 C 
ATOM      9  H   LIG d   1       7.400   2.895  -6.513  0.00  0.00     0.033 H 
ATOM     10  C   LIG d   1       7.712   0.793  -6.118  0.00  0.00     0.062 C 
ATOM     11  H   LIG d   1       8.525   0.095  -5.872  0.00  0.00     0.060 H 
ATOM     12  C   LIG d   1       6.952   0.341  -7.367  0.00  0.00    -0.004 C 
ATOM     13  H   LIG d   1       6.110   1.024  -7.551  0.00  0.00     0.033 H 
ATOM     14  C   LIG d   1       7.896   0.358  -8.571  0.00  0.00    -0.047 C 
ATOM     15  C   LIG d   1       8.427   1.778  -8.783  0.00  0.00    -0.047 C 
ATOM     16  H   LIG d   1      10.858   5.120  -6.647  0.00  0.00     0.028 H 
ATOM     17  H   LIG d   1      11.318   3.416  -6.311  0.00  0.00     0.028 H 
ATOM     18  H   LIG d   1       8.875   4.332  -7.929  0.00  0.00     0.027 H 
ATOM     19  H   LIG d   1      10.395   3.662  -8.610  0.00  0.00     0.027 H 
ATOM     20  H   LIG d   1       8.738  -0.325  -8.388  0.00  0.00     0.027 H 
ATOM     21  H   LIG d   1       7.350   0.034  -9.469  0.00  0.00     0.027 H 
ATOM     22  H   LIG d   1       7.585   2.461  -8.966  0.00  0.00     0.027 H 
ATOM     23  H   LIG d   1       9.106   1.791  -9.649  0.00  0.00     0.027 H 
ENDROOT
BRANCH  12  24
ATOM     24  C   LIG d   1       6.421  -1.079  -7.156  0.00  0.00     0.038 C 
ATOM     25  H   LIG d   1       6.844  -1.503  -6.234  0.00  0.00     0.040 H 
BRANCH  24  26
ATOM     26  C   LIG d   1       6.805  -1.949  -8.354  0.00  0.00    -0.054 C 
ATOM     27  H   LIG d   1       5.892  -2.302  -8.857  0.00  0.00     0.024 H 
ATOM     28  H   LIG d   1       7.389  -2.814  -8.008  0.00  0.00     0.024 H 
ATOM     29  H   LIG d   1       7.407  -1.358  -9.060  0.00  0.00     0.024 H 
ENDBRANCH  24  26
BRANCH  24  30
ATOM     30  C   LIG d   1       4.920  -1.038  -7.024  0.00  0.00     0.216 C 
ATOM     31  O   LIG d   1       4.251  -1.969  -7.416  0.00  0.00    -0.276 OA
ATOM     32  N   LIG d   1       4.322   0.034  -6.467  0.00  0.00    -0.314 N 
ATOM     33  H   LIG d   1       4.930   0.880  -6.111  0.00  0.00     0.149 HD
BRANCH  32  34
ATOM     34  C   LIG d   1       2.864   0.075  -6.338  0.00  0.00     0.024 C 
ATOM     35  H   LIG d   1       2.445   0.726  -7.120  0.00  0.00     0.047 H 
ATOM     36  H   LIG d   1       2.457  -0.942  -6.450  0.00  0.00     0.047 H 
BRANCH  34  37
ATOM     37  C   LIG d   1       2.488   0.626  -4.961  0.00  0.00     0.015 C 
ATOM     38  H   LIG d   1       2.462   1.725  -5.001  0.00  0.00     0.044 H 
ATOM     39  H   LIG d   1       1.495   0.246  -4.674  0.00  0.00     0.044 H 
BRANCH  37  40
ATOM     40  N   LIG d   1       3.484   0.194  -3.972  0.00  0.00    -0.296 N 
ATOM     41  C   LIG d   1       3.717   1.242  -2.968  0.00  0.00     0.022 C 
ATOM     42  C   LIG d   1       4.802   0.776  -1.993  0.00  0.00     0.060 C 
ATOM     43  H   LIG d   1       4.044   2.165  -3.470  0.00  0.00     0.045 H 
ATOM     44  H   LIG d   1       2.785   1.437  -2.416  0.00  0.00     0.045 H 
ATOM     45  O   LIG d   1       4.402  -0.462  -1.400  0.00  0.00    -0.377 OA
ATOM     46  H   LIG d   1       4.940   1.532  -1.207  0.00  0.00     0.057 H 
ATOM     47  H   LIG d   1       5.748   0.636  -2.536  0.00  0.00     0.057 H 
ATOM     48  C   LIG d   1       4.167  -1.505  -2.350  0.00  0.00     0.060 C 
ATOM     49  C   LIG d   1       3.077  -1.062  -3.328  0.00  0.00     0.022 C 
ATOM     50  H   LIG d   1       3.842  -2.415  -1.825  0.00  0.00     0.057 H 
ATOM     51  H   LIG d   1       5.094  -1.714  -2.905  0.00  0.00     0.057 H 
ATOM     52  H   LIG d   1       2.134  -0.906  -2.782  0.00  0.00     0.045 H 
ATOM     53  H   LIG d   1       2.931  -1.837  -4.095  0.00  0.00     0.045 H 
ENDBRANCH  37  40
ENDBRANCH  34  37
ENDBRANCH  32  34
ENDBRANCH  24  30
ENDBRANCH  12  24
BRANCH  10  54
ATOM     54  O   LIG d   1       6.830   0.776  -4.993  0.00  0.00    -0.391 OA
ATOM     55  H   LIG d   1       6.005   0.049  -4.951  0.00  0.00     0.210 HD
ENDBRANCH  10  54
BRANCH   1  56
ATOM     56  C   LIG d   1       8.058   2.646  -3.876  0.00  0.00    -0.060 C 
ATOM     57  H   LIG d   1       7.022   2.788  -4.218  0.00  0.00     0.023 H 
ATOM     58  H   LIG d   1       8.331   3.457  -3.184  0.00  0.00     0.023 H 
ATOM     59  H   LIG d   1       8.144   1.679  -3.358  0.00  0.00     0.023 H 
ENDBRANCH   1  56
BRANCH   7  60
ATOM     60  C   LIG d   1      10.358   1.279  -7.278  0.00  0.00    -0.059 C 
ATOM     61  H   LIG d   1      10.975   1.672  -6.456  0.00  0.00     0.024 H 
ATOM     62  H   LIG d   1      10.969   1.197  -8.189  0.00  0.00     0.024 H 
ATOM     63  H   LIG d   1       9.972   0.287  -7.004  0.00  0.00     0.024 H 
ENDBRANCH   7  60
BRANCH   3  64
ATOM     64  N   LIG d   1      10.260   4.514  -4.094  0.00  0.00    -0.312 N 
ATOM     65  C   LIG d   1       9.973   5.701  -3.524  0.00  0.00     0.216 C 
ATOM     66  O   LIG d   1       9.114   6.411  -4.000  0.00  0.00    -0.276 OA
ATOM     67  H   LIG d   1      11.039   3.870  -3.663  0.00  0.00     0.149 HD
BRANCH  65  68
ATOM     68  C   LIG d   1      10.721   6.146  -2.293  0.00  0.00     0.036 C 
ATOM     69  C   LIG d   1       9.791   6.971  -1.402  0.00  0.00    -0.042 C 
ATOM     70  C   LIG d   1      10.551   7.423  -0.153  0.00  0.00    -0.052 C 
ATOM     71  H   LIG d   1       9.440   7.854  -1.957  0.00  0.00     0.027 H 
ATOM     72  H   LIG d   1       8.928   6.357  -1.105  0.00  0.00     0.027 H 
ATOM     73  C   LIG d   1      11.039   6.195   0.619  0.00  0.00    -0.053 C 
ATOM     74  H   LIG d   1       9.882   8.017   0.489  0.00  0.00     0.026 H 
ATOM     75  H   LIG d   1      11.413   8.037  -0.450  0.00  0.00     0.026 H 
ATOM     76  C   LIG d   1      11.970   5.370  -0.273  0.00  0.00    -0.052 C 
ATOM     77  H   LIG d   1      10.177   5.581   0.915  0.00  0.00     0.026 H 
ATOM     78  H   LIG d   1      11.585   6.520   1.517  0.00  0.00     0.026 H 
ATOM     79  C   LIG d   1      11.210   4.919  -1.522  0.00  0.00    -0.042 C 
ATOM     80  H   LIG d   1      12.321   4.488   0.281  0.00  0.00     0.026 H 
ATOM     81  H   LIG d   1      12.832   5.984  -0.571  0.00  0.00     0.026 H 
ATOM     82  H   LIG d   1      10.347   4.304  -1.225  0.00  0.00     0.027 H 
ATOM     83  H   LIG d   1      11.878   4.326  -2.163  0.00  0.00     0.027 H 
ATOM     84  H   LIG d   1      11.580   6.757  -2.606  0.00  0.00     0.039 H 
ENDBRANCH  65  68
ENDBRANCH   3  64
TORSDOF 11
ENDMDL
MODEL 2
REMARK VINA RESULT:      -6.5      2.789      4.875
REMARK  11 active torsions:
REMARK  status: ('A' for Active; 'I' for Inactive)
REMARK    1  A    between atoms: C_1  and  C_2 
REMARK    2  A    between atoms: C_4  and  N_33 
REMARK    3  A    between atoms: C_8  and  C_32 
REMARK    4  A    between atoms: C_11  and  O_31 
REMARK    5  A    between atoms: C_13  and  C_17 
REMARK    6  A    between atoms: C_17  and  C_19 
REMARK    7  A    between atoms: C_17  and  C_20 
REMARK       I    between atoms: C_20  and  N_22 
REMARK    8  A    between atoms: N_22  and  C_23 
REMARK    9  A    between atoms: C_23  and  C_24 
REMARK   10  A    between atoms: C_24  and  N_25 
REMARK       I    between atoms: N_33  and  C_34 
REMARK   11  A    between atoms: C_34  and  C_36 
ROOT
ATOM      1  C   LIG d   1      10.416   6.769  -2.546  0.00  0.00    -0.020 C 
ATOM      2  H   LIG d   1      11.510   6.667  -2.603  0.00  0.00     0.032 H 
ATOM      3  C   LIG d   1      10.037   8.249  -2.615  0.00  0.00     0.026 C 
ATOM      4  H   LIG d   1       8.949   8.375  -2.520  0.00  0.00     0.050 H 
ATOM      5  C   LIG d   1      10.535   8.842  -3.934  0.00  0.00    -0.034 C 
ATOM      6  C   LIG d   1       9.891   8.095  -5.104  0.00  0.00    -0.046 C 
ATOM      7  C   LIG d   1      10.270   6.614  -5.035  0.00  0.00    -0.026 C 
ATOM      8  C   LIG d   1       9.772   6.022  -3.715  0.00  0.00    -0.005 C 
ATOM      9  H   LIG d   1       8.678   6.123  -3.657  0.00  0.00     0.033 H 
ATOM     10  C   LIG d   1      10.151   4.541  -3.645  0.00  0.00     0.062 C 
ATOM     11  H   LIG d   1      11.243   4.409  -3.640  0.00  0.00     0.060 H 
ATOM     12  C   LIG d   1       9.507   3.794  -4.814  0.00  0.00    -0.004 C 
ATOM     13  H   LIG d   1       8.413   3.895  -4.756  0.00  0.00     0.033 H 
ATOM     14  C   LIG d   1      10.005   4.386  -6.134  0.00  0.00    -0.047 C 
ATOM     15  C   LIG d   1       9.625   5.867  -6.204  0.00  0.00    -0.047 C 
ATOM     16  H   LIG d   1      10.262   9.906  -3.985  0.00  0.00     0.028 H 
ATOM     17  H   LIG d   1      11.629   8.740  -3.993  0.00  0.00     0.028 H 
ATOM     18  H   LIG d   1       8.797   8.196  -5.046  0.00  0.00     0.027 H 
ATOM     19  H   LIG d   1      10.248   8.521  -6.053  0.00  0.00     0.027 H 
ATOM     20  H   LIG d   1      11.098   4.284  -6.193  0.00  0.00     0.027 H 
ATOM     21  H   LIG d   1       9.542   3.849  -6.975  0.00  0.00     0.027 H 
ATOM     22  H   LIG d   1       8.532   5.969  -6.146  0.00  0.00     0.027 H 
ATOM     23  H   LIG d   1       9.983   6.293  -7.153  0.00  0.00     0.027 H 
ENDROOT
BRANCH  12  24
ATOM     24  C   LIG d   1       9.886   2.313  -4.745  0.00  0.00     0.038 C 
ATOM     25  H   LIG d   1      10.357   2.093  -3.776  0.00  0.00     0.040 H 
BRANCH  24  26
ATOM     26  C   LIG d   1      10.854   1.981  -5.881  0.00  0.00    -0.054 C 
ATOM     27  H   LIG d   1      10.428   2.323  -6.837  0.00  0.00     0.024 H 
ATOM     28  H   LIG d   1      11.016   0.894  -5.921  0.00  0.00     0.024 H 
ATOM     29  H   LIG d   1      11.814   2.490  -5.706  0.00  0.00     0.024 H 
ENDBRANCH  24  26
BRANCH  24  30
ATOM     30  C   LIG d   1       8.644   1.470  -4.879  0.00  0.00     0.216 C 
ATOM     31  O   LIG d   1       7.626   1.956  -5.323  0.00  0.00    -0.276 OA
ATOM     32  N   LIG d   1       8.665   0.175  -4.506  0.00  0.00    -0.314 N 
ATOM     33  H   LIG d   1       9.589  -0.266  -4.103  0.00  0.00     0.149 HD
BRANCH  32  34
ATOM     34  C   LIG d   1       7.459  -0.645  -4.637  0.00  0.00     0.024 C 
ATOM     35  H   LIG d   1       6.733  -0.129  -5.283  0.00  0.00     0.047 H 
ATOM     36  H   LIG d   1       7.722  -1.616  -5.084  0.00  0.00     0.047 H 
BRANCH  34  37
ATOM     37  C   LIG d   1       6.841  -0.871  -3.256  0.00  0.00     0.015 C 
ATOM     38  H   LIG d   1       6.858  -1.945  -3.018  0.00  0.00     0.044 H 
ATOM     39  H   LIG d   1       7.422  -0.320  -2.501  0.00  0.00     0.044 H 
BRANCH  37  40
ATOM     40  N   LIG d   1       5.454  -0.390  -3.254  0.00  0.00    -0.296 N 
ATOM     41  C   LIG d   1       5.364   0.960  -2.679  0.00  0.00     0.022 C 
ATOM     42  C   LIG d   1       3.898   1.397  -2.642  0.00  0.00     0.060 C 
ATOM     43  H   LIG d   1       5.773   0.951  -1.658  0.00  0.00     0.045 H 
ATOM     44  H   LIG d   1       5.943   1.662  -3.298  0.00  0.00     0.045 H 
ATOM     45  O   LIG d   1       3.353   1.334  -3.963  0.00  0.00    -0.377 OA
ATOM     46  H   LIG d   1       3.830   2.429  -2.266  0.00  0.00     0.057 H 
ATOM     47  H   LIG d   1       3.331   0.728  -1.979  0.00  0.00     0.057 H 
ATOM     48  C   LIG d   1       3.424   0.033  -4.553  0.00  0.00     0.060 C 
ATOM     49  C   LIG d   1       4.885  -0.418  -4.609  0.00  0.00     0.022 C 
ATOM     50  H   LIG d   1       3.011   0.068  -5.572  0.00  0.00     0.057 H 
ATOM     51  H   LIG d   1       2.844  -0.678  -3.946  0.00  0.00     0.057 H 
ATOM     52  H   LIG d   1       5.455   0.262  -5.260  0.00  0.00     0.045 H 
ATOM     53  H   LIG d   1       4.940  -1.440  -5.009  0.00  0.00     0.045 H 
ENDBRANCH  37  40
ENDBRANCH  34  37
ENDBRANCH  32  34
ENDBRANCH  24  30
ENDBRANCH  12  24
BRANCH  10  54
ATOM     54  O   LIG d   1       9.686   3.988  -2.412  0.00  0.00    -0.391 OA
ATOM     55  H   LIG d   1      10.283   3.224  -1.892  0.00  0.00     0.210 HD
ENDBRANCH  10  54
BRANCH   1  56
ATOM     56  C   LIG d   1       9.918   6.177  -1.226  0.00  0.00    -0.060 C 
ATOM     57  H   LIG d   1       9.455   6.969  -0.618  0.00  0.00     0.023 H 
ATOM     58  H   LIG d   1      10.767   5.742  -0.675  0.00  0.00     0.023 H 
ATOM     59  H   LIG d   1       9.176   5.392  -1.433  0.00  0.00     0.023 H 
ENDBRANCH   1  56
BRANCH   7  60
ATOM     60  C   LIG d   1      11.791   6.473  -5.116  0.00  0.00    -0.059 C 
ATOM     61  H   LIG d   1      12.180   7.145  -5.896  0.00  0.00     0.024 H 
ATOM     62  H   LIG d   1      12.051   5.433  -5.365  0.00  0.00     0.024 H 
ATOM     63  H   LIG d   1      12.236   6.740  -4.146  0.00  0.00     0.024 H 
ENDBRANCH   7  60
BRANCH   3  64
ATOM     64  N   LIG d   1      10.654   8.965  -1.495  0.00  0.00    -0.312 N 
ATOM     65  C   LIG d   1       9.887   9.670  -0.641  0.00  0.00     0.216 C 
ATOM     66  O   LIG d   1       8.685   9.713  -0.799  0.00  0.00    -0.276 OA
ATOM     67  H   LIG d   1      11.744   8.926  -1.352  0.00  0.00     0.149 HD
BRANCH  65  68
ATOM     68  C   LIG d   1      10.521  10.406   0.511  0.00  0.00     0.036 C 
ATOM     69  C   LIG d   1      11.538   9.495   1.200  0.00  0.00    -0.042 C 
ATOM     70  C   LIG d   1      12.182  10.243   2.370  0.00  0.00    -0.052 C 
ATOM     71  H   LIG d   1      11.029   8.595   1.575  0.00  0.00     0.027 H 
ATOM     72  H   LIG d   1      12.316   9.203   0.479  0.00  0.00     0.027 H 
ATOM     73  C   LIG d   1      12.890  11.494   1.848  0.00  0.00    -0.053 C 
ATOM     74  H   LIG d   1      12.913   9.587   2.866  0.00  0.00     0.026 H 
ATOM     75  H   LIG d   1      11.404  10.534   3.091  0.00  0.00     0.026 H 
ATOM     76  C   LIG d   1      11.873  12.406   1.159  0.00  0.00    -0.052 C 
ATOM     77  H   LIG d   1      13.667  11.202   1.127  0.00  0.00     0.026 H 
ATOM     78  H   LIG d   1      13.352  12.031   2.689  0.00  0.00     0.026 H 
ATOM     79  C   LIG d   1      11.229  11.658  -0.011  0.00  0.00    -0.042 C 
ATOM     80  H   LIG d   1      12.381  13.305   0.784  0.00  0.00     0.026 H 
ATOM     81  H   LIG d   1      11.095  12.697   1.879  0.00  0.00     0.026 H 
ATOM     82  H   LIG d   1      12.007  11.366  -0.732  0.00  0.00     0.027 H 
ATOM     83  H   LIG d   1      10.498  12.313  -0.506  0.00  0.00     0.027 H 
ATOM     84  H   LIG d   1       9.732  10.693   1.222  0.00  0.00     0.039 H 
ENDBRANCH  65  68
ENDBRANCH   3  64
TORSDOF 11
ENDMDL
MODEL 3
REMARK VINA RESULT:      -6.1      5.088      6.714
REMARK  11 active torsions:
REMARK  status: ('A' for Active; 'I' for Inactive)
REMARK    1  A    between atoms: C_1  and  C_2 
REMARK    2  A    between atoms: C_4  and  N_33 
REMARK    3  A    between atoms: C_8  and  C_32 
REMARK    4  A    between atoms: C_11  and  O_31 
REMARK    5  A    between atoms: C_13  and  C_17 
REMARK    6  A    between atoms: C_17  and  C_19 
REMARK    7  A    between atoms: C_17  and  C_20 
REMARK       I    between atoms: C_20  and  N_22 
REMARK    8  A    between atoms: N_22  and  C_23 
REMARK    9  A    between atoms: C_23  and  C_24 
REMARK   10  A    between atoms: C_24  and  N_25 
REMARK       I    between atoms: N_33  and  C_34 
REMARK   11  A    between atoms: C_34  and  C_36 
ROOT
ATOM      1  C   LIG d   1       7.495   0.046  -4.965  0.00  0.00    -0.020 C 
ATOM      2  H   LIG d   1       6.845   0.400  -5.780  0.00  0.00     0.032 H 
ATOM      3  C   LIG d   1       7.636   1.146  -3.912  0.00  0.00     0.026 C 
ATOM      4  H   LIG d   1       8.315   0.827  -3.107  0.00  0.00     0.050 H 
ATOM      5  C   LIG d   1       6.257   1.492  -3.348  0.00  0.00    -0.034 C 
ATOM      6  C   LIG d   1       5.641   0.247  -2.706  0.00  0.00    -0.046 C 
ATOM      7  C   LIG d   1       5.500  -0.853  -3.761  0.00  0.00    -0.026 C 
ATOM      8  C   LIG d   1       6.879  -1.199  -4.325  0.00  0.00    -0.005 C 
ATOM      9  H   LIG d   1       7.530  -1.553  -3.511  0.00  0.00     0.033 H 
ATOM     10  C   LIG d   1       6.739  -2.298  -5.379  0.00  0.00     0.062 C 
ATOM     11  H   LIG d   1       6.142  -1.955  -6.236  0.00  0.00     0.060 H 
ATOM     12  C   LIG d   1       6.123  -3.544  -4.737  0.00  0.00    -0.004 C 
ATOM     13  H   LIG d   1       6.774  -3.897  -3.924  0.00  0.00     0.033 H 
ATOM     14  C   LIG d   1       4.743  -3.198  -4.174  0.00  0.00    -0.047 C 
ATOM     15  C   LIG d   1       4.884  -2.099  -3.120  0.00  0.00    -0.047 C 
ATOM     16  H   LIG d   1       6.358   2.283  -2.590  0.00  0.00     0.028 H 
ATOM     17  H   LIG d   1       5.606   1.845  -4.162  0.00  0.00     0.028 H 
ATOM     18  H   LIG d   1       6.291  -0.106  -1.893  0.00  0.00     0.027 H 
ATOM     19  H   LIG d   1       4.649   0.495  -2.301  0.00  0.00     0.027 H 
ATOM     20  H   LIG d   1       4.093  -2.846  -4.987  0.00  0.00     0.027 H 
ATOM     21  H   LIG d   1       4.301  -4.094  -3.713  0.00  0.00     0.027 H 
ATOM     22  H   LIG d   1       5.535  -2.451  -2.306  0.00  0.00     0.027 H 
ATOM     23  H   LIG d   1       3.892  -1.849  -2.714  0.00  0.00     0.027 H 
ENDROOT
BRANCH  12  24
ATOM     24  C   LIG d   1       5.983  -4.644  -5.792  0.00  0.00     0.038 C 
ATOM     25  H   LIG d   1       6.279  -4.257  -6.777  0.00  0.00     0.040 H 
BRANCH  24  26
ATOM     26  C   LIG d   1       4.531  -5.125  -5.836  0.00  0.00    -0.054 C 
ATOM     27  H   LIG d   1       4.348  -5.649  -6.786  0.00  0.00     0.024 H 
ATOM     28  H   LIG d   1       3.855  -4.261  -5.758  0.00  0.00     0.024 H 
ATOM     29  H   LIG d   1       4.346  -5.812  -4.996  0.00  0.00     0.024 H 
ENDBRANCH  24  26
BRANCH  24  30
ATOM     30  C   LIG d   1       6.884  -5.798  -5.436  0.00  0.00     0.216 C 
ATOM     31  O   LIG d   1       8.017  -5.589  -5.058  0.00  0.00    -0.276 OA
ATOM     32  N   LIG d   1       6.431  -7.063  -5.538  0.00  0.00    -0.314 N 
ATOM     33  H   LIG d   1       5.403  -7.253  -5.882  0.00  0.00     0.149 HD
BRANCH  32  34
ATOM     34  C   LIG d   1       7.306  -8.186  -5.193  0.00  0.00     0.024 C 
ATOM     35  H   LIG d   1       7.985  -8.393  -6.034  0.00  0.00     0.047 H 
ATOM     36  H   LIG d   1       7.896  -7.930  -4.300  0.00  0.00     0.047 H 
BRANCH  34  37
ATOM     37  C   LIG d   1       6.458  -9.426  -4.905  0.00  0.00     0.015 C 
ATOM     38  H   LIG d   1       5.392  -9.150  -4.908  0.00  0.00     0.044 H 
ATOM     39  H   LIG d   1       6.642 -10.184  -5.681  0.00  0.00     0.044 H 
BRANCH  37  40
ATOM     40  N   LIG d   1       6.819  -9.973  -3.591  0.00  0.00    -0.296 N 
ATOM     41  C   LIG d   1       7.704  -9.053  -2.862  0.00  0.00     0.022 C 
ATOM     42  C   LIG d   1       8.103  -9.686  -1.527  0.00  0.00     0.060 C 
ATOM     43  H   LIG d   1       8.605  -8.859  -3.462  0.00  0.00     0.045 H 
ATOM     44  H   LIG d   1       7.177  -8.105  -2.677  0.00  0.00     0.045 H 
ATOM     45  O   LIG d   1       6.922 -10.004  -0.784  0.00  0.00    -0.377 OA
ATOM     46  H   LIG d   1       8.718  -8.979  -0.952  0.00  0.00     0.057 H 
ATOM     47  H   LIG d   1       8.678 -10.605  -1.713  0.00  0.00     0.057 H 
ATOM     48  C   LIG d   1       6.038 -10.898  -1.465  0.00  0.00     0.060 C 
ATOM     49  C   LIG d   1       5.619 -10.277  -2.799  0.00  0.00     0.022 C 
ATOM     50  H   LIG d   1       5.146 -11.075  -0.846  0.00  0.00     0.057 H 
ATOM     51  H   LIG d   1       6.551 -11.854  -1.650  0.00  0.00     0.057 H 
ATOM     52  H   LIG d   1       5.057  -9.349  -2.613  0.00  0.00     0.045 H 
ATOM     53  H   LIG d   1       4.984 -10.985  -3.352  0.00  0.00     0.045 H 
ENDBRANCH  37  40
ENDBRANCH  34  37
ENDBRANCH  32  34
ENDBRANCH  24  30
ENDBRANCH  12  24
BRANCH  10  54
ATOM     54  O   LIG d   1       8.027  -2.622  -5.905  0.00  0.00    -0.391 OA
ATOM     55  H   LIG d   1       8.536  -3.544  -5.589  0.00  0.00     0.210 HD
ENDBRANCH  10  54
BRANCH   1  56
ATOM     56  C   LIG d   1       8.875  -0.299  -5.529  0.00  0.00    -0.060 C 
ATOM     57  H   LIG d   1       9.550  -0.577  -4.705  0.00  0.00     0.023 H 
ATOM     58  H   LIG d   1       9.284   0.574  -6.059  0.00  0.00     0.023 H 
ATOM     59  H   LIG d   1       8.784  -1.143  -6.229  0.00  0.00     0.023 H 
ENDBRANCH   1  56
BRANCH   7  60
ATOM     60  C   LIG d   1       4.595  -0.362  -4.893  0.00  0.00    -0.059 C 
ATOM     61  H   LIG d   1       5.209  -0.123  -5.774  0.00  0.00     0.024 H 
ATOM     62  H   LIG d   1       4.055   0.540  -4.566  0.00  0.00     0.024 H 
ATOM     63  H   LIG d   1       3.872  -1.149  -5.151  0.00  0.00     0.024 H 
ENDBRANCH   7  60
BRANCH   3  64
ATOM     64  N   LIG d   1       8.226   2.338  -4.526  0.00  0.00    -0.312 N 
ATOM     65  C   LIG d   1       9.360   2.865  -4.023  0.00  0.00     0.216 C 
ATOM     66  O   LIG d   1       9.893   2.351  -3.063  0.00  0.00    -0.276 OA
ATOM     67  H   LIG d   1       7.742   2.804  -5.397  0.00  0.00     0.149 HD
BRANCH  65  68
ATOM     68  C   LIG d   1       9.967   4.091  -4.654  0.00  0.00     0.036 C 
ATOM     69  C   LIG d   1       9.718   4.064  -6.163  0.00  0.00    -0.042 C 
ATOM     70  C   LIG d   1      10.335   5.309  -6.804  0.00  0.00    -0.052 C 
ATOM     71  H   LIG d   1      10.180   3.163  -6.594  0.00  0.00     0.027 H 
ATOM     72  H   LIG d   1       8.635   4.050  -6.357  0.00  0.00     0.027 H 
ATOM     73  C   LIG d   1       9.694   6.562  -6.205  0.00  0.00    -0.053 C 
ATOM     74  H   LIG d   1      10.157   5.290  -7.890  0.00  0.00     0.026 H 
ATOM     75  H   LIG d   1      11.418   5.322  -6.611  0.00  0.00     0.026 H 
ATOM     76  C   LIG d   1       9.942   6.590  -4.695  0.00  0.00    -0.052 C 
ATOM     77  H   LIG d   1       8.611   6.548  -6.398  0.00  0.00     0.026 H 
ATOM     78  H   LIG d   1      10.137   7.457  -6.665  0.00  0.00     0.026 H 
ATOM     79  C   LIG d   1       9.326   5.344  -4.054  0.00  0.00    -0.042 C 
ATOM     80  H   LIG d   1       9.481   7.490  -4.264  0.00  0.00     0.026 H 
ATOM     81  H   LIG d   1      11.024   6.603  -4.502  0.00  0.00     0.026 H 
ATOM     82  H   LIG d   1       8.243   5.330  -4.248  0.00  0.00     0.027 H 
ATOM     83  H   LIG d   1       9.504   5.364  -2.970  0.00  0.00     0.027 H 
ATOM     84  H   LIG d   1      11.048   4.092  -4.452  0.00  0.00     0.039 H 
ENDBRANCH  65  68
ENDBRANCH   3  64
TORSDOF 11
ENDMDL
MODEL 4
REMARK VINA RESULT:      -6.0      2.876      5.346
REMARK  11 active torsions:
REMARK  status: ('A' for Active; 'I' for Inactive)
REMARK    1  A    between atoms: C_1  and  C_2 
REMARK    2  A    between atoms: C_4  and  N_33 
REMARK    3  A    between atoms: C_8  and  C_32 
REMARK    4  A    between atoms: C_11  and  O_31 
REMARK    5  A    between atoms: C_13  and  C_17 
REMARK    6  A    between atoms: C_17  and  C_19 
REMARK    7  A    between atoms: C_17  and  C_20 
REMARK       I    between atoms: C_20  and  N_22 
REMARK    8  A    between atoms: N_22  and  C_23 
REMARK    9  A    between atoms: C_23  and  C_24 
REMARK   10  A    between atoms: C_24  and  N_25 
REMARK       I    between atoms: N_33  and  C_34 
REMARK   11  A    between atoms: C_34  and  C_36 
ROOT
ATOM      1  C   LIG d   1       7.094   0.129  -4.894  0.00  0.00    -0.020 C 
ATOM      2  H   LIG d   1       6.395   0.528  -5.645  0.00  0.00     0.032 H 
ATOM      3  C   LIG d   1       7.411   1.214  -3.865  0.00  0.00     0.026 C 
ATOM      4  H   LIG d   1       8.139   0.847  -3.127  0.00  0.00     0.050 H 
ATOM      5  C   LIG d   1       6.119   1.657  -3.174  0.00  0.00    -0.034 C 
ATOM      6  C   LIG d   1       5.481   0.457  -2.470  0.00  0.00    -0.046 C 
ATOM      7  C   LIG d   1       5.163  -0.629  -3.501  0.00  0.00    -0.026 C 
ATOM      8  C   LIG d   1       6.455  -1.071  -4.191  0.00  0.00    -0.005 C 
ATOM      9  H   LIG d   1       7.154  -1.470  -3.441  0.00  0.00     0.033 H 
ATOM     10  C   LIG d   1       6.138  -2.156  -5.221  0.00  0.00     0.062 C 
ATOM     11  H   LIG d   1       5.488  -1.770  -6.020  0.00  0.00     0.060 H 
ATOM     12  C   LIG d   1       5.501  -3.356  -4.518  0.00  0.00    -0.004 C 
ATOM     13  H   LIG d   1       6.199  -3.755  -3.768  0.00  0.00     0.033 H 
ATOM     14  C   LIG d   1       4.208  -2.914  -3.828  0.00  0.00    -0.047 C 
ATOM     15  C   LIG d   1       4.526  -1.829  -2.797  0.00  0.00    -0.047 C 
ATOM     16  H   LIG d   1       6.347   2.437  -2.434  0.00  0.00     0.028 H 
ATOM     17  H   LIG d   1       5.420   2.055  -3.925  0.00  0.00     0.028 H 
ATOM     18  H   LIG d   1       6.179   0.058  -1.721  0.00  0.00     0.027 H 
ATOM     19  H   LIG d   1       4.553   0.774  -1.974  0.00  0.00     0.027 H 
ATOM     20  H   LIG d   1       3.510  -2.516  -4.578  0.00  0.00     0.027 H 
ATOM     21  H   LIG d   1       3.750  -3.777  -3.322  0.00  0.00     0.027 H 
ATOM     22  H   LIG d   1       5.224  -2.228  -2.048  0.00  0.00     0.027 H 
ATOM     23  H   LIG d   1       3.597  -1.511  -2.301  0.00  0.00     0.027 H 
ENDROOT
BRANCH  12  24
ATOM     24  C   LIG d   1       5.183  -4.442  -5.548  0.00  0.00     0.038 C 
ATOM     25  H   LIG d   1       4.255  -4.962  -5.269  0.00  0.00     0.040 H 
BRANCH  24  26
ATOM     26  C   LIG d   1       6.341  -5.440  -5.609  0.00  0.00    -0.054 C 
ATOM     27  H   LIG d   1       6.405  -5.984  -4.655  0.00  0.00     0.024 H 
ATOM     28  H   LIG d   1       7.282  -4.900  -5.787  0.00  0.00     0.024 H 
ATOM     29  H   LIG d   1       6.167  -6.155  -6.428  0.00  0.00     0.024 H 
ENDBRANCH  24  26
BRANCH  24  30
ATOM     30  C   LIG d   1       4.993  -3.809  -6.902  0.00  0.00     0.216 C 
ATOM     31  O   LIG d   1       5.792  -4.021  -7.789  0.00  0.00    -0.276 OA
ATOM     32  N   LIG d   1       3.933  -3.007  -7.128  0.00  0.00    -0.314 N 
ATOM     33  H   LIG d   1       3.208  -2.814  -6.323  0.00  0.00     0.149 HD
BRANCH  32  34
ATOM     34  C   LIG d   1       3.747  -2.391  -8.444  0.00  0.00     0.024 C 
ATOM     35  H   LIG d   1       4.727  -2.240  -8.920  0.00  0.00     0.047 H 
ATOM     36  H   LIG d   1       3.131  -3.051  -9.073  0.00  0.00     0.047 H 
BRANCH  34  37
ATOM     37  C   LIG d   1       3.046  -1.041  -8.282  0.00  0.00     0.015 C 
ATOM     38  H   LIG d   1       2.014  -1.117  -8.657  0.00  0.00     0.044 H 
ATOM     39  H   LIG d   1       3.029  -0.763  -7.217  0.00  0.00     0.044 H 
BRANCH  37  40
ATOM     40  N   LIG d   1       3.771  -0.017  -9.045  0.00  0.00    -0.296 N 
ATOM     41  C   LIG d   1       3.021   1.247  -9.077  0.00  0.00     0.022 C 
ATOM     42  C   LIG d   1       3.782   2.265  -9.929  0.00  0.00     0.060 C 
ATOM     43  H   LIG d   1       2.026   1.071  -9.512  0.00  0.00     0.045 H 
ATOM     44  H   LIG d   1       2.910   1.633  -8.053  0.00  0.00     0.045 H 
ATOM     45  O   LIG d   1       5.101   2.431  -9.401  0.00  0.00    -0.377 OA
ATOM     46  H   LIG d   1       3.255   3.230  -9.910  0.00  0.00     0.057 H 
ATOM     47  H   LIG d   1       3.845   1.903 -10.966  0.00  0.00     0.057 H 
ATOM     48  C   LIG d   1       5.859   1.220  -9.356  0.00  0.00     0.060 C 
ATOM     49  C   LIG d   1       5.119   0.191  -8.498  0.00  0.00     0.022 C 
ATOM     50  H   LIG d   1       6.848   1.421  -8.917  0.00  0.00     0.057 H 
ATOM     51  H   LIG d   1       5.984   0.825 -10.375  0.00  0.00     0.057 H 
ATOM     52  H   LIG d   1       5.042   0.561  -7.464  0.00  0.00     0.045 H 
ATOM     53  H   LIG d   1       5.670  -0.761  -8.506  0.00  0.00     0.045 H 
ENDBRANCH  37  40
ENDBRANCH  34  37
ENDBRANCH  32  34
ENDBRANCH  24  30
ENDBRANCH  12  24
BRANCH  10  54
ATOM     54  O   LIG d   1       7.345  -2.569  -5.866  0.00  0.00    -0.391 OA
ATOM     55  H   LIG d   1       8.317  -2.213  -5.495  0.00  0.00     0.210 HD
ENDBRANCH  10  54
BRANCH   1  56
ATOM     56  C   LIG d   1       8.385  -0.312  -5.585  0.00  0.00    -0.060 C 
ATOM     57  H   LIG d   1       8.615   0.378  -6.411  0.00  0.00     0.023 H 
ATOM     58  H   LIG d   1       8.260  -1.330  -5.982  0.00  0.00     0.023 H 
ATOM     59  H   LIG d   1       9.211  -0.302  -4.858  0.00  0.00     0.023 H 
ENDBRANCH   1  56
BRANCH   7  60
ATOM     60  C   LIG d   1       4.192  -0.074  -4.544  0.00  0.00    -0.059 C 
ATOM     61  H   LIG d   1       4.079  -0.801  -5.363  0.00  0.00     0.024 H 
ATOM     62  H   LIG d   1       4.586   0.872  -4.946  0.00  0.00     0.024 H 
ATOM     63  H   LIG d   1       3.214   0.106  -4.075  0.00  0.00     0.024 H 
ENDBRANCH   7  60
BRANCH   3  64
ATOM     64  N   LIG d   1       8.022   2.364  -4.539  0.00  0.00    -0.312 N 
ATOM     65  C   LIG d   1       9.202   2.849  -4.106  0.00  0.00     0.216 C 
ATOM     66  O   LIG d   1       9.759   2.335  -3.160  0.00  0.00    -0.276 OA
ATOM     67  H   LIG d   1       7.516   2.829  -5.397  0.00  0.00     0.149 HD
BRANCH  65  68
ATOM     68  C   LIG d   1       9.831   4.030  -4.799  0.00  0.00     0.036 C 
ATOM     69  C   LIG d   1       9.604   3.918  -6.307  0.00  0.00    -0.042 C 
ATOM     70  C   LIG d   1      10.243   5.117  -7.010  0.00  0.00    -0.052 C 
ATOM     71  H   LIG d   1      10.062   2.988  -6.678  0.00  0.00     0.027 H 
ATOM     72  H   LIG d   1       8.524   3.902  -6.516  0.00  0.00     0.027 H 
ATOM     73  C   LIG d   1       9.606   6.409  -6.495  0.00  0.00    -0.053 C 
ATOM     74  H   LIG d   1      10.081   5.036  -8.096  0.00  0.00     0.026 H 
ATOM     75  H   LIG d   1      11.323   5.131  -6.802  0.00  0.00     0.026 H 
ATOM     76  C   LIG d   1       9.833   6.523  -4.986  0.00  0.00    -0.052 C 
ATOM     77  H   LIG d   1       8.526   6.393  -6.703  0.00  0.00     0.026 H 
ATOM     78  H   LIG d   1      10.065   7.271  -7.001  0.00  0.00     0.026 H 
ATOM     79  C   LIG d   1       9.194   5.322  -4.283  0.00  0.00    -0.042 C 
ATOM     80  H   LIG d   1       9.375   7.451  -4.615  0.00  0.00     0.026 H 
ATOM     81  H   LIG d   1      10.912   6.537  -4.777  0.00  0.00     0.026 H 
ATOM     82  H   LIG d   1       8.114   5.308  -4.492  0.00  0.00     0.027 H 
ATOM     83  H   LIG d   1       9.357   5.404  -3.199  0.00  0.00     0.027 H 
ATOM     84  H   LIG d   1      10.909   4.033  -4.581  0.00  0.00     0.039 H 
ENDBRANCH  65  68
ENDBRANCH   3  64
TORSDOF 11
ENDMDL
MODEL 5
REMARK VINA RESULT:      -6.0      5.648      8.704
REMARK  11 active torsions:
REMARK  status: ('A' for Active; 'I' for Inactive)
REMARK    1  A    between atoms: C_1  and  C_2 
REMARK    2  A    between atoms: C_4  and  N_33 
REMARK    3  A    between atoms: C_8  and  C_32 
REMARK    4  A    between atoms: C_11  and  O_31 
REMARK    5  A    between atoms: C_13  and  C_17 
REMARK    6  A    between atoms: C_17  and  C_19 
REMARK    7  A    between atoms: C_17  and  C_20 
REMARK       I    between atoms: C_20  and  N_22 
REMARK    8  A    between atoms: N_22  and  C_23 
REMARK    9  A    between atoms: C_23  and  C_24 
REMARK   10  A    between atoms: C_24  and  N_25 
REMARK       I    between atoms: N_33  and  C_34 
REMARK   11  A    between atoms: C_34  and  C_36 
ROOT
ATOM      1  C   LIG d   1       4.311  -1.319  -9.057  0.00  0.00    -0.020 C 
ATOM      2  H   LIG d   1       5.388  -1.538  -9.126  0.00  0.00     0.032 H 
ATOM      3  C   LIG d   1       4.106   0.011  -8.331  0.00  0.00     0.026 C 
ATOM      4  H   LIG d   1       3.034   0.229  -8.217  0.00  0.00     0.050 H 
ATOM      5  C   LIG d   1       4.804   1.129  -9.108  0.00  0.00    -0.034 C 
ATOM      6  C   LIG d   1       4.210   1.220 -10.516  0.00  0.00    -0.046 C 
ATOM      7  C   LIG d   1       4.415  -0.112 -11.242  0.00  0.00    -0.026 C 
ATOM      8  C   LIG d   1       3.718  -1.230 -10.464  0.00  0.00    -0.005 C 
ATOM      9  H   LIG d   1       2.641  -1.012 -10.395  0.00  0.00     0.033 H 
ATOM     10  C   LIG d   1       3.923  -2.561 -11.190  0.00  0.00     0.062 C 
ATOM     11  H   LIG d   1       4.987  -2.837 -11.223  0.00  0.00     0.060 H 
ATOM     12  C   LIG d   1       3.329  -2.471 -12.597  0.00  0.00    -0.004 C 
ATOM     13  H   LIG d   1       2.253  -2.254 -12.528  0.00  0.00     0.033 H 
ATOM     14  C   LIG d   1       4.027  -1.354 -13.375  0.00  0.00    -0.047 C 
ATOM     15  C   LIG d   1       3.821  -0.023 -12.649  0.00  0.00    -0.047 C 
ATOM     16  H   LIG d   1       4.656   2.086  -8.587  0.00  0.00     0.028 H 
ATOM     17  H   LIG d   1       5.880   0.911  -9.178  0.00  0.00     0.028 H 
ATOM     18  H   LIG d   1       3.134   1.437 -10.447  0.00  0.00     0.027 H 
ATOM     19  H   LIG d   1       4.711   2.023 -11.075  0.00  0.00     0.027 H 
ATOM     20  H   LIG d   1       5.102  -1.572 -13.445  0.00  0.00     0.027 H 
ATOM     21  H   LIG d   1       3.600  -1.290 -14.386  0.00  0.00     0.027 H 
ATOM     22  H   LIG d   1       2.746   0.195 -12.579  0.00  0.00     0.027 H 
ATOM     23  H   LIG d   1       4.323   0.782 -13.208  0.00  0.00     0.027 H 
ENDROOT
BRANCH  12  24
ATOM     24  C   LIG d   1       3.534  -3.803 -13.323  0.00  0.00     0.038 C 
ATOM     25  H   LIG d   1       4.133  -4.481 -12.698  0.00  0.00     0.040 H 
BRANCH  24  26
ATOM     26  C   LIG d   1       4.248  -3.553 -14.652  0.00  0.00    -0.054 C 
ATOM     27  H   LIG d   1       5.218  -4.073 -14.650  0.00  0.00     0.024 H 
ATOM     28  H   LIG d   1       4.412  -2.474 -14.785  0.00  0.00     0.024 H 
ATOM     29  H   LIG d   1       3.630  -3.935 -15.479  0.00  0.00     0.024 H 
ENDBRANCH  24  26
BRANCH  24  30
ATOM     30  C   LIG d   1       2.195  -4.444 -13.584  0.00  0.00     0.216 C 
ATOM     31  O   LIG d   1       1.867  -4.724 -14.716  0.00  0.00    -0.276 OA
ATOM     32  N   LIG d   1       1.363  -4.706 -12.557  0.00  0.00    -0.314 N 
ATOM     33  H   LIG d   1       1.661  -4.452 -11.528  0.00  0.00     0.149 HD
BRANCH  32  34
ATOM     34  C   LIG d   1       0.061  -5.329 -12.808  0.00  0.00     0.024 C 
ATOM     35  H   LIG d   1      -0.112  -5.390 -13.893  0.00  0.00     0.047 H 
ATOM     36  H   LIG d   1       0.051  -6.342 -12.378  0.00  0.00     0.047 H 
BRANCH  34  37
ATOM     37  C   LIG d   1      -1.041  -4.489 -12.162  0.00  0.00     0.015 C 
ATOM     38  H   LIG d   1      -0.588  -3.649 -11.613  0.00  0.00     0.044 H 
ATOM     39  H   LIG d   1      -1.709  -4.097 -12.944  0.00  0.00     0.044 H 
BRANCH  37  40
ATOM     40  N   LIG d   1      -1.813  -5.324 -11.232  0.00  0.00    -0.296 N 
ATOM     41  C   LIG d   1      -1.030  -5.631 -10.026  0.00  0.00     0.022 C 
ATOM     42  C   LIG d   1      -1.846  -6.549  -9.113  0.00  0.00     0.060 C 
ATOM     43  H   LIG d   1      -0.095  -6.134 -10.315  0.00  0.00     0.045 H 
ATOM     44  H   LIG d   1      -0.793  -4.697  -9.494  0.00  0.00     0.045 H 
ATOM     45  O   LIG d   1      -3.092  -5.919  -8.804  0.00  0.00    -0.377 OA
ATOM     46  H   LIG d   1      -1.289  -6.735  -8.184  0.00  0.00     0.057 H 
ATOM     47  H   LIG d   1      -2.035  -7.504  -9.626  0.00  0.00     0.057 H 
ATOM     48  C   LIG d   1      -3.880  -5.606  -9.955  0.00  0.00     0.060 C 
ATOM     49  C   LIG d   1      -3.084  -4.679 -10.876  0.00  0.00     0.022 C 
ATOM     50  H   LIG d   1      -4.808  -5.104  -9.641  0.00  0.00     0.057 H 
ATOM     51  H   LIG d   1      -4.130  -6.532 -10.494  0.00  0.00     0.057 H 
ATOM     52  H   LIG d   1      -2.882  -3.729 -10.357  0.00  0.00     0.045 H 
ATOM     53  H   LIG d   1      -3.663  -4.481 -11.790  0.00  0.00     0.045 H 
ENDBRANCH  37  40
ENDBRANCH  34  37
ENDBRANCH  32  34
ENDBRANCH  24  30
ENDBRANCH  12  24
BRANCH  10  54
ATOM     54  O   LIG d   1       3.272  -3.605 -10.464  0.00  0.00    -0.391 OA
ATOM     55  H   LIG d   1       3.853  -4.256  -9.794  0.00  0.00     0.210 HD
ENDBRANCH  10  54
BRANCH   1  56
ATOM     56  C   LIG d   1       3.614  -2.437  -8.279  0.00  0.00    -0.060 C 
ATOM     57  H   LIG d   1       4.367  -3.144  -7.899  0.00  0.00     0.023 H 
ATOM     58  H   LIG d   1       2.916  -2.967  -8.945  0.00  0.00     0.023 H 
ATOM     59  H   LIG d   1       3.057  -2.004  -7.435  0.00  0.00     0.023 H 
ENDBRANCH   1  56
BRANCH   7  60
ATOM     60  C   LIG d   1       5.912  -0.415 -11.338  0.00  0.00    -0.059 C 
ATOM     61  H   LIG d   1       6.258  -0.857 -10.392  0.00  0.00     0.024 H 
ATOM     62  H   LIG d   1       6.463   0.518 -11.530  0.00  0.00     0.024 H 
ATOM     63  H   LIG d   1       6.090  -1.122 -12.161  0.00  0.00     0.024 H 
ENDBRANCH   7  60
BRANCH   3  64
ATOM     64  N   LIG d   1       4.675  -0.075  -6.984  0.00  0.00    -0.312 N 
ATOM     65  C   LIG d   1       3.871   0.018  -5.906  0.00  0.00     0.216 C 
ATOM     66  O   LIG d   1       2.678   0.172  -6.051  0.00  0.00    -0.276 OA
ATOM     67  H   LIG d   1       5.758  -0.214  -6.852  0.00  0.00     0.149 HD
BRANCH  65  68
ATOM     68  C   LIG d   1       4.456  -0.070  -4.520  0.00  0.00     0.036 C 
ATOM     69  C   LIG d   1       3.469   0.518  -3.511  0.00  0.00    -0.042 C 
ATOM     70  C   LIG d   1       4.063   0.428  -2.104  0.00  0.00    -0.052 C 
ATOM     71  H   LIG d   1       3.275   1.572  -3.760  0.00  0.00     0.027 H 
ATOM     72  H   LIG d   1       2.526  -0.047  -3.547  0.00  0.00     0.027 H 
ATOM     73  C   LIG d   1       4.333  -1.037  -1.757  0.00  0.00    -0.053 C 
ATOM     74  H   LIG d   1       3.353   0.852  -1.377  0.00  0.00     0.026 H 
ATOM     75  H   LIG d   1       5.006   0.994  -2.067  0.00  0.00     0.026 H 
ATOM     76  C   LIG d   1       5.322  -1.626  -2.766  0.00  0.00    -0.052 C 
ATOM     77  H   LIG d   1       3.391  -1.602  -1.794  0.00  0.00     0.026 H 
ATOM     78  H   LIG d   1       4.761  -1.101  -0.745  0.00  0.00     0.026 H 
ATOM     79  C   LIG d   1       4.727  -1.536  -4.173  0.00  0.00    -0.042 C 
ATOM     80  H   LIG d   1       5.516  -2.679  -2.517  0.00  0.00     0.026 H 
ATOM     81  H   LIG d   1       6.264  -1.060  -2.730  0.00  0.00     0.026 H 
ATOM     82  H   LIG d   1       3.784  -2.102  -4.209  0.00  0.00     0.027 H 
ATOM     83  H   LIG d   1       5.437  -1.959  -4.898  0.00  0.00     0.027 H 
ATOM     84  H   LIG d   1       5.398   0.498  -4.498  0.00  0.00     0.039 H 
ENDBRANCH  65  68
ENDBRANCH   3  64
TORSDOF 11
ENDMDL
MODEL 6
REMARK VINA RESULT:      -5.7      5.395      7.126
REMARK  11 active torsions:
REMARK  status: ('A' for Active; 'I' for Inactive)
REMARK    1  A    between atoms: C_1  and  C_2 
REMARK    2  A    between atoms: C_4  and  N_33 
REMARK    3  A    between atoms: C_8  and  C_32 
REMARK    4  A    between atoms: C_11  and  O_31 
REMARK    5  A    between atoms: C_13  and  C_17 
REMARK    6  A    between atoms: C_17  and  C_19 
REMARK    7  A    between atoms: C_17  and  C_20 
REMARK       I    between atoms: C_20  and  N_22 
REMARK    8  A    between atoms: N_22  and  C_23 
REMARK    9  A    between atoms: C_23  and  C_24 
REMARK   10  A    between atoms: C_24  and  N_25 
REMARK       I    between atoms: N_33  and  C_34 
REMARK   11  A    between atoms: C_34  and  C_36 
ROOT
ATOM      1  C   LIG d   1       6.993   0.094  -4.988  0.00  0.00    -0.020 C 
ATOM      2  H   LIG d   1       6.239   0.480  -5.691  0.00  0.00     0.032 H 
ATOM      3  C   LIG d   1       7.192   1.098  -3.852  0.00  0.00     0.026 C 
ATOM      4  H   LIG d   1       7.971   0.750  -3.159  0.00  0.00     0.050 H 
ATOM      5  C   LIG d   1       5.867   1.303  -3.114  0.00  0.00    -0.034 C 
ATOM      6  C   LIG d   1       5.393  -0.033  -2.538  0.00  0.00    -0.046 C 
ATOM      7  C   LIG d   1       5.195  -1.038  -3.675  0.00  0.00    -0.026 C 
ATOM      8  C   LIG d   1       6.519  -1.242  -4.413  0.00  0.00    -0.005 C 
ATOM      9  H   LIG d   1       7.275  -1.627  -3.711  0.00  0.00     0.033 H 
ATOM     10  C   LIG d   1       6.321  -2.245  -5.549  0.00  0.00     0.062 C 
ATOM     11  H   LIG d   1       5.616  -1.863  -6.301  0.00  0.00     0.060 H 
ATOM     12  C   LIG d   1       5.848  -3.581  -4.973  0.00  0.00    -0.004 C 
ATOM     13  H   LIG d   1       6.603  -3.966  -4.272  0.00  0.00     0.033 H 
ATOM     14  C   LIG d   1       4.523  -3.378  -4.236  0.00  0.00    -0.047 C 
ATOM     15  C   LIG d   1       4.721  -2.374  -3.099  0.00  0.00    -0.047 C 
ATOM     16  H   LIG d   1       6.010   2.024  -2.297  0.00  0.00     0.028 H 
ATOM     17  H   LIG d   1       5.112   1.687  -3.816  0.00  0.00     0.028 H 
ATOM     18  H   LIG d   1       6.148  -0.418  -1.836  0.00  0.00     0.027 H 
ATOM     19  H   LIG d   1       4.441   0.113  -2.008  0.00  0.00     0.027 H 
ATOM     20  H   LIG d   1       3.768  -2.993  -4.937  0.00  0.00     0.027 H 
ATOM     21  H   LIG d   1       4.182  -4.338  -3.822  0.00  0.00     0.027 H 
ATOM     22  H   LIG d   1       5.476  -2.758  -2.397  0.00  0.00     0.027 H 
ATOM     23  H   LIG d   1       3.769  -2.226  -2.568  0.00  0.00     0.027 H 
ENDROOT
BRANCH  12  24
ATOM     24  C   LIG d   1       5.649  -4.586  -6.111  0.00  0.00     0.038 C 
ATOM     25  H   LIG d   1       6.222  -4.269  -6.994  0.00  0.00     0.040 H 
BRANCH  24  26
ATOM     26  C   LIG d   1       4.162  -4.675  -6.458  0.00  0.00    -0.054 C 
ATOM     27  H   LIG d   1       3.649  -3.769  -6.102  0.00  0.00     0.024 H 
ATOM     28  H   LIG d   1       3.724  -5.559  -5.972  0.00  0.00     0.024 H 
ATOM     29  H   LIG d   1       4.044  -4.759  -7.549  0.00  0.00     0.024 H 
ENDBRANCH  24  26
BRANCH  24  30
ATOM     30  C   LIG d   1       6.147  -5.941  -5.676  0.00  0.00     0.216 C 
ATOM     31  O   LIG d   1       7.279  -6.067  -5.262  0.00  0.00    -0.276 OA
ATOM     32  N   LIG d   1       5.331  -7.012  -5.747  0.00  0.00    -0.314 N 
ATOM     33  H   LIG d   1       4.304  -6.897  -6.123  0.00  0.00     0.149 HD
BRANCH  32  34
ATOM     34  C   LIG d   1       5.813  -8.329  -5.324  0.00  0.00     0.024 C 
ATOM     35  H   LIG d   1       6.183  -8.882  -6.201  0.00  0.00     0.047 H 
ATOM     36  H   LIG d   1       6.630  -8.205  -4.597  0.00  0.00     0.047 H 
BRANCH  34  37
ATOM     37  C   LIG d   1       4.668  -9.109  -4.676  0.00  0.00     0.015 C 
ATOM     38  H   LIG d   1       4.553  -8.788  -3.629  0.00  0.00     0.044 H 
ATOM     39  H   LIG d   1       3.734  -8.912  -5.224  0.00  0.00     0.044 H 
BRANCH  37  40
ATOM     40  N   LIG d   1       4.968 -10.546  -4.718  0.00  0.00    -0.296 N 
ATOM     41  C   LIG d   1       4.464 -11.154  -5.958  0.00  0.00     0.022 C 
ATOM     42  C   LIG d   1       4.744 -12.658  -5.934  0.00  0.00     0.060 C 
ATOM     43  H   LIG d   1       3.380 -10.981  -6.037  0.00  0.00     0.045 H 
ATOM     44  H   LIG d   1       4.971 -10.698  -6.822  0.00  0.00     0.045 H 
ATOM     45  O   LIG d   1       6.146 -12.874  -5.756  0.00  0.00    -0.377 OA
ATOM     46  H   LIG d   1       4.421 -13.108  -6.884  0.00  0.00     0.057 H 
ATOM     47  H   LIG d   1       4.192 -13.121  -5.103  0.00  0.00     0.057 H 
ATOM     48  C   LIG d   1       6.670 -12.296  -4.558  0.00  0.00     0.060 C 
ATOM     49  C   LIG d   1       6.409 -10.788  -4.568  0.00  0.00     0.022 C 
ATOM     50  H   LIG d   1       7.753 -12.481  -4.502  0.00  0.00     0.057 H 
ATOM     51  H   LIG d   1       6.176 -12.747  -3.684  0.00  0.00     0.057 H 
ATOM     52  H   LIG d   1       6.949 -10.327  -5.409  0.00  0.00     0.045 H 
ATOM     53  H   LIG d   1       6.759 -10.347  -3.623  0.00  0.00     0.045 H 
ENDBRANCH  37  40
ENDBRANCH  34  37
ENDBRANCH  32  34
ENDBRANCH  24  30
ENDBRANCH  12  24
BRANCH  10  54
ATOM     54  O   LIG d   1       7.558  -2.436  -6.238  0.00  0.00    -0.391 OA
ATOM     55  H   LIG d   1       7.641  -2.177  -7.304  0.00  0.00     0.210 HD
ENDBRANCH  10  54
BRANCH   1  56
ATOM     56  C   LIG d   1       8.318  -0.109  -5.726  0.00  0.00    -0.060 C 
ATOM     57  H   LIG d   1       8.487  -1.185  -5.888  0.00  0.00     0.023 H 
ATOM     58  H   LIG d   1       9.141   0.305  -5.124  0.00  0.00     0.023 H 
ATOM     59  H   LIG d   1       8.280   0.406  -6.697  0.00  0.00     0.023 H 
ENDBRANCH   1  56
BRANCH   7  60
ATOM     60  C   LIG d   1       4.145  -0.502  -4.651  0.00  0.00    -0.059 C 
ATOM     61  H   LIG d   1       4.552  -0.520  -5.673  0.00  0.00     0.024 H 
ATOM     62  H   LIG d   1       3.884   0.531  -4.378  0.00  0.00     0.024 H 
ATOM     63  H   LIG d   1       3.245  -1.132  -4.603  0.00  0.00     0.024 H 
ENDBRANCH   7  60
BRANCH   3  64
ATOM     64  N   LIG d   1       7.645   2.378  -4.404  0.00  0.00    -0.312 N 
ATOM     65  C   LIG d   1       8.776   2.948  -3.943  0.00  0.00     0.216 C 
ATOM     66  O   LIG d   1       9.419   2.401  -3.072  0.00  0.00    -0.276 OA
ATOM     67  H   LIG d   1       7.062   2.873  -5.194  0.00  0.00     0.149 HD
BRANCH  65  68
ATOM     68  C   LIG d   1       9.243   4.263  -4.511  0.00  0.00     0.036 C 
ATOM     69  C   LIG d   1      10.103   4.989  -3.476  0.00  0.00    -0.042 C 
ATOM     70  C   LIG d   1      10.576   6.325  -4.052  0.00  0.00    -0.052 C 
ATOM     71  H   LIG d   1       9.508   5.172  -2.568  0.00  0.00     0.027 H 
ATOM     72  H   LIG d   1      10.976   4.369  -3.223  0.00  0.00     0.027 H 
ATOM     73  C   LIG d   1      11.404   6.071  -5.314  0.00  0.00    -0.053 C 
ATOM     74  H   LIG d   1      11.195   6.848  -3.307  0.00  0.00     0.026 H 
ATOM     75  H   LIG d   1       9.704   6.946  -4.304  0.00  0.00     0.026 H 
ATOM     76  C   LIG d   1      10.544   5.345  -6.350  0.00  0.00    -0.052 C 
ATOM     77  H   LIG d   1      12.276   5.451  -5.061  0.00  0.00     0.026 H 
ATOM     78  H   LIG d   1      11.744   7.032  -5.728  0.00  0.00     0.026 H 
ATOM     79  C   LIG d   1      10.070   4.009  -5.773  0.00  0.00    -0.042 C 
ATOM     80  H   LIG d   1      11.138   5.163  -7.257  0.00  0.00     0.026 H 
ATOM     81  H   LIG d   1       9.671   5.965  -6.602  0.00  0.00     0.026 H 
ATOM     82  H   LIG d   1      10.943   3.389  -5.521  0.00  0.00     0.027 H 
ATOM     83  H   LIG d   1       9.452   3.487  -6.517  0.00  0.00     0.027 H 
ATOM     84  H   LIG d   1       8.361   4.872  -4.759  0.00  0.00     0.039 H 
ENDBRANCH  65  68
ENDBRANCH   3  64
TORSDOF 11
ENDMDL
MODEL 7
REMARK VINA RESULT:      -5.6      3.332      8.645
REMARK  11 active torsions:
REMARK  status: ('A' for Active; 'I' for Inactive)
REMARK    1  A    between atoms: C_1  and  C_2 
REMARK    2  A    between atoms: C_4  and  N_33 
REMARK    3  A    between atoms: C_8  and  C_32 
REMARK    4  A    between atoms: C_11  and  O_31 
REMARK    5  A    between atoms: C_13  and  C_17 
REMARK    6  A    between atoms: C_17  and  C_19 
REMARK    7  A    between atoms: C_17  and  C_20 
REMARK       I    between atoms: C_20  and  N_22 
REMARK    8  A    between atoms: N_22  and  C_23 
REMARK    9  A    between atoms: C_23  and  C_24 
REMARK   10  A    between atoms: C_24  and  N_25 
REMARK       I    between atoms: N_33  and  C_34 
REMARK   11  A    between atoms: C_34  and  C_36 
ROOT
ATOM      1  C   LIG d   1       9.137   2.980  -5.277  0.00  0.00    -0.020 C 
ATOM      2  H   LIG d   1       8.119   2.903  -5.689  0.00  0.00     0.032 H 
ATOM      3  C   LIG d   1       9.625   1.591  -4.864  0.00  0.00     0.026 C 
ATOM      4  H   LIG d   1      10.626   1.650  -4.412  0.00  0.00     0.050 H 
ATOM      5  C   LIG d   1       9.639   0.670  -6.086  0.00  0.00    -0.034 C 
ATOM      6  C   LIG d   1      10.579   1.247  -7.148  0.00  0.00    -0.046 C 
ATOM      7  C   LIG d   1      10.090   2.637  -7.561  0.00  0.00    -0.026 C 
ATOM      8  C   LIG d   1      10.076   3.557  -6.338  0.00  0.00    -0.005 C 
ATOM      9  H   LIG d   1      11.093   3.633  -5.925  0.00  0.00     0.033 H 
ATOM     10  C   LIG d   1       9.587   4.946  -6.750  0.00  0.00     0.062 C 
ATOM     11  H   LIG d   1       8.549   4.913  -7.112  0.00  0.00     0.060 H 
ATOM     12  C   LIG d   1      10.527   5.523  -7.811  0.00  0.00    -0.004 C 
ATOM     13  H   LIG d   1      11.543   5.600  -7.398  0.00  0.00     0.033 H 
ATOM     14  C   LIG d   1      10.540   4.604  -9.034  0.00  0.00    -0.047 C 
ATOM     15  C   LIG d   1      11.029   3.214  -8.621  0.00  0.00    -0.047 C 
ATOM     16  H   LIG d   1       9.991  -0.329  -5.790  0.00  0.00     0.028 H 
ATOM     17  H   LIG d   1       8.622   0.595  -6.500  0.00  0.00     0.028 H 
ATOM     18  H   LIG d   1      11.595   1.324  -6.735  0.00  0.00     0.027 H 
ATOM     19  H   LIG d   1      10.589   0.586  -8.026  0.00  0.00     0.027 H 
ATOM     20  H   LIG d   1       9.524   4.527  -9.447  0.00  0.00     0.027 H 
ATOM     21  H   LIG d   1      11.216   5.018  -9.797  0.00  0.00     0.027 H 
ATOM     22  H   LIG d   1      12.046   3.290  -8.208  0.00  0.00     0.027 H 
ATOM     23  H   LIG d   1      11.040   2.552  -9.500  0.00  0.00     0.027 H 
ENDROOT
BRANCH  12  24
ATOM     24  C   LIG d   1      10.038   6.913  -8.224  0.00  0.00     0.038 C 
ATOM     25  H   LIG d   1       8.982   7.037  -7.943  0.00  0.00     0.040 H 
BRANCH  24  26
ATOM     26  C   LIG d   1      10.197   7.081  -9.736  0.00  0.00    -0.054 C 
ATOM     27  H   LIG d   1       9.747   6.217 -10.249  0.00  0.00     0.024 H 
ATOM     28  H   LIG d   1      11.266   7.141  -9.989  0.00  0.00     0.024 H 
ATOM     29  H   LIG d   1       9.691   8.003 -10.059  0.00  0.00     0.024 H 
ENDBRANCH  24  26
BRANCH  24  30
ATOM     30  C   LIG d   1      10.853   7.963  -7.513  0.00  0.00     0.216 C 
ATOM     31  O   LIG d   1      11.752   7.633  -6.770  0.00  0.00    -0.276 OA
ATOM     32  N   LIG d   1      10.581   9.269  -7.704  0.00  0.00    -0.314 N 
ATOM     33  H   LIG d   1       9.764   9.569  -8.377  0.00  0.00     0.149 HD
BRANCH  32  34
ATOM     34  C   LIG d   1      11.372  10.291  -7.013  0.00  0.00     0.024 C 
ATOM     35  H   LIG d   1      11.896   9.834  -6.160  0.00  0.00     0.047 H 
ATOM     36  H   LIG d   1      12.110  10.717  -7.711  0.00  0.00     0.047 H 
BRANCH  34  37
ATOM     37  C   LIG d   1      10.447  11.400  -6.510  0.00  0.00     0.015 C 
ATOM     38  H   LIG d   1      11.031  12.321  -6.355  0.00  0.00     0.044 H 
ATOM     39  H   LIG d   1       9.659  11.587  -7.255  0.00  0.00     0.044 H 
BRANCH  37  40
ATOM     40  N   LIG d   1       9.835  10.989  -5.240  0.00  0.00    -0.296 N 
ATOM     41  C   LIG d   1      10.822  10.344  -4.363  0.00  0.00     0.022 C 
ATOM     42  C   LIG d   1      10.131   9.879  -3.079  0.00  0.00     0.060 C 
ATOM     43  H   LIG d   1      11.261   9.477  -4.880  0.00  0.00     0.045 H 
ATOM     44  H   LIG d   1      11.618  11.062  -4.114  0.00  0.00     0.045 H 
ATOM     45  O   LIG d   1       9.500  10.999  -2.451  0.00  0.00    -0.377 OA
ATOM     46  H   LIG d   1      10.875   9.447  -2.394  0.00  0.00     0.057 H 
ATOM     47  H   LIG d   1       9.373   9.120  -3.323  0.00  0.00     0.057 H 
ATOM     48  C   LIG d   1       8.532  11.651  -3.278  0.00  0.00     0.060 C 
ATOM     49  C   LIG d   1       9.207  12.133  -4.563  0.00  0.00     0.022 C 
ATOM     50  H   LIG d   1       8.109  12.512  -2.740  0.00  0.00     0.057 H 
ATOM     51  H   LIG d   1       7.726  10.945  -3.529  0.00  0.00     0.057 H 
ATOM     52  H   LIG d   1       9.976  12.881  -4.317  0.00  0.00     0.045 H 
ATOM     53  H   LIG d   1       8.456  12.585  -5.228  0.00  0.00     0.045 H 
ENDBRANCH  37  40
ENDBRANCH  34  37
ENDBRANCH  32  34
ENDBRANCH  24  30
ENDBRANCH  12  24
BRANCH  10  54
ATOM     54  O   LIG d   1       9.574   5.805  -5.608  0.00  0.00    -0.391 OA
ATOM     55  H   LIG d   1       9.541   5.376  -4.596  0.00  0.00     0.210 HD
ENDBRANCH  10  54
BRANCH   1  56
ATOM     56  C   LIG d   1       9.122   3.899  -4.054  0.00  0.00    -0.060 C 
ATOM     57  H   LIG d   1       9.090   4.948  -4.384  0.00  0.00     0.023 H 
ATOM     58  H   LIG d   1      10.031   3.731  -3.457  0.00  0.00     0.023 H 
ATOM     59  H   LIG d   1       8.236   3.679  -3.441  0.00  0.00     0.023 H 
ENDBRANCH   1  56
BRANCH   7  60
ATOM     60  C   LIG d   1       8.676   2.530  -8.135  0.00  0.00    -0.059 C 
ATOM     61  H   LIG d   1       8.279   3.540  -8.320  0.00  0.00     0.024 H 
ATOM     62  H   LIG d   1       8.027   2.007  -7.417  0.00  0.00     0.024 H 
ATOM     63  H   LIG d   1       8.706   1.969  -9.080  0.00  0.00     0.024 H 
ENDBRANCH   7  60
BRANCH   3  64
ATOM     64  N   LIG d   1       8.725   1.038  -3.848  0.00  0.00    -0.312 N 
ATOM     65  C   LIG d   1       7.438   0.783  -4.155  0.00  0.00     0.216 C 
ATOM     66  O   LIG d   1       7.024   1.011  -5.272  0.00  0.00    -0.276 OA
ATOM     67  H   LIG d   1       9.100   0.832  -2.835  0.00  0.00     0.149 HD
BRANCH  65  68
ATOM     68  C   LIG d   1       6.512   0.214  -3.110  0.00  0.00     0.036 C 
ATOM     69  C   LIG d   1       5.419   1.234  -2.787  0.00  0.00    -0.042 C 
ATOM     70  C   LIG d   1       4.480   0.656  -1.727  0.00  0.00    -0.052 C 
ATOM     71  H   LIG d   1       5.880   2.157  -2.405  0.00  0.00     0.027 H 
ATOM     72  H   LIG d   1       4.847   1.461  -3.699  0.00  0.00     0.027 H 
ATOM     73  C   LIG d   1       3.838  -0.627  -2.258  0.00  0.00    -0.053 C 
ATOM     74  H   LIG d   1       3.693   1.389  -1.493  0.00  0.00     0.026 H 
ATOM     75  H   LIG d   1       5.052   0.430  -0.814  0.00  0.00     0.026 H 
ATOM     76  C   LIG d   1       4.932  -1.648  -2.582  0.00  0.00    -0.052 C 
ATOM     77  H   LIG d   1       3.267  -0.401  -3.170  0.00  0.00     0.026 H 
ATOM     78  H   LIG d   1       3.163  -1.043  -1.496  0.00  0.00     0.026 H 
ATOM     79  C   LIG d   1       5.871  -1.069  -3.642  0.00  0.00    -0.042 C 
ATOM     80  H   LIG d   1       4.471  -2.570  -2.964  0.00  0.00     0.026 H 
ATOM     81  H   LIG d   1       5.504  -1.874  -1.670  0.00  0.00     0.026 H 
ATOM     82  H   LIG d   1       5.299  -0.843  -4.554  0.00  0.00     0.027 H 
ATOM     83  H   LIG d   1       6.657  -1.802  -3.875  0.00  0.00     0.027 H 
ATOM     84  H   LIG d   1       7.097  -0.008  -2.206  0.00  0.00     0.039 H 
ENDBRANCH  65  68
ENDBRANCH   3  64
TORSDOF 11
ENDMDL
MODEL 8
REMARK VINA RESULT:      -5.5      5.787     10.075
REMARK  11 active torsions:
REMARK  status: ('A' for Active; 'I' for Inactive)
REMARK    1  A    between atoms: C_1  and  C_2 
REMARK    2  A    between atoms: C_4  and  N_33 
REMARK    3  A    between atoms: C_8  and  C_32 
REMARK    4  A    between atoms: C_11  and  O_31 
REMARK    5  A    between atoms: C_13  and  C_17 
REMARK    6  A    between atoms: C_17  and  C_19 
REMARK    7  A    between atoms: C_17  and  C_20 
REMARK       I    between atoms: C_20  and  N_22 
REMARK    8  A    between atoms: N_22  and  C_23 
REMARK    9  A    between atoms: C_23  and  C_24 
REMARK   10  A    between atoms: C_24  and  N_25 
REMARK       I    between atoms: N_33  and  C_34 
REMARK   11  A    between atoms: C_34  and  C_36 
ROOT
ATOM      1  C   LIG d   1       5.188  -6.567  -6.567  0.00  0.00    -0.020 C 
ATOM      2  H   LIG d   1       4.500  -7.279  -7.048  0.00  0.00     0.032 H 
ATOM      3  C   LIG d   1       6.509  -7.268  -6.251  0.00  0.00     0.026 C 
ATOM      4  H   LIG d   1       7.197  -6.583  -5.734  0.00  0.00     0.050 H 
ATOM      5  C   LIG d   1       7.136  -7.784  -7.548  0.00  0.00    -0.034 C 
ATOM      6  C   LIG d   1       7.395  -6.608  -8.492  0.00  0.00    -0.046 C 
ATOM      7  C   LIG d   1       6.072  -5.906  -8.808  0.00  0.00    -0.026 C 
ATOM      8  C   LIG d   1       5.446  -5.391  -7.511  0.00  0.00    -0.005 C 
ATOM      9  H   LIG d   1       6.133  -4.679  -7.030  0.00  0.00     0.033 H 
ATOM     10  C   LIG d   1       4.124  -4.690  -7.826  0.00  0.00     0.062 C 
ATOM     11  H   LIG d   1       3.393  -5.391  -8.254  0.00  0.00     0.060 H 
ATOM     12  C   LIG d   1       4.382  -3.514  -8.770  0.00  0.00    -0.004 C 
ATOM     13  H   LIG d   1       5.069  -2.802  -8.289  0.00  0.00     0.033 H 
ATOM     14  C   LIG d   1       5.008  -4.030 -10.068  0.00  0.00    -0.047 C 
ATOM     15  C   LIG d   1       6.331  -4.730  -9.752  0.00  0.00    -0.047 C 
ATOM     16  H   LIG d   1       8.087  -8.288  -7.321  0.00  0.00     0.028 H 
ATOM     17  H   LIG d   1       6.449  -8.496  -8.029  0.00  0.00     0.028 H 
ATOM     18  H   LIG d   1       8.082  -5.896  -8.011  0.00  0.00     0.027 H 
ATOM     19  H   LIG d   1       7.846  -6.978  -9.424  0.00  0.00     0.027 H 
ATOM     20  H   LIG d   1       4.322  -4.741 -10.549  0.00  0.00     0.027 H 
ATOM     21  H   LIG d   1       5.194  -3.184 -10.746  0.00  0.00     0.027 H 
ATOM     22  H   LIG d   1       7.018  -4.019  -9.271  0.00  0.00     0.027 H 
ATOM     23  H   LIG d   1       6.782  -5.102 -10.684  0.00  0.00     0.027 H 
ENDROOT
BRANCH  12  24
ATOM     24  C   LIG d   1       3.059  -2.812  -9.086  0.00  0.00     0.038 C 
ATOM     25  H   LIG d   1       2.232  -3.331  -8.581  0.00  0.00     0.040 H 
BRANCH  24  26
ATOM     26  C   LIG d   1       2.830  -2.815 -10.598  0.00  0.00    -0.054 C 
ATOM     27  H   LIG d   1       2.550  -3.827 -10.925  0.00  0.00     0.024 H 
ATOM     28  H   LIG d   1       3.754  -2.508 -11.110  0.00  0.00     0.024 H 
ATOM     29  H   LIG d   1       2.021  -2.112 -10.848  0.00  0.00     0.024 H 
ENDBRANCH  24  26
BRANCH  24  30
ATOM     30  C   LIG d   1       3.114  -1.391  -8.587  0.00  0.00     0.216 C 
ATOM     31  O   LIG d   1       3.074  -0.470  -9.374  0.00  0.00    -0.276 OA
ATOM     32  N   LIG d   1       3.206  -1.145  -7.266  0.00  0.00    -0.314 N 
ATOM     33  H   LIG d   1       3.243  -1.981  -6.551  0.00  0.00     0.149 HD
BRANCH  32  34
ATOM     34  C   LIG d   1       3.259   0.236  -6.779  0.00  0.00     0.024 C 
ATOM     35  H   LIG d   1       4.288   0.616  -6.867  0.00  0.00     0.047 H 
ATOM     36  H   LIG d   1       2.584   0.863  -7.382  0.00  0.00     0.047 H 
BRANCH  34  37
ATOM     37  C   LIG d   1       2.823   0.280  -5.314  0.00  0.00     0.015 C 
ATOM     38  H   LIG d   1       2.982   1.293  -4.914  0.00  0.00     0.044 H 
ATOM     39  H   LIG d   1       1.755   0.021  -5.242  0.00  0.00     0.044 H 
BRANCH  37  40
ATOM     40  N   LIG d   1       3.614  -0.684  -4.538  0.00  0.00    -0.296 N 
ATOM     41  C   LIG d   1       4.976  -0.181  -4.305  0.00  0.00     0.022 C 
ATOM     42  C   LIG d   1       5.782  -1.238  -3.546  0.00  0.00     0.060 C 
ATOM     43  H   LIG d   1       5.459   0.029  -5.271  0.00  0.00     0.045 H 
ATOM     44  H   LIG d   1       4.929   0.744  -3.710  0.00  0.00     0.045 H 
ATOM     45  O   LIG d   1       5.108  -1.560  -2.327  0.00  0.00    -0.377 OA
ATOM     46  H   LIG d   1       6.784  -0.845  -3.319  0.00  0.00     0.057 H 
ATOM     47  H   LIG d   1       5.876  -2.143  -4.165  0.00  0.00     0.057 H 
ATOM     48  C   LIG d   1       3.779  -2.053  -2.518  0.00  0.00     0.060 C 
ATOM     49  C   LIG d   1       2.953  -1.005  -3.266  0.00  0.00     0.022 C 
ATOM     50  H   LIG d   1       3.318  -2.255  -1.540  0.00  0.00     0.057 H 
ATOM     51  H   LIG d   1       3.811  -2.982  -3.106  0.00  0.00     0.057 H 
ATOM     52  H   LIG d   1       2.873  -0.094  -2.653  0.00  0.00     0.045 H 
ATOM     53  H   LIG d   1       1.947  -1.401  -3.465  0.00  0.00     0.045 H 
ENDBRANCH  37  40
ENDBRANCH  34  37
ENDBRANCH  32  34
ENDBRANCH  24  30
ENDBRANCH  12  24
BRANCH  10  54
ATOM     54  O   LIG d   1       3.538  -4.208  -6.615  0.00  0.00    -0.391 OA
ATOM     55  H   LIG d   1       3.885  -3.262  -6.174  0.00  0.00     0.210 HD
ENDBRANCH  10  54
BRANCH   1  56
ATOM     56  C   LIG d   1       4.561  -6.052  -5.270  0.00  0.00    -0.060 C 
ATOM     57  H   LIG d   1       3.466  -6.022  -5.377  0.00  0.00     0.023 H 
ATOM     58  H   LIG d   1       4.936  -5.039  -5.058  0.00  0.00     0.023 H 
ATOM     59  H   LIG d   1       4.830  -6.723  -4.441  0.00  0.00     0.023 H 
ENDBRANCH   1  56
BRANCH   7  60
ATOM     60  C   LIG d   1       5.117  -6.897  -9.477  0.00  0.00    -0.059 C 
ATOM     61  H   LIG d   1       5.563  -7.903  -9.461  0.00  0.00     0.024 H 
ATOM     62  H   LIG d   1       4.941  -6.590 -10.519  0.00  0.00     0.024 H 
ATOM     63  H   LIG d   1       4.163  -6.910  -8.932  0.00  0.00     0.024 H 
ENDBRANCH   7  60
BRANCH   3  64
ATOM     64  N   LIG d   1       6.261  -8.394  -5.347  0.00  0.00    -0.312 N 
ATOM     65  C   LIG d   1       7.081  -8.610  -4.299  0.00  0.00     0.216 C 
ATOM     66  O   LIG d   1       8.023  -7.872  -4.104  0.00  0.00    -0.276 OA
ATOM     67  H   LIG d   1       5.407  -9.063  -5.524  0.00  0.00     0.149 HD
BRANCH  65  68
ATOM     68  C   LIG d   1       6.826  -9.768  -3.369  0.00  0.00     0.036 C 
ATOM     69  C   LIG d   1       7.511 -11.022  -3.915  0.00  0.00    -0.042 C 
ATOM     70  C   LIG d   1       7.251 -12.198  -2.971  0.00  0.00    -0.052 C 
ATOM     71  H   LIG d   1       7.106 -11.256  -4.911  0.00  0.00     0.027 H 
ATOM     72  H   LIG d   1       8.594 -10.845  -3.992  0.00  0.00     0.027 H 
ATOM     73  C   LIG d   1       7.814 -11.873  -1.586  0.00  0.00    -0.053 C 
ATOM     74  H   LIG d   1       7.743 -13.100  -3.364  0.00  0.00     0.026 H 
ATOM     75  H   LIG d   1       6.168 -12.375  -2.895  0.00  0.00     0.026 H 
ATOM     76  C   LIG d   1       7.129 -10.619  -1.038  0.00  0.00    -0.052 C 
ATOM     77  H   LIG d   1       8.896 -11.695  -1.662  0.00  0.00     0.026 H 
ATOM     78  H   LIG d   1       7.627 -12.718  -0.907  0.00  0.00     0.026 H 
ATOM     79  C   LIG d   1       7.388  -9.443  -1.984  0.00  0.00    -0.042 C 
ATOM     80  H   LIG d   1       7.533 -10.385  -0.043  0.00  0.00     0.026 H 
ATOM     81  H   LIG d   1       6.046 -10.795  -0.963  0.00  0.00     0.026 H 
ATOM     82  H   LIG d   1       8.471  -9.266  -2.059  0.00  0.00     0.027 H 
ATOM     83  H   LIG d   1       6.896  -8.542  -1.591  0.00  0.00     0.027 H 
ATOM     84  H   LIG d   1       5.740  -9.933  -3.302  0.00  0.00     0.039 H 
ENDBRANCH  65  68
ENDBRANCH   3  64
TORSDOF 11
ENDMDL
MODEL 9
REMARK VINA RESULT:      -5.5      4.633      9.426
REMARK  11 active torsions:
REMARK  status: ('A' for Active; 'I' for Inactive)
REMARK    1  A    between atoms: C_1  and  C_2 
REMARK    2  A    between atoms: C_4  and  N_33 
REMARK    3  A    between atoms: C_8  and  C_32 
REMARK    4  A    between atoms: C_11  and  O_31 
REMARK    5  A    between atoms: C_13  and  C_17 
REMARK    6  A    between atoms: C_17  and  C_19 
REMARK    7  A    between atoms: C_17  and  C_20 
REMARK       I    between atoms: C_20  and  N_22 
REMARK    8  A    between atoms: N_22  and  C_23 
REMARK    9  A    between atoms: C_23  and  C_24 
REMARK   10  A    between atoms: C_24  and  N_25 
REMARK       I    between atoms: N_33  and  C_34 
REMARK   11  A    between atoms: C_34  and  C_36 
ROOT
ATOM      1  C   LIG d   1       9.164   2.257  -5.635  0.00  0.00    -0.020 C 
ATOM      2  H   LIG d   1       9.976   1.514  -5.644  0.00  0.00     0.032 H 
ATOM      3  C   LIG d   1       8.544   2.317  -4.238  0.00  0.00     0.026 C 
ATOM      4  H   LIG d   1       7.703   3.026  -4.218  0.00  0.00     0.050 H 
ATOM      5  C   LIG d   1       9.614   2.721  -3.222  0.00  0.00    -0.034 C 
ATOM      6  C   LIG d   1      10.174   4.097  -3.591  0.00  0.00    -0.046 C 
ATOM      7  C   LIG d   1      10.795   4.036  -4.989  0.00  0.00    -0.026 C 
ATOM      8  C   LIG d   1       9.725   3.631  -6.005  0.00  0.00    -0.005 C 
ATOM      9  H   LIG d   1       8.912   4.373  -5.996  0.00  0.00     0.033 H 
ATOM     10  C   LIG d   1      10.344   3.570  -7.402  0.00  0.00     0.062 C 
ATOM     11  H   LIG d   1      11.121   2.794  -7.459  0.00  0.00     0.060 H 
ATOM     12  C   LIG d   1      10.904   4.945  -7.772  0.00  0.00    -0.004 C 
ATOM     13  H   LIG d   1      10.092   5.686  -7.764  0.00  0.00     0.033 H 
ATOM     14  C   LIG d   1      11.975   5.349  -6.756  0.00  0.00    -0.047 C 
ATOM     15  C   LIG d   1      11.355   5.411  -5.359  0.00  0.00    -0.047 C 
ATOM     16  H   LIG d   1       9.168   2.766  -2.217  0.00  0.00     0.028 H 
ATOM     17  H   LIG d   1      10.427   1.980  -3.231  0.00  0.00     0.028 H 
ATOM     18  H   LIG d   1       9.362   4.838  -3.583  0.00  0.00     0.027 H 
ATOM     19  H   LIG d   1      10.943   4.388  -2.861  0.00  0.00     0.027 H 
ATOM     20  H   LIG d   1      12.788   4.608  -6.765  0.00  0.00     0.027 H 
ATOM     21  H   LIG d   1      12.378   6.338  -7.022  0.00  0.00     0.027 H 
ATOM     22  H   LIG d   1      10.542   6.151  -5.350  0.00  0.00     0.027 H 
ATOM     23  H   LIG d   1      12.124   5.701  -4.628  0.00  0.00     0.027 H 
ENDROOT
BRANCH  12  24
ATOM     24  C   LIG d   1      11.525   4.884  -9.170  0.00  0.00     0.038 C 
ATOM     25  H   LIG d   1      11.511   3.849  -9.540  0.00  0.00     0.040 H 
BRANCH  24  26
ATOM     26  C   LIG d   1      12.965   5.397  -9.110  0.00  0.00    -0.054 C 
ATOM     27  H   LIG d   1      12.968   6.438  -8.754  0.00  0.00     0.024 H 
ATOM     28  H   LIG d   1      13.413   5.351 -10.114  0.00  0.00     0.024 H 
ATOM     29  H   LIG d   1      13.549   4.771  -8.419  0.00  0.00     0.024 H 
ENDBRANCH  24  26
BRANCH  24  30
ATOM     30  C   LIG d   1      10.723   5.743 -10.112  0.00  0.00     0.216 C 
ATOM     31  O   LIG d   1       9.882   5.241 -10.826  0.00  0.00    -0.276 OA
ATOM     32  N   LIG d   1      10.940   7.073 -10.161  0.00  0.00    -0.314 N 
ATOM     33  H   LIG d   1      11.704   7.529  -9.513  0.00  0.00     0.149 HD
BRANCH  32  34
ATOM     34  C   LIG d   1      10.162   7.910 -11.077  0.00  0.00     0.024 C 
ATOM     35  H   LIG d   1       9.468   7.278 -11.652  0.00  0.00     0.047 H 
ATOM     36  H   LIG d   1       9.588   8.651 -10.498  0.00  0.00     0.047 H 
BRANCH  34  37
ATOM     37  C   LIG d   1      11.107   8.634 -12.037  0.00  0.00     0.015 C 
ATOM     38  H   LIG d   1      10.832   9.699 -12.088  0.00  0.00     0.044 H 
ATOM     39  H   LIG d   1      12.141   8.539 -11.674  0.00  0.00     0.044 H 
BRANCH  37  40
ATOM     40  N   LIG d   1      10.999   8.036 -13.375  0.00  0.00    -0.296 N 
ATOM     41  C   LIG d   1      12.038   7.016 -13.581  0.00  0.00     0.022 C 
ATOM     42  C   LIG d   1      11.927   6.463 -15.004  0.00  0.00     0.060 C 
ATOM     43  H   LIG d   1      13.030   7.469 -13.437  0.00  0.00     0.045 H 
ATOM     44  H   LIG d   1      11.899   6.200 -12.856  0.00  0.00     0.045 H 
ATOM     45  O   LIG d   1      10.610   5.944 -15.207  0.00  0.00    -0.377 OA
ATOM     46  H   LIG d   1      12.664   5.659 -15.145  0.00  0.00     0.057 H 
ATOM     47  H   LIG d   1      12.120   7.269 -15.728  0.00  0.00     0.057 H 
ATOM     48  C   LIG d   1       9.575   6.911 -15.014  0.00  0.00     0.060 C 
ATOM     49  C   LIG d   1       9.662   7.469 -13.592  0.00  0.00     0.022 C 
ATOM     50  H   LIG d   1       8.594   6.435 -15.163  0.00  0.00     0.057 H 
ATOM     51  H   LIG d   1       9.697   7.731 -15.738  0.00  0.00     0.057 H 
ATOM     52  H   LIG d   1       9.484   6.659 -12.868  0.00  0.00     0.045 H 
ATOM     53  H   LIG d   1       8.903   8.254 -13.457  0.00  0.00     0.045 H 
ENDBRANCH  37  40
ENDBRANCH  34  37
ENDBRANCH  32  34
ENDBRANCH  24  30
ENDBRANCH  12  24
BRANCH  10  54
ATOM     54  O   LIG d   1       9.345   3.192  -8.351  0.00  0.00    -0.391 OA
ATOM     55  H   LIG d   1       8.941   3.938  -9.052  0.00  0.00     0.210 HD
ENDBRANCH  10  54
BRANCH   1  56
ATOM     56  C   LIG d   1       8.094   1.852  -6.650  0.00  0.00    -0.060 C 
ATOM     57  H   LIG d   1       8.160   0.770  -6.842  0.00  0.00     0.023 H 
ATOM     58  H   LIG d   1       8.254   2.401  -7.590  0.00  0.00     0.023 H 
ATOM     59  H   LIG d   1       7.098   2.093  -6.250  0.00  0.00     0.023 H 
ENDBRANCH   1  56
BRANCH   7  60
ATOM     60  C   LIG d   1      11.925   3.005  -5.001  0.00  0.00    -0.059 C 
ATOM     61  H   LIG d   1      12.882   3.508  -4.798  0.00  0.00     0.024 H 
ATOM     62  H   LIG d   1      11.968   2.519  -5.987  0.00  0.00     0.024 H 
ATOM     63  H   LIG d   1      11.737   2.247  -4.226  0.00  0.00     0.024 H 
ENDBRANCH   7  60
BRANCH   3  64
ATOM     64  N   LIG d   1       8.007   1.000  -3.884  0.00  0.00    -0.312 N 
ATOM     65  C   LIG d   1       6.751   0.890  -3.410  0.00  0.00     0.216 C 
ATOM     66  O   LIG d   1       6.064   1.880  -3.277  0.00  0.00    -0.276 OA
ATOM     67  H   LIG d   1       8.631   0.103  -4.004  0.00  0.00     0.149 HD
BRANCH  65  68
ATOM     68  C   LIG d   1       6.198  -0.464  -3.046  0.00  0.00     0.036 C 
ATOM     69  C   LIG d   1       4.894  -0.291  -2.266  0.00  0.00    -0.042 C 
ATOM     70  C   LIG d   1       4.334  -1.665  -1.896  0.00  0.00    -0.052 C 
ATOM     71  H   LIG d   1       5.089   0.285  -1.349  0.00  0.00     0.027 H 
ATOM     72  H   LIG d   1       4.164   0.248  -2.888  0.00  0.00     0.027 H 
ATOM     73  C   LIG d   1       4.063  -2.465  -3.172  0.00  0.00    -0.053 C 
ATOM     74  H   LIG d   1       3.396  -1.541  -1.335  0.00  0.00     0.026 H 
ATOM     75  H   LIG d   1       5.064  -2.203  -1.274  0.00  0.00     0.026 H 
ATOM     76  C   LIG d   1       5.367  -2.640  -3.952  0.00  0.00    -0.052 C 
ATOM     77  H   LIG d   1       3.333  -1.927  -3.794  0.00  0.00     0.026 H 
ATOM     78  H   LIG d   1       3.660  -3.454  -2.906  0.00  0.00     0.026 H 
ATOM     79  C   LIG d   1       5.928  -1.264  -4.321  0.00  0.00    -0.042 C 
ATOM     80  H   LIG d   1       5.172  -3.214  -4.869  0.00  0.00     0.026 H 
ATOM     81  H   LIG d   1       6.098  -3.177  -3.330  0.00  0.00     0.026 H 
ATOM     82  H   LIG d   1       5.197  -0.726  -4.944  0.00  0.00     0.027 H 
ATOM     83  H   LIG d   1       6.865  -1.389  -4.882  0.00  0.00     0.027 H 
ATOM     84  H   LIG d   1       6.939  -0.990  -2.425  0.00  0.00     0.039 H 
ENDBRANCH  65  68
ENDBRANCH   3  64
TORSDOF 11
ENDMDL
