MODEL 1
REMARK VINA RESULT:      -5.9      0.000      0.000
REMARK  12 active torsions:
REMARK  status: ('A' for Active; 'I' for Inactive)
REMARK    1  A    between atoms: C_1  and  O_2 
REMARK    2  A    between atoms: O_2  and  C_3 
REMARK    3  A    between atoms: C_8  and  C_9 
REMARK    4  A    between atoms: C_9  and  C_11 
REMARK    5  A    between atoms: C_9  and  C_15 
REMARK    6  A    between atoms: C_11  and  C_12 
REMARK    7  A    between atoms: C_12  and  C_13 
REMARK    8  A    between atoms: C_13  and  O_14 
REMARK    9  A    between atoms: C_15  and  C_17 
REMARK   10  A    between atoms: C_15  and  O_25 
REMARK   11  A    between atoms: C_22  and  O_23 
REMARK   12  A    between atoms: O_23  and  C_24 
ROOT
ATOM      1  C   LIG d   1       4.619  -1.449  -6.925  0.00  0.00     0.018 C 
ATOM      2  H   LIG d   1       3.753  -1.797  -6.361  0.00  0.00     0.038 H 
ENDROOT
BRANCH   1   3
ATOM      3  C   LIG d   1       4.268  -0.174  -7.646  0.00  0.00     0.000 A 
ATOM      4  C   LIG d   1       3.135   0.541  -7.284  0.00  0.00     0.124 A 
ATOM      5  C   LIG d   1       2.816   1.715  -7.949  0.00  0.00    -0.020 A 
ATOM      6  C   LIG d   1       3.625   2.170  -8.971  0.00  0.00    -0.058 A 
ATOM      7  H   LIG d   1       1.934   2.272  -7.668  0.00  0.00     0.065 H 
ATOM      8  C   LIG d   1       4.753   1.456  -9.332  0.00  0.00    -0.061 A 
ATOM      9  H   LIG d   1       3.376   3.084  -9.490  0.00  0.00     0.062 H 
ATOM     10  C   LIG d   1       5.078   0.288  -8.665  0.00  0.00    -0.055 A 
ATOM     11  H   LIG d   1       5.385   1.814 -10.132  0.00  0.00     0.062 H 
ATOM     12  H   LIG d   1       5.962  -0.264  -8.946  0.00  0.00     0.062 H 
BRANCH   4  13
ATOM     13  O   LIG d   1       2.340   0.090  -6.278  0.00  0.00    -0.495 OA
BRANCH  13  14
ATOM     14  C   LIG d   1       2.312   0.862  -5.077  0.00  0.00     0.079 C 
ATOM     15  H   LIG d   1       1.561   0.455  -4.400  0.00  0.00     0.066 H 
ATOM     16  H   LIG d   1       3.291   0.824  -4.597  0.00  0.00     0.066 H 
ATOM     17  H   LIG d   1       2.064   1.897  -5.315  0.00  0.00     0.066 H 
ENDBRANCH  13  14
ENDBRANCH   4  13
ENDBRANCH   1   3
BRANCH   1  18
ATOM     18  C   LIG d   1       5.027  -2.515  -7.943  0.00  0.00    -0.041 C 
ATOM     19  H   LIG d   1       5.138  -2.057  -8.925  0.00  0.00     0.027 H 
ATOM     20  H   LIG d   1       5.975  -2.963  -7.640  0.00  0.00     0.027 H 
BRANCH  18  21
ATOM     21  C   LIG d   1       3.949  -3.599  -8.006  0.00  0.00    -0.029 C 
ATOM     22  H   LIG d   1       2.983  -3.168  -7.743  0.00  0.00     0.029 H 
ATOM     23  H   LIG d   1       3.903  -4.008  -9.015  0.00  0.00     0.029 H 
BRANCH  21  24
ATOM     24  C   LIG d   1       4.292  -4.718  -7.018  0.00  0.00     0.044 C 
ATOM     25  H   LIG d   1       4.684  -5.577  -7.565  0.00  0.00     0.056 H 
ATOM     26  H   LIG d   1       5.042  -4.362  -6.313  0.00  0.00     0.056 H 
BRANCH  24  27
ATOM     27  O   LIG d   1       3.114  -5.103  -6.308  0.00  0.00    -0.395 OA
ATOM     28  H   LIG d   1       2.407  -5.442  -6.875  0.00  0.00     0.209 HD
ENDBRANCH  24  27
ENDBRANCH  21  24
ENDBRANCH  18  21
ENDBRANCH   1  18
BRANCH   1  29
ATOM     29  C   LIG d   1       5.782  -1.189  -5.964  0.00  0.00     0.090 C 
ATOM     30  H   LIG d   1       6.237  -0.226  -6.198  0.00  0.00     0.065 H 
BRANCH  29  31
ATOM     31  C   LIG d   1       5.268  -1.171  -4.548  0.00  0.00     0.023 A 
ATOM     32  C   LIG d   1       5.526  -0.080  -3.729  0.00  0.00     0.126 A 
ATOM     33  C   LIG d   1       5.052  -0.067  -2.426  0.00  0.00    -0.020 A 
ATOM     34  C   LIG d   1       4.321  -1.137  -1.946  0.00  0.00    -0.058 A 
ATOM     35  H   LIG d   1       5.251   0.780  -1.787  0.00  0.00     0.065 H 
ATOM     36  C   LIG d   1       4.070  -2.225  -2.762  0.00  0.00    -0.061 A 
ATOM     37  H   LIG d   1       3.948  -1.125  -0.933  0.00  0.00     0.062 H 
ATOM     38  C   LIG d   1       4.541  -2.241  -4.062  0.00  0.00    -0.053 A 
ATOM     39  H   LIG d   1       3.502  -3.063  -2.385  0.00  0.00     0.062 H 
ATOM     40  H   LIG d   1       4.340  -3.090  -4.698  0.00  0.00     0.062 H 
BRANCH  32  41
ATOM     41  O   LIG d   1       6.241   0.973  -4.205  0.00  0.00    -0.495 OA
BRANCH  41  42
ATOM     42  C   LIG d   1       7.603   1.074  -3.785  0.00  0.00     0.079 C 
ATOM     43  H   LIG d   1       7.640   1.247  -2.709  0.00  0.00     0.066 H 
ATOM     44  H   LIG d   1       8.126   0.148  -4.022  0.00  0.00     0.066 H 
ATOM     45  H   LIG d   1       8.082   1.905  -4.304  0.00  0.00     0.066 H 
ENDBRANCH  41  42
ENDBRANCH  32  41
ENDBRANCH  29  31
BRANCH  29  46
ATOM     46  O   LIG d   1       6.756  -2.225  -6.105  0.00  0.00    -0.387 OA
ATOM     47  H   LIG d   1       7.059  -2.360  -7.013  0.00  0.00     0.210 HD
ENDBRANCH  29  46
ENDBRANCH   1  29
TORSDOF 12
ENDMDL
MODEL 2
REMARK VINA RESULT:      -5.7      1.708      4.313
REMARK  12 active torsions:
REMARK  status: ('A' for Active; 'I' for Inactive)
REMARK    1  A    between atoms: C_1  and  O_2 
REMARK    2  A    between atoms: O_2  and  C_3 
REMARK    3  A    between atoms: C_8  and  C_9 
REMARK    4  A    between atoms: C_9  and  C_11 
REMARK    5  A    between atoms: C_9  and  C_15 
REMARK    6  A    between atoms: C_11  and  C_12 
REMARK    7  A    between atoms: C_12  and  C_13 
REMARK    8  A    between atoms: C_13  and  O_14 
REMARK    9  A    between atoms: C_15  and  C_17 
REMARK   10  A    between atoms: C_15  and  O_25 
REMARK   11  A    between atoms: C_22  and  O_23 
REMARK   12  A    between atoms: O_23  and  C_24 
ROOT
ATOM      1  C   LIG d   1       3.581   0.227  -6.489  0.00  0.00     0.018 C 
ATOM      2  H   LIG d   1       4.023   1.145  -6.102  0.00  0.00     0.038 H 
ENDROOT
BRANCH   1   3
ATOM      3  C   LIG d   1       4.675  -0.714  -6.921  0.00  0.00     0.000 A 
ATOM      4  C   LIG d   1       5.993  -0.453  -6.576  0.00  0.00     0.124 A 
ATOM      5  C   LIG d   1       6.998  -1.322  -6.974  0.00  0.00    -0.020 A 
ATOM      6  C   LIG d   1       6.684  -2.445  -7.713  0.00  0.00    -0.058 A 
ATOM      7  H   LIG d   1       8.025  -1.120  -6.706  0.00  0.00     0.065 H 
ATOM      8  C   LIG d   1       5.370  -2.704  -8.058  0.00  0.00    -0.061 A 
ATOM      9  H   LIG d   1       7.467  -3.122  -8.025  0.00  0.00     0.062 H 
ATOM     10  C   LIG d   1       4.366  -1.842  -7.656  0.00  0.00    -0.055 A 
ATOM     11  H   LIG d   1       5.127  -3.583  -8.637  0.00  0.00     0.062 H 
ATOM     12  H   LIG d   1       3.340  -2.049  -7.922  0.00  0.00     0.062 H 
BRANCH   4  13
ATOM     13  O   LIG d   1       6.299   0.654  -5.848  0.00  0.00    -0.495 OA
BRANCH  13  14
ATOM     14  C   LIG d   1       7.043   0.455  -4.645  0.00  0.00     0.079 C 
ATOM     15  H   LIG d   1       8.050   0.119  -4.892  0.00  0.00     0.066 H 
ATOM     16  H   LIG d   1       7.098   1.394  -4.093  0.00  0.00     0.066 H 
ATOM     17  H   LIG d   1       6.548  -0.299  -4.033  0.00  0.00     0.066 H 
ENDBRANCH  13  14
ENDBRANCH   4  13
ENDBRANCH   1   3
BRANCH   1  18
ATOM     18  C   LIG d   1       2.689   0.556  -7.688  0.00  0.00    -0.041 C 
ATOM     19  H   LIG d   1       2.849  -0.182  -8.474  0.00  0.00     0.027 H 
ATOM     20  H   LIG d   1       1.643   0.538  -7.378  0.00  0.00     0.027 H 
BRANCH  18  21
ATOM     21  C   LIG d   1       3.039   1.948  -8.217  0.00  0.00    -0.029 C 
ATOM     22  H   LIG d   1       2.128   2.539  -8.318  0.00  0.00     0.029 H 
ATOM     23  H   LIG d   1       3.717   2.442  -7.521  0.00  0.00     0.029 H 
BRANCH  21  24
ATOM     24  C   LIG d   1       3.716   1.819  -9.584  0.00  0.00     0.044 C 
ATOM     25  H   LIG d   1       3.691   0.777  -9.905  0.00  0.00     0.056 H 
ATOM     26  H   LIG d   1       3.188   2.436 -10.310  0.00  0.00     0.056 H 
BRANCH  24  27
ATOM     27  O   LIG d   1       5.074   2.254  -9.486  0.00  0.00    -0.395 OA
ATOM     28  H   LIG d   1       5.564   1.850  -8.756  0.00  0.00     0.209 HD
ENDBRANCH  24  27
ENDBRANCH  21  24
ENDBRANCH  18  21
ENDBRANCH   1  18
BRANCH   1  29
ATOM     29  C   LIG d   1       2.741  -0.435  -5.395  0.00  0.00     0.090 C 
ATOM     30  H   LIG d   1       2.694  -1.509  -5.572  0.00  0.00     0.065 H 
BRANCH  29  31
ATOM     31  C   LIG d   1       3.373  -0.175  -4.051  0.00  0.00     0.023 A 
ATOM     32  C   LIG d   1       3.898  -1.228  -3.316  0.00  0.00     0.126 A 
ATOM     33  C   LIG d   1       4.479  -0.986  -2.080  0.00  0.00    -0.020 A 
ATOM     34  C   LIG d   1       4.537   0.303  -1.585  0.00  0.00    -0.058 A 
ATOM     35  H   LIG d   1       4.889  -1.803  -1.505  0.00  0.00     0.065 H 
ATOM     36  C   LIG d   1       4.008   1.350  -2.317  0.00  0.00    -0.061 A 
ATOM     37  H   LIG d   1       4.994   0.492  -0.625  0.00  0.00     0.062 H 
ATOM     38  C   LIG d   1       3.429   1.112  -3.550  0.00  0.00    -0.053 A 
ATOM     39  H   LIG d   1       4.051   2.356  -1.928  0.00  0.00     0.062 H 
ATOM     40  H   LIG d   1       3.021   1.931  -4.122  0.00  0.00     0.062 H 
BRANCH  32  41
ATOM     41  O   LIG d   1       3.844  -2.495  -3.807  0.00  0.00    -0.495 OA
BRANCH  41  42
ATOM     42  C   LIG d   1       5.086  -3.103  -4.169  0.00  0.00     0.079 C 
ATOM     43  H   LIG d   1       5.907  -2.552  -3.710  0.00  0.00     0.066 H 
ATOM     44  H   LIG d   1       5.101  -4.134  -3.821  0.00  0.00     0.066 H 
ATOM     45  H   LIG d   1       5.196  -3.084  -5.254  0.00  0.00     0.066 H 
ENDBRANCH  41  42
ENDBRANCH  32  41
ENDBRANCH  29  31
BRANCH  29  46
ATOM     46  O   LIG d   1       1.421   0.111  -5.413  0.00  0.00    -0.387 OA
ATOM     47  H   LIG d   1       1.143   0.499  -4.572  0.00  0.00     0.210 HD
ENDBRANCH  29  46
ENDBRANCH   1  29
TORSDOF 12
ENDMDL
MODEL 3
REMARK VINA RESULT:      -5.6      1.768      5.499
REMARK  12 active torsions:
REMARK  status: ('A' for Active; 'I' for Inactive)
REMARK    1  A    between atoms: C_1  and  O_2 
REMARK    2  A    between atoms: O_2  and  C_3 
REMARK    3  A    between atoms: C_8  and  C_9 
REMARK    4  A    between atoms: C_9  and  C_11 
REMARK    5  A    between atoms: C_9  and  C_15 
REMARK    6  A    between atoms: C_11  and  C_12 
REMARK    7  A    between atoms: C_12  and  C_13 
REMARK    8  A    between atoms: C_13  and  O_14 
REMARK    9  A    between atoms: C_15  and  C_17 
REMARK   10  A    between atoms: C_15  and  O_25 
REMARK   11  A    between atoms: C_22  and  O_23 
REMARK   12  A    between atoms: O_23  and  C_24 
ROOT
ATOM      1  C   LIG d   1       5.249  -1.120  -5.577  0.00  0.00     0.018 C 
ATOM      2  H   LIG d   1       6.123  -0.624  -5.998  0.00  0.00     0.038 H 
ENDROOT
BRANCH   1   3
ATOM      3  C   LIG d   1       4.825  -0.407  -4.320  0.00  0.00     0.000 A 
ATOM      4  C   LIG d   1       5.746   0.340  -3.599  0.00  0.00     0.124 A 
ATOM      5  C   LIG d   1       5.352   0.995  -2.442  0.00  0.00    -0.020 A 
ATOM      6  C   LIG d   1       4.044   0.904  -2.010  0.00  0.00    -0.058 A 
ATOM      7  H   LIG d   1       6.068   1.577  -1.880  0.00  0.00     0.065 H 
ATOM      8  C   LIG d   1       3.127   0.159  -2.728  0.00  0.00    -0.061 A 
ATOM      9  H   LIG d   1       3.737   1.414  -1.108  0.00  0.00     0.062 H 
ATOM     10  C   LIG d   1       3.516  -0.490  -3.885  0.00  0.00    -0.055 A 
ATOM     11  H   LIG d   1       2.104   0.089  -2.388  0.00  0.00     0.062 H 
ATOM     12  H   LIG d   1       2.796  -1.068  -4.447  0.00  0.00     0.062 H 
BRANCH   4  13
ATOM     13  O   LIG d   1       7.033   0.427  -4.026  0.00  0.00    -0.495 OA
BRANCH  13  14
ATOM     14  C   LIG d   1       7.680   1.692  -3.882  0.00  0.00     0.079 C 
ATOM     15  H   LIG d   1       8.689   1.544  -3.496  0.00  0.00     0.066 H 
ATOM     16  H   LIG d   1       7.733   2.186  -4.853  0.00  0.00     0.066 H 
ATOM     17  H   LIG d   1       7.113   2.313  -3.189  0.00  0.00     0.066 H 
ENDBRANCH  13  14
ENDBRANCH   4  13
ENDBRANCH   1   3
BRANCH   1  18
ATOM     18  C   LIG d   1       5.595  -2.573  -5.247  0.00  0.00    -0.041 C 
ATOM     19  H   LIG d   1       5.353  -2.777  -4.204  0.00  0.00     0.027 H 
ATOM     20  H   LIG d   1       5.019  -3.239  -5.891  0.00  0.00     0.027 H 
BRANCH  18  21
ATOM     21  C   LIG d   1       7.089  -2.807  -5.479  0.00  0.00    -0.029 C 
ATOM     22  H   LIG d   1       7.223  -3.528  -6.285  0.00  0.00     0.029 H 
ATOM     23  H   LIG d   1       7.566  -1.865  -5.749  0.00  0.00     0.029 H 
BRANCH  21  24
ATOM     24  C   LIG d   1       7.725  -3.352  -4.198  0.00  0.00     0.044 C 
ATOM     25  H   LIG d   1       7.055  -4.083  -3.743  0.00  0.00     0.056 H 
ATOM     26  H   LIG d   1       8.674  -3.829  -4.439  0.00  0.00     0.056 H 
BRANCH  24  27
ATOM     27  O   LIG d   1       7.949  -2.278  -3.283  0.00  0.00    -0.395 OA
ATOM     28  H   LIG d   1       7.490  -2.379  -2.437  0.00  0.00     0.209 HD
ENDBRANCH  24  27
ENDBRANCH  21  24
ENDBRANCH  18  21
ENDBRANCH   1  18
BRANCH   1  29
ATOM     29  C   LIG d   1       4.105  -1.085  -6.593  0.00  0.00     0.090 C 
ATOM     30  H   LIG d   1       3.173  -0.842  -6.083  0.00  0.00     0.065 H 
BRANCH  29  31
ATOM     31  C   LIG d   1       4.393  -0.038  -7.638  0.00  0.00     0.023 A 
ATOM     32  C   LIG d   1       3.391   0.374  -8.504  0.00  0.00     0.126 A 
ATOM     33  C   LIG d   1       3.660   1.338  -9.464  0.00  0.00    -0.020 A 
ATOM     34  C   LIG d   1       4.924   1.889  -9.554  0.00  0.00    -0.058 A 
ATOM     35  H   LIG d   1       2.882   1.660 -10.140  0.00  0.00     0.065 H 
ATOM     36  C   LIG d   1       5.923   1.474  -8.692  0.00  0.00    -0.061 A 
ATOM     37  H   LIG d   1       5.132   2.644 -10.298  0.00  0.00     0.062 H 
ATOM     38  C   LIG d   1       5.657   0.513  -7.734  0.00  0.00    -0.053 A 
ATOM     39  H   LIG d   1       6.911   1.903  -8.766  0.00  0.00     0.062 H 
ATOM     40  H   LIG d   1       6.438   0.194  -7.060  0.00  0.00     0.062 H 
BRANCH  32  41
ATOM     41  O   LIG d   1       2.147  -0.167  -8.411  0.00  0.00    -0.495 OA
BRANCH  41  42
ATOM     42  C   LIG d   1       1.637  -0.822  -9.574  0.00  0.00     0.079 C 
ATOM     43  H   LIG d   1       2.028  -0.333 -10.467  0.00  0.00     0.066 H 
ATOM     44  H   LIG d   1       1.943  -1.867  -9.567  0.00  0.00     0.066 H 
ATOM     45  H   LIG d   1       0.548  -0.762  -9.575  0.00  0.00     0.066 H 
ENDBRANCH  41  42
ENDBRANCH  32  41
ENDBRANCH  29  31
BRANCH  29  46
ATOM     46  O   LIG d   1       3.988  -2.364  -7.221  0.00  0.00    -0.387 OA
ATOM     47  H   LIG d   1       4.789  -2.655  -7.676  0.00  0.00     0.210 HD
ENDBRANCH  29  46
ENDBRANCH   1  29
TORSDOF 12
ENDMDL
MODEL 4
REMARK VINA RESULT:      -5.5      1.912      5.742
REMARK  12 active torsions:
REMARK  status: ('A' for Active; 'I' for Inactive)
REMARK    1  A    between atoms: C_1  and  O_2 
REMARK    2  A    between atoms: O_2  and  C_3 
REMARK    3  A    between atoms: C_8  and  C_9 
REMARK    4  A    between atoms: C_9  and  C_11 
REMARK    5  A    between atoms: C_9  and  C_15 
REMARK    6  A    between atoms: C_11  and  C_12 
REMARK    7  A    between atoms: C_12  and  C_13 
REMARK    8  A    between atoms: C_13  and  O_14 
REMARK    9  A    between atoms: C_15  and  C_17 
REMARK   10  A    between atoms: C_15  and  O_25 
REMARK   11  A    between atoms: C_22  and  O_23 
REMARK   12  A    between atoms: O_23  and  C_24 
ROOT
ATOM      1  C   LIG d   1       5.530  -1.905  -4.556  0.00  0.00     0.018 C 
ATOM      2  H   LIG d   1       4.453  -2.071  -4.602  0.00  0.00     0.038 H 
ENDROOT
BRANCH   1   3
ATOM      3  C   LIG d   1       6.249  -3.210  -4.773  0.00  0.00     0.000 A 
ATOM      4  C   LIG d   1       5.576  -4.292  -5.323  0.00  0.00     0.124 A 
ATOM      5  C   LIG d   1       6.242  -5.492  -5.523  0.00  0.00    -0.020 A 
ATOM      6  C   LIG d   1       7.573  -5.608  -5.175  0.00  0.00    -0.058 A 
ATOM      7  H   LIG d   1       5.719  -6.335  -5.950  0.00  0.00     0.065 H 
ATOM      8  C   LIG d   1       8.243  -4.529  -4.627  0.00  0.00    -0.061 A 
ATOM      9  H   LIG d   1       8.092  -6.543  -5.330  0.00  0.00     0.062 H 
ATOM     10  C   LIG d   1       7.583  -3.330  -4.432  0.00  0.00    -0.055 A 
ATOM     11  H   LIG d   1       9.284  -4.622  -4.355  0.00  0.00     0.062 H 
ATOM     12  H   LIG d   1       8.109  -2.487  -4.008  0.00  0.00     0.062 H 
BRANCH   4  13
ATOM     13  O   LIG d   1       4.266  -4.175  -5.664  0.00  0.00    -0.495 OA
BRANCH  13  14
ATOM     14  C   LIG d   1       3.818  -4.931  -6.790  0.00  0.00     0.079 C 
ATOM     15  H   LIG d   1       2.835  -4.576  -7.100  0.00  0.00     0.066 H 
ATOM     16  H   LIG d   1       4.524  -4.810  -7.613  0.00  0.00     0.066 H 
ATOM     17  H   LIG d   1       3.755  -5.985  -6.518  0.00  0.00     0.066 H 
ENDBRANCH  13  14
ENDBRANCH   4  13
ENDBRANCH   1   3
BRANCH   1  18
ATOM     18  C   LIG d   1       5.901  -1.341  -3.183  0.00  0.00    -0.041 C 
ATOM     19  H   LIG d   1       6.632  -1.994  -2.707  0.00  0.00     0.027 H 
ATOM     20  H   LIG d   1       6.327  -0.344  -3.303  0.00  0.00     0.027 H 
BRANCH  18  21
ATOM     21  C   LIG d   1       4.648  -1.257  -2.310  0.00  0.00    -0.029 C 
ATOM     22  H   LIG d   1       3.771  -1.508  -2.907  0.00  0.00     0.029 H 
ATOM     23  H   LIG d   1       4.735  -1.957  -1.480  0.00  0.00     0.029 H 
BRANCH  21  24
ATOM     24  C   LIG d   1       4.500   0.166  -1.764  0.00  0.00     0.044 C 
ATOM     25  H   LIG d   1       3.520   0.559  -2.037  0.00  0.00     0.056 H 
ATOM     26  H   LIG d   1       4.596   0.150  -0.679  0.00  0.00     0.056 H 
BRANCH  24  27
ATOM     27  O   LIG d   1       5.519   0.998  -2.322  0.00  0.00    -0.395 OA
ATOM     28  H   LIG d   1       6.163   1.318  -1.675  0.00  0.00     0.209 HD
ENDBRANCH  24  27
ENDBRANCH  21  24
ENDBRANCH  18  21
ENDBRANCH   1  18
BRANCH   1  29
ATOM     29  C   LIG d   1       5.938  -0.909  -5.644  0.00  0.00     0.090 C 
ATOM     30  H   LIG d   1       6.883  -1.222  -6.087  0.00  0.00     0.065 H 
BRANCH  29  31
ATOM     31  C   LIG d   1       4.874  -0.867  -6.711  0.00  0.00     0.023 A 
ATOM     32  C   LIG d   1       3.705  -0.151  -6.498  0.00  0.00     0.126 A 
ATOM     33  C   LIG d   1       2.727  -0.115  -7.481  0.00  0.00    -0.020 A 
ATOM     34  C   LIG d   1       2.921  -0.789  -8.672  0.00  0.00    -0.058 A 
ATOM     35  H   LIG d   1       1.817   0.443  -7.319  0.00  0.00     0.065 H 
ATOM     36  C   LIG d   1       4.084  -1.507  -8.880  0.00  0.00    -0.061 A 
ATOM     37  H   LIG d   1       2.162  -0.757  -9.440  0.00  0.00     0.062 H 
ATOM     38  C   LIG d   1       5.061  -1.544  -7.901  0.00  0.00    -0.053 A 
ATOM     39  H   LIG d   1       4.233  -2.037  -9.809  0.00  0.00     0.062 H 
ATOM     40  H   LIG d   1       5.970  -2.102  -8.067  0.00  0.00     0.062 H 
BRANCH  32  41
ATOM     41  O   LIG d   1       3.519   0.516  -5.328  0.00  0.00    -0.495 OA
BRANCH  41  42
ATOM     42  C   LIG d   1       2.254   0.352  -4.683  0.00  0.00     0.079 C 
ATOM     43  H   LIG d   1       2.073   1.197  -4.019  0.00  0.00     0.066 H 
ATOM     44  H   LIG d   1       1.466   0.304  -5.434  0.00  0.00     0.066 H 
ATOM     45  H   LIG d   1       2.260  -0.572  -4.103  0.00  0.00     0.066 H 
ENDBRANCH  41  42
ENDBRANCH  32  41
ENDBRANCH  29  31
BRANCH  29  46
ATOM     46  O   LIG d   1       6.087   0.390  -5.069  0.00  0.00    -0.387 OA
ATOM     47  H   LIG d   1       6.982   0.750  -5.135  0.00  0.00     0.210 HD
ENDBRANCH  29  46
ENDBRANCH   1  29
TORSDOF 12
ENDMDL
MODEL 5
REMARK VINA RESULT:      -5.5      1.546      2.308
REMARK  12 active torsions:
REMARK  status: ('A' for Active; 'I' for Inactive)
REMARK    1  A    between atoms: C_1  and  O_2 
REMARK    2  A    between atoms: O_2  and  C_3 
REMARK    3  A    between atoms: C_8  and  C_9 
REMARK    4  A    between atoms: C_9  and  C_11 
REMARK    5  A    between atoms: C_9  and  C_15 
REMARK    6  A    between atoms: C_11  and  C_12 
REMARK    7  A    between atoms: C_12  and  C_13 
REMARK    8  A    between atoms: C_13  and  O_14 
REMARK    9  A    between atoms: C_15  and  C_17 
REMARK   10  A    between atoms: C_15  and  O_25 
REMARK   11  A    between atoms: C_22  and  O_23 
REMARK   12  A    between atoms: O_23  and  C_24 
ROOT
ATOM      1  C   LIG d   1       6.051  -2.158  -5.519  0.00  0.00     0.018 C 
ATOM      2  H   LIG d   1       4.997  -2.067  -5.255  0.00  0.00     0.038 H 
ENDROOT
BRANCH   1   3
ATOM      3  C   LIG d   1       6.313  -1.412  -6.801  0.00  0.00     0.000 A 
ATOM      4  C   LIG d   1       5.466  -0.386  -7.194  0.00  0.00     0.124 A 
ATOM      5  C   LIG d   1       5.710   0.299  -8.375  0.00  0.00    -0.020 A 
ATOM      6  C   LIG d   1       6.797  -0.041  -9.157  0.00  0.00    -0.058 A 
ATOM      7  H   LIG d   1       5.051   1.098  -8.682  0.00  0.00     0.065 H 
ATOM      8  C   LIG d   1       7.640  -1.064  -8.764  0.00  0.00    -0.061 A 
ATOM      9  H   LIG d   1       6.987   0.492 -10.077  0.00  0.00     0.062 H 
ATOM     10  C   LIG d   1       7.401  -1.745  -7.584  0.00  0.00    -0.055 A 
ATOM     11  H   LIG d   1       8.489  -1.329  -9.377  0.00  0.00     0.062 H 
ATOM     12  H   LIG d   1       8.064  -2.540  -7.278  0.00  0.00     0.062 H 
BRANCH   4  13
ATOM     13  O   LIG d   1       4.397  -0.053  -6.423  0.00  0.00    -0.495 OA
BRANCH  13  14
ATOM     14  C   LIG d   1       3.128   0.031  -7.074  0.00  0.00     0.079 C 
ATOM     15  H   LIG d   1       2.341  -0.255  -6.377  0.00  0.00     0.066 H 
ATOM     16  H   LIG d   1       2.960   1.055  -7.411  0.00  0.00     0.066 H 
ATOM     17  H   LIG d   1       3.115  -0.640  -7.933  0.00  0.00     0.066 H 
ENDBRANCH  13  14
ENDBRANCH   4  13
ENDBRANCH   1   3
BRANCH   1  18
ATOM     18  C   LIG d   1       6.405  -3.634  -5.706  0.00  0.00    -0.041 C 
ATOM     19  H   LIG d   1       6.731  -3.803  -6.732  0.00  0.00     0.027 H 
ATOM     20  H   LIG d   1       7.209  -3.904  -5.020  0.00  0.00     0.027 H 
BRANCH  18  21
ATOM     21  C   LIG d   1       5.175  -4.495  -5.414  0.00  0.00    -0.029 C 
ATOM     22  H   LIG d   1       5.493  -5.486  -5.091  0.00  0.00     0.029 H 
ATOM     23  H   LIG d   1       4.583  -4.028  -4.627  0.00  0.00     0.029 H 
BRANCH  21  24
ATOM     24  C   LIG d   1       4.327  -4.621  -6.682  0.00  0.00     0.044 C 
ATOM     25  H   LIG d   1       4.208  -3.638  -7.139  0.00  0.00     0.056 H 
ATOM     26  H   LIG d   1       4.823  -5.290  -7.385  0.00  0.00     0.056 H 
BRANCH  24  27
ATOM     27  O   LIG d   1       3.043  -5.149  -6.346  0.00  0.00    -0.395 OA
ATOM     28  H   LIG d   1       2.560  -5.517  -7.099  0.00  0.00     0.209 HD
ENDBRANCH  24  27
ENDBRANCH  21  24
ENDBRANCH  18  21
ENDBRANCH   1  18
BRANCH   1  29
ATOM     29  C   LIG d   1       6.909  -1.565  -4.399  0.00  0.00     0.090 C 
ATOM     30  H   LIG d   1       7.669  -0.913  -4.830  0.00  0.00     0.065 H 
BRANCH  29  31
ATOM     31  C   LIG d   1       6.035  -0.767  -3.466  0.00  0.00     0.023 A 
ATOM     32  C   LIG d   1       6.082   0.620  -3.486  0.00  0.00     0.126 A 
ATOM     33  C   LIG d   1       5.276   1.351  -2.626  0.00  0.00    -0.020 A 
ATOM     34  C   LIG d   1       4.426   0.698  -1.754  0.00  0.00    -0.058 A 
ATOM     35  H   LIG d   1       5.310   2.430  -2.640  0.00  0.00     0.065 H 
ATOM     36  C   LIG d   1       4.385  -0.684  -1.732  0.00  0.00    -0.061 A 
ATOM     37  H   LIG d   1       3.795   1.268  -1.087  0.00  0.00     0.062 H 
ATOM     38  C   LIG d   1       5.187  -1.416  -2.589  0.00  0.00    -0.053 A 
ATOM     39  H   LIG d   1       3.723  -1.193  -1.047  0.00  0.00     0.062 H 
ATOM     40  H   LIG d   1       5.149  -2.494  -2.572  0.00  0.00     0.062 H 
BRANCH  32  41
ATOM     41  O   LIG d   1       6.915   1.260  -4.348  0.00  0.00    -0.495 OA
BRANCH  41  42
ATOM     42  C   LIG d   1       8.072   1.884  -3.788  0.00  0.00     0.079 C 
ATOM     43  H   LIG d   1       8.584   1.178  -3.133  0.00  0.00     0.066 H 
ATOM     44  H   LIG d   1       8.744   2.190  -4.589  0.00  0.00     0.066 H 
ATOM     45  H   LIG d   1       7.769   2.760  -3.213  0.00  0.00     0.066 H 
ENDBRANCH  41  42
ENDBRANCH  32  41
ENDBRANCH  29  31
BRANCH  29  46
ATOM     46  O   LIG d   1       7.540  -2.621  -3.673  0.00  0.00    -0.387 OA
ATOM     47  H   LIG d   1       7.523  -3.475  -4.126  0.00  0.00     0.210 HD
ENDBRANCH  29  46
ENDBRANCH   1  29
TORSDOF 12
ENDMDL
MODEL 6
REMARK VINA RESULT:      -5.4      1.992      4.673
REMARK  12 active torsions:
REMARK  status: ('A' for Active; 'I' for Inactive)
REMARK    1  A    between atoms: C_1  and  O_2 
REMARK    2  A    between atoms: O_2  and  C_3 
REMARK    3  A    between atoms: C_8  and  C_9 
REMARK    4  A    between atoms: C_9  and  C_11 
REMARK    5  A    between atoms: C_9  and  C_15 
REMARK    6  A    between atoms: C_11  and  C_12 
REMARK    7  A    between atoms: C_12  and  C_13 
REMARK    8  A    between atoms: C_13  and  O_14 
REMARK    9  A    between atoms: C_15  and  C_17 
REMARK   10  A    between atoms: C_15  and  O_25 
REMARK   11  A    between atoms: C_22  and  O_23 
REMARK   12  A    between atoms: O_23  and  C_24 
ROOT
ATOM      1  C   LIG d   1       4.162  -0.490  -4.281  0.00  0.00     0.018 C 
ATOM      2  H   LIG d   1       5.151  -0.171  -3.950  0.00  0.00     0.038 H 
ENDROOT
BRANCH   1   3
ATOM      3  C   LIG d   1       4.021  -0.232  -5.758  0.00  0.00     0.000 A 
ATOM      4  C   LIG d   1       5.139   0.076  -6.521  0.00  0.00     0.124 A 
ATOM      5  C   LIG d   1       5.006   0.312  -7.881  0.00  0.00    -0.020 A 
ATOM      6  C   LIG d   1       3.761   0.239  -8.474  0.00  0.00    -0.058 A 
ATOM      7  H   LIG d   1       5.875   0.552  -8.475  0.00  0.00     0.065 H 
ATOM      8  C   LIG d   1       2.648  -0.067  -7.713  0.00  0.00    -0.061 A 
ATOM      9  H   LIG d   1       3.657   0.424  -9.534  0.00  0.00     0.062 H 
ATOM     10  C   LIG d   1       2.779  -0.309  -6.358  0.00  0.00    -0.055 A 
ATOM     11  H   LIG d   1       1.674  -0.123  -8.179  0.00  0.00     0.062 H 
ATOM     12  H   LIG d   1       1.908  -0.552  -5.767  0.00  0.00     0.062 H 
BRANCH   4  13
ATOM     13  O   LIG d   1       6.363   0.147  -5.934  0.00  0.00    -0.495 OA
BRANCH  13  14
ATOM     14  C   LIG d   1       7.454  -0.456  -6.632  0.00  0.00     0.079 C 
ATOM     15  H   LIG d   1       8.152   0.317  -6.955  0.00  0.00     0.066 H 
ATOM     16  H   LIG d   1       7.966  -1.155  -5.971  0.00  0.00     0.066 H 
ATOM     17  H   LIG d   1       7.076  -0.990  -7.504  0.00  0.00     0.066 H 
ENDBRANCH  13  14
ENDBRANCH   4  13
ENDBRANCH   1   3
BRANCH   1  18
ATOM     18  C   LIG d   1       3.091   0.295  -3.522  0.00  0.00    -0.041 C 
ATOM     19  H   LIG d   1       2.373   0.708  -4.230  0.00  0.00     0.027 H 
ATOM     20  H   LIG d   1       2.577  -0.371  -2.828  0.00  0.00     0.027 H 
BRANCH  18  21
ATOM     21  C   LIG d   1       3.750   1.434  -2.742  0.00  0.00    -0.029 C 
ATOM     22  H   LIG d   1       3.769   2.333  -3.358  0.00  0.00     0.029 H 
ATOM     23  H   LIG d   1       3.182   1.628  -1.833  0.00  0.00     0.029 H 
BRANCH  21  24
ATOM     24  C   LIG d   1       5.182   1.039  -2.374  0.00  0.00     0.044 C 
ATOM     25  H   LIG d   1       5.374   1.299  -1.332  0.00  0.00     0.056 H 
ATOM     26  H   LIG d   1       5.309  -0.034  -2.510  0.00  0.00     0.056 H 
BRANCH  24  27
ATOM     27  O   LIG d   1       6.100   1.740  -3.215  0.00  0.00    -0.395 OA
ATOM     28  H   LIG d   1       6.926   1.262  -3.379  0.00  0.00     0.209 HD
ENDBRANCH  24  27
ENDBRANCH  21  24
ENDBRANCH  18  21
ENDBRANCH   1  18
BRANCH   1  29
ATOM     29  C   LIG d   1       3.991  -1.985  -4.005  0.00  0.00     0.090 C 
ATOM     30  H   LIG d   1       3.238  -2.395  -4.678  0.00  0.00     0.065 H 
BRANCH  29  31
ATOM     31  C   LIG d   1       5.303  -2.691  -4.232  0.00  0.00     0.023 A 
ATOM     32  C   LIG d   1       5.376  -3.753  -5.121  0.00  0.00     0.126 A 
ATOM     33  C   LIG d   1       6.585  -4.401  -5.327  0.00  0.00    -0.020 A 
ATOM     34  C   LIG d   1       7.716  -3.984  -4.650  0.00  0.00    -0.058 A 
ATOM     35  H   LIG d   1       6.645  -5.228  -6.019  0.00  0.00     0.065 H 
ATOM     36  C   LIG d   1       7.640  -2.928  -3.761  0.00  0.00    -0.061 A 
ATOM     37  H   LIG d   1       8.658  -4.485  -4.814  0.00  0.00     0.062 H 
ATOM     38  C   LIG d   1       6.435  -2.280  -3.554  0.00  0.00    -0.053 A 
ATOM     39  H   LIG d   1       8.523  -2.606  -3.229  0.00  0.00     0.062 H 
ATOM     40  H   LIG d   1       6.380  -1.453  -2.862  0.00  0.00     0.062 H 
BRANCH  32  41
ATOM     41  O   LIG d   1       4.264  -4.159  -5.789  0.00  0.00    -0.495 OA
BRANCH  41  42
ATOM     42  C   LIG d   1       4.216  -3.889  -7.192  0.00  0.00     0.079 C 
ATOM     43  H   LIG d   1       4.536  -4.773  -7.743  0.00  0.00     0.066 H 
ATOM     44  H   LIG d   1       3.197  -3.631  -7.479  0.00  0.00     0.066 H 
ATOM     45  H   LIG d   1       4.881  -3.056  -7.424  0.00  0.00     0.066 H 
ENDBRANCH  41  42
ENDBRANCH  32  41
ENDBRANCH  29  31
BRANCH  29  46
ATOM     46  O   LIG d   1       3.576  -2.175  -2.651  0.00  0.00    -0.387 OA
ATOM     47  H   LIG d   1       3.441  -1.352  -2.162  0.00  0.00     0.210 HD
ENDBRANCH  29  46
ENDBRANCH   1  29
TORSDOF 12
ENDMDL
MODEL 7
REMARK VINA RESULT:      -5.2      1.995      5.665
REMARK  12 active torsions:
REMARK  status: ('A' for Active; 'I' for Inactive)
REMARK    1  A    between atoms: C_1  and  O_2 
REMARK    2  A    between atoms: O_2  and  C_3 
REMARK    3  A    between atoms: C_8  and  C_9 
REMARK    4  A    between atoms: C_9  and  C_11 
REMARK    5  A    between atoms: C_9  and  C_15 
REMARK    6  A    between atoms: C_11  and  C_12 
REMARK    7  A    between atoms: C_12  and  C_13 
REMARK    8  A    between atoms: C_13  and  O_14 
REMARK    9  A    between atoms: C_15  and  C_17 
REMARK   10  A    between atoms: C_15  and  O_25 
REMARK   11  A    between atoms: C_22  and  O_23 
REMARK   12  A    between atoms: O_23  and  C_24 
ROOT
ATOM      1  C   LIG d   1       5.154  -1.901  -4.419  0.00  0.00     0.018 C 
ATOM      2  H   LIG d   1       4.134  -2.140  -4.718  0.00  0.00     0.038 H 
ENDROOT
BRANCH   1   3
ATOM      3  C   LIG d   1       6.046  -3.085  -4.685  0.00  0.00     0.000 A 
ATOM      4  C   LIG d   1       5.536  -4.212  -5.313  0.00  0.00     0.124 A 
ATOM      5  C   LIG d   1       6.360  -5.301  -5.557  0.00  0.00    -0.020 A 
ATOM      6  C   LIG d   1       7.686  -5.261  -5.175  0.00  0.00    -0.058 A 
ATOM      7  H   LIG d   1       5.964  -6.180  -6.045  0.00  0.00     0.065 H 
ATOM      8  C   LIG d   1       8.193  -4.137  -4.549  0.00  0.00    -0.061 A 
ATOM      9  H   LIG d   1       8.328  -6.109  -5.364  0.00  0.00     0.062 H 
ATOM     10  C   LIG d   1       7.375  -3.048  -4.310  0.00  0.00    -0.055 A 
ATOM     11  H   LIG d   1       9.231  -4.107  -4.250  0.00  0.00     0.062 H 
ATOM     12  H   LIG d   1       7.775  -2.170  -3.825  0.00  0.00     0.062 H 
BRANCH   4  13
ATOM     13  O   LIG d   1       4.229  -4.250  -5.687  0.00  0.00    -0.495 OA
BRANCH  13  14
ATOM     14  C   LIG d   1       3.918  -4.960  -6.886  0.00  0.00     0.079 C 
ATOM     15  H   LIG d   1       4.576  -5.825  -6.979  0.00  0.00     0.066 H 
ATOM     16  H   LIG d   1       2.881  -5.295  -6.851  0.00  0.00     0.066 H 
ATOM     17  H   LIG d   1       4.059  -4.303  -7.745  0.00  0.00     0.066 H 
ENDBRANCH  13  14
ENDBRANCH   4  13
ENDBRANCH   1   3
BRANCH   1  18
ATOM     18  C   LIG d   1       5.183  -1.565  -2.927  0.00  0.00    -0.041 C 
ATOM     19  H   LIG d   1       5.940  -2.174  -2.432  0.00  0.00     0.027 H 
ATOM     20  H   LIG d   1       5.423  -0.509  -2.796  0.00  0.00     0.027 H 
BRANCH  18  21
ATOM     21  C   LIG d   1       3.813  -1.856  -2.312  0.00  0.00    -0.029 C 
ATOM     22  H   LIG d   1       3.496  -2.862  -2.588  0.00  0.00     0.029 H 
ATOM     23  H   LIG d   1       3.878  -1.780  -1.227  0.00  0.00     0.029 H 
BRANCH  21  24
ATOM     24  C   LIG d   1       2.793  -0.841  -2.834  0.00  0.00     0.044 C 
ATOM     25  H   LIG d   1       2.688  -0.955  -3.914  0.00  0.00     0.056 H 
ATOM     26  H   LIG d   1       1.830  -1.015  -2.355  0.00  0.00     0.056 H 
BRANCH  24  27
ATOM     27  O   LIG d   1       3.243   0.482  -2.537  0.00  0.00    -0.395 OA
ATOM     28  H   LIG d   1       2.532   1.097  -2.307  0.00  0.00     0.209 HD
ENDBRANCH  24  27
ENDBRANCH  21  24
ENDBRANCH  18  21
ENDBRANCH   1  18
BRANCH   1  29
ATOM     29  C   LIG d   1       5.651  -0.697  -5.222  0.00  0.00     0.090 C 
ATOM     30  H   LIG d   1       6.700  -0.841  -5.482  0.00  0.00     0.065 H 
BRANCH  29  31
ATOM     31  C   LIG d   1       4.837  -0.563  -6.483  0.00  0.00     0.023 A 
ATOM     32  C   LIG d   1       5.386  -0.920  -7.706  0.00  0.00     0.126 A 
ATOM     33  C   LIG d   1       4.634  -0.795  -8.865  0.00  0.00    -0.020 A 
ATOM     34  C   LIG d   1       3.337  -0.321  -8.798  0.00  0.00    -0.058 A 
ATOM     35  H   LIG d   1       5.058  -1.072  -9.818  0.00  0.00     0.065 H 
ATOM     36  C   LIG d   1       2.793   0.038  -7.578  0.00  0.00    -0.061 A 
ATOM     37  H   LIG d   1       2.749  -0.229  -9.699  0.00  0.00     0.062 H 
ATOM     38  C   LIG d   1       3.541  -0.085  -6.422  0.00  0.00    -0.053 A 
ATOM     39  H   LIG d   1       1.782   0.412  -7.528  0.00  0.00     0.062 H 
ATOM     40  H   LIG d   1       3.113   0.192  -5.470  0.00  0.00     0.062 H 
BRANCH  32  41
ATOM     41  O   LIG d   1       6.660  -1.390  -7.769  0.00  0.00    -0.495 OA
BRANCH  41  42
ATOM     42  C   LIG d   1       6.848  -2.673  -8.371  0.00  0.00     0.079 C 
ATOM     43  H   LIG d   1       6.479  -2.650  -9.396  0.00  0.00     0.066 H 
ATOM     44  H   LIG d   1       7.908  -2.922  -8.371  0.00  0.00     0.066 H 
ATOM     45  H   LIG d   1       6.298  -3.424  -7.803  0.00  0.00     0.066 H 
ENDBRANCH  41  42
ENDBRANCH  32  41
ENDBRANCH  29  31
BRANCH  29  46
ATOM     46  O   LIG d   1       5.512   0.489  -4.438  0.00  0.00    -0.387 OA
ATOM     47  H   LIG d   1       6.196   0.597  -3.763  0.00  0.00     0.210 HD
ENDBRANCH  29  46
ENDBRANCH   1  29
TORSDOF 12
ENDMDL
MODEL 8
REMARK VINA RESULT:      -5.2      1.997      3.335
REMARK  12 active torsions:
REMARK  status: ('A' for Active; 'I' for Inactive)
REMARK    1  A    between atoms: C_1  and  O_2 
REMARK    2  A    between atoms: O_2  and  C_3 
REMARK    3  A    between atoms: C_8  and  C_9 
REMARK    4  A    between atoms: C_9  and  C_11 
REMARK    5  A    between atoms: C_9  and  C_15 
REMARK    6  A    between atoms: C_11  and  C_12 
REMARK    7  A    between atoms: C_12  and  C_13 
REMARK    8  A    between atoms: C_13  and  O_14 
REMARK    9  A    between atoms: C_15  and  C_17 
REMARK   10  A    between atoms: C_15  and  O_25 
REMARK   11  A    between atoms: C_22  and  O_23 
REMARK   12  A    between atoms: O_23  and  C_24 
ROOT
ATOM      1  C   LIG d   1       4.610  -1.524  -7.330  0.00  0.00     0.018 C 
ATOM      2  H   LIG d   1       4.547  -2.502  -6.852  0.00  0.00     0.038 H 
ENDROOT
BRANCH   1   3
ATOM      3  C   LIG d   1       3.514  -1.396  -8.355  0.00  0.00     0.000 A 
ATOM      4  C   LIG d   1       3.008  -2.527  -8.978  0.00  0.00     0.124 A 
ATOM      5  C   LIG d   1       1.998  -2.405  -9.921  0.00  0.00    -0.020 A 
ATOM      6  C   LIG d   1       1.497  -1.158 -10.237  0.00  0.00    -0.058 A 
ATOM      7  H   LIG d   1       1.603  -3.286 -10.407  0.00  0.00     0.065 H 
ATOM      8  C   LIG d   1       2.003  -0.031  -9.616  0.00  0.00    -0.061 A 
ATOM      9  H   LIG d   1       0.711  -1.062 -10.972  0.00  0.00     0.062 H 
ATOM     10  C   LIG d   1       3.006  -0.150  -8.671  0.00  0.00    -0.055 A 
ATOM     11  H   LIG d   1       1.611   0.945  -9.865  0.00  0.00     0.062 H 
ATOM     12  H   LIG d   1       3.396   0.731  -8.185  0.00  0.00     0.062 H 
BRANCH   4  13
ATOM     13  O   LIG d   1       3.502  -3.754  -8.665  0.00  0.00    -0.495 OA
BRANCH  13  14
ATOM     14  C   LIG d   1       3.011  -4.864  -9.419  0.00  0.00     0.079 C 
ATOM     15  H   LIG d   1       2.989  -5.752  -8.787  0.00  0.00     0.066 H 
ATOM     16  H   LIG d   1       2.002  -4.645  -9.771  0.00  0.00     0.066 H 
ATOM     17  H   LIG d   1       3.664  -5.041 -10.273  0.00  0.00     0.066 H 
ENDBRANCH  13  14
ENDBRANCH   4  13
ENDBRANCH   1   3
BRANCH   1  18
ATOM     18  C   LIG d   1       5.969  -1.378  -8.017  0.00  0.00    -0.041 C 
ATOM     19  H   LIG d   1       5.822  -1.194  -9.081  0.00  0.00     0.027 H 
ATOM     20  H   LIG d   1       6.511  -0.541  -7.575  0.00  0.00     0.027 H 
BRANCH  18  21
ATOM     21  C   LIG d   1       6.777  -2.663  -7.828  0.00  0.00    -0.029 C 
ATOM     22  H   LIG d   1       6.097  -3.497  -7.647  0.00  0.00     0.029 H 
ATOM     23  H   LIG d   1       7.362  -2.860  -8.727  0.00  0.00     0.029 H 
BRANCH  21  24
ATOM     24  C   LIG d   1       7.718  -2.505  -6.632  0.00  0.00     0.044 C 
ATOM     25  H   LIG d   1       7.216  -2.849  -5.727  0.00  0.00     0.056 H 
ATOM     26  H   LIG d   1       8.618  -3.097  -6.796  0.00  0.00     0.056 H 
BRANCH  24  27
ATOM     27  O   LIG d   1       8.073  -1.129  -6.484  0.00  0.00    -0.395 OA
ATOM     28  H   LIG d   1       8.227  -0.858  -5.568  0.00  0.00     0.209 HD
ENDBRANCH  24  27
ENDBRANCH  21  24
ENDBRANCH  18  21
ENDBRANCH   1  18
BRANCH   1  29
ATOM     29  C   LIG d   1       4.452  -0.429  -6.273  0.00  0.00     0.090 C 
ATOM     30  H   LIG d   1       3.584   0.186  -6.514  0.00  0.00     0.065 H 
BRANCH  29  31
ATOM     31  C   LIG d   1       4.258  -1.063  -4.919  0.00  0.00     0.023 A 
ATOM     32  C   LIG d   1       3.796  -0.301  -3.856  0.00  0.00     0.126 A 
ATOM     33  C   LIG d   1       3.619  -0.887  -2.611  0.00  0.00    -0.020 A 
ATOM     34  C   LIG d   1       3.898  -2.229  -2.434  0.00  0.00    -0.058 A 
ATOM     35  H   LIG d   1       3.259  -0.297  -1.781  0.00  0.00     0.065 H 
ATOM     36  C   LIG d   1       4.363  -2.985  -3.495  0.00  0.00    -0.061 A 
ATOM     37  H   LIG d   1       3.756  -2.687  -1.467  0.00  0.00     0.062 H 
ATOM     38  C   LIG d   1       4.540  -2.403  -4.737  0.00  0.00    -0.053 A 
ATOM     39  H   LIG d   1       4.585  -4.033  -3.354  0.00  0.00     0.062 H 
ATOM     40  H   LIG d   1       4.900  -2.997  -5.564  0.00  0.00     0.062 H 
BRANCH  32  41
ATOM     41  O   LIG d   1       3.517   1.017  -4.034  0.00  0.00    -0.495 OA
BRANCH  41  42
ATOM     42  C   LIG d   1       3.630   1.864  -2.887  0.00  0.00     0.079 C 
ATOM     43  H   LIG d   1       3.309   1.318  -2.000  0.00  0.00     0.066 H 
ATOM     44  H   LIG d   1       4.667   2.176  -2.767  0.00  0.00     0.066 H 
ATOM     45  H   LIG d   1       2.999   2.743  -3.022  0.00  0.00     0.066 H 
ENDBRANCH  41  42
ENDBRANCH  32  41
ENDBRANCH  29  31
BRANCH  29  46
ATOM     46  O   LIG d   1       5.625   0.386  -6.253  0.00  0.00    -0.387 OA
ATOM     47  H   LIG d   1       6.400  -0.047  -5.872  0.00  0.00     0.210 HD
ENDBRANCH  29  46
ENDBRANCH   1  29
TORSDOF 12
ENDMDL
MODEL 9
REMARK VINA RESULT:      -5.2      1.817      5.715
REMARK  12 active torsions:
REMARK  status: ('A' for Active; 'I' for Inactive)
REMARK    1  A    between atoms: C_1  and  O_2 
REMARK    2  A    between atoms: O_2  and  C_3 
REMARK    3  A    between atoms: C_8  and  C_9 
REMARK    4  A    between atoms: C_9  and  C_11 
REMARK    5  A    between atoms: C_9  and  C_15 
REMARK    6  A    between atoms: C_11  and  C_12 
REMARK    7  A    between atoms: C_12  and  C_13 
REMARK    8  A    between atoms: C_13  and  O_14 
REMARK    9  A    between atoms: C_15  and  C_17 
REMARK   10  A    between atoms: C_15  and  O_25 
REMARK   11  A    between atoms: C_22  and  O_23 
REMARK   12  A    between atoms: O_23  and  C_24 
ROOT
ATOM      1  C   LIG d   1       5.338  -2.402  -5.703  0.00  0.00     0.018 C 
ATOM      2  H   LIG d   1       5.180  -1.882  -6.648  0.00  0.00     0.038 H 
ENDROOT
BRANCH   1   3
ATOM      3  C   LIG d   1       4.518  -1.744  -4.625  0.00  0.00     0.000 A 
ATOM      4  C   LIG d   1       3.926  -0.510  -4.856  0.00  0.00     0.124 A 
ATOM      5  C   LIG d   1       3.171   0.093  -3.861  0.00  0.00    -0.020 A 
ATOM      6  C   LIG d   1       3.009  -0.536  -2.643  0.00  0.00    -0.058 A 
ATOM      7  H   LIG d   1       2.710   1.053  -4.040  0.00  0.00     0.065 H 
ATOM      8  C   LIG d   1       3.600  -1.765  -2.413  0.00  0.00    -0.061 A 
ATOM      9  H   LIG d   1       2.422  -0.066  -1.867  0.00  0.00     0.062 H 
ATOM     10  C   LIG d   1       4.349  -2.371  -3.405  0.00  0.00    -0.055 A 
ATOM     11  H   LIG d   1       3.473  -2.255  -1.458  0.00  0.00     0.062 H 
ATOM     12  H   LIG d   1       4.805  -3.333  -3.225  0.00  0.00     0.062 H 
BRANCH   4  13
ATOM     13  O   LIG d   1       4.087   0.107  -6.057  0.00  0.00    -0.495 OA
BRANCH  13  14
ATOM     14  C   LIG d   1       2.921   0.272  -6.864  0.00  0.00     0.079 C 
ATOM     15  H   LIG d   1       2.563  -0.705  -7.191  0.00  0.00     0.066 H 
ATOM     16  H   LIG d   1       2.143   0.767  -6.281  0.00  0.00     0.066 H 
ATOM     17  H   LIG d   1       3.164   0.880  -7.735  0.00  0.00     0.066 H 
ENDBRANCH  13  14
ENDBRANCH   4  13
ENDBRANCH   1   3
BRANCH   1  18
ATOM     18  C   LIG d   1       6.820  -2.339  -5.327  0.00  0.00    -0.041 C 
ATOM     19  H   LIG d   1       6.920  -1.982  -4.302  0.00  0.00     0.027 H 
ATOM     20  H   LIG d   1       7.259  -3.334  -5.412  0.00  0.00     0.027 H 
BRANCH  18  21
ATOM     21  C   LIG d   1       7.546  -1.380  -6.273  0.00  0.00    -0.029 C 
ATOM     22  H   LIG d   1       8.541  -1.768  -6.491  0.00  0.00     0.029 H 
ATOM     23  H   LIG d   1       6.981  -1.287  -7.200  0.00  0.00     0.029 H 
BRANCH  21  24
ATOM     24  C   LIG d   1       7.669  -0.006  -5.611  0.00  0.00     0.044 C 
ATOM     25  H   LIG d   1       7.346  -0.073  -4.572  0.00  0.00     0.056 H 
ATOM     26  H   LIG d   1       8.707   0.323  -5.649  0.00  0.00     0.056 H 
BRANCH  24  27
ATOM     27  O   LIG d   1       6.846   0.933  -6.306  0.00  0.00    -0.395 OA
ATOM     28  H   LIG d   1       6.492   0.601  -7.143  0.00  0.00     0.209 HD
ENDBRANCH  24  27
ENDBRANCH  21  24
ENDBRANCH  18  21
ENDBRANCH   1  18
BRANCH   1  29
ATOM     29  C   LIG d   1       4.911  -3.864  -5.849  0.00  0.00     0.090 C 
ATOM     30  H   LIG d   1       4.211  -4.119  -5.052  0.00  0.00     0.065 H 
BRANCH  29  31
ATOM     31  C   LIG d   1       4.242  -4.060  -7.185  0.00  0.00     0.023 A 
ATOM     32  C   LIG d   1       3.779  -5.316  -7.552  0.00  0.00     0.126 A 
ATOM     33  C   LIG d   1       3.165  -5.493  -8.783  0.00  0.00    -0.020 A 
ATOM     34  C   LIG d   1       3.011  -4.419  -9.639  0.00  0.00    -0.058 A 
ATOM     35  H   LIG d   1       2.802  -6.469  -9.071  0.00  0.00     0.065 H 
ATOM     36  C   LIG d   1       3.479  -3.170  -9.274  0.00  0.00    -0.061 A 
ATOM     37  H   LIG d   1       2.529  -4.556 -10.596  0.00  0.00     0.062 H 
ATOM     38  C   LIG d   1       4.092  -2.990  -8.047  0.00  0.00    -0.053 A 
ATOM     39  H   LIG d   1       3.362  -2.333  -9.946  0.00  0.00     0.062 H 
ATOM     40  H   LIG d   1       4.452  -2.013  -7.762  0.00  0.00     0.062 H 
BRANCH  32  41
ATOM     41  O   LIG d   1       3.926  -6.369  -6.706  0.00  0.00    -0.495 OA
BRANCH  41  42
ATOM     42  C   LIG d   1       4.507  -7.558  -7.247  0.00  0.00     0.079 C 
ATOM     43  H   LIG d   1       4.112  -8.427  -6.720  0.00  0.00     0.066 H 
ATOM     44  H   LIG d   1       4.263  -7.633  -8.305  0.00  0.00     0.066 H 
ATOM     45  H   LIG d   1       5.590  -7.519  -7.125  0.00  0.00     0.066 H 
ENDBRANCH  41  42
ENDBRANCH  32  41
ENDBRANCH  29  31
BRANCH  29  46
ATOM     46  O   LIG d   1       6.061  -4.707  -5.763  0.00  0.00    -0.387 OA
ATOM     47  H   LIG d   1       5.899  -5.623  -6.026  0.00  0.00     0.210 HD
ENDBRANCH  29  46
ENDBRANCH   1  29
TORSDOF 12
ENDMDL
MODEL 10
REMARK VINA RESULT:      -5.1      1.298      5.334
REMARK  12 active torsions:
REMARK  status: ('A' for Active; 'I' for Inactive)
REMARK    1  A    between atoms: C_1  and  O_2 
REMARK    2  A    between atoms: O_2  and  C_3 
REMARK    3  A    between atoms: C_8  and  C_9 
REMARK    4  A    between atoms: C_9  and  C_11 
REMARK    5  A    between atoms: C_9  and  C_15 
REMARK    6  A    between atoms: C_11  and  C_12 
REMARK    7  A    between atoms: C_12  and  C_13 
REMARK    8  A    between atoms: C_13  and  O_14 
REMARK    9  A    between atoms: C_15  and  C_17 
REMARK   10  A    between atoms: C_15  and  O_25 
REMARK   11  A    between atoms: C_22  and  O_23 
REMARK   12  A    between atoms: O_23  and  C_24 
ROOT
ATOM      1  C   LIG d   1       5.837  -1.199  -5.943  0.00  0.00     0.018 C 
ATOM      2  H   LIG d   1       6.303  -0.243  -6.180  0.00  0.00     0.038 H 
ENDROOT
BRANCH   1   3
ATOM      3  C   LIG d   1       5.300  -1.161  -4.537  0.00  0.00     0.000 A 
ATOM      4  C   LIG d   1       5.523  -0.049  -3.737  0.00  0.00     0.124 A 
ATOM      5  C   LIG d   1       5.027  -0.017  -2.442  0.00  0.00    -0.020 A 
ATOM      6  C   LIG d   1       4.311  -1.091  -1.951  0.00  0.00    -0.058 A 
ATOM      7  H   LIG d   1       5.200   0.848  -1.819  0.00  0.00     0.065 H 
ATOM      8  C   LIG d   1       4.090  -2.199  -2.749  0.00  0.00    -0.061 A 
ATOM      9  H   LIG d   1       3.925  -1.067  -0.942  0.00  0.00     0.062 H 
ATOM     10  C   LIG d   1       4.579  -2.231  -4.042  0.00  0.00    -0.055 A 
ATOM     11  H   LIG d   1       3.531  -3.039  -2.363  0.00  0.00     0.062 H 
ATOM     12  H   LIG d   1       4.401  -3.096  -4.665  0.00  0.00     0.062 H 
BRANCH   4  13
ATOM     13  O   LIG d   1       6.228   1.007  -4.222  0.00  0.00    -0.495 OA
BRANCH  13  14
ATOM     14  C   LIG d   1       7.536   1.214  -3.688  0.00  0.00     0.079 C 
ATOM     15  H   LIG d   1       7.562   2.157  -3.142  0.00  0.00     0.066 H 
ATOM     16  H   LIG d   1       7.787   0.395  -3.012  0.00  0.00     0.066 H 
ATOM     17  H   LIG d   1       8.260   1.247  -4.503  0.00  0.00     0.066 H 
ENDBRANCH  13  14
ENDBRANCH   4  13
ENDBRANCH   1   3
BRANCH   1  18
ATOM     18  C   LIG d   1       6.875  -2.316  -6.063  0.00  0.00    -0.041 C 
ATOM     19  H   LIG d   1       6.737  -3.030  -5.251  0.00  0.00     0.027 H 
ATOM     20  H   LIG d   1       6.752  -2.826  -7.019  0.00  0.00     0.027 H 
BRANCH  18  21
ATOM     21  C   LIG d   1       8.280  -1.718  -5.981  0.00  0.00    -0.029 C 
ATOM     22  H   LIG d   1       8.469  -1.369  -4.965  0.00  0.00     0.029 H 
ATOM     23  H   LIG d   1       9.015  -2.477  -6.248  0.00  0.00     0.029 H 
BRANCH  21  24
ATOM     24  C   LIG d   1       8.390  -0.539  -6.951  0.00  0.00     0.044 C 
ATOM     25  H   LIG d   1       7.509   0.097  -6.852  0.00  0.00     0.056 H 
ATOM     26  H   LIG d   1       9.284   0.040  -6.719  0.00  0.00     0.056 H 
BRANCH  24  27
ATOM     27  O   LIG d   1       8.474  -1.031  -8.290  0.00  0.00    -0.395 OA
ATOM     28  H   LIG d   1       8.710  -0.356  -8.943  0.00  0.00     0.209 HD
ENDBRANCH  24  27
ENDBRANCH  21  24
ENDBRANCH  18  21
ENDBRANCH   1  18
BRANCH   1  29
ATOM     29  C   LIG d   1       4.689  -1.463  -6.920  0.00  0.00     0.090 C 
ATOM     30  H   LIG d   1       3.818  -1.821  -6.371  0.00  0.00     0.065 H 
BRANCH  29  31
ATOM     31  C   LIG d   1       4.338  -0.185  -7.638  0.00  0.00     0.023 A 
ATOM     32  C   LIG d   1       3.189   0.513  -7.293  0.00  0.00     0.126 A 
ATOM     33  C   LIG d   1       2.869   1.688  -7.956  0.00  0.00    -0.020 A 
ATOM     34  C   LIG d   1       3.696   2.164  -8.956  0.00  0.00    -0.058 A 
ATOM     35  H   LIG d   1       1.976   2.233  -7.690  0.00  0.00     0.065 H 
ATOM     36  C   LIG d   1       4.838   1.465  -9.302  0.00  0.00    -0.061 A 
ATOM     37  H   LIG d   1       3.450   3.082  -9.469  0.00  0.00     0.062 H 
ATOM     38  C   LIG d   1       5.160   0.292  -8.642  0.00  0.00    -0.053 A 
ATOM     39  H   LIG d   1       5.481   1.835 -10.085  0.00  0.00     0.062 H 
ATOM     40  H   LIG d   1       6.054  -0.250  -8.911  0.00  0.00     0.062 H 
BRANCH  32  41
ATOM     41  O   LIG d   1       2.380   0.045  -6.307  0.00  0.00    -0.495 OA
BRANCH  41  42
ATOM     42  C   LIG d   1       2.327   0.804  -5.097  0.00  0.00     0.079 C 
ATOM     43  H   LIG d   1       1.592   0.364  -4.423  0.00  0.00     0.066 H 
ATOM     44  H   LIG d   1       3.307   0.797  -4.620  0.00  0.00     0.066 H 
ATOM     45  H   LIG d   1       2.042   1.831  -5.326  0.00  0.00     0.066 H 
ENDBRANCH  41  42
ENDBRANCH  32  41
ENDBRANCH  29  31
BRANCH  29  46
ATOM     46  O   LIG d   1       5.092  -2.449  -7.873  0.00  0.00    -0.387 OA
ATOM     47  H   LIG d   1       4.405  -2.682  -8.512  0.00  0.00     0.210 HD
ENDBRANCH  29  46
ENDBRANCH   1  29
TORSDOF 12
ENDMDL
