MODEL 1
REMARK VINA RESULT:      -6.6      0.000      0.000
REMARK  12 active torsions:
REMARK  status: ('A' for Active; 'I' for Inactive)
REMARK    1  A    between atoms: C_1  and  C_2 
REMARK    2  A    between atoms: C_2  and  C_35 
REMARK    3  A    between atoms: C_3  and  C_4 
REMARK       I    between atoms: C_4  and  N_6 
REMARK    4  A    between atoms: N_6  and  C_7 
REMARK       I    between atoms: N_11  and  C_29 
REMARK    5  A    between atoms: C_12  and  C_14 
REMARK       I    between atoms: C_14  and  N_16 
REMARK    6  A    between atoms: N_16  and  C_17 
REMARK    7  A    between atoms: C_17  and  C_19 
REMARK    8  A    between atoms: C_17  and  C_26 
REMARK    9  A    between atoms: C_19  and  C_20 
REMARK       I    between atoms: C_26  and  N_28 
REMARK   10  A    between atoms: C_29  and  C_31 
REMARK   11  A    between atoms: C_32  and  C_33 
REMARK   12  A    between atoms: C_32  and  C_34 
ROOT
ATOM      1  C   LIG d   1       5.258  -2.765  -6.334  0.00  0.00     0.052 C 
ATOM      2  H   LIG d   1       5.732  -2.069  -7.027  0.00  0.00     0.052 H 
ATOM      3  C   LIG d   1       6.310  -3.711  -5.696  0.00  0.00    -0.016 C 
ATOM      4  C   LIG d   1       6.452  -4.799  -6.789  0.00  0.00     0.018 C 
ATOM      5  N   LIG d   1       5.092  -4.972  -7.329  0.00  0.00    -0.285 N 
ATOM      6  C   LIG d   1       4.328  -3.739  -7.087  0.00  0.00     0.121 C 
ATOM      7  H   LIG d   1       3.450  -3.958  -6.478  0.00  0.00     0.061 H 
ATOM      8  C   LIG d   1       4.625  -6.076  -7.944  0.00  0.00     0.240 C 
ATOM      9  O   LIG d   1       3.480  -6.108  -8.352  0.00  0.00    -0.271 OA
ATOM     10  H   LIG d   1       7.255  -3.193  -5.535  0.00  0.00     0.030 H 
ATOM     11  H   LIG d   1       5.937  -4.138  -4.765  0.00  0.00     0.030 H 
ATOM     12  H   LIG d   1       7.132  -4.464  -7.573  0.00  0.00     0.046 H 
ATOM     13  H   LIG d   1       6.808  -5.733  -6.351  0.00  0.00     0.046 H 
ENDROOT
BRANCH   6  14
ATOM     14  C   LIG d   1       3.903  -3.132  -8.399  0.00  0.00     0.236 C 
ATOM     15  O   LIG d   1       4.735  -2.660  -9.146  0.00  0.00    -0.274 OA
ATOM     16  N   LIG d   1       2.601  -3.112  -8.742  0.00  0.00    -0.302 N 
ATOM     17  H   LIG d   1       1.936  -3.490  -8.145  0.00  0.00     0.149 HD
BRANCH  16  18
ATOM     18  C   LIG d   1       2.188  -2.522 -10.018  0.00  0.00     0.103 C 
ATOM     19  H   LIG d   1       3.071  -2.309 -10.622  0.00  0.00     0.060 H 
BRANCH  18  20
ATOM     20  C   LIG d   1       1.425  -1.222  -9.755  0.00  0.00    -0.001 C 
ATOM     21  H   LIG d   1       0.950  -1.272  -8.776  0.00  0.00     0.034 H 
ATOM     22  H   LIG d   1       0.662  -1.087 -10.522  0.00  0.00     0.034 H 
BRANCH  20  23
ATOM     23  C   LIG d   1       2.383  -0.060  -9.790  0.00  0.00    -0.045 A 
ATOM     24  C   LIG d   1       2.468   0.800  -8.711  0.00  0.00    -0.059 A 
ATOM     25  C   LIG d   1       3.347   1.866  -8.744  0.00  0.00    -0.061 A 
ATOM     26  H   LIG d   1       1.848   0.638  -7.842  0.00  0.00     0.062 H 
ATOM     27  C   LIG d   1       4.142   2.073  -9.857  0.00  0.00    -0.062 A 
ATOM     28  H   LIG d   1       3.413   2.539  -7.901  0.00  0.00     0.062 H 
ATOM     29  C   LIG d   1       4.057   1.213 -10.937  0.00  0.00    -0.061 A 
ATOM     30  H   LIG d   1       4.828   2.905  -9.882  0.00  0.00     0.062 H 
ATOM     31  C   LIG d   1       3.181   0.144 -10.901  0.00  0.00    -0.059 A 
ATOM     32  H   LIG d   1       4.677   1.374 -11.805  0.00  0.00     0.062 H 
ATOM     33  H   LIG d   1       3.117  -0.530 -11.742  0.00  0.00     0.062 H 
ENDBRANCH  20  23
ENDBRANCH  18  20
BRANCH  18  34
ATOM     34  C   LIG d   1       1.296  -3.487 -10.754  0.00  0.00     0.231 C 
ATOM     35  O   LIG d   1       1.675  -3.995 -11.789  0.00  0.00    -0.274 OA
ATOM     36  N   LIG d   1       0.078  -3.789 -10.264  0.00  0.00    -0.328 N 
ATOM     37  H   LIG d   1      -0.226  -3.383  -9.437  0.00  0.00     0.145 HD
ATOM     38  H   LIG d   1      -0.496  -4.411 -10.738  0.00  0.00     0.145 HD
ENDBRANCH  18  34
ENDBRANCH  16  18
ENDBRANCH   6  14
BRANCH   1  39
ATOM     39  N   LIG d   1       4.519  -2.038  -5.298  0.00  0.00    -0.307 N 
ATOM     40  C   LIG d   1       4.425  -0.694  -5.355  0.00  0.00     0.237 C 
ATOM     41  O   LIG d   1       4.953  -0.086  -6.266  0.00  0.00    -0.271 OA
ATOM     42  H   LIG d   1       4.099  -2.524  -4.573  0.00  0.00     0.149 HD
BRANCH  40  43
ATOM     43  C   LIG d   1       3.683   0.035  -4.317  0.00  0.00    -0.001 C 
ATOM     44  C   LIG d   1       4.328   0.537  -3.267  0.00  0.00    -0.071 C 
ATOM     45  H   LIG d   1       2.614   0.163  -4.405  0.00  0.00     0.067 H 
BRANCH  44  46
ATOM     46  C   LIG d   1       5.791   0.239  -3.068  0.00  0.00    -0.044 C 
ATOM     47  H   LIG d   1       5.917  -0.394  -2.189  0.00  0.00     0.027 H 
ATOM     48  H   LIG d   1       6.179  -0.276  -3.947  0.00  0.00     0.027 H 
ATOM     49  H   LIG d   1       6.336   1.173  -2.924  0.00  0.00     0.027 H 
ENDBRANCH  44  46
BRANCH  44  50
ATOM     50  C   LIG d   1       3.594   1.403  -2.275  0.00  0.00    -0.044 C 
ATOM     51  H   LIG d   1       3.075   2.202  -2.805  0.00  0.00     0.027 H 
ATOM     52  H   LIG d   1       2.869   0.797  -1.731  0.00  0.00     0.027 H 
ATOM     53  H   LIG d   1       4.307   1.835  -1.574  0.00  0.00     0.027 H 
ENDBRANCH  44  50
ENDBRANCH  40  43
ENDBRANCH   1  39
BRANCH   8  54
ATOM     54  C   LIG d   1       5.501  -7.245  -8.122  0.00  0.00    -0.001 C 
ATOM     55  C   LIG d   1       5.591  -8.161  -7.162  0.00  0.00    -0.071 C 
ATOM     56  H   LIG d   1       6.070  -7.360  -9.032  0.00  0.00     0.067 H 
BRANCH  55  57
ATOM     57  C   LIG d   1       4.797  -8.001  -5.891  0.00  0.00    -0.044 C 
ATOM     58  H   LIG d   1       3.734  -8.095  -6.113  0.00  0.00     0.027 H 
ATOM     59  H   LIG d   1       5.090  -8.773  -5.180  0.00  0.00     0.027 H 
ATOM     60  H   LIG d   1       4.993  -7.019  -5.461  0.00  0.00     0.027 H 
ENDBRANCH  55  57
BRANCH  55  61
ATOM     61  C   LIG d   1       6.489  -9.358  -7.344  0.00  0.00    -0.044 C 
ATOM     62  H   LIG d   1       7.464  -9.151  -6.905  0.00  0.00     0.027 H 
ATOM     63  H   LIG d   1       6.044 -10.223  -6.851  0.00  0.00     0.027 H 
ATOM     64  H   LIG d   1       6.605  -9.565  -8.407  0.00  0.00     0.027 H 
ENDBRANCH  55  61
ENDBRANCH   8  54
TORSDOF 12
ENDMDL
MODEL 2
REMARK VINA RESULT:      -6.5      2.924      6.768
REMARK  12 active torsions:
REMARK  status: ('A' for Active; 'I' for Inactive)
REMARK    1  A    between atoms: C_1  and  C_2 
REMARK    2  A    between atoms: C_2  and  C_35 
REMARK    3  A    between atoms: C_3  and  C_4 
REMARK       I    between atoms: C_4  and  N_6 
REMARK    4  A    between atoms: N_6  and  C_7 
REMARK       I    between atoms: N_11  and  C_29 
REMARK    5  A    between atoms: C_12  and  C_14 
REMARK       I    between atoms: C_14  and  N_16 
REMARK    6  A    between atoms: N_16  and  C_17 
REMARK    7  A    between atoms: C_17  and  C_19 
REMARK    8  A    between atoms: C_17  and  C_26 
REMARK    9  A    between atoms: C_19  and  C_20 
REMARK       I    between atoms: C_26  and  N_28 
REMARK   10  A    between atoms: C_29  and  C_31 
REMARK   11  A    between atoms: C_32  and  C_33 
REMARK   12  A    between atoms: C_32  and  C_34 
ROOT
ATOM      1  C   LIG d   1       5.160   1.073  -8.727  0.00  0.00     0.052 C 
ATOM      2  H   LIG d   1       4.905   1.548  -7.780  0.00  0.00     0.052 H 
ATOM      3  C   LIG d   1       4.415   1.753  -9.906  0.00  0.00    -0.016 C 
ATOM      4  C   LIG d   1       3.037   1.048  -9.851  0.00  0.00     0.018 C 
ATOM      5  N   LIG d   1       3.340  -0.346  -9.480  0.00  0.00    -0.285 N 
ATOM      6  C   LIG d   1       4.629  -0.376  -8.772  0.00  0.00     0.121 C 
ATOM      7  H   LIG d   1       5.334  -1.013  -9.306  0.00  0.00     0.061 H 
ATOM      8  C   LIG d   1       2.566  -1.416  -9.745  0.00  0.00     0.240 C 
ATOM      9  O   LIG d   1       2.918  -2.525  -9.390  0.00  0.00    -0.271 OA
ATOM     10  H   LIG d   1       4.312   2.824  -9.737  0.00  0.00     0.030 H 
ATOM     11  H   LIG d   1       4.917   1.555 -10.853  0.00  0.00     0.030 H 
ATOM     12  H   LIG d   1       2.402   1.512  -9.095  0.00  0.00     0.046 H 
ATOM     13  H   LIG d   1       2.552   1.083 -10.827  0.00  0.00     0.046 H 
ENDROOT
BRANCH   6  14
ATOM     14  C   LIG d   1       4.433  -0.893  -7.370  0.00  0.00     0.236 C 
ATOM     15  O   LIG d   1       3.798  -0.242  -6.567  0.00  0.00    -0.274 OA
ATOM     16  N   LIG d   1       4.963  -2.078  -7.009  0.00  0.00    -0.302 N 
ATOM     17  H   LIG d   1       5.470  -2.599  -7.651  0.00  0.00     0.149 HD
BRANCH  16  18
ATOM     18  C   LIG d   1       4.772  -2.582  -5.646  0.00  0.00     0.103 C 
ATOM     19  H   LIG d   1       3.863  -2.151  -5.225  0.00  0.00     0.060 H 
BRANCH  18  20
ATOM     20  C   LIG d   1       5.972  -2.185  -4.784  0.00  0.00    -0.001 C 
ATOM     21  H   LIG d   1       6.728  -1.712  -5.409  0.00  0.00     0.034 H 
ATOM     22  H   LIG d   1       6.393  -3.074  -4.316  0.00  0.00     0.034 H 
BRANCH  20  23
ATOM     23  C   LIG d   1       5.527  -1.219  -3.716  0.00  0.00    -0.045 A 
ATOM     24  C   LIG d   1       4.710  -1.652  -2.689  0.00  0.00    -0.059 A 
ATOM     25  C   LIG d   1       4.301  -0.767  -1.710  0.00  0.00    -0.061 A 
ATOM     26  H   LIG d   1       4.391  -2.684  -2.651  0.00  0.00     0.062 H 
ATOM     27  C   LIG d   1       4.710   0.553  -1.757  0.00  0.00    -0.062 A 
ATOM     28  H   LIG d   1       3.662  -1.105  -0.907  0.00  0.00     0.062 H 
ATOM     29  C   LIG d   1       5.527   0.987  -2.785  0.00  0.00    -0.061 A 
ATOM     30  H   LIG d   1       4.391   1.245  -0.992  0.00  0.00     0.062 H 
ATOM     31  C   LIG d   1       5.939   0.100  -3.762  0.00  0.00    -0.059 A 
ATOM     32  H   LIG d   1       5.847   2.018  -2.822  0.00  0.00     0.062 H 
ATOM     33  H   LIG d   1       6.580   0.437  -4.562  0.00  0.00     0.062 H 
ENDBRANCH  20  23
ENDBRANCH  18  20
BRANCH  18  34
ATOM     34  C   LIG d   1       4.650  -4.083  -5.677  0.00  0.00     0.231 C 
ATOM     35  O   LIG d   1       5.527  -4.773  -5.202  0.00  0.00    -0.274 OA
ATOM     36  N   LIG d   1       3.566  -4.660  -6.231  0.00  0.00    -0.328 N 
ATOM     37  H   LIG d   1       2.864  -4.109  -6.611  0.00  0.00     0.145 HD
ATOM     38  H   LIG d   1       3.487  -5.627  -6.251  0.00  0.00     0.145 HD
ENDBRANCH  18  34
ENDBRANCH  16  18
ENDBRANCH   6  14
BRANCH   1  39
ATOM     39  N   LIG d   1       6.609   1.101  -8.945  0.00  0.00    -0.307 N 
ATOM     40  C   LIG d   1       7.442   1.310  -7.906  0.00  0.00     0.237 C 
ATOM     41  O   LIG d   1       6.991   1.476  -6.789  0.00  0.00    -0.271 OA
ATOM     42  H   LIG d   1       6.967   0.968  -9.835  0.00  0.00     0.149 HD
BRANCH  40  43
ATOM     43  C   LIG d   1       8.896   1.338  -8.124  0.00  0.00    -0.001 C 
ATOM     44  C   LIG d   1       9.483   2.452  -8.554  0.00  0.00    -0.071 C 
ATOM     45  H   LIG d   1       9.488   0.454  -7.936  0.00  0.00     0.067 H 
BRANCH  44  46
ATOM     46  C   LIG d   1       8.646   3.639  -8.952  0.00  0.00    -0.044 C 
ATOM     47  H   LIG d   1       7.989   3.913  -8.126  0.00  0.00     0.027 H 
ATOM     48  H   LIG d   1       9.297   4.479  -9.193  0.00  0.00     0.027 H 
ATOM     49  H   LIG d   1       8.044   3.384  -9.825  0.00  0.00     0.027 H 
ENDBRANCH  44  46
BRANCH  44  50
ATOM     50  C   LIG d   1      10.986   2.525  -8.644  0.00  0.00    -0.044 C 
ATOM     51  H   LIG d   1      11.293   2.424  -9.685  0.00  0.00     0.027 H 
ATOM     52  H   LIG d   1      11.326   3.485  -8.256  0.00  0.00     0.027 H 
ATOM     53  H   LIG d   1      11.424   1.719  -8.056  0.00  0.00     0.027 H 
ENDBRANCH  44  50
ENDBRANCH  40  43
ENDBRANCH   1  39
BRANCH   8  54
ATOM     54  C   LIG d   1       1.294  -1.244 -10.464  0.00  0.00    -0.001 C 
ATOM     55  C   LIG d   1       1.255  -1.377 -11.787  0.00  0.00    -0.071 C 
ATOM     56  H   LIG d   1       0.393  -1.010  -9.918  0.00  0.00     0.067 H 
BRANCH  55  57
ATOM     57  C   LIG d   1       2.514  -1.702 -12.549  0.00  0.00    -0.044 C 
ATOM     58  H   LIG d   1       2.503  -1.181 -13.507  0.00  0.00     0.027 H 
ATOM     59  H   LIG d   1       3.381  -1.383 -11.971  0.00  0.00     0.027 H 
ATOM     60  H   LIG d   1       2.567  -2.777 -12.721  0.00  0.00     0.027 H 
ENDBRANCH  55  57
BRANCH  55  61
ATOM     61  C   LIG d   1      -0.047  -1.199 -12.524  0.00  0.00    -0.044 C 
ATOM     62  H   LIG d   1      -0.863  -1.599 -11.922  0.00  0.00     0.027 H 
ATOM     63  H   LIG d   1      -0.218  -0.139 -12.711  0.00  0.00     0.027 H 
ATOM     64  H   LIG d   1      -0.002  -1.733 -13.474  0.00  0.00     0.027 H 
ENDBRANCH  55  61
ENDBRANCH   8  54
TORSDOF 12
ENDMDL
MODEL 3
REMARK VINA RESULT:      -6.4      2.295      5.915
REMARK  12 active torsions:
REMARK  status: ('A' for Active; 'I' for Inactive)
REMARK    1  A    between atoms: C_1  and  C_2 
REMARK    2  A    between atoms: C_2  and  C_35 
REMARK    3  A    between atoms: C_3  and  C_4 
REMARK       I    between atoms: C_4  and  N_6 
REMARK    4  A    between atoms: N_6  and  C_7 
REMARK       I    between atoms: N_11  and  C_29 
REMARK    5  A    between atoms: C_12  and  C_14 
REMARK       I    between atoms: C_14  and  N_16 
REMARK    6  A    between atoms: N_16  and  C_17 
REMARK    7  A    between atoms: C_17  and  C_19 
REMARK    8  A    between atoms: C_17  and  C_26 
REMARK    9  A    between atoms: C_19  and  C_20 
REMARK       I    between atoms: C_26  and  N_28 
REMARK   10  A    between atoms: C_29  and  C_31 
REMARK   11  A    between atoms: C_32  and  C_33 
REMARK   12  A    between atoms: C_32  and  C_34 
ROOT
ATOM      1  C   LIG d   1       4.103  -2.981  -7.758  0.00  0.00     0.052 C 
ATOM      2  H   LIG d   1       3.493  -2.808  -6.872  0.00  0.00     0.052 H 
ATOM      3  C   LIG d   1       3.377  -3.922  -8.755  0.00  0.00    -0.016 C 
ATOM      4  C   LIG d   1       3.718  -5.316  -8.171  0.00  0.00     0.018 C 
ATOM      5  N   LIG d   1       5.103  -5.192  -7.681  0.00  0.00    -0.285 N 
ATOM      6  C   LIG d   1       5.377  -3.775  -7.398  0.00  0.00     0.121 C 
ATOM      7  H   LIG d   1       6.213  -3.428  -8.005  0.00  0.00     0.061 H 
ATOM      8  C   LIG d   1       5.973  -6.207  -7.518  0.00  0.00     0.240 C 
ATOM      9  O   LIG d   1       7.095  -5.987  -7.105  0.00  0.00    -0.271 OA
ATOM     10  H   LIG d   1       2.301  -3.747  -8.745  0.00  0.00     0.030 H 
ATOM     11  H   LIG d   1       3.779  -3.811  -9.762  0.00  0.00     0.030 H 
ATOM     12  H   LIG d   1       3.045  -5.559  -7.348  0.00  0.00     0.046 H 
ATOM     13  H   LIG d   1       3.658  -6.079  -8.948  0.00  0.00     0.046 H 
ENDROOT
BRANCH   6  14
ATOM     14  C   LIG d   1       5.697  -3.596  -5.936  0.00  0.00     0.236 C 
ATOM     15  O   LIG d   1       4.894  -3.938  -5.094  0.00  0.00    -0.274 OA
ATOM     16  N   LIG d   1       6.874  -3.055  -5.566  0.00  0.00    -0.302 N 
ATOM     17  H   LIG d   1       7.516  -2.781  -6.239  0.00  0.00     0.149 HD
BRANCH  16  18
ATOM     18  C   LIG d   1       7.185  -2.880  -4.144  0.00  0.00     0.103 C 
ATOM     19  H   LIG d   1       6.334  -3.205  -3.545  0.00  0.00     0.060 H 
BRANCH  18  20
ATOM     20  C   LIG d   1       7.474  -1.405  -3.864  0.00  0.00    -0.001 C 
ATOM     21  H   LIG d   1       7.683  -0.891  -4.801  0.00  0.00     0.034 H 
ATOM     22  H   LIG d   1       8.338  -1.323  -3.204  0.00  0.00     0.034 H 
BRANCH  20  23
ATOM     23  C   LIG d   1       6.276  -0.774  -3.201  0.00  0.00    -0.045 A 
ATOM     24  C   LIG d   1       6.141   0.601  -3.180  0.00  0.00    -0.059 A 
ATOM     25  C   LIG d   1       5.043   1.179  -2.571  0.00  0.00    -0.061 A 
ATOM     26  H   LIG d   1       6.895   1.224  -3.639  0.00  0.00     0.062 H 
ATOM     27  C   LIG d   1       4.078   0.381  -1.984  0.00  0.00    -0.062 A 
ATOM     28  H   LIG d   1       4.937   2.254  -2.554  0.00  0.00     0.062 H 
ATOM     29  C   LIG d   1       4.213  -0.995  -2.005  0.00  0.00    -0.061 A 
ATOM     30  H   LIG d   1       3.220   0.832  -1.509  0.00  0.00     0.062 H 
ATOM     31  C   LIG d   1       5.310  -1.573  -2.618  0.00  0.00    -0.059 A 
ATOM     32  H   LIG d   1       3.460  -1.619  -1.547  0.00  0.00     0.062 H 
ATOM     33  H   LIG d   1       5.413  -2.647  -2.638  0.00  0.00     0.062 H 
ENDBRANCH  20  23
ENDBRANCH  18  20
BRANCH  18  34
ATOM     34  C   LIG d   1       8.394  -3.706  -3.789  0.00  0.00     0.231 C 
ATOM     35  O   LIG d   1       8.701  -4.658  -4.475  0.00  0.00    -0.274 OA
ATOM     36  N   LIG d   1       9.136  -3.386  -2.711  0.00  0.00    -0.328 N 
ATOM     37  H   LIG d   1       8.891  -2.625  -2.162  0.00  0.00     0.145 HD
ATOM     38  H   LIG d   1       9.914  -3.918  -2.482  0.00  0.00     0.145 HD
ENDBRANCH  18  34
ENDBRANCH  16  18
ENDBRANCH   6  14
BRANCH   1  39
ATOM     39  N   LIG d   1       4.448  -1.711  -8.402  0.00  0.00    -0.307 N 
ATOM     40  C   LIG d   1       4.428  -0.567  -7.690  0.00  0.00     0.237 C 
ATOM     41  O   LIG d   1       4.123  -0.589  -6.513  0.00  0.00    -0.271 OA
ATOM     42  H   LIG d   1       4.691  -1.695  -9.340  0.00  0.00     0.149 HD
BRANCH  40  43
ATOM     43  C   LIG d   1       4.775   0.707  -8.336  0.00  0.00    -0.001 C 
ATOM     44  C   LIG d   1       3.824   1.446  -8.904  0.00  0.00    -0.071 C 
ATOM     45  H   LIG d   1       5.801   1.044  -8.351  0.00  0.00     0.067 H 
BRANCH  44  46
ATOM     46  C   LIG d   1       2.419   0.914  -9.010  0.00  0.00    -0.044 C 
ATOM     47  H   LIG d   1       2.441  -0.176  -8.982  0.00  0.00     0.027 H 
ATOM     48  H   LIG d   1       1.825   1.287  -8.176  0.00  0.00     0.027 H 
ATOM     49  H   LIG d   1       1.975   1.245  -9.949  0.00  0.00     0.027 H 
ENDBRANCH  44  46
BRANCH  44  50
ATOM     50  C   LIG d   1       4.154   2.815  -9.442  0.00  0.00    -0.044 C 
ATOM     51  H   LIG d   1       3.232   3.369  -9.615  0.00  0.00     0.027 H 
ATOM     52  H   LIG d   1       4.769   3.350  -8.718  0.00  0.00     0.027 H 
ATOM     53  H   LIG d   1       4.700   2.714 -10.379  0.00  0.00     0.027 H 
ENDBRANCH  44  50
ENDBRANCH  40  43
ENDBRANCH   1  39
BRANCH   8  54
ATOM     54  C   LIG d   1       5.565  -7.584  -7.840  0.00  0.00    -0.001 C 
ATOM     55  C   LIG d   1       5.081  -8.375  -6.887  0.00  0.00    -0.071 C 
ATOM     56  H   LIG d   1       5.659  -7.951  -8.851  0.00  0.00     0.067 H 
BRANCH  55  57
ATOM     57  C   LIG d   1       4.951  -7.862  -5.476  0.00  0.00    -0.044 C 
ATOM     58  H   LIG d   1       4.036  -8.253  -5.030  0.00  0.00     0.027 H 
ATOM     59  H   LIG d   1       5.810  -8.188  -4.890  0.00  0.00     0.027 H 
ATOM     60  H   LIG d   1       4.912  -6.773  -5.487  0.00  0.00     0.027 H 
ENDBRANCH  55  57
BRANCH  55  61
ATOM     61  C   LIG d   1       4.664  -9.785  -7.217  0.00  0.00    -0.044 C 
ATOM     62  H   LIG d   1       4.327 -10.286  -6.310  0.00  0.00     0.027 H 
ATOM     63  H   LIG d   1       3.853  -9.763  -7.944  0.00  0.00     0.027 H 
ATOM     64  H   LIG d   1       5.513 -10.325  -7.636  0.00  0.00     0.027 H 
ENDBRANCH  55  61
ENDBRANCH   8  54
TORSDOF 12
ENDMDL
MODEL 4
REMARK VINA RESULT:      -6.3      2.028      6.613
REMARK  12 active torsions:
REMARK  status: ('A' for Active; 'I' for Inactive)
REMARK    1  A    between atoms: C_1  and  C_2 
REMARK    2  A    between atoms: C_2  and  C_35 
REMARK    3  A    between atoms: C_3  and  C_4 
REMARK       I    between atoms: C_4  and  N_6 
REMARK    4  A    between atoms: N_6  and  C_7 
REMARK       I    between atoms: N_11  and  C_29 
REMARK    5  A    between atoms: C_12  and  C_14 
REMARK       I    between atoms: C_14  and  N_16 
REMARK    6  A    between atoms: N_16  and  C_17 
REMARK    7  A    between atoms: C_17  and  C_19 
REMARK    8  A    between atoms: C_17  and  C_26 
REMARK    9  A    between atoms: C_19  and  C_20 
REMARK       I    between atoms: C_26  and  N_28 
REMARK   10  A    between atoms: C_29  and  C_31 
REMARK   11  A    between atoms: C_32  and  C_33 
REMARK   12  A    between atoms: C_32  and  C_34 
ROOT
ATOM      1  C   LIG d   1       4.820  -4.458  -8.422  0.00  0.00     0.052 C 
ATOM      2  H   LIG d   1       5.785  -4.031  -8.150  0.00  0.00     0.052 H 
ATOM      3  C   LIG d   1       4.888  -5.134  -9.817  0.00  0.00    -0.016 C 
ATOM      4  C   LIG d   1       4.689  -3.922 -10.761  0.00  0.00     0.018 C 
ATOM      5  N   LIG d   1       3.711  -3.062 -10.070  0.00  0.00    -0.285 N 
ATOM      6  C   LIG d   1       3.769  -3.346  -8.628  0.00  0.00     0.121 C 
ATOM      7  H   LIG d   1       2.795  -3.686  -8.276  0.00  0.00     0.061 H 
ATOM      8  C   LIG d   1       2.899  -2.164 -10.661  0.00  0.00     0.240 C 
ATOM      9  O   LIG d   1       2.127  -1.506  -9.989  0.00  0.00    -0.271 OA
ATOM     10  H   LIG d   1       5.860  -5.600  -9.979  0.00  0.00     0.030 H 
ATOM     11  H   LIG d   1       4.084  -5.860  -9.940  0.00  0.00     0.030 H 
ATOM     12  H   LIG d   1       5.631  -3.390 -10.899  0.00  0.00     0.046 H 
ATOM     13  H   LIG d   1       4.293  -4.250 -11.722  0.00  0.00     0.046 H 
ENDROOT
BRANCH   6  14
ATOM     14  C   LIG d   1       4.181  -2.106  -7.877  0.00  0.00     0.236 C 
ATOM     15  O   LIG d   1       5.356  -1.823  -7.773  0.00  0.00    -0.274 OA
ATOM     16  N   LIG d   1       3.244  -1.313  -7.321  0.00  0.00    -0.302 N 
ATOM     17  H   LIG d   1       2.305  -1.539  -7.405  0.00  0.00     0.149 HD
BRANCH  16  18
ATOM     18  C   LIG d   1       3.645  -0.107  -6.591  0.00  0.00     0.103 C 
ATOM     19  H   LIG d   1       4.624  -0.267  -6.136  0.00  0.00     0.060 H 
BRANCH  18  20
ATOM     20  C   LIG d   1       2.617   0.191  -5.498  0.00  0.00    -0.001 C 
ATOM     21  H   LIG d   1       1.765  -0.478  -5.608  0.00  0.00     0.034 H 
ATOM     22  H   LIG d   1       2.282   1.225  -5.587  0.00  0.00     0.034 H 
BRANCH  20  23
ATOM     23  C   LIG d   1       3.247  -0.016  -4.144  0.00  0.00    -0.045 A 
ATOM     24  C   LIG d   1       3.592   1.074  -3.368  0.00  0.00    -0.059 A 
ATOM     25  C   LIG d   1       4.171   0.884  -2.127  0.00  0.00    -0.061 A 
ATOM     26  H   LIG d   1       3.410   2.075  -3.731  0.00  0.00     0.062 H 
ATOM     27  C   LIG d   1       4.403  -0.398  -1.662  0.00  0.00    -0.062 A 
ATOM     28  H   LIG d   1       4.441   1.735  -1.519  0.00  0.00     0.062 H 
ATOM     29  C   LIG d   1       4.058  -1.489  -2.439  0.00  0.00    -0.061 A 
ATOM     30  H   LIG d   1       4.854  -0.546  -0.693  0.00  0.00     0.062 H 
ATOM     31  C   LIG d   1       3.476  -1.297  -3.678  0.00  0.00    -0.059 A 
ATOM     32  H   LIG d   1       4.239  -2.489  -2.076  0.00  0.00     0.062 H 
ATOM     33  H   LIG d   1       3.203  -2.149  -4.283  0.00  0.00     0.062 H 
ENDBRANCH  20  23
ENDBRANCH  18  20
BRANCH  18  34
ATOM     34  C   LIG d   1       3.718   1.057  -7.543  0.00  0.00     0.231 C 
ATOM     35  O   LIG d   1       2.789   1.833  -7.626  0.00  0.00    -0.274 OA
ATOM     36  N   LIG d   1       4.815   1.238  -8.305  0.00  0.00    -0.328 N 
ATOM     37  H   LIG d   1       5.558   0.618  -8.240  0.00  0.00     0.145 HD
ATOM     38  H   LIG d   1       4.862   1.988  -8.918  0.00  0.00     0.145 HD
ENDBRANCH  18  34
ENDBRANCH  16  18
ENDBRANCH   6  14
BRANCH   1  39
ATOM     39  N   LIG d   1       4.371  -5.412  -7.405  0.00  0.00    -0.307 N 
ATOM     40  C   LIG d   1       5.249  -5.898  -6.504  0.00  0.00     0.237 C 
ATOM     41  O   LIG d   1       6.411  -5.544  -6.536  0.00  0.00    -0.271 OA
ATOM     42  H   LIG d   1       3.444  -5.694  -7.380  0.00  0.00     0.149 HD
BRANCH  40  43
ATOM     43  C   LIG d   1       4.799  -6.855  -5.483  0.00  0.00    -0.001 C 
ATOM     44  C   LIG d   1       4.939  -8.162  -5.689  0.00  0.00    -0.071 C 
ATOM     45  H   LIG d   1       4.354  -6.498  -4.565  0.00  0.00     0.067 H 
BRANCH  44  46
ATOM     46  C   LIG d   1       5.427  -8.667  -7.022  0.00  0.00    -0.044 C 
ATOM     47  H   LIG d   1       4.659  -8.497  -7.777  0.00  0.00     0.027 H 
ATOM     48  H   LIG d   1       6.336  -8.135  -7.301  0.00  0.00     0.027 H 
ATOM     49  H   LIG d   1       5.637  -9.735  -6.951  0.00  0.00     0.027 H 
ENDBRANCH  44  46
BRANCH  44  50
ATOM     50  C   LIG d   1       4.610  -9.138  -4.588  0.00  0.00    -0.044 C 
ATOM     51  H   LIG d   1       4.602 -10.151  -4.991  0.00  0.00     0.027 H 
ATOM     52  H   LIG d   1       5.361  -9.065  -3.802  0.00  0.00     0.027 H 
ATOM     53  H   LIG d   1       3.629  -8.903  -4.177  0.00  0.00     0.027 H 
ENDBRANCH  44  50
ENDBRANCH  40  43
ENDBRANCH   1  39
BRANCH   8  54
ATOM     54  C   LIG d   1       2.944  -1.979 -12.120  0.00  0.00    -0.001 C 
ATOM     55  C   LIG d   1       3.738  -1.053 -12.649  0.00  0.00    -0.071 C 
ATOM     56  H   LIG d   1       2.333  -2.597 -12.761  0.00  0.00     0.067 H 
BRANCH  55  57
ATOM     57  C   LIG d   1       4.591  -0.191 -11.754  0.00  0.00    -0.044 C 
ATOM     58  H   LIG d   1       4.160   0.809 -11.696  0.00  0.00     0.027 H 
ATOM     59  H   LIG d   1       4.628  -0.629 -10.757  0.00  0.00     0.027 H 
ATOM     60  H   LIG d   1       5.599  -0.129 -12.162  0.00  0.00     0.027 H 
ENDBRANCH  55  57
BRANCH  55  61
ATOM     61  C   LIG d   1       3.784  -0.864 -14.143  0.00  0.00    -0.044 C 
ATOM     62  H   LIG d   1       4.798  -0.602 -14.446  0.00  0.00     0.027 H 
ATOM     63  H   LIG d   1       3.484  -1.788 -14.636  0.00  0.00     0.027 H 
ATOM     64  H   LIG d   1       3.103  -0.062 -14.428  0.00  0.00     0.027 H 
ENDBRANCH  55  61
ENDBRANCH   8  54
TORSDOF 12
ENDMDL
MODEL 5
REMARK VINA RESULT:      -6.3      2.952      6.316
REMARK  12 active torsions:
REMARK  status: ('A' for Active; 'I' for Inactive)
REMARK    1  A    between atoms: C_1  and  C_2 
REMARK    2  A    between atoms: C_2  and  C_35 
REMARK    3  A    between atoms: C_3  and  C_4 
REMARK       I    between atoms: C_4  and  N_6 
REMARK    4  A    between atoms: N_6  and  C_7 
REMARK       I    between atoms: N_11  and  C_29 
REMARK    5  A    between atoms: C_12  and  C_14 
REMARK       I    between atoms: C_14  and  N_16 
REMARK    6  A    between atoms: N_16  and  C_17 
REMARK    7  A    between atoms: C_17  and  C_19 
REMARK    8  A    between atoms: C_17  and  C_26 
REMARK    9  A    between atoms: C_19  and  C_20 
REMARK       I    between atoms: C_26  and  N_28 
REMARK   10  A    between atoms: C_29  and  C_31 
REMARK   11  A    between atoms: C_32  and  C_33 
REMARK   12  A    between atoms: C_32  and  C_34 
ROOT
ATOM      1  C   LIG d   1       6.982   1.084  -7.156  0.00  0.00     0.052 C 
ATOM      2  H   LIG d   1       6.122   1.493  -6.628  0.00  0.00     0.052 H 
ATOM      3  C   LIG d   1       7.203   1.818  -8.505  0.00  0.00    -0.016 C 
ATOM      4  C   LIG d   1       6.205   1.078  -9.429  0.00  0.00     0.018 C 
ATOM      5  N   LIG d   1       6.257  -0.329  -8.992  0.00  0.00    -0.285 N 
ATOM      6  C   LIG d   1       6.713  -0.371  -7.595  0.00  0.00     0.121 C 
ATOM      7  H   LIG d   1       7.630  -0.957  -7.520  0.00  0.00     0.061 H 
ATOM      8  C   LIG d   1       5.937  -1.399  -9.746  0.00  0.00     0.240 C 
ATOM      9  O   LIG d   1       6.019  -2.519  -9.279  0.00  0.00    -0.271 OA
ATOM     10  H   LIG d   1       6.949   2.874  -8.422  0.00  0.00     0.030 H 
ATOM     11  H   LIG d   1       8.228   1.692  -8.857  0.00  0.00     0.030 H 
ATOM     12  H   LIG d   1       5.199   1.478  -9.300  0.00  0.00     0.046 H 
ATOM     13  H   LIG d   1       6.516   1.163 -10.471  0.00  0.00     0.046 H 
ENDROOT
BRANCH   6  14
ATOM     14  C   LIG d   1       5.645  -0.980  -6.724  0.00  0.00     0.236 C 
ATOM     15  O   LIG d   1       4.610  -0.380  -6.526  0.00  0.00    -0.274 OA
ATOM     16  N   LIG d   1       5.841  -2.190  -6.164  0.00  0.00    -0.302 N 
ATOM     17  H   LIG d   1       6.669  -2.670  -6.322  0.00  0.00     0.149 HD
BRANCH  16  18
ATOM     18  C   LIG d   1       4.802  -2.782  -5.316  0.00  0.00     0.103 C 
ATOM     19  H   LIG d   1       3.867  -2.239  -5.457  0.00  0.00     0.060 H 
BRANCH  18  20
ATOM     20  C   LIG d   1       5.228  -2.692  -3.850  0.00  0.00    -0.001 C 
ATOM     21  H   LIG d   1       6.315  -2.673  -3.788  0.00  0.00     0.034 H 
ATOM     22  H   LIG d   1       4.849  -3.558  -3.307  0.00  0.00     0.034 H 
BRANCH  20  23
ATOM     23  C   LIG d   1       4.668  -1.433  -3.239  0.00  0.00    -0.045 A 
ATOM     24  C   LIG d   1       5.513  -0.523  -2.632  0.00  0.00    -0.059 A 
ATOM     25  C   LIG d   1       4.999   0.630  -2.071  0.00  0.00    -0.061 A 
ATOM     26  H   LIG d   1       6.576  -0.714  -2.597  0.00  0.00     0.062 H 
ATOM     27  C   LIG d   1       3.639   0.875  -2.118  0.00  0.00    -0.062 A 
ATOM     28  H   LIG d   1       5.659   1.342  -1.597  0.00  0.00     0.062 H 
ATOM     29  C   LIG d   1       2.793  -0.035  -2.725  0.00  0.00    -0.061 A 
ATOM     30  H   LIG d   1       3.237   1.776  -1.680  0.00  0.00     0.062 H 
ATOM     31  C   LIG d   1       3.308  -1.187  -3.289  0.00  0.00    -0.059 A 
ATOM     32  H   LIG d   1       1.731   0.155  -2.762  0.00  0.00     0.062 H 
ATOM     33  H   LIG d   1       2.649  -1.896  -3.767  0.00  0.00     0.062 H 
ENDBRANCH  20  23
ENDBRANCH  18  20
BRANCH  18  34
ATOM     34  C   LIG d   1       4.606  -4.226  -5.695  0.00  0.00     0.231 C 
ATOM     35  O   LIG d   1       5.406  -5.063  -5.332  0.00  0.00    -0.274 OA
ATOM     36  N   LIG d   1       3.543  -4.591  -6.438  0.00  0.00    -0.328 N 
ATOM     37  H   LIG d   1       2.903  -3.923  -6.729  0.00  0.00     0.145 HD
ATOM     38  H   LIG d   1       3.417  -5.522  -6.682  0.00  0.00     0.145 HD
ENDBRANCH  18  34
ENDBRANCH  16  18
ENDBRANCH   6  14
BRANCH   1  39
ATOM     39  N   LIG d   1       8.185   1.160  -6.322  0.00  0.00    -0.307 N 
ATOM     40  C   LIG d   1       8.085   1.525  -5.028  0.00  0.00     0.237 C 
ATOM     41  O   LIG d   1       6.997   1.790  -4.554  0.00  0.00    -0.271 OA
ATOM     42  H   LIG d   1       9.051   0.948  -6.701  0.00  0.00     0.149 HD
BRANCH  40  43
ATOM     43  C   LIG d   1       9.291   1.601  -4.191  0.00  0.00    -0.001 C 
ATOM     44  C   LIG d   1       9.831   2.783  -3.908  0.00  0.00    -0.071 C 
ATOM     45  H   LIG d   1       9.739   0.697  -3.805  0.00  0.00     0.067 H 
BRANCH  44  46
ATOM     46  C   LIG d   1       9.294   4.031  -4.558  0.00  0.00    -0.044 C 
ATOM     47  H   LIG d   1       9.996   4.852  -4.404  0.00  0.00     0.027 H 
ATOM     48  H   LIG d   1       9.166   3.859  -5.626  0.00  0.00     0.027 H 
ATOM     49  H   LIG d   1       8.332   4.288  -4.114  0.00  0.00     0.027 H 
ENDBRANCH  44  46
BRANCH  44  50
ATOM     50  C   LIG d   1      10.981   2.874  -2.938  0.00  0.00    -0.044 C 
ATOM     51  H   LIG d   1      11.511   3.814  -3.089  0.00  0.00     0.027 H 
ATOM     52  H   LIG d   1      10.599   2.832  -1.918  0.00  0.00     0.027 H 
ATOM     53  H   LIG d   1      11.663   2.041  -3.105  0.00  0.00     0.027 H 
ENDBRANCH  44  50
ENDBRANCH  40  43
ENDBRANCH   1  39
BRANCH   8  54
ATOM     54  C   LIG d   1       5.492  -1.212 -11.136  0.00  0.00    -0.001 C 
ATOM     55  C   LIG d   1       4.202  -1.028 -11.402  0.00  0.00    -0.071 C 
ATOM     56  H   LIG d   1       6.213  -1.224 -11.940  0.00  0.00     0.067 H 
BRANCH  55  57
ATOM     57  C   LIG d   1       3.196  -1.012 -10.280  0.00  0.00    -0.044 C 
ATOM     58  H   LIG d   1       2.464  -1.804 -10.438  0.00  0.00     0.027 H 
ATOM     59  H   LIG d   1       3.707  -1.173  -9.331  0.00  0.00     0.027 H 
ATOM     60  H   LIG d   1       2.689  -0.048 -10.260  0.00  0.00     0.027 H 
ENDBRANCH  55  57
BRANCH  55  61
ATOM     61  C   LIG d   1       3.746  -0.838 -12.826  0.00  0.00    -0.044 C 
ATOM     62  H   LIG d   1       2.662  -0.722 -12.848  0.00  0.00     0.027 H 
ATOM     63  H   LIG d   1       4.216   0.053 -13.242  0.00  0.00     0.027 H 
ATOM     64  H   LIG d   1       4.030  -1.708 -13.417  0.00  0.00     0.027 H 
ENDBRANCH  55  61
ENDBRANCH   8  54
TORSDOF 12
ENDMDL
MODEL 6
REMARK VINA RESULT:      -5.8      2.325      6.217
REMARK  12 active torsions:
REMARK  status: ('A' for Active; 'I' for Inactive)
REMARK    1  A    between atoms: C_1  and  C_2 
REMARK    2  A    between atoms: C_2  and  C_35 
REMARK    3  A    between atoms: C_3  and  C_4 
REMARK       I    between atoms: C_4  and  N_6 
REMARK    4  A    between atoms: N_6  and  C_7 
REMARK       I    between atoms: N_11  and  C_29 
REMARK    5  A    between atoms: C_12  and  C_14 
REMARK       I    between atoms: C_14  and  N_16 
REMARK    6  A    between atoms: N_16  and  C_17 
REMARK    7  A    between atoms: C_17  and  C_19 
REMARK    8  A    between atoms: C_17  and  C_26 
REMARK    9  A    between atoms: C_19  and  C_20 
REMARK       I    between atoms: C_26  and  N_28 
REMARK   10  A    between atoms: C_29  and  C_31 
REMARK   11  A    between atoms: C_32  and  C_33 
REMARK   12  A    between atoms: C_32  and  C_34 
ROOT
ATOM      1  C   LIG d   1       3.762  -2.680  -9.704  0.00  0.00     0.052 C 
ATOM      2  H   LIG d   1       2.918  -2.032  -9.468  0.00  0.00     0.052 H 
ATOM      3  C   LIG d   1       3.327  -4.170  -9.723  0.00  0.00    -0.016 C 
ATOM      4  C   LIG d   1       3.392  -4.531  -8.218  0.00  0.00     0.018 C 
ATOM      5  N   LIG d   1       4.562  -3.796  -7.703  0.00  0.00    -0.285 N 
ATOM      6  C   LIG d   1       4.814  -2.641  -8.577  0.00  0.00     0.121 C 
ATOM      7  H   LIG d   1       5.816  -2.707  -9.003  0.00  0.00     0.061 H 
ATOM      8  C   LIG d   1       5.280  -4.127  -6.612  0.00  0.00     0.240 C 
ATOM      9  O   LIG d   1       6.230  -3.445  -6.279  0.00  0.00    -0.271 OA
ATOM     10  H   LIG d   1       2.313  -4.276 -10.107  0.00  0.00     0.030 H 
ATOM     11  H   LIG d   1       4.027  -4.774 -10.300  0.00  0.00     0.030 H 
ATOM     12  H   LIG d   1       2.485  -4.203  -7.709  0.00  0.00     0.046 H 
ATOM     13  H   LIG d   1       3.532  -5.604  -8.090  0.00  0.00     0.046 H 
ENDROOT
BRANCH   6  14
ATOM     14  C   LIG d   1       4.677  -1.362  -7.791  0.00  0.00     0.236 C 
ATOM     15  O   LIG d   1       5.626  -0.616  -7.677  0.00  0.00    -0.274 OA
ATOM     16  N   LIG d   1       3.500  -1.049  -7.214  0.00  0.00    -0.302 N 
ATOM     17  H   LIG d   1       2.741  -1.646  -7.305  0.00  0.00     0.149 HD
BRANCH  16  18
ATOM     18  C   LIG d   1       3.366   0.194  -6.450  0.00  0.00     0.103 C 
ATOM     19  H   LIG d   1       4.335   0.469  -6.033  0.00  0.00     0.060 H 
BRANCH  18  20
ATOM     20  C   LIG d   1       2.361  -0.011  -5.315  0.00  0.00    -0.001 C 
ATOM     21  H   LIG d   1       1.803  -0.931  -5.486  0.00  0.00     0.034 H 
ATOM     22  H   LIG d   1       1.671   0.832  -5.284  0.00  0.00     0.034 H 
BRANCH  20  23
ATOM     23  C   LIG d   1       3.097  -0.107  -4.003  0.00  0.00    -0.045 A 
ATOM     24  C   LIG d   1       3.418  -1.344  -3.479  0.00  0.00    -0.059 A 
ATOM     25  C   LIG d   1       4.091  -1.432  -2.275  0.00  0.00    -0.061 A 
ATOM     26  H   LIG d   1       3.142  -2.244  -4.010  0.00  0.00     0.062 H 
ATOM     27  C   LIG d   1       4.444  -0.280  -1.595  0.00  0.00    -0.062 A 
ATOM     28  H   LIG d   1       4.342  -2.399  -1.864  0.00  0.00     0.062 H 
ATOM     29  C   LIG d   1       4.123   0.958  -2.120  0.00  0.00    -0.061 A 
ATOM     30  H   LIG d   1       4.971  -0.349  -0.656  0.00  0.00     0.062 H 
ATOM     31  C   LIG d   1       3.453   1.045  -3.326  0.00  0.00    -0.059 A 
ATOM     32  H   LIG d   1       4.399   1.857  -1.590  0.00  0.00     0.062 H 
ATOM     33  H   LIG d   1       3.206   2.012  -3.738  0.00  0.00     0.062 H 
ENDBRANCH  20  23
ENDBRANCH  18  20
BRANCH  18  34
ATOM     34  C   LIG d   1       2.881   1.293  -7.359  0.00  0.00     0.231 C 
ATOM     35  O   LIG d   1       2.445   2.322  -6.887  0.00  0.00    -0.274 OA
ATOM     36  N   LIG d   1       2.930   1.134  -8.696  0.00  0.00    -0.328 N 
ATOM     37  H   LIG d   1       3.278   0.311  -9.074  0.00  0.00     0.145 HD
ATOM     38  H   LIG d   1       2.618   1.842  -9.281  0.00  0.00     0.145 HD
ENDBRANCH  18  34
ENDBRANCH  16  18
ENDBRANCH   6  14
BRANCH   1  39
ATOM     39  N   LIG d   1       4.360  -2.299 -10.987  0.00  0.00    -0.307 N 
ATOM     40  C   LIG d   1       3.996  -1.147 -11.585  0.00  0.00     0.237 C 
ATOM     41  O   LIG d   1       3.171  -0.425 -11.060  0.00  0.00    -0.271 OA
ATOM     42  H   LIG d   1       5.018  -2.876 -11.404  0.00  0.00     0.149 HD
BRANCH  40  43
ATOM     43  C   LIG d   1       4.597  -0.765 -12.871  0.00  0.00    -0.001 C 
ATOM     44  C   LIG d   1       3.971  -1.053 -14.009  0.00  0.00    -0.071 C 
ATOM     45  H   LIG d   1       5.547  -0.251 -12.892  0.00  0.00     0.067 H 
BRANCH  44  46
ATOM     46  C   LIG d   1       2.721  -1.893 -13.990  0.00  0.00    -0.044 C 
ATOM     47  H   LIG d   1       1.899  -1.330 -14.433  0.00  0.00     0.027 H 
ATOM     48  H   LIG d   1       2.887  -2.805 -14.562  0.00  0.00     0.027 H 
ATOM     49  H   LIG d   1       2.471  -2.150 -12.960  0.00  0.00     0.027 H 
ENDBRANCH  44  46
BRANCH  44  50
ATOM     50  C   LIG d   1       4.514  -0.540 -15.318  0.00  0.00    -0.044 C 
ATOM     51  H   LIG d   1       5.391   0.081 -15.130  0.00  0.00     0.027 H 
ATOM     52  H   LIG d   1       4.795  -1.383 -15.950  0.00  0.00     0.027 H 
ATOM     53  H   LIG d   1       3.750   0.053 -15.820  0.00  0.00     0.027 H 
ENDBRANCH  44  50
ENDBRANCH  40  43
ENDBRANCH   1  39
BRANCH   8  54
ATOM     54  C   LIG d   1       4.915  -5.315  -5.824  0.00  0.00    -0.001 C 
ATOM     55  C   LIG d   1       5.499  -6.484  -6.074  0.00  0.00    -0.071 C 
ATOM     56  H   LIG d   1       4.174  -5.238  -5.043  0.00  0.00     0.067 H 
BRANCH  55  57
ATOM     57  C   LIG d   1       6.533  -6.592  -7.165  0.00  0.00    -0.044 C 
ATOM     58  H   LIG d   1       6.116  -7.145  -8.007  0.00  0.00     0.027 H 
ATOM     59  H   LIG d   1       6.822  -5.593  -7.492  0.00  0.00     0.027 H 
ATOM     60  H   LIG d   1       7.409  -7.116  -6.785  0.00  0.00     0.027 H 
ENDBRANCH  55  57
BRANCH  55  61
ATOM     61  C   LIG d   1       5.125  -7.700  -5.267  0.00  0.00    -0.044 C 
ATOM     62  H   LIG d   1       5.837  -7.829  -4.452  0.00  0.00     0.027 H 
ATOM     63  H   LIG d   1       4.123  -7.571  -4.858  0.00  0.00     0.027 H 
ATOM     64  H   LIG d   1       5.145  -8.581  -5.909  0.00  0.00     0.027 H 
ENDBRANCH  55  61
ENDBRANCH   8  54
TORSDOF 12
ENDMDL
MODEL 7
REMARK VINA RESULT:      -5.8      2.896      7.125
REMARK  12 active torsions:
REMARK  status: ('A' for Active; 'I' for Inactive)
REMARK    1  A    between atoms: C_1  and  C_2 
REMARK    2  A    between atoms: C_2  and  C_35 
REMARK    3  A    between atoms: C_3  and  C_4 
REMARK       I    between atoms: C_4  and  N_6 
REMARK    4  A    between atoms: N_6  and  C_7 
REMARK       I    between atoms: N_11  and  C_29 
REMARK    5  A    between atoms: C_12  and  C_14 
REMARK       I    between atoms: C_14  and  N_16 
REMARK    6  A    between atoms: N_16  and  C_17 
REMARK    7  A    between atoms: C_17  and  C_19 
REMARK    8  A    between atoms: C_17  and  C_26 
REMARK    9  A    between atoms: C_19  and  C_20 
REMARK       I    between atoms: C_26  and  N_28 
REMARK   10  A    between atoms: C_29  and  C_31 
REMARK   11  A    between atoms: C_32  and  C_33 
REMARK   12  A    between atoms: C_32  and  C_34 
ROOT
ATOM      1  C   LIG d   1       4.885  -1.425  -9.815  0.00  0.00     0.052 C 
ATOM      2  H   LIG d   1       4.796  -2.451  -9.461  0.00  0.00     0.052 H 
ATOM      3  C   LIG d   1       6.135  -1.258 -10.720  0.00  0.00    -0.016 C 
ATOM      4  C   LIG d   1       7.255  -1.058  -9.669  0.00  0.00     0.018 C 
ATOM      5  N   LIG d   1       6.631  -0.256  -8.600  0.00  0.00    -0.285 N 
ATOM      6  C   LIG d   1       5.176  -0.464  -8.643  0.00  0.00     0.121 C 
ATOM      7  H   LIG d   1       4.668   0.486  -8.807  0.00  0.00     0.061 H 
ATOM      8  C   LIG d   1       7.286   0.536  -7.729  0.00  0.00     0.240 C 
ATOM      9  O   LIG d   1       6.666   1.155  -6.885  0.00  0.00    -0.271 OA
ATOM     10  H   LIG d   1       6.311  -2.156 -11.312  0.00  0.00     0.030 H 
ATOM     11  H   LIG d   1       6.040  -0.382 -11.361  0.00  0.00     0.030 H 
ATOM     12  H   LIG d   1       7.584  -2.021  -9.276  0.00  0.00     0.046 H 
ATOM     13  H   LIG d   1       8.095  -0.519 -10.107  0.00  0.00     0.046 H 
ENDROOT
BRANCH   6  14
ATOM     14  C   LIG d   1       4.707  -1.078  -7.349  0.00  0.00     0.236 C 
ATOM     15  O   LIG d   1       3.730  -0.631  -6.785  0.00  0.00    -0.274 OA
ATOM     16  N   LIG d   1       5.374  -2.121  -6.817  0.00  0.00    -0.302 N 
ATOM     17  H   LIG d   1       6.155  -2.479  -7.268  0.00  0.00     0.149 HD
BRANCH  16  18
ATOM     18  C   LIG d   1       4.917  -2.718  -5.559  0.00  0.00     0.103 C 
ATOM     19  H   LIG d   1       3.987  -2.241  -5.248  0.00  0.00     0.060 H 
BRANCH  18  20
ATOM     20  C   LIG d   1       5.982  -2.509  -4.481  0.00  0.00    -0.001 C 
ATOM     21  H   LIG d   1       6.932  -2.259  -4.952  0.00  0.00     0.034 H 
ATOM     22  H   LIG d   1       6.095  -3.424  -3.899  0.00  0.00     0.034 H 
BRANCH  20  23
ATOM     23  C   LIG d   1       5.562  -1.385  -3.569  0.00  0.00    -0.045 A 
ATOM     24  C   LIG d   1       6.113  -0.127  -3.722  0.00  0.00    -0.059 A 
ATOM     25  C   LIG d   1       5.728   0.903  -2.885  0.00  0.00    -0.061 A 
ATOM     26  H   LIG d   1       6.845   0.051  -4.496  0.00  0.00     0.062 H 
ATOM     27  C   LIG d   1       4.790   0.676  -1.895  0.00  0.00    -0.062 A 
ATOM     28  H   LIG d   1       6.159   1.887  -3.004  0.00  0.00     0.062 H 
ATOM     29  C   LIG d   1       4.238  -0.583  -1.741  0.00  0.00    -0.061 A 
ATOM     30  H   LIG d   1       4.489   1.481  -1.242  0.00  0.00     0.062 H 
ATOM     31  C   LIG d   1       4.621  -1.612  -2.582  0.00  0.00    -0.059 A 
ATOM     32  H   LIG d   1       3.506  -0.761  -0.968  0.00  0.00     0.062 H 
ATOM     33  H   LIG d   1       4.187  -2.594  -2.465  0.00  0.00     0.062 H 
ENDBRANCH  20  23
ENDBRANCH  18  20
BRANCH  18  34
ATOM     34  C   LIG d   1       4.684  -4.193  -5.757  0.00  0.00     0.231 C 
ATOM     35  O   LIG d   1       5.520  -4.993  -5.391  0.00  0.00    -0.274 OA
ATOM     36  N   LIG d   1       3.548  -4.624  -6.339  0.00  0.00    -0.328 N 
ATOM     37  H   LIG d   1       2.881  -3.985  -6.632  0.00  0.00     0.145 HD
ATOM     38  H   LIG d   1       3.399  -5.574  -6.466  0.00  0.00     0.145 HD
ENDBRANCH  18  34
ENDBRANCH  16  18
ENDBRANCH   6  14
BRANCH   1  39
ATOM     39  N   LIG d   1       3.671  -1.018 -10.529  0.00  0.00    -0.307 N 
ATOM     40  C   LIG d   1       2.519  -1.691 -10.336  0.00  0.00     0.237 C 
ATOM     41  O   LIG d   1       2.488  -2.635  -9.570  0.00  0.00    -0.271 OA
ATOM     42  H   LIG d   1       3.698  -0.266 -11.140  0.00  0.00     0.149 HD
BRANCH  40  43
ATOM     43  C   LIG d   1       1.301  -1.284 -11.051  0.00  0.00    -0.001 C 
ATOM     44  C   LIG d   1       0.981  -1.865 -12.204  0.00  0.00    -0.071 C 
ATOM     45  H   LIG d   1       0.667  -0.511 -10.642  0.00  0.00     0.067 H 
BRANCH  44  46
ATOM     46  C   LIG d   1       1.934  -2.839 -12.848  0.00  0.00    -0.044 C 
ATOM     47  H   LIG d   1       2.351  -3.496 -12.084  0.00  0.00     0.027 H 
ATOM     48  H   LIG d   1       1.400  -3.434 -13.588  0.00  0.00     0.027 H 
ATOM     49  H   LIG d   1       2.741  -2.290 -13.335  0.00  0.00     0.027 H 
ENDBRANCH  44  46
BRANCH  44  50
ATOM     50  C   LIG d   1      -0.336  -1.550 -12.867  0.00  0.00    -0.044 C 
ATOM     51  H   LIG d   1      -0.783  -2.470 -13.244  0.00  0.00     0.027 H 
ATOM     52  H   LIG d   1      -1.007  -1.091 -12.141  0.00  0.00     0.027 H 
ATOM     53  H   LIG d   1      -0.169  -0.862 -13.695  0.00  0.00     0.027 H 
ENDBRANCH  44  50
ENDBRANCH  40  43
ENDBRANCH   1  39
BRANCH   8  54
ATOM     54  C   LIG d   1       8.751   0.653  -7.798  0.00  0.00    -0.001 C 
ATOM     55  C   LIG d   1       9.517  -0.124  -7.038  0.00  0.00    -0.071 C 
ATOM     56  H   LIG d   1       9.204   1.369  -8.467  0.00  0.00     0.067 H 
BRANCH  55  57
ATOM     57  C   LIG d   1       8.885  -1.123  -6.104  0.00  0.00    -0.044 C 
ATOM     58  H   LIG d   1       8.992  -2.126  -6.518  0.00  0.00     0.027 H 
ATOM     59  H   LIG d   1       9.378  -1.076  -5.133  0.00  0.00     0.027 H 
ATOM     60  H   LIG d   1       7.827  -0.891  -5.985  0.00  0.00     0.027 H 
ENDBRANCH  55  57
BRANCH  55  61
ATOM     61  C   LIG d   1      11.018  -0.004  -7.109  0.00  0.00    -0.044 C 
ATOM     62  H   LIG d   1      11.460  -0.435  -6.211  0.00  0.00     0.027 H 
ATOM     63  H   LIG d   1      11.383  -0.535  -7.987  0.00  0.00     0.027 H 
ATOM     64  H   LIG d   1      11.294   1.048  -7.180  0.00  0.00     0.027 H 
ENDBRANCH  55  61
ENDBRANCH   8  54
TORSDOF 12
ENDMDL
MODEL 8
REMARK VINA RESULT:      -5.8      2.373      7.644
REMARK  12 active torsions:
REMARK  status: ('A' for Active; 'I' for Inactive)
REMARK    1  A    between atoms: C_1  and  C_2 
REMARK    2  A    between atoms: C_2  and  C_35 
REMARK    3  A    between atoms: C_3  and  C_4 
REMARK       I    between atoms: C_4  and  N_6 
REMARK    4  A    between atoms: N_6  and  C_7 
REMARK       I    between atoms: N_11  and  C_29 
REMARK    5  A    between atoms: C_12  and  C_14 
REMARK       I    between atoms: C_14  and  N_16 
REMARK    6  A    between atoms: N_16  and  C_17 
REMARK    7  A    between atoms: C_17  and  C_19 
REMARK    8  A    between atoms: C_17  and  C_26 
REMARK    9  A    between atoms: C_19  and  C_20 
REMARK       I    between atoms: C_26  and  N_28 
REMARK   10  A    between atoms: C_29  and  C_31 
REMARK   11  A    between atoms: C_32  and  C_33 
REMARK   12  A    between atoms: C_32  and  C_34 
ROOT
ATOM      1  C   LIG d   1       5.936  -3.740  -8.393  0.00  0.00     0.052 C 
ATOM      2  H   LIG d   1       6.887  -3.802  -7.864  0.00  0.00     0.052 H 
ATOM      3  C   LIG d   1       6.072  -2.873  -9.673  0.00  0.00    -0.016 C 
ATOM      4  C   LIG d   1       5.917  -1.443  -9.097  0.00  0.00     0.018 C 
ATOM      5  N   LIG d   1       4.905  -1.572  -8.032  0.00  0.00    -0.285 N 
ATOM      6  C   LIG d   1       4.896  -2.964  -7.558  0.00  0.00     0.121 C 
ATOM      7  H   LIG d   1       3.907  -3.400  -7.701  0.00  0.00     0.061 H 
ATOM      8  C   LIG d   1       4.121  -0.580  -7.568  0.00  0.00     0.240 C 
ATOM      9  O   LIG d   1       3.318  -0.802  -6.683  0.00  0.00    -0.271 OA
ATOM     10  H   LIG d   1       7.051  -3.005 -10.132  0.00  0.00     0.030 H 
ATOM     11  H   LIG d   1       5.275  -3.096 -10.383  0.00  0.00     0.030 H 
ATOM     12  H   LIG d   1       6.863  -1.096  -8.681  0.00  0.00     0.046 H 
ATOM     13  H   LIG d   1       5.567  -0.758  -9.870  0.00  0.00     0.046 H 
ENDROOT
BRANCH   6  14
ATOM     14  C   LIG d   1       5.270  -3.013  -6.099  0.00  0.00     0.236 C 
ATOM     15  O   LIG d   1       4.459  -3.387  -5.278  0.00  0.00    -0.274 OA
ATOM     16  N   LIG d   1       6.504  -2.641  -5.707  0.00  0.00    -0.302 N 
ATOM     17  H   LIG d   1       7.152  -2.342  -6.363  0.00  0.00     0.149 HD
BRANCH  16  18
ATOM     18  C   LIG d   1       6.867  -2.688  -4.288  0.00  0.00     0.103 C 
ATOM     19  H   LIG d   1       6.007  -3.019  -3.704  0.00  0.00     0.060 H 
BRANCH  18  20
ATOM     20  C   LIG d   1       7.293  -1.294  -3.824  0.00  0.00    -0.001 C 
ATOM     21  H   LIG d   1       7.629  -0.713  -4.682  0.00  0.00     0.034 H 
ATOM     22  H   LIG d   1       8.106  -1.383  -3.104  0.00  0.00     0.034 H 
BRANCH  20  23
ATOM     23  C   LIG d   1       6.122  -0.600  -3.175  0.00  0.00    -0.045 A 
ATOM     24  C   LIG d   1       5.150  -1.341  -2.531  0.00  0.00    -0.059 A 
ATOM     25  C   LIG d   1       4.076  -0.705  -1.937  0.00  0.00    -0.061 A 
ATOM     26  H   LIG d   1       5.228  -2.418  -2.493  0.00  0.00     0.062 H 
ATOM     27  C   LIG d   1       3.976   0.673  -1.985  0.00  0.00    -0.062 A 
ATOM     28  H   LIG d   1       3.315  -1.284  -1.434  0.00  0.00     0.062 H 
ATOM     29  C   LIG d   1       4.949   1.415  -2.629  0.00  0.00    -0.061 A 
ATOM     30  H   LIG d   1       3.138   1.170  -1.521  0.00  0.00     0.062 H 
ATOM     31  C   LIG d   1       6.025   0.778  -3.220  0.00  0.00    -0.059 A 
ATOM     32  H   LIG d   1       4.871   2.491  -2.667  0.00  0.00     0.062 H 
ATOM     33  H   LIG d   1       6.787   1.357  -3.720  0.00  0.00     0.062 H 
ENDBRANCH  20  23
ENDBRANCH  18  20
BRANCH  18  34
ATOM     34  C   LIG d   1       8.008  -3.652  -4.093  0.00  0.00     0.231 C 
ATOM     35  O   LIG d   1       8.794  -3.487  -3.184  0.00  0.00    -0.274 OA
ATOM     36  N   LIG d   1       8.155  -4.700  -4.927  0.00  0.00    -0.328 N 
ATOM     37  H   LIG d   1       7.527  -4.833  -5.654  0.00  0.00     0.145 HD
ATOM     38  H   LIG d   1       8.890  -5.321  -4.801  0.00  0.00     0.145 HD
ENDBRANCH  18  34
ENDBRANCH  16  18
ENDBRANCH   6  14
BRANCH   1  39
ATOM     39  N   LIG d   1       5.442  -5.079  -8.724  0.00  0.00    -0.307 N 
ATOM     40  C   LIG d   1       6.103  -6.169  -8.286  0.00  0.00     0.237 C 
ATOM     41  O   LIG d   1       7.109  -6.041  -7.616  0.00  0.00    -0.271 OA
ATOM     42  H   LIG d   1       4.639  -5.180  -9.259  0.00  0.00     0.149 HD
BRANCH  40  43
ATOM     43  C   LIG d   1       5.606  -7.512  -8.618  0.00  0.00    -0.001 C 
ATOM     44  C   LIG d   1       4.880  -8.191  -7.733  0.00  0.00    -0.071 C 
ATOM     45  H   LIG d   1       5.831  -7.950  -9.580  0.00  0.00     0.067 H 
BRANCH  44  46
ATOM     46  C   LIG d   1       4.684  -7.645  -6.343  0.00  0.00    -0.044 C 
ATOM     47  H   LIG d   1       3.618  -7.544  -6.139  0.00  0.00     0.027 H 
ATOM     48  H   LIG d   1       5.130  -8.327  -5.619  0.00  0.00     0.027 H 
ATOM     49  H   LIG d   1       5.163  -6.668  -6.265  0.00  0.00     0.027 H 
ENDBRANCH  44  46
BRANCH  44  50
ATOM     50  C   LIG d   1       4.253  -9.505  -8.123  0.00  0.00    -0.044 C 
ATOM     51  H   LIG d   1       4.711  -9.868  -9.043  0.00  0.00     0.027 H 
ATOM     52  H   LIG d   1       4.411 -10.232  -7.326  0.00  0.00     0.027 H 
ATOM     53  H   LIG d   1       3.184  -9.364  -8.280  0.00  0.00     0.027 H 
ENDBRANCH  44  50
ENDBRANCH  40  43
ENDBRANCH   1  39
BRANCH   8  54
ATOM     54  C   LIG d   1       4.236   0.773  -8.134  0.00  0.00    -0.001 C 
ATOM     55  C   LIG d   1       3.426   1.154  -9.118  0.00  0.00    -0.071 C 
ATOM     56  H   LIG d   1       4.977   1.458  -7.750  0.00  0.00     0.067 H 
BRANCH  55  57
ATOM     57  C   LIG d   1       2.391   0.198  -9.654  0.00  0.00    -0.044 C 
ATOM     58  H   LIG d   1       2.097   0.507 -10.657  0.00  0.00     0.027 H 
ATOM     59  H   LIG d   1       2.809  -0.807  -9.690  0.00  0.00     0.027 H 
ATOM     60  H   LIG d   1       1.518   0.204  -9.002  0.00  0.00     0.027 H 
ENDBRANCH  55  57
BRANCH  55  61
ATOM     61  C   LIG d   1       3.543   2.540  -9.698  0.00  0.00    -0.044 C 
ATOM     62  H   LIG d   1       2.897   3.221  -9.145  0.00  0.00     0.027 H 
ATOM     63  H   LIG d   1       4.577   2.877  -9.625  0.00  0.00     0.027 H 
ATOM     64  H   LIG d   1       3.240   2.521 -10.745  0.00  0.00     0.027 H 
ENDBRANCH  55  61
ENDBRANCH   8  54
TORSDOF 12
ENDMDL
MODEL 9
REMARK VINA RESULT:      -5.7      3.308      5.827
REMARK  12 active torsions:
REMARK  status: ('A' for Active; 'I' for Inactive)
REMARK    1  A    between atoms: C_1  and  C_2 
REMARK    2  A    between atoms: C_2  and  C_35 
REMARK    3  A    between atoms: C_3  and  C_4 
REMARK       I    between atoms: C_4  and  N_6 
REMARK    4  A    between atoms: N_6  and  C_7 
REMARK       I    between atoms: N_11  and  C_29 
REMARK    5  A    between atoms: C_12  and  C_14 
REMARK       I    between atoms: C_14  and  N_16 
REMARK    6  A    between atoms: N_16  and  C_17 
REMARK    7  A    between atoms: C_17  and  C_19 
REMARK    8  A    between atoms: C_17  and  C_26 
REMARK    9  A    between atoms: C_19  and  C_20 
REMARK       I    between atoms: C_26  and  N_28 
REMARK   10  A    between atoms: C_29  and  C_31 
REMARK   11  A    between atoms: C_32  and  C_33 
REMARK   12  A    between atoms: C_32  and  C_34 
ROOT
ATOM      1  C   LIG d   1       7.612  -0.689  -8.689  0.00  0.00     0.052 C 
ATOM      2  H   LIG d   1       6.647  -0.397  -9.102  0.00  0.00     0.052 H 
ATOM      3  C   LIG d   1       8.046  -2.078  -9.227  0.00  0.00    -0.016 C 
ATOM      4  C   LIG d   1       7.281  -3.032  -8.277  0.00  0.00     0.018 C 
ATOM      5  N   LIG d   1       7.322  -2.369  -6.961  0.00  0.00    -0.285 N 
ATOM      6  C   LIG d   1       7.506  -0.925  -7.168  0.00  0.00     0.121 C 
ATOM      7  H   LIG d   1       8.422  -0.592  -6.677  0.00  0.00     0.061 H 
ATOM      8  C   LIG d   1       7.207  -2.983  -5.768  0.00  0.00     0.240 C 
ATOM      9  O   LIG d   1       7.256  -2.332  -4.741  0.00  0.00    -0.271 OA
ATOM     10  H   LIG d   1       7.726  -2.215 -10.259  0.00  0.00     0.030 H 
ATOM     11  H   LIG d   1       9.124  -2.214  -9.132  0.00  0.00     0.030 H 
ATOM     12  H   LIG d   1       6.249  -3.152  -8.610  0.00  0.00     0.046 H 
ATOM     13  H   LIG d   1       7.779  -4.001  -8.229  0.00  0.00     0.046 H 
ENDROOT
BRANCH   6  14
ATOM     14  C   LIG d   1       6.326  -0.171  -6.613  0.00  0.00     0.236 C 
ATOM     15  O   LIG d   1       6.498   0.707  -5.793  0.00  0.00    -0.274 OA
ATOM     16  N   LIG d   1       5.079  -0.473  -7.026  0.00  0.00    -0.302 N 
ATOM     17  H   LIG d   1       4.941  -1.174  -7.680  0.00  0.00     0.149 HD
BRANCH  16  18
ATOM     18  C   LIG d   1       3.931   0.261  -6.485  0.00  0.00     0.103 C 
ATOM     19  H   LIG d   1       4.283   1.145  -5.954  0.00  0.00     0.060 H 
BRANCH  18  20
ATOM     20  C   LIG d   1       3.159  -0.641  -5.521  0.00  0.00    -0.001 C 
ATOM     21  H   LIG d   1       3.359  -1.685  -5.759  0.00  0.00     0.034 H 
ATOM     22  H   LIG d   1       2.091  -0.446  -5.616  0.00  0.00     0.034 H 
BRANCH  20  23
ATOM     23  C   LIG d   1       3.596  -0.356  -4.107  0.00  0.00    -0.045 A 
ATOM     24  C   LIG d   1       3.504   0.927  -3.600  0.00  0.00    -0.059 A 
ATOM     25  C   LIG d   1       3.906   1.188  -2.304  0.00  0.00    -0.061 A 
ATOM     26  H   LIG d   1       3.119   1.725  -4.218  0.00  0.00     0.062 H 
ATOM     27  C   LIG d   1       4.398   0.167  -1.513  0.00  0.00    -0.062 A 
ATOM     28  H   LIG d   1       3.835   2.191  -1.907  0.00  0.00     0.062 H 
ATOM     29  C   LIG d   1       4.489  -1.117  -2.019  0.00  0.00    -0.061 A 
ATOM     30  H   LIG d   1       4.711   0.371  -0.500  0.00  0.00     0.062 H 
ATOM     31  C   LIG d   1       4.084  -1.379  -3.315  0.00  0.00    -0.059 A 
ATOM     32  H   LIG d   1       4.873  -1.915  -1.402  0.00  0.00     0.062 H 
ATOM     33  H   LIG d   1       4.151  -2.381  -3.709  0.00  0.00     0.062 H 
ENDBRANCH  20  23
ENDBRANCH  18  20
BRANCH  18  34
ATOM     34  C   LIG d   1       3.026   0.680  -7.614  0.00  0.00     0.231 C 
ATOM     35  O   LIG d   1       2.947   1.850  -7.926  0.00  0.00    -0.274 OA
ATOM     36  N   LIG d   1       2.304  -0.244  -8.279  0.00  0.00    -0.328 N 
ATOM     37  H   LIG d   1       2.366  -1.179  -8.030  0.00  0.00     0.145 HD
ATOM     38  H   LIG d   1       1.721   0.026  -9.006  0.00  0.00     0.145 HD
ENDBRANCH  18  34
ENDBRANCH  16  18
ENDBRANCH   6  14
BRANCH   1  39
ATOM     39  N   LIG d   1       8.629   0.324  -8.988  0.00  0.00    -0.307 N 
ATOM     40  C   LIG d   1       8.255   1.563  -9.364  0.00  0.00     0.237 C 
ATOM     41  O   LIG d   1       7.075   1.840  -9.456  0.00  0.00    -0.271 OA
ATOM     42  H   LIG d   1       9.569   0.101  -8.914  0.00  0.00     0.149 HD
BRANCH  40  43
ATOM     43  C   LIG d   1       9.275   2.579  -9.663  0.00  0.00    -0.001 C 
ATOM     44  C   LIG d   1       9.839   3.266  -8.674  0.00  0.00    -0.071 C 
ATOM     45  H   LIG d   1       9.566   2.768 -10.686  0.00  0.00     0.067 H 
BRANCH  44  46
ATOM     46  C   LIG d   1       9.336   3.107  -7.263  0.00  0.00    -0.044 C 
ATOM     47  H   LIG d   1       9.983   2.415  -6.723  0.00  0.00     0.027 H 
ATOM     48  H   LIG d   1       9.341   4.076  -6.764  0.00  0.00     0.027 H 
ATOM     49  H   LIG d   1       8.318   2.713  -7.282  0.00  0.00     0.027 H 
ENDBRANCH  44  46
BRANCH  44  50
ATOM     50  C   LIG d   1      10.982   4.205  -8.965  0.00  0.00    -0.044 C 
ATOM     51  H   LIG d   1      10.682   5.227  -8.729  0.00  0.00     0.027 H 
ATOM     52  H   LIG d   1      11.842   3.929  -8.355  0.00  0.00     0.027 H 
ATOM     53  H   LIG d   1      11.247   4.138 -10.019  0.00  0.00     0.027 H 
ENDBRANCH  44  50
ENDBRANCH  40  43
ENDBRANCH   1  39
BRANCH   8  54
ATOM     54  C   LIG d   1       7.024  -4.441  -5.706  0.00  0.00    -0.001 C 
ATOM     55  C   LIG d   1       5.799  -4.959  -5.713  0.00  0.00    -0.071 C 
ATOM     56  H   LIG d   1       7.884  -5.091  -5.654  0.00  0.00     0.067 H 
BRANCH  55  57
ATOM     57  C   LIG d   1       4.598  -4.052  -5.785  0.00  0.00    -0.044 C 
ATOM     58  H   LIG d   1       3.915  -4.289  -4.969  0.00  0.00     0.027 H 
ATOM     59  H   LIG d   1       4.921  -3.014  -5.700  0.00  0.00     0.027 H 
ATOM     60  H   LIG d   1       4.089  -4.196  -6.738  0.00  0.00     0.027 H 
ENDBRANCH  55  57
BRANCH  55  61
ATOM     61  C   LIG d   1       5.612  -6.453  -5.649  0.00  0.00    -0.044 C 
ATOM     62  H   LIG d   1       5.455  -6.756  -4.614  0.00  0.00     0.027 H 
ATOM     63  H   LIG d   1       4.746  -6.736  -6.247  0.00  0.00     0.027 H 
ATOM     64  H   LIG d   1       6.501  -6.947  -6.041  0.00  0.00     0.027 H 
ENDBRANCH  55  61
ENDBRANCH   8  54
TORSDOF 12
ENDMDL
