MODEL 1
REMARK VINA RESULT:      -6.2      0.000      0.000
REMARK  9 active torsions:
REMARK  status: ('A' for Active; 'I' for Inactive)
REMARK    1  A    between atoms: C_1  and  O_2 
REMARK    2  A    between atoms: O_2  and  C_3 
REMARK    3  A    between atoms: C_3  and  C_4 
REMARK    4  A    between atoms: C_4  and  N_5 
REMARK       I    between atoms: N_5  and  C_6 
REMARK    5  A    between atoms: C_6  and  C_8 
REMARK    6  A    between atoms: C_16  and  C_18 
REMARK    7  A    between atoms: C_18  and  N_19 
REMARK    8  A    between atoms: C_21  and  C_24 
REMARK    9  A    between atoms: C_24  and  O_25 
ROOT
ATOM      1  C   LIG d   1       5.078  -1.364  -3.007  0.00  0.00     0.079 C 
ATOM      2  H   LIG d   1       5.869  -1.443  -2.261  0.00  0.00     0.045 H 
ATOM      3  C   LIG d   1       5.524  -0.423  -4.131  0.00  0.00    -0.020 C 
ATOM      4  C   LIG d   1       4.595   1.490  -2.967  0.00  0.00    -0.031 C 
ATOM      5  C   LIG d   1       4.126   0.603  -1.811  0.00  0.00    -0.009 C 
ATOM      6  C   LIG d   1       3.811  -0.796  -2.356  0.00  0.00    -0.015 C 
ATOM      7  H   LIG d   1       3.481  -1.448  -1.547  0.00  0.00     0.031 H 
ATOM      8  C   LIG d   1       2.724  -0.669  -3.430  0.00  0.00    -0.004 C 
ATOM      9  C   LIG d   1       3.232   0.255  -4.541  0.00  0.00    -0.001 C 
ATOM     10  H   LIG d   1       2.570   1.116  -4.629  0.00  0.00     0.087 H 
ATOM     11  H   LIG d   1       6.527  -0.054  -3.919  0.00  0.00     0.082 H 
ATOM     12  H   LIG d   1       5.527  -0.962  -5.077  0.00  0.00     0.082 H 
ATOM     13  H   LIG d   1       3.922   2.342  -3.068  0.00  0.00     0.081 H 
ATOM     14  H   LIG d   1       5.605   1.847  -2.765  0.00  0.00     0.081 H 
ATOM     15  H   LIG d   1       3.229   1.030  -1.362  0.00  0.00     0.032 H 
ATOM     16  H   LIG d   1       4.913   0.534  -1.059  0.00  0.00     0.032 H 
ATOM     17  H   LIG d   1       2.503  -1.652  -3.845  0.00  0.00     0.032 H 
ATOM     18  H   LIG d   1       1.821  -0.247  -2.988  0.00  0.00     0.032 H 
ATOM     19  N   LIG d   1       4.597   0.729  -4.234  0.00  0.00     0.239 N 
ATOM     20  H   LIG d   1       4.915   1.344  -4.992  0.00  0.00     0.204 HD
ENDROOT
BRANCH   1  21
ATOM     21  C   LIG d   1       4.785  -2.727  -3.578  0.00  0.00     0.222 C 
ATOM     22  N   LIG d   1       5.439  -3.152  -4.678  0.00  0.00    -0.313 N 
ATOM     23  H   LIG d   1       6.097  -2.580  -5.102  0.00  0.00     0.149 HD
ATOM     24  O   LIG d   1       3.961  -3.442  -3.048  0.00  0.00    -0.275 OA
BRANCH  22  25
ATOM     25  C   LIG d   1       5.158  -4.481  -5.229  0.00  0.00     0.035 C 
ATOM     26  H   LIG d   1       6.093  -4.956  -5.523  0.00  0.00     0.048 H 
ATOM     27  H   LIG d   1       4.663  -5.091  -4.473  0.00  0.00     0.048 H 
BRANCH  25  28
ATOM     28  C   LIG d   1       4.247  -4.344  -6.451  0.00  0.00     0.063 C 
ATOM     29  H   LIG d   1       3.538  -3.533  -6.286  0.00  0.00     0.058 H 
ATOM     30  H   LIG d   1       4.852  -4.125  -7.331  0.00  0.00     0.058 H 
BRANCH  28  31
ATOM     31  O   LIG d   1       3.536  -5.566  -6.653  0.00  0.00    -0.381 OA
BRANCH  31  32
ATOM     32  C   LIG d   1       4.288  -6.569  -7.339  0.00  0.00     0.036 C 
ATOM     33  H   LIG d   1       4.290  -6.355  -8.408  0.00  0.00     0.052 H 
ATOM     34  H   LIG d   1       5.312  -6.573  -6.967  0.00  0.00     0.052 H 
ATOM     35  H   LIG d   1       3.835  -7.546  -7.165  0.00  0.00     0.052 H 
ENDBRANCH  31  32
ENDBRANCH  28  31
ENDBRANCH  25  28
ENDBRANCH  22  25
ENDBRANCH   1  21
BRANCH   9  36
ATOM     36  C   LIG d   1       3.256  -0.508  -5.867  0.00  0.00     0.086 C 
ATOM     37  H   LIG d   1       4.160  -1.115  -5.920  0.00  0.00     0.057 H 
ATOM     38  H   LIG d   1       2.380  -1.154  -5.931  0.00  0.00     0.057 H 
BRANCH  36  39
ATOM     39  N   LIG d   1       3.243   0.446  -6.979  0.00  0.00    -0.246 N 
ATOM     40  N   LIG d   1       2.786   1.649  -6.936  0.00  0.00    -0.065 NA
ATOM     41  N   LIG d   1       2.927   2.218  -8.080  0.00  0.00    -0.132 NA
ATOM     42  C   LIG d   1       3.495   1.354  -8.927  0.00  0.00     0.108 A 
ATOM     43  C   LIG d   1       3.702   0.212  -8.230  0.00  0.00     0.051 A 
ATOM     44  H   LIG d   1       4.144  -0.702  -8.598  0.00  0.00     0.085 H 
BRANCH  42  45
ATOM     45  C   LIG d   1       3.839   1.601 -10.373  0.00  0.00     0.089 C 
ATOM     46  H   LIG d   1       3.323   2.496 -10.722  0.00  0.00     0.062 H 
ATOM     47  H   LIG d   1       4.916   1.743 -10.471  0.00  0.00     0.062 H 
BRANCH  45  48
ATOM     48  O   LIG d   1       3.434   0.479 -11.159  0.00  0.00    -0.389 OA
ATOM     49  H   LIG d   1       4.050   0.252 -11.869  0.00  0.00     0.210 HD
ENDBRANCH  45  48
ENDBRANCH  42  45
ENDBRANCH  36  39
ENDBRANCH   9  36
TORSDOF 9
ENDMDL
MODEL 2
REMARK VINA RESULT:      -5.9      2.670      3.290
REMARK  9 active torsions:
REMARK  status: ('A' for Active; 'I' for Inactive)
REMARK    1  A    between atoms: C_1  and  O_2 
REMARK    2  A    between atoms: O_2  and  C_3 
REMARK    3  A    between atoms: C_3  and  C_4 
REMARK    4  A    between atoms: C_4  and  N_5 
REMARK       I    between atoms: N_5  and  C_6 
REMARK    5  A    between atoms: C_6  and  C_8 
REMARK    6  A    between atoms: C_16  and  C_18 
REMARK    7  A    between atoms: C_18  and  N_19 
REMARK    8  A    between atoms: C_21  and  C_24 
REMARK    9  A    between atoms: C_24  and  O_25 
ROOT
ATOM      1  C   LIG d   1       6.455  -0.755  -3.125  0.00  0.00     0.079 C 
ATOM      2  H   LIG d   1       6.949  -0.365  -2.235  0.00  0.00     0.045 H 
ATOM      3  C   LIG d   1       5.939   0.410  -3.978  0.00  0.00    -0.020 C 
ATOM      4  C   LIG d   1       3.815   0.391  -2.810  0.00  0.00    -0.031 C 
ATOM      5  C   LIG d   1       4.272  -0.771  -1.924  0.00  0.00    -0.009 C 
ATOM      6  C   LIG d   1       5.267  -1.633  -2.713  0.00  0.00    -0.015 C 
ATOM      7  H   LIG d   1       5.612  -2.464  -2.098  0.00  0.00     0.031 H 
ATOM      8  C   LIG d   1       4.573  -2.145  -3.981  0.00  0.00    -0.004 C 
ATOM      9  C   LIG d   1       4.106  -0.944  -4.809  0.00  0.00    -0.001 C 
ATOM     10  H   LIG d   1       3.024  -0.984  -4.929  0.00  0.00     0.087 H 
ATOM     11  H   LIG d   1       6.188   1.353  -3.493  0.00  0.00     0.082 H 
ATOM     12  H   LIG d   1       6.404   0.373  -4.963  0.00  0.00     0.082 H 
ATOM     13  H   LIG d   1       2.735   0.341  -2.946  0.00  0.00     0.081 H 
ATOM     14  H   LIG d   1       4.078   1.336  -2.335  0.00  0.00     0.081 H 
ATOM     15  H   LIG d   1       3.411  -1.376  -1.640  0.00  0.00     0.032 H 
ATOM     16  H   LIG d   1       4.756  -0.381  -1.029  0.00  0.00     0.032 H 
ATOM     17  H   LIG d   1       5.273  -2.741  -4.565  0.00  0.00     0.032 H 
ATOM     18  H   LIG d   1       3.713  -2.755  -3.705  0.00  0.00     0.032 H 
ATOM     19  N   LIG d   1       4.468   0.320  -4.134  0.00  0.00     0.239 N 
ATOM     20  H   LIG d   1       4.146   1.108  -4.707  0.00  0.00     0.204 HD
ENDROOT
BRANCH   1  21
ATOM     21  C   LIG d   1       7.433  -1.573  -3.929  0.00  0.00     0.222 C 
ATOM     22  N   LIG d   1       8.003  -2.666  -3.385  0.00  0.00    -0.313 N 
ATOM     23  H   LIG d   1       7.785  -2.926  -2.477  0.00  0.00     0.149 HD
ATOM     24  O   LIG d   1       7.706  -1.247  -5.065  0.00  0.00    -0.275 OA
BRANCH  22  25
ATOM     25  C   LIG d   1       8.949  -3.465  -4.169  0.00  0.00     0.035 C 
ATOM     26  H   LIG d   1       8.437  -4.334  -4.581  0.00  0.00     0.048 H 
ATOM     27  H   LIG d   1       9.349  -2.859  -4.983  0.00  0.00     0.048 H 
BRANCH  25  28
ATOM     28  C   LIG d   1      10.095  -3.928  -3.267  0.00  0.00     0.063 C 
ATOM     29  H   LIG d   1      10.594  -4.783  -3.723  0.00  0.00     0.058 H 
ATOM     30  H   LIG d   1      10.810  -3.114  -3.142  0.00  0.00     0.058 H 
BRANCH  28  31
ATOM     31  O   LIG d   1       9.574  -4.306  -1.991  0.00  0.00    -0.381 OA
BRANCH  31  32
ATOM     32  C   LIG d   1       9.759  -5.687  -1.674  0.00  0.00     0.036 C 
ATOM     33  H   LIG d   1      10.453  -5.778  -0.839  0.00  0.00     0.052 H 
ATOM     34  H   LIG d   1       8.801  -6.129  -1.401  0.00  0.00     0.052 H 
ATOM     35  H   LIG d   1      10.165  -6.208  -2.541  0.00  0.00     0.052 H 
ENDBRANCH  31  32
ENDBRANCH  28  31
ENDBRANCH  25  28
ENDBRANCH  22  25
ENDBRANCH   1  21
BRANCH   9  36
ATOM     36  C   LIG d   1       4.774  -0.983  -6.185  0.00  0.00     0.086 C 
ATOM     37  H   LIG d   1       5.844  -0.805  -6.074  0.00  0.00     0.057 H 
ATOM     38  H   LIG d   1       4.613  -1.960  -6.639  0.00  0.00     0.057 H 
BRANCH  36  39
ATOM     39  N   LIG d   1       4.193   0.055  -7.039  0.00  0.00    -0.246 N 
ATOM     40  N   LIG d   1       3.197   0.813  -6.734  0.00  0.00    -0.065 NA
ATOM     41  N   LIG d   1       2.940   1.618  -7.703  0.00  0.00    -0.132 NA
ATOM     42  C   LIG d   1       3.796   1.382  -8.702  0.00  0.00     0.108 A 
ATOM     43  C   LIG d   1       4.605   0.380  -8.286  0.00  0.00     0.051 A 
ATOM     44  H   LIG d   1       5.417  -0.071  -8.837  0.00  0.00     0.085 H 
BRANCH  42  45
ATOM     45  C   LIG d   1       3.851   2.091 -10.030  0.00  0.00     0.089 C 
ATOM     46  H   LIG d   1       2.934   2.662 -10.176  0.00  0.00     0.062 H 
ATOM     47  H   LIG d   1       4.706   2.769 -10.045  0.00  0.00     0.062 H 
BRANCH  45  48
ATOM     48  O   LIG d   1       3.988   1.131 -11.079  0.00  0.00    -0.389 OA
ATOM     49  H   LIG d   1       3.702   0.239 -10.836  0.00  0.00     0.210 HD
ENDBRANCH  45  48
ENDBRANCH  42  45
ENDBRANCH  36  39
ENDBRANCH   9  36
TORSDOF 9
ENDMDL
MODEL 3
REMARK VINA RESULT:      -5.6      3.238      4.735
REMARK  9 active torsions:
REMARK  status: ('A' for Active; 'I' for Inactive)
REMARK    1  A    between atoms: C_1  and  O_2 
REMARK    2  A    between atoms: O_2  and  C_3 
REMARK    3  A    between atoms: C_3  and  C_4 
REMARK    4  A    between atoms: C_4  and  N_5 
REMARK       I    between atoms: N_5  and  C_6 
REMARK    5  A    between atoms: C_6  and  C_8 
REMARK    6  A    between atoms: C_16  and  C_18 
REMARK    7  A    between atoms: C_18  and  N_19 
REMARK    8  A    between atoms: C_21  and  C_24 
REMARK    9  A    between atoms: C_24  and  O_25 
ROOT
ATOM      1  C   LIG d   1       4.434  -2.324  -3.433  0.00  0.00     0.079 C 
ATOM      2  H   LIG d   1       3.940  -3.009  -2.744  0.00  0.00     0.045 H 
ATOM      3  C   LIG d   1       5.640  -1.680  -2.741  0.00  0.00    -0.020 C 
ATOM      4  C   LIG d   1       4.265   0.148  -1.934  0.00  0.00    -0.031 C 
ATOM      5  C   LIG d   1       3.022  -0.447  -2.602  0.00  0.00    -0.009 C 
ATOM      6  C   LIG d   1       3.455  -1.221  -3.854  0.00  0.00    -0.015 C 
ATOM      7  H   LIG d   1       2.584  -1.660  -4.343  0.00  0.00     0.031 H 
ATOM      8  C   LIG d   1       4.180  -0.256  -4.800  0.00  0.00    -0.004 C 
ATOM      9  C   LIG d   1       5.391   0.334  -4.070  0.00  0.00    -0.001 C 
ATOM     10  H   LIG d   1       5.291   1.418  -4.017  0.00  0.00     0.087 H 
ATOM     11  H   LIG d   1       5.719  -2.059  -1.722  0.00  0.00     0.082 H 
ATOM     12  H   LIG d   1       6.548  -1.922  -3.291  0.00  0.00     0.082 H 
ATOM     13  H   LIG d   1       4.174   1.233  -1.899  0.00  0.00     0.081 H 
ATOM     14  H   LIG d   1       4.356  -0.243  -0.921  0.00  0.00     0.081 H 
ATOM     15  H   LIG d   1       2.340   0.355  -2.886  0.00  0.00     0.032 H 
ATOM     16  H   LIG d   1       2.522  -1.123  -1.909  0.00  0.00     0.032 H 
ATOM     17  H   LIG d   1       4.514  -0.795  -5.685  0.00  0.00     0.032 H 
ATOM     18  H   LIG d   1       3.503   0.547  -5.092  0.00  0.00     0.032 H 
ATOM     19  N   LIG d   1       5.481  -0.206  -2.697  0.00  0.00     0.239 N 
ATOM     20  H   LIG d   1       6.298   0.203  -2.231  0.00  0.00     0.204 HD
ENDROOT
BRANCH   1  21
ATOM     21  C   LIG d   1       4.897  -3.080  -4.652  0.00  0.00     0.222 C 
ATOM     22  N   LIG d   1       4.022  -3.382  -5.631  0.00  0.00    -0.313 N 
ATOM     23  H   LIG d   1       3.093  -3.114  -5.551  0.00  0.00     0.149 HD
ATOM     24  O   LIG d   1       6.059  -3.415  -4.751  0.00  0.00    -0.275 OA
BRANCH  22  25
ATOM     25  C   LIG d   1       4.474  -4.111  -6.819  0.00  0.00     0.035 C 
ATOM     26  H   LIG d   1       4.005  -3.687  -7.706  0.00  0.00     0.048 H 
ATOM     27  H   LIG d   1       5.559  -4.028  -6.905  0.00  0.00     0.048 H 
BRANCH  25  28
ATOM     28  C   LIG d   1       4.086  -5.586  -6.690  0.00  0.00     0.063 C 
ATOM     29  H   LIG d   1       4.987  -6.195  -6.629  0.00  0.00     0.058 H 
ATOM     30  H   LIG d   1       3.489  -5.726  -5.788  0.00  0.00     0.058 H 
BRANCH  28  31
ATOM     31  O   LIG d   1       3.322  -5.977  -7.833  0.00  0.00    -0.381 OA
BRANCH  31  32
ATOM     32  C   LIG d   1       3.398  -5.058  -8.925  0.00  0.00     0.036 C 
ATOM     33  H   LIG d   1       4.440  -4.919  -9.211  0.00  0.00     0.052 H 
ATOM     34  H   LIG d   1       2.838  -5.454  -9.772  0.00  0.00     0.052 H 
ATOM     35  H   LIG d   1       2.974  -4.100  -8.624  0.00  0.00     0.052 H 
ENDBRANCH  31  32
ENDBRANCH  28  31
ENDBRANCH  25  28
ENDBRANCH  22  25
ENDBRANCH   1  21
BRANCH   9  36
ATOM     36  C   LIG d   1       6.669  -0.024  -4.831  0.00  0.00     0.086 C 
ATOM     37  H   LIG d   1       6.933  -1.063  -4.629  0.00  0.00     0.057 H 
ATOM     38  H   LIG d   1       6.504   0.107  -5.900  0.00  0.00     0.057 H 
BRANCH  36  39
ATOM     39  N   LIG d   1       7.759   0.850  -4.393  0.00  0.00    -0.246 N 
ATOM     40  N   LIG d   1       7.647   1.851  -3.590  0.00  0.00    -0.065 NA
ATOM     41  N   LIG d   1       8.793   2.405  -3.410  0.00  0.00    -0.132 NA
ATOM     42  C   LIG d   1       9.710   1.750  -4.130  0.00  0.00     0.108 A 
ATOM     43  C   LIG d   1       9.056   0.750  -4.765  0.00  0.00     0.051 A 
ATOM     44  H   LIG d   1       9.483   0.017  -5.435  0.00  0.00     0.085 H 
BRANCH  42  45
ATOM     45  C   LIG d   1      11.181   2.062  -4.218  0.00  0.00     0.089 C 
ATOM     46  H   LIG d   1      11.711   1.203  -4.629  0.00  0.00     0.062 H 
ATOM     47  H   LIG d   1      11.332   2.925  -4.867  0.00  0.00     0.062 H 
BRANCH  45  48
ATOM     48  O   LIG d   1      11.686   2.355  -2.914  0.00  0.00    -0.389 OA
ATOM     49  H   LIG d   1      11.015   2.672  -2.294  0.00  0.00     0.210 HD
ENDBRANCH  45  48
ENDBRANCH  42  45
ENDBRANCH  36  39
ENDBRANCH   9  36
TORSDOF 9
ENDMDL
MODEL 4
REMARK VINA RESULT:      -5.5      3.218      5.896
REMARK  9 active torsions:
REMARK  status: ('A' for Active; 'I' for Inactive)
REMARK    1  A    between atoms: C_1  and  O_2 
REMARK    2  A    between atoms: O_2  and  C_3 
REMARK    3  A    between atoms: C_3  and  C_4 
REMARK    4  A    between atoms: C_4  and  N_5 
REMARK       I    between atoms: N_5  and  C_6 
REMARK    5  A    between atoms: C_6  and  C_8 
REMARK    6  A    between atoms: C_16  and  C_18 
REMARK    7  A    between atoms: C_18  and  N_19 
REMARK    8  A    between atoms: C_21  and  C_24 
REMARK    9  A    between atoms: C_24  and  O_25 
ROOT
ATOM      1  C   LIG d   1       5.424   0.242  -3.722  0.00  0.00     0.079 C 
ATOM      2  H   LIG d   1       5.231   1.185  -3.212  0.00  0.00     0.045 H 
ATOM      3  C   LIG d   1       4.208  -0.140  -4.572  0.00  0.00    -0.020 C 
ATOM      4  C   LIG d   1       3.232  -1.360  -2.718  0.00  0.00    -0.031 C 
ATOM      5  C   LIG d   1       4.419  -1.010  -1.817  0.00  0.00    -0.009 C 
ATOM      6  C   LIG d   1       5.674  -0.862  -2.687  0.00  0.00    -0.015 C 
ATOM      7  H   LIG d   1       6.533  -0.605  -2.066  0.00  0.00     0.031 H 
ATOM      8  C   LIG d   1       5.915  -2.183  -3.428  0.00  0.00    -0.004 C 
ATOM      9  C   LIG d   1       4.686  -2.501  -4.283  0.00  0.00    -0.001 C 
ATOM     10  H   LIG d   1       4.260  -3.454  -3.969  0.00  0.00     0.087 H 
ATOM     11  H   LIG d   1       3.437   0.622  -4.466  0.00  0.00     0.082 H 
ATOM     12  H   LIG d   1       4.504  -0.216  -5.618  0.00  0.00     0.082 H 
ATOM     13  H   LIG d   1       2.819  -2.323  -2.417  0.00  0.00     0.081 H 
ATOM     14  H   LIG d   1       2.466  -0.590  -2.627  0.00  0.00     0.081 H 
ATOM     15  H   LIG d   1       4.573  -1.805  -1.088  0.00  0.00     0.032 H 
ATOM     16  H   LIG d   1       4.221  -0.072  -1.299  0.00  0.00     0.032 H 
ATOM     17  H   LIG d   1       6.791  -2.088  -4.068  0.00  0.00     0.032 H 
ATOM     18  H   LIG d   1       6.074  -2.983  -2.705  0.00  0.00     0.032 H 
ATOM     19  N   LIG d   1       3.662  -1.446  -4.130  0.00  0.00     0.239 N 
ATOM     20  H   LIG d   1       2.851  -1.681  -4.712  0.00  0.00     0.204 HD
ENDROOT
BRANCH   1  21
ATOM     21  C   LIG d   1       6.634   0.385  -4.610  0.00  0.00     0.222 C 
ATOM     22  N   LIG d   1       7.867   0.427  -4.067  0.00  0.00    -0.313 N 
ATOM     23  H   LIG d   1       7.976   0.366  -3.106  0.00  0.00     0.149 HD
ATOM     24  O   LIG d   1       6.497   0.463  -5.813  0.00  0.00    -0.275 OA
BRANCH  22  25
ATOM     25  C   LIG d   1       9.043   0.560  -4.931  0.00  0.00     0.035 C 
ATOM     26  H   LIG d   1       9.490  -0.421  -5.090  0.00  0.00     0.048 H 
ATOM     27  H   LIG d   1       8.743   0.983  -5.891  0.00  0.00     0.048 H 
BRANCH  25  28
ATOM     28  C   LIG d   1      10.064   1.484  -4.264  0.00  0.00     0.063 C 
ATOM     29  H   LIG d   1      10.831   0.885  -3.772  0.00  0.00     0.058 H 
ATOM     30  H   LIG d   1      10.528   2.119  -5.020  0.00  0.00     0.058 H 
BRANCH  28  31
ATOM     31  O   LIG d   1       9.404   2.301  -3.295  0.00  0.00    -0.381 OA
BRANCH  31  32
ATOM     32  C   LIG d   1       9.565   3.705  -3.512  0.00  0.00     0.036 C 
ATOM     33  H   LIG d   1       9.480   4.232  -2.562  0.00  0.00     0.052 H 
ATOM     34  H   LIG d   1      10.545   3.894  -3.948  0.00  0.00     0.052 H 
ATOM     35  H   LIG d   1       8.789   4.058  -4.193  0.00  0.00     0.052 H 
ENDBRANCH  31  32
ENDBRANCH  28  31
ENDBRANCH  25  28
ENDBRANCH  22  25
ENDBRANCH   1  21
BRANCH   9  36
ATOM     36  C   LIG d   1       5.096  -2.586  -5.755  0.00  0.00     0.086 C 
ATOM     37  H   LIG d   1       4.775  -1.682  -6.274  0.00  0.00     0.057 H 
ATOM     38  H   LIG d   1       6.180  -2.679  -5.825  0.00  0.00     0.057 H 
BRANCH  36  39
ATOM     39  N   LIG d   1       4.464  -3.754  -6.372  0.00  0.00    -0.246 N 
ATOM     40  N   LIG d   1       3.953  -4.755  -5.743  0.00  0.00    -0.065 NA
ATOM     41  N   LIG d   1       3.478  -5.609  -6.579  0.00  0.00    -0.132 NA
ATOM     42  C   LIG d   1       3.689  -5.161  -7.822  0.00  0.00     0.108 A 
ATOM     43  C   LIG d   1       4.321  -3.971  -7.699  0.00  0.00     0.051 A 
ATOM     44  H   LIG d   1       4.647  -3.324  -8.500  0.00  0.00     0.085 H 
BRANCH  42  45
ATOM     45  C   LIG d   1       3.298  -5.846  -9.106  0.00  0.00     0.089 C 
ATOM     46  H   LIG d   1       2.435  -5.341  -9.539  0.00  0.00     0.062 H 
ATOM     47  H   LIG d   1       4.132  -5.806  -9.807  0.00  0.00     0.062 H 
BRANCH  45  48
ATOM     48  O   LIG d   1       2.968  -7.210  -8.838  0.00  0.00    -0.389 OA
ATOM     49  H   LIG d   1       2.311  -7.326  -8.138  0.00  0.00     0.210 HD
ENDBRANCH  45  48
ENDBRANCH  42  45
ENDBRANCH  36  39
ENDBRANCH   9  36
TORSDOF 9
ENDMDL
MODEL 5
REMARK VINA RESULT:      -5.4      2.097      2.240
REMARK  9 active torsions:
REMARK  status: ('A' for Active; 'I' for Inactive)
REMARK    1  A    between atoms: C_1  and  O_2 
REMARK    2  A    between atoms: O_2  and  C_3 
REMARK    3  A    between atoms: C_3  and  C_4 
REMARK    4  A    between atoms: C_4  and  N_5 
REMARK       I    between atoms: N_5  and  C_6 
REMARK    5  A    between atoms: C_6  and  C_8 
REMARK    6  A    between atoms: C_16  and  C_18 
REMARK    7  A    between atoms: C_18  and  N_19 
REMARK    8  A    between atoms: C_21  and  C_24 
REMARK    9  A    between atoms: C_24  and  O_25 
ROOT
ATOM      1  C   LIG d   1       6.446  -0.917  -3.212  0.00  0.00     0.079 C 
ATOM      2  H   LIG d   1       7.025  -0.579  -2.352  0.00  0.00     0.045 H 
ATOM      3  C   LIG d   1       6.018   0.292  -4.050  0.00  0.00    -0.020 C 
ATOM      4  C   LIG d   1       3.967   0.515  -2.776  0.00  0.00    -0.031 C 
ATOM      5  C   LIG d   1       4.339  -0.686  -1.902  0.00  0.00    -0.009 C 
ATOM      6  C   LIG d   1       5.192  -1.657  -2.730  0.00  0.00    -0.015 C 
ATOM      7  H   LIG d   1       5.475  -2.518  -2.124  0.00  0.00     0.031 H 
ATOM      8  C   LIG d   1       4.382  -2.096  -3.956  0.00  0.00    -0.004 C 
ATOM      9  C   LIG d   1       4.008  -0.856  -4.772  0.00  0.00    -0.001 C 
ATOM     10  H   LIG d   1       2.922  -0.777  -4.837  0.00  0.00     0.087 H 
ATOM     11  H   LIG d   1       6.394   1.205  -3.589  0.00  0.00     0.082 H 
ATOM     12  H   LIG d   1       6.425   0.199  -5.057  0.00  0.00     0.082 H 
ATOM     13  H   LIG d   1       2.883   0.583  -2.858  0.00  0.00     0.081 H 
ATOM     14  H   LIG d   1       4.357   1.427  -2.326  0.00  0.00     0.081 H 
ATOM     15  H   LIG d   1       3.433  -1.191  -1.569  0.00  0.00     0.032 H 
ATOM     16  H   LIG d   1       4.908  -0.347  -1.037  0.00  0.00     0.032 H 
ATOM     17  H   LIG d   1       4.981  -2.769  -4.567  0.00  0.00     0.032 H 
ATOM     18  H   LIG d   1       3.475  -2.607  -3.630  0.00  0.00     0.032 H 
ATOM     19  N   LIG d   1       4.540   0.365  -4.131  0.00  0.00     0.239 N 
ATOM     20  H   LIG d   1       4.277   1.180  -4.696  0.00  0.00     0.204 HD
ENDROOT
BRANCH   1  21
ATOM     21  C   LIG d   1       7.286  -1.842  -4.054  0.00  0.00     0.222 C 
ATOM     22  N   LIG d   1       7.761  -1.425  -5.245  0.00  0.00    -0.313 N 
ATOM     23  H   LIG d   1       7.561  -0.530  -5.560  0.00  0.00     0.149 HD
ATOM     24  O   LIG d   1       7.535  -2.962  -3.660  0.00  0.00    -0.275 OA
BRANCH  22  25
ATOM     25  C   LIG d   1       8.583  -2.323  -6.061  0.00  0.00     0.035 C 
ATOM     26  H   LIG d   1       9.368  -1.750  -6.553  0.00  0.00     0.048 H 
ATOM     27  H   LIG d   1       9.035  -3.083  -5.422  0.00  0.00     0.048 H 
BRANCH  25  28
ATOM     28  C   LIG d   1       7.705  -3.000  -7.116  0.00  0.00     0.063 C 
ATOM     29  H   LIG d   1       6.671  -3.018  -6.771  0.00  0.00     0.058 H 
ATOM     30  H   LIG d   1       7.767  -2.442  -8.051  0.00  0.00     0.058 H 
BRANCH  28  31
ATOM     31  O   LIG d   1       8.161  -4.337  -7.327  0.00  0.00    -0.381 OA
BRANCH  31  32
ATOM     32  C   LIG d   1       7.117  -5.313  -7.331  0.00  0.00     0.036 C 
ATOM     33  H   LIG d   1       7.325  -6.072  -6.577  0.00  0.00     0.052 H 
ATOM     34  H   LIG d   1       6.167  -4.828  -7.108  0.00  0.00     0.052 H 
ATOM     35  H   LIG d   1       7.063  -5.783  -8.314  0.00  0.00     0.052 H 
ENDBRANCH  31  32
ENDBRANCH  28  31
ENDBRANCH  25  28
ENDBRANCH  22  25
ENDBRANCH   1  21
BRANCH   9  36
ATOM     36  C   LIG d   1       4.596  -0.976  -6.180  0.00  0.00     0.086 C 
ATOM     37  H   LIG d   1       5.682  -0.894  -6.128  0.00  0.00     0.057 H 
ATOM     38  H   LIG d   1       4.325  -1.941  -6.606  0.00  0.00     0.057 H 
BRANCH  36  39
ATOM     39  N   LIG d   1       4.065   0.097  -7.024  0.00  0.00    -0.246 N 
ATOM     40  N   LIG d   1       3.127   0.918  -6.700  0.00  0.00    -0.065 NA
ATOM     41  N   LIG d   1       2.902   1.738  -7.664  0.00  0.00    -0.132 NA
ATOM     42  C   LIG d   1       3.720   1.446  -8.681  0.00  0.00     0.108 A 
ATOM     43  C   LIG d   1       4.471   0.394  -8.280  0.00  0.00     0.051 A 
ATOM     44  H   LIG d   1       5.241  -0.109  -8.847  0.00  0.00     0.085 H 
BRANCH  42  45
ATOM     45  C   LIG d   1       3.793   2.149 -10.011  0.00  0.00     0.089 C 
ATOM     46  H   LIG d   1       2.863   2.691 -10.187  0.00  0.00     0.062 H 
ATOM     47  H   LIG d   1       4.626   2.853 -10.005  0.00  0.00     0.062 H 
BRANCH  45  48
ATOM     48  O   LIG d   1       3.989   1.188 -11.049  0.00  0.00    -0.389 OA
ATOM     49  H   LIG d   1       4.033   1.570 -11.937  0.00  0.00     0.210 HD
ENDBRANCH  45  48
ENDBRANCH  42  45
ENDBRANCH  36  39
ENDBRANCH   9  36
TORSDOF 9
ENDMDL
MODEL 6
REMARK VINA RESULT:      -5.3      3.463      6.151
REMARK  9 active torsions:
REMARK  status: ('A' for Active; 'I' for Inactive)
REMARK    1  A    between atoms: C_1  and  O_2 
REMARK    2  A    between atoms: O_2  and  C_3 
REMARK    3  A    between atoms: C_3  and  C_4 
REMARK    4  A    between atoms: C_4  and  N_5 
REMARK       I    between atoms: N_5  and  C_6 
REMARK    5  A    between atoms: C_6  and  C_8 
REMARK    6  A    between atoms: C_16  and  C_18 
REMARK    7  A    between atoms: C_18  and  N_19 
REMARK    8  A    between atoms: C_21  and  C_24 
REMARK    9  A    between atoms: C_24  and  O_25 
ROOT
ATOM      1  C   LIG d   1       5.058  -3.112  -5.206  0.00  0.00     0.079 C 
ATOM      2  H   LIG d   1       4.527  -3.997  -5.558  0.00  0.00     0.045 H 
ATOM      3  C   LIG d   1       5.357  -2.188  -6.392  0.00  0.00    -0.020 C 
ATOM      4  C   LIG d   1       7.482  -3.289  -6.780  0.00  0.00    -0.031 C 
ATOM      5  C   LIG d   1       7.241  -4.244  -5.608  0.00  0.00    -0.009 C 
ATOM      6  C   LIG d   1       6.382  -3.530  -4.555  0.00  0.00    -0.015 C 
ATOM      7  H   LIG d   1       6.191  -4.195  -3.712  0.00  0.00     0.031 H 
ATOM      8  C   LIG d   1       7.121  -2.267  -4.095  0.00  0.00    -0.004 C 
ATOM      9  C   LIG d   1       7.367  -1.368  -5.310  0.00  0.00    -0.001 C 
ATOM     10  H   LIG d   1       8.439  -1.216  -5.440  0.00  0.00     0.087 H 
ATOM     11  H   LIG d   1       4.968  -2.635  -7.307  0.00  0.00     0.082 H 
ATOM     12  H   LIG d   1       4.883  -1.221  -6.228  0.00  0.00     0.082 H 
ATOM     13  H   LIG d   1       8.553  -3.122  -6.897  0.00  0.00     0.081 H 
ATOM     14  H   LIG d   1       7.079  -3.726  -7.693  0.00  0.00     0.081 H 
ATOM     15  H   LIG d   1       8.195  -4.530  -5.166  0.00  0.00     0.032 H 
ATOM     16  H   LIG d   1       6.720  -5.134  -5.961  0.00  0.00     0.032 H 
ATOM     17  H   LIG d   1       6.515  -1.735  -3.363  0.00  0.00     0.032 H 
ATOM     18  H   LIG d   1       8.076  -2.546  -3.648  0.00  0.00     0.032 H 
ATOM     19  N   LIG d   1       6.819  -1.991  -6.533  0.00  0.00     0.239 N 
ATOM     20  H   LIG d   1       6.995  -1.370  -7.331  0.00  0.00     0.204 HD
ENDROOT
BRANCH   1  21
ATOM     21  C   LIG d   1       4.208  -2.380  -4.199  0.00  0.00     0.222 C 
ATOM     22  N   LIG d   1       3.585  -1.237  -4.548  0.00  0.00    -0.313 N 
ATOM     23  H   LIG d   1       3.684  -0.885  -5.445  0.00  0.00     0.149 HD
ATOM     24  O   LIG d   1       4.086  -2.821  -3.076  0.00  0.00    -0.275 OA
BRANCH  22  25
ATOM     25  C   LIG d   1       2.754  -0.529  -3.570  0.00  0.00     0.035 C 
ATOM     26  H   LIG d   1       1.709  -0.584  -3.874  0.00  0.00     0.048 H 
ATOM     27  H   LIG d   1       2.871  -0.993  -2.589  0.00  0.00     0.048 H 
BRANCH  25  28
ATOM     28  C   LIG d   1       3.189   0.936  -3.496  0.00  0.00     0.063 C 
ATOM     29  H   LIG d   1       4.090   1.078  -4.092  0.00  0.00     0.058 H 
ATOM     30  H   LIG d   1       2.391   1.571  -3.885  0.00  0.00     0.058 H 
BRANCH  28  31
ATOM     31  O   LIG d   1       3.456   1.285  -2.137  0.00  0.00    -0.381 OA
BRANCH  31  32
ATOM     32  C   LIG d   1       4.670   0.731  -1.623  0.00  0.00     0.036 C 
ATOM     33  H   LIG d   1       4.582   0.600  -0.545  0.00  0.00     0.052 H 
ATOM     34  H   LIG d   1       4.856  -0.234  -2.094  0.00  0.00     0.052 H 
ATOM     35  H   LIG d   1       5.497   1.407  -1.840  0.00  0.00     0.052 H 
ENDBRANCH  31  32
ENDBRANCH  28  31
ENDBRANCH  25  28
ENDBRANCH  22  25
ENDBRANCH   1  21
BRANCH   9  36
ATOM     36  C   LIG d   1       6.683  -0.017  -5.091  0.00  0.00     0.086 C 
ATOM     37  H   LIG d   1       6.329   0.370  -6.047  0.00  0.00     0.057 H 
ATOM     38  H   LIG d   1       5.838  -0.143  -4.415  0.00  0.00     0.057 H 
BRANCH  36  39
ATOM     39  N   LIG d   1       7.640   0.926  -4.508  0.00  0.00    -0.246 N 
ATOM     40  N   LIG d   1       7.346   1.945  -3.777  0.00  0.00    -0.065 NA
ATOM     41  N   LIG d   1       8.417   2.562  -3.425  0.00  0.00    -0.132 NA
ATOM     42  C   LIG d   1       9.473   1.933  -3.951  0.00  0.00     0.108 A 
ATOM     43  C   LIG d   1       8.985   0.881  -4.648  0.00  0.00     0.051 A 
ATOM     44  H   LIG d   1       9.554   0.151  -5.206  0.00  0.00     0.085 H 
BRANCH  42  45
ATOM     45  C   LIG d   1      10.922   2.318  -3.798  0.00  0.00     0.089 C 
ATOM     46  H   LIG d   1      11.553   1.470  -4.065  0.00  0.00     0.062 H 
ATOM     47  H   LIG d   1      11.146   3.158  -4.455  0.00  0.00     0.062 H 
BRANCH  45  48
ATOM     48  O   LIG d   1      11.175   2.693  -2.443  0.00  0.00    -0.389 OA
ATOM     49  H   LIG d   1      11.622   2.011  -1.922  0.00  0.00     0.210 HD
ENDBRANCH  45  48
ENDBRANCH  42  45
ENDBRANCH  36  39
ENDBRANCH   9  36
TORSDOF 9
ENDMDL
MODEL 7
REMARK VINA RESULT:      -5.2      2.004      5.499
REMARK  9 active torsions:
REMARK  status: ('A' for Active; 'I' for Inactive)
REMARK    1  A    between atoms: C_1  and  O_2 
REMARK    2  A    between atoms: O_2  and  C_3 
REMARK    3  A    between atoms: C_3  and  C_4 
REMARK    4  A    between atoms: C_4  and  N_5 
REMARK       I    between atoms: N_5  and  C_6 
REMARK    5  A    between atoms: C_6  and  C_8 
REMARK    6  A    between atoms: C_16  and  C_18 
REMARK    7  A    between atoms: C_18  and  N_19 
REMARK    8  A    between atoms: C_21  and  C_24 
REMARK    9  A    between atoms: C_24  and  O_25 
ROOT
ATOM      1  C   LIG d   1       2.964  -0.800  -9.528  0.00  0.00     0.079 C 
ATOM      2  H   LIG d   1       2.085  -0.711 -10.165  0.00  0.00     0.045 H 
ATOM      3  C   LIG d   1       2.633  -0.292  -8.121  0.00  0.00    -0.020 C 
ATOM      4  C   LIG d   1       3.313   1.958  -8.719  0.00  0.00    -0.031 C 
ATOM      5  C   LIG d   1       3.661   1.512 -10.142  0.00  0.00    -0.009 C 
ATOM      6  C   LIG d   1       4.107   0.044 -10.106  0.00  0.00    -0.015 C 
ATOM      7  H   LIG d   1       4.353  -0.298 -11.112  0.00  0.00     0.031 H 
ATOM      8  C   LIG d   1       5.322  -0.076  -9.178  0.00  0.00    -0.004 C 
ATOM      9  C   LIG d   1       4.929   0.416  -7.782  0.00  0.00    -0.001 C 
ATOM     10  H   LIG d   1       5.558   1.260  -7.502  0.00  0.00     0.087 H 
ATOM     11  H   LIG d   1       1.596   0.040  -8.089  0.00  0.00     0.082 H 
ATOM     12  H   LIG d   1       2.781  -1.094  -7.400  0.00  0.00     0.082 H 
ATOM     13  H   LIG d   1       3.956   2.789  -8.432  0.00  0.00     0.081 H 
ATOM     14  H   LIG d   1       2.271   2.273  -8.681  0.00  0.00     0.081 H 
ATOM     15  H   LIG d   1       4.469   2.129 -10.532  0.00  0.00     0.032 H 
ATOM     16  H   LIG d   1       2.784   1.612 -10.781  0.00  0.00     0.032 H 
ATOM     17  H   LIG d   1       5.639  -1.116  -9.124  0.00  0.00     0.032 H 
ATOM     18  H   LIG d   1       6.138   0.536  -9.564  0.00  0.00     0.032 H 
ATOM     19  N   LIG d   1       3.515   0.846  -7.765  0.00  0.00     0.239 N 
ATOM     20  H   LIG d   1       3.276   1.169  -6.821  0.00  0.00     0.204 HD
ENDROOT
BRANCH   1  21
ATOM     21  C   LIG d   1       3.391  -2.244  -9.454  0.00  0.00     0.222 C 
ATOM     22  N   LIG d   1       3.177  -2.953  -8.328  0.00  0.00    -0.313 N 
ATOM     23  H   LIG d   1       2.750  -2.534  -7.565  0.00  0.00     0.149 HD
ATOM     24  O   LIG d   1       3.925  -2.767 -10.409  0.00  0.00    -0.275 OA
BRANCH  22  25
ATOM     25  C   LIG d   1       3.586  -4.359  -8.259  0.00  0.00     0.035 C 
ATOM     26  H   LIG d   1       2.729  -4.997  -8.474  0.00  0.00     0.048 H 
ATOM     27  H   LIG d   1       4.371  -4.545  -8.993  0.00  0.00     0.048 H 
BRANCH  25  28
ATOM     28  C   LIG d   1       4.114  -4.668  -6.857  0.00  0.00     0.063 C 
ATOM     29  H   LIG d   1       5.201  -4.588  -6.852  0.00  0.00     0.058 H 
ATOM     30  H   LIG d   1       3.693  -3.956  -6.145  0.00  0.00     0.058 H 
BRANCH  28  31
ATOM     31  O   LIG d   1       3.733  -5.994  -6.487  0.00  0.00    -0.381 OA
BRANCH  31  32
ATOM     32  C   LIG d   1       4.575  -7.014  -7.029  0.00  0.00     0.036 C 
ATOM     33  H   LIG d   1       3.960  -7.804  -7.458  0.00  0.00     0.052 H 
ATOM     34  H   LIG d   1       5.210  -6.585  -7.804  0.00  0.00     0.052 H 
ATOM     35  H   LIG d   1       5.198  -7.429  -6.236  0.00  0.00     0.052 H 
ENDBRANCH  31  32
ENDBRANCH  28  31
ENDBRANCH  25  28
ENDBRANCH  22  25
ENDBRANCH   1  21
BRANCH   9  36
ATOM     36  C   LIG d   1       5.116  -0.717  -6.771  0.00  0.00     0.086 C 
ATOM     37  H   LIG d   1       4.216  -1.332  -6.744  0.00  0.00     0.057 H 
ATOM     38  H   LIG d   1       5.966  -1.332  -7.067  0.00  0.00     0.057 H 
BRANCH  36  39
ATOM     39  N   LIG d   1       5.361  -0.151  -5.443  0.00  0.00    -0.246 N 
ATOM     40  N   LIG d   1       6.398   0.526  -5.091  0.00  0.00    -0.065 NA
ATOM     41  N   LIG d   1       6.301   0.879  -3.858  0.00  0.00    -0.132 NA
ATOM     42  C   LIG d   1       5.151   0.409  -3.363  0.00  0.00     0.108 A 
ATOM     43  C   LIG d   1       4.540  -0.254  -4.372  0.00  0.00     0.051 A 
ATOM     44  H   LIG d   1       3.588  -0.763  -4.333  0.00  0.00     0.085 H 
BRANCH  42  45
ATOM     45  C   LIG d   1       4.635   0.583  -1.958  0.00  0.00     0.089 C 
ATOM     46  H   LIG d   1       4.430  -0.395  -1.522  0.00  0.00     0.062 H 
ATOM     47  H   LIG d   1       5.386   1.097  -1.357  0.00  0.00     0.062 H 
BRANCH  45  48
ATOM     48  O   LIG d   1       3.434   1.356  -1.983  0.00  0.00    -0.389 OA
ATOM     49  H   LIG d   1       3.447   2.123  -1.394  0.00  0.00     0.210 HD
ENDBRANCH  45  48
ENDBRANCH  42  45
ENDBRANCH  36  39
ENDBRANCH   9  36
TORSDOF 9
ENDMDL
MODEL 8
REMARK VINA RESULT:      -5.0      2.664      5.915
REMARK  9 active torsions:
REMARK  status: ('A' for Active; 'I' for Inactive)
REMARK    1  A    between atoms: C_1  and  O_2 
REMARK    2  A    between atoms: O_2  and  C_3 
REMARK    3  A    between atoms: C_3  and  C_4 
REMARK    4  A    between atoms: C_4  and  N_5 
REMARK       I    between atoms: N_5  and  C_6 
REMARK    5  A    between atoms: C_6  and  C_8 
REMARK    6  A    between atoms: C_16  and  C_18 
REMARK    7  A    between atoms: C_18  and  N_19 
REMARK    8  A    between atoms: C_21  and  C_24 
REMARK    9  A    between atoms: C_24  and  O_25 
ROOT
ATOM      1  C   LIG d   1       3.445  -0.548  -4.209  0.00  0.00     0.079 C 
ATOM      2  H   LIG d   1       2.395  -0.511  -3.918  0.00  0.00     0.045 H 
ATOM      3  C   LIG d   1       4.010  -1.942  -3.917  0.00  0.00    -0.020 C 
ATOM      4  C   LIG d   1       4.669  -1.264  -1.685  0.00  0.00    -0.031 C 
ATOM      5  C   LIG d   1       4.120   0.146  -1.913  0.00  0.00    -0.009 C 
ATOM      6  C   LIG d   1       4.239   0.488  -3.404  0.00  0.00    -0.015 C 
ATOM      7  H   LIG d   1       3.847   1.489  -3.592  0.00  0.00     0.031 H 
ATOM      8  C   LIG d   1       5.715   0.398  -3.811  0.00  0.00    -0.004 C 
ATOM      9  C   LIG d   1       6.220  -1.020  -3.528  0.00  0.00    -0.001 C 
ATOM     10  H   LIG d   1       7.044  -0.978  -2.816  0.00  0.00     0.087 H 
ATOM     11  H   LIG d   1       3.229  -2.568  -3.488  0.00  0.00     0.082 H 
ATOM     12  H   LIG d   1       4.368  -2.391  -4.843  0.00  0.00     0.082 H 
ATOM     13  H   LIG d   1       5.506  -1.220  -0.988  0.00  0.00     0.081 H 
ATOM     14  H   LIG d   1       3.884  -1.897  -1.271  0.00  0.00     0.081 H 
ATOM     15  H   LIG d   1       4.696   0.863  -1.328  0.00  0.00     0.032 H 
ATOM     16  H   LIG d   1       3.073   0.186  -1.612  0.00  0.00     0.032 H 
ATOM     17  H   LIG d   1       5.815   0.616  -4.873  0.00  0.00     0.032 H 
ATOM     18  H   LIG d   1       6.298   1.115  -3.233  0.00  0.00     0.032 H 
ATOM     19  N   LIG d   1       5.137  -1.850  -2.959  0.00  0.00     0.239 N 
ATOM     20  H   LIG d   1       5.499  -2.793  -2.779  0.00  0.00     0.204 HD
ENDROOT
BRANCH   1  21
ATOM     21  C   LIG d   1       3.572  -0.251  -5.681  0.00  0.00     0.222 C 
ATOM     22  N   LIG d   1       3.957  -1.221  -6.534  0.00  0.00    -0.313 N 
ATOM     23  H   LIG d   1       4.154  -2.110  -6.200  0.00  0.00     0.149 HD
ATOM     24  O   LIG d   1       3.327   0.862  -6.097  0.00  0.00    -0.275 OA
BRANCH  22  25
ATOM     25  C   LIG d   1       4.074  -0.933  -7.966  0.00  0.00     0.035 C 
ATOM     26  H   LIG d   1       3.865   0.122  -8.142  0.00  0.00     0.048 H 
ATOM     27  H   LIG d   1       5.086  -1.164  -8.302  0.00  0.00     0.048 H 
BRANCH  25  28
ATOM     28  C   LIG d   1       3.071  -1.789  -8.742  0.00  0.00     0.063 C 
ATOM     29  H   LIG d   1       3.561  -2.220  -9.615  0.00  0.00     0.058 H 
ATOM     30  H   LIG d   1       2.704  -2.590  -8.098  0.00  0.00     0.058 H 
BRANCH  28  31
ATOM     31  O   LIG d   1       1.976  -0.974  -9.162  0.00  0.00    -0.381 OA
BRANCH  31  32
ATOM     32  C   LIG d   1       2.336   0.378  -9.454  0.00  0.00     0.036 C 
ATOM     33  H   LIG d   1       3.312   0.398  -9.936  0.00  0.00     0.052 H 
ATOM     34  H   LIG d   1       1.592   0.816 -10.119  0.00  0.00     0.052 H 
ATOM     35  H   LIG d   1       2.377   0.951  -8.527  0.00  0.00     0.052 H 
ENDBRANCH  31  32
ENDBRANCH  28  31
ENDBRANCH  25  28
ENDBRANCH  22  25
ENDBRANCH   1  21
BRANCH   9  36
ATOM     36  C   LIG d   1       6.703  -1.659  -4.832  0.00  0.00     0.086 C 
ATOM     37  H   LIG d   1       5.843  -1.914  -5.452  0.00  0.00     0.057 H 
ATOM     38  H   LIG d   1       7.340  -0.955  -5.367  0.00  0.00     0.057 H 
BRANCH  36  39
ATOM     39  N   LIG d   1       7.463  -2.873  -4.528  0.00  0.00    -0.246 N 
ATOM     40  N   LIG d   1       8.258  -3.035  -3.528  0.00  0.00    -0.065 NA
ATOM     41  N   LIG d   1       8.765  -4.217  -3.551  0.00  0.00    -0.132 NA
ATOM     42  C   LIG d   1       8.293  -4.870  -4.618  0.00  0.00     0.108 A 
ATOM     43  C   LIG d   1       7.456  -4.016  -5.252  0.00  0.00     0.051 A 
ATOM     44  H   LIG d   1       6.896  -4.207  -6.156  0.00  0.00     0.085 H 
BRANCH  42  45
ATOM     45  C   LIG d   1       8.626  -6.280  -5.033  0.00  0.00     0.089 C 
ATOM     46  H   LIG d   1       7.833  -6.667  -5.674  0.00  0.00     0.062 H 
ATOM     47  H   LIG d   1       9.569  -6.284  -5.580  0.00  0.00     0.062 H 
BRANCH  45  48
ATOM     48  O   LIG d   1       8.746  -7.103  -3.872  0.00  0.00    -0.389 OA
ATOM     49  H   LIG d   1       8.086  -7.808  -3.819  0.00  0.00     0.210 HD
ENDBRANCH  45  48
ENDBRANCH  42  45
ENDBRANCH  36  39
ENDBRANCH   9  36
TORSDOF 9
ENDMDL
MODEL 9
REMARK VINA RESULT:      -4.9      9.534     11.087
REMARK  9 active torsions:
REMARK  status: ('A' for Active; 'I' for Inactive)
REMARK    1  A    between atoms: C_1  and  O_2 
REMARK    2  A    between atoms: O_2  and  C_3 
REMARK    3  A    between atoms: C_3  and  C_4 
REMARK    4  A    between atoms: C_4  and  N_5 
REMARK       I    between atoms: N_5  and  C_6 
REMARK    5  A    between atoms: C_6  and  C_8 
REMARK    6  A    between atoms: C_16  and  C_18 
REMARK    7  A    between atoms: C_18  and  N_19 
REMARK    8  A    between atoms: C_21  and  C_24 
REMARK    9  A    between atoms: C_24  and  O_25 
ROOT
ATOM      1  C   LIG d   1      12.128   5.416  -0.850  0.00  0.00     0.079 C 
ATOM      2  H   LIG d   1      12.737   4.851  -0.145  0.00  0.00     0.045 H 
ATOM      3  C   LIG d   1      12.885   6.675  -1.287  0.00  0.00    -0.020 C 
ATOM      4  C   LIG d   1      11.923   7.949   0.538  0.00  0.00    -0.031 C 
ATOM      5  C   LIG d   1      11.143   6.725   1.027  0.00  0.00    -0.009 C 
ATOM      6  C   LIG d   1      10.814   5.834  -0.179  0.00  0.00    -0.015 C 
ATOM      7  H   LIG d   1      10.264   4.951   0.147  0.00  0.00     0.031 H 
ATOM      8  C   LIG d   1       9.990   6.650  -1.181  0.00  0.00    -0.004 C 
ATOM      9  C   LIG d   1      10.802   7.876  -1.607  0.00  0.00    -0.001 C 
ATOM     10  H   LIG d   1      10.258   8.783  -1.343  0.00  0.00     0.087 H 
ATOM     11  H   LIG d   1      13.853   6.708  -0.789  0.00  0.00     0.082 H 
ATOM     12  H   LIG d   1      13.031   6.655  -2.367  0.00  0.00     0.082 H 
ATOM     13  H   LIG d   1      11.370   8.855   0.785  0.00  0.00     0.081 H 
ATOM     14  H   LIG d   1      12.899   7.974   1.022  0.00  0.00     0.081 H 
ATOM     15  H   LIG d   1      10.218   7.048   1.504  0.00  0.00     0.032 H 
ATOM     16  H   LIG d   1      11.747   6.166   1.741  0.00  0.00     0.032 H 
ATOM     17  H   LIG d   1       9.767   6.039  -2.054  0.00  0.00     0.032 H 
ATOM     18  H   LIG d   1       9.060   6.973  -0.712  0.00  0.00     0.032 H 
ATOM     19  N   LIG d   1      12.114   7.889  -0.927  0.00  0.00     0.239 N 
ATOM     20  H   LIG d   1      12.639   8.717  -1.229  0.00  0.00     0.204 HD
ENDROOT
BRANCH   1  21
ATOM     21  C   LIG d   1      11.830   4.564  -2.057  0.00  0.00     0.222 C 
ATOM     22  N   LIG d   1      11.016   3.495  -1.942  0.00  0.00    -0.313 N 
ATOM     23  H   LIG d   1      10.622   3.275  -1.084  0.00  0.00     0.149 HD
ATOM     24  O   LIG d   1      12.323   4.839  -3.130  0.00  0.00    -0.275 OA
BRANCH  22  25
ATOM     25  C   LIG d   1      10.721   2.670  -3.117  0.00  0.00     0.035 C 
ATOM     26  H   LIG d   1      11.351   2.985  -3.948  0.00  0.00     0.048 H 
ATOM     27  H   LIG d   1      10.921   1.623  -2.885  0.00  0.00     0.048 H 
BRANCH  25  28
ATOM     28  C   LIG d   1       9.249   2.836  -3.500  0.00  0.00     0.063 C 
ATOM     29  H   LIG d   1       8.781   1.855  -3.580  0.00  0.00     0.058 H 
ATOM     30  H   LIG d   1       8.739   3.422  -2.735  0.00  0.00     0.058 H 
BRANCH  28  31
ATOM     31  O   LIG d   1       9.158   3.511  -4.757  0.00  0.00    -0.381 OA
BRANCH  31  32
ATOM     32  C   LIG d   1      10.297   3.324  -5.600  0.00  0.00     0.036 C 
ATOM     33  H   LIG d   1      10.650   4.292  -5.954  0.00  0.00     0.052 H 
ATOM     34  H   LIG d   1      11.089   2.831  -5.036  0.00  0.00     0.052 H 
ATOM     35  H   LIG d   1      10.019   2.705  -6.454  0.00  0.00     0.052 H 
ENDBRANCH  31  32
ENDBRANCH  28  31
ENDBRANCH  25  28
ENDBRANCH  22  25
ENDBRANCH   1  21
BRANCH   9  36
ATOM     36  C   LIG d   1      11.027   7.839  -3.120  0.00  0.00     0.086 C 
ATOM     37  H   LIG d   1      12.095   7.900  -3.331  0.00  0.00     0.057 H 
ATOM     38  H   LIG d   1      10.631   6.907  -3.523  0.00  0.00     0.057 H 
BRANCH  36  39
ATOM     39  N   LIG d   1      10.341   8.973  -3.744  0.00  0.00    -0.246 N 
ATOM     40  N   LIG d   1       9.998   9.059  -4.982  0.00  0.00    -0.065 NA
ATOM     41  N   LIG d   1       9.412  10.181  -5.203  0.00  0.00    -0.132 NA
ATOM     42  C   LIG d   1       9.369  10.880  -4.064  0.00  0.00     0.108 A 
ATOM     43  C   LIG d   1       9.963  10.112  -3.120  0.00  0.00     0.051 A 
ATOM     44  H   LIG d   1      10.107  10.359  -2.079  0.00  0.00     0.085 H 
BRANCH  42  45
ATOM     45  C   LIG d   1       8.776  12.251  -3.867  0.00  0.00     0.089 C 
ATOM     46  H   LIG d   1       9.501  12.892  -3.366  0.00  0.00     0.062 H 
ATOM     47  H   LIG d   1       8.523  12.680  -4.837  0.00  0.00     0.062 H 
BRANCH  45  48
ATOM     48  O   LIG d   1       7.596  12.150  -3.069  0.00  0.00    -0.389 OA
ATOM     49  H   LIG d   1       7.698  12.493  -2.170  0.00  0.00     0.210 HD
ENDBRANCH  45  48
ENDBRANCH  42  45
ENDBRANCH  36  39
ENDBRANCH   9  36
TORSDOF 9
ENDMDL
