MODEL 1
REMARK VINA RESULT:      -6.5      0.000      0.000
REMARK  1 active torsions:
REMARK  status: ('A' for Active; 'I' for Inactive)
REMARK    1  A    between atoms: C_6  and  C_10 
ROOT
ATOM      1  C   LIG d   1       4.039   0.873  -1.892  0.00  0.00    -0.057 A 
ATOM      2  C   LIG d   1       4.755  -0.335  -1.887  0.00  0.00    -0.045 A 
ATOM      3  C   LIG d   1       4.882  -1.055  -3.021  0.00  0.00     0.011 A 
ATOM      4  N   LIG d   1       4.309  -0.628  -4.185  0.00  0.00    -0.306 N 
ATOM      5  C   LIG d   1       4.280  -1.155  -5.445  0.00  0.00     0.037 A 
ATOM      6  C   LIG d   1       3.558  -0.301  -6.221  0.00  0.00     0.090 A 
ATOM      7  N   LIG d   1       3.154   0.725  -5.454  0.00  0.00    -0.228 NA
ATOM      8  C   LIG d   1       3.600   0.544  -4.219  0.00  0.00     0.138 A 
ATOM      9  C   LIG d   1       3.462   1.311  -3.044  0.00  0.00    -0.019 A 
ATOM     10  H   LIG d   1       3.942   1.450  -0.984  0.00  0.00     0.062 H 
ATOM     11  H   LIG d   1       5.209  -0.687  -0.973  0.00  0.00     0.063 H 
ATOM     12  H   LIG d   1       5.439  -1.981  -3.008  0.00  0.00     0.081 H 
ATOM     13  H   LIG d   1       4.743  -2.077  -5.766  0.00  0.00     0.084 H 
ATOM     14  H   LIG d   1       2.906   2.237  -3.058  0.00  0.00     0.065 H 
ENDROOT
BRANCH   6  15
ATOM     15  C   LIG d   1       3.265  -0.473  -7.665  0.00  0.00     0.003 A 
ATOM     16  C   LIG d   1       3.518  -1.693  -8.288  0.00  0.00    -0.033 A 
ATOM     17  C   LIG d   1       3.239  -1.850  -9.633  0.00  0.00     0.060 A 
ATOM     18  H   LIG d   1       3.927  -2.516  -7.721  0.00  0.00     0.064 H 
ATOM     19  C   LIG d   1       2.719  -0.793 -10.362  0.00  0.00     0.059 A 
ATOM     20 CL   LIG d   1       3.546  -3.372 -10.409  0.00  0.00    -0.082 Cl
ATOM     21  C   LIG d   1       2.472   0.422  -9.748  0.00  0.00    -0.041 A 
ATOM     22 CL   LIG d   1       2.378  -0.993 -12.052  0.00  0.00    -0.082 Cl
ATOM     23  C   LIG d   1       2.742   0.587  -8.404  0.00  0.00    -0.051 A 
ATOM     24  H   LIG d   1       2.067   1.244 -10.320  0.00  0.00     0.063 H 
ATOM     25  H   LIG d   1       2.549   1.536  -7.927  0.00  0.00     0.062 H 
ENDBRANCH   6  15
TORSDOF 1
ENDMDL
MODEL 2
REMARK VINA RESULT:      -6.2      6.100      7.170
REMARK  1 active torsions:
REMARK  status: ('A' for Active; 'I' for Inactive)
REMARK    1  A    between atoms: C_6  and  C_10 
ROOT
ATOM      1  C   LIG d   1       3.955  -0.787  -1.985  0.00  0.00    -0.057 A 
ATOM      2  C   LIG d   1       4.627  -1.882  -2.551  0.00  0.00    -0.045 A 
ATOM      3  C   LIG d   1       5.775  -1.697  -3.235  0.00  0.00     0.011 A 
ATOM      4  N   LIG d   1       6.294  -0.445  -3.397  0.00  0.00    -0.306 N 
ATOM      5  C   LIG d   1       7.414   0.014  -4.034  0.00  0.00     0.037 A 
ATOM      6  C   LIG d   1       7.440   1.366  -3.875  0.00  0.00     0.090 A 
ATOM      7  N   LIG d   1       6.363   1.727  -3.160  0.00  0.00    -0.228 NA
ATOM      8  C   LIG d   1       5.658   0.645  -2.860  0.00  0.00     0.138 A 
ATOM      9  C   LIG d   1       4.460   0.467  -2.139  0.00  0.00    -0.019 A 
ATOM     10  H   LIG d   1       3.038  -0.938  -1.435  0.00  0.00     0.062 H 
ATOM     11  H   LIG d   1       4.225  -2.878  -2.435  0.00  0.00     0.063 H 
ATOM     12  H   LIG d   1       6.287  -2.547  -3.663  0.00  0.00     0.081 H 
ATOM     13  H   LIG d   1       8.141  -0.584  -4.563  0.00  0.00     0.084 H 
ATOM     14  H   LIG d   1       3.950   1.317  -1.710  0.00  0.00     0.065 H 
ENDROOT
BRANCH   6  15
ATOM     15  C   LIG d   1       8.478   2.284  -4.404  0.00  0.00     0.003 A 
ATOM     16  C   LIG d   1       9.268   3.025  -3.528  0.00  0.00    -0.033 A 
ATOM     17  C   LIG d   1      10.237   3.875  -4.025  0.00  0.00     0.060 A 
ATOM     18  H   LIG d   1       9.125   2.931  -2.461  0.00  0.00     0.064 H 
ATOM     19  C   LIG d   1      10.416   3.999  -5.393  0.00  0.00     0.059 A 
ATOM     20 CL   LIG d   1      11.227   4.793  -2.933  0.00  0.00    -0.082 Cl
ATOM     21  C   LIG d   1       9.630   3.269  -6.267  0.00  0.00    -0.041 A 
ATOM     22 CL   LIG d   1      11.630   5.074  -6.012  0.00  0.00    -0.082 Cl
ATOM     23  C   LIG d   1       8.663   2.413  -5.780  0.00  0.00    -0.051 A 
ATOM     24  H   LIG d   1       9.773   3.369  -7.333  0.00  0.00     0.063 H 
ATOM     25  H   LIG d   1       8.050   1.844  -6.463  0.00  0.00     0.062 H 
ENDBRANCH   6  15
TORSDOF 1
ENDMDL
MODEL 3
REMARK VINA RESULT:      -6.2      3.498      6.561
REMARK  1 active torsions:
REMARK  status: ('A' for Active; 'I' for Inactive)
REMARK    1  A    between atoms: C_6  and  C_10 
ROOT
ATOM      1  C   LIG d   1       1.837  -1.208 -11.488  0.00  0.00    -0.057 A 
ATOM      2  C   LIG d   1       3.069  -1.875 -11.594  0.00  0.00    -0.045 A 
ATOM      3  C   LIG d   1       3.898  -1.947 -10.532  0.00  0.00     0.011 A 
ATOM      4  N   LIG d   1       3.559  -1.364  -9.344  0.00  0.00    -0.306 N 
ATOM      5  C   LIG d   1       4.202  -1.285  -8.141  0.00  0.00     0.037 A 
ATOM      6  C   LIG d   1       3.395  -0.580  -7.301  0.00  0.00     0.090 A 
ATOM      7  N   LIG d   1       2.285  -0.235  -7.974  0.00  0.00    -0.228 NA
ATOM      8  C   LIG d   1       2.366  -0.702  -9.212  0.00  0.00     0.138 A 
ATOM      9  C   LIG d   1       1.487  -0.622 -10.311  0.00  0.00    -0.019 A 
ATOM     10  H   LIG d   1       1.174  -1.155 -12.339  0.00  0.00     0.062 H 
ATOM     11  H   LIG d   1       3.352  -2.336 -12.528  0.00  0.00     0.063 H 
ATOM     12  H   LIG d   1       4.840  -2.467 -10.623  0.00  0.00     0.081 H 
ATOM     13  H   LIG d   1       5.169  -1.704  -7.900  0.00  0.00     0.084 H 
ATOM     14  H   LIG d   1       0.544  -0.104 -10.219  0.00  0.00     0.065 H 
ENDROOT
BRANCH   6  15
ATOM     15  C   LIG d   1       3.690  -0.247  -5.886  0.00  0.00     0.003 A 
ATOM     16  C   LIG d   1       4.940  -0.541  -5.345  0.00  0.00    -0.033 A 
ATOM     17  C   LIG d   1       5.213  -0.225  -4.028  0.00  0.00     0.060 A 
ATOM     18  H   LIG d   1       5.697  -1.012  -5.957  0.00  0.00     0.064 H 
ATOM     19  C   LIG d   1       4.242   0.374  -3.243  0.00  0.00     0.059 A 
ATOM     20 CL   LIG d   1       6.773  -0.584  -3.356  0.00  0.00    -0.082 Cl
ATOM     21  C   LIG d   1       2.996   0.663  -3.774  0.00  0.00    -0.041 A 
ATOM     22 CL   LIG d   1       4.586   0.762  -1.586  0.00  0.00    -0.082 Cl
ATOM     23  C   LIG d   1       2.717   0.355  -5.091  0.00  0.00    -0.051 A 
ATOM     24  H   LIG d   1       2.242   1.129  -3.159  0.00  0.00     0.063 H 
ATOM     25  H   LIG d   1       1.745   0.581  -5.503  0.00  0.00     0.062 H 
ENDBRANCH   6  15
TORSDOF 1
ENDMDL
MODEL 4
REMARK VINA RESULT:      -5.9      5.185      7.259
REMARK  1 active torsions:
REMARK  status: ('A' for Active; 'I' for Inactive)
REMARK    1  A    between atoms: C_6  and  C_10 
ROOT
ATOM      1  C   LIG d   1       5.376  -7.577  -6.967  0.00  0.00    -0.057 A 
ATOM      2  C   LIG d   1       6.739  -7.257  -7.084  0.00  0.00    -0.045 A 
ATOM      3  C   LIG d   1       7.225  -6.135  -6.516  0.00  0.00     0.011 A 
ATOM      4  N   LIG d   1       6.401  -5.288  -5.831  0.00  0.00    -0.306 N 
ATOM      5  C   LIG d   1       6.628  -4.109  -5.179  0.00  0.00     0.037 A 
ATOM      6  C   LIG d   1       5.435  -3.696  -4.670  0.00  0.00     0.090 A 
ATOM      7  N   LIG d   1       4.500  -4.600  -5.002  0.00  0.00    -0.228 NA
ATOM      8  C   LIG d   1       5.066  -5.571  -5.705  0.00  0.00     0.138 A 
ATOM      9  C   LIG d   1       4.543  -6.743  -6.288  0.00  0.00    -0.019 A 
ATOM     10  H   LIG d   1       4.990  -8.479  -7.420  0.00  0.00     0.062 H 
ATOM     11  H   LIG d   1       7.401  -7.915  -7.627  0.00  0.00     0.063 H 
ATOM     12  H   LIG d   1       8.276  -5.900  -6.608  0.00  0.00     0.081 H 
ATOM     13  H   LIG d   1       7.577  -3.599  -5.084  0.00  0.00     0.084 H 
ATOM     14  H   LIG d   1       3.493  -6.978  -6.195  0.00  0.00     0.065 H 
ENDROOT
BRANCH   6  15
ATOM     15  C   LIG d   1       5.205  -2.459  -3.884  0.00  0.00     0.003 A 
ATOM     16  C   LIG d   1       6.039  -1.356  -4.058  0.00  0.00    -0.033 A 
ATOM     17  C   LIG d   1       5.818  -0.204  -3.327  0.00  0.00     0.060 A 
ATOM     18  H   LIG d   1       6.853  -1.400  -4.766  0.00  0.00     0.064 H 
ATOM     19  C   LIG d   1       4.777  -0.149  -2.415  0.00  0.00     0.059 A 
ATOM     20 CL   LIG d   1       6.851   1.174  -3.549  0.00  0.00    -0.082 Cl
ATOM     21  C   LIG d   1       3.950  -1.245  -2.235  0.00  0.00    -0.041 A 
ATOM     22 CL   LIG d   1       4.509   1.298  -1.494  0.00  0.00    -0.082 Cl
ATOM     23  C   LIG d   1       4.159  -2.398  -2.964  0.00  0.00    -0.051 A 
ATOM     24  H   LIG d   1       3.140  -1.198  -1.523  0.00  0.00     0.063 H 
ATOM     25  H   LIG d   1       3.514  -3.251  -2.822  0.00  0.00     0.062 H 
ENDBRANCH   6  15
TORSDOF 1
ENDMDL
MODEL 5
REMARK VINA RESULT:      -5.9      5.932      7.400
REMARK  1 active torsions:
REMARK  status: ('A' for Active; 'I' for Inactive)
REMARK    1  A    between atoms: C_6  and  C_10 
ROOT
ATOM      1  C   LIG d   1      11.141   4.986  -4.859  0.00  0.00    -0.057 A 
ATOM      2  C   LIG d   1      10.908   4.599  -6.188  0.00  0.00    -0.045 A 
ATOM      3  C   LIG d   1      10.002   3.639  -6.469  0.00  0.00     0.011 A 
ATOM      4  N   LIG d   1       9.309   3.022  -5.467  0.00  0.00    -0.306 N 
ATOM      5  C   LIG d   1       8.360   2.038  -5.473  0.00  0.00     0.037 A 
ATOM      6  C   LIG d   1       8.012   1.810  -4.177  0.00  0.00     0.090 A 
ATOM      7  N   LIG d   1       8.729   2.633  -3.396  0.00  0.00    -0.228 NA
ATOM      8  C   LIG d   1       9.519   3.375  -4.159  0.00  0.00     0.138 A 
ATOM      9  C   LIG d   1      10.458   4.380  -3.850  0.00  0.00    -0.019 A 
ATOM     10  H   LIG d   1      11.864   5.758  -4.637  0.00  0.00     0.062 H 
ATOM     11  H   LIG d   1      11.452   5.075  -6.990  0.00  0.00     0.063 H 
ATOM     12  H   LIG d   1       9.827   3.352  -7.495  0.00  0.00     0.081 H 
ATOM     13  H   LIG d   1       7.962   1.536  -6.343  0.00  0.00     0.084 H 
ATOM     14  H   LIG d   1      10.633   4.668  -2.824  0.00  0.00     0.065 H 
ENDROOT
BRANCH   6  15
ATOM     15  C   LIG d   1       7.012   0.819  -3.706  0.00  0.00     0.003 A 
ATOM     16  C   LIG d   1       5.788   1.249  -3.200  0.00  0.00    -0.033 A 
ATOM     17  C   LIG d   1       4.858   0.323  -2.768  0.00  0.00     0.060 A 
ATOM     18  H   LIG d   1       5.564   2.305  -3.150  0.00  0.00     0.064 H 
ATOM     19  C   LIG d   1       5.146  -1.030  -2.828  0.00  0.00     0.059 A 
ATOM     20 CL   LIG d   1       3.328   0.857  -2.144  0.00  0.00    -0.082 Cl
ATOM     21  C   LIG d   1       6.364  -1.462  -3.325  0.00  0.00    -0.041 A 
ATOM     22 CL   LIG d   1       3.978  -2.190  -2.276  0.00  0.00    -0.082 Cl
ATOM     23  C   LIG d   1       7.297  -0.544  -3.764  0.00  0.00    -0.051 A 
ATOM     24  H   LIG d   1       6.586  -2.518  -3.369  0.00  0.00     0.063 H 
ATOM     25  H   LIG d   1       8.247  -0.882  -4.151  0.00  0.00     0.062 H 
ENDBRANCH   6  15
TORSDOF 1
ENDMDL
MODEL 6
REMARK VINA RESULT:      -5.7      5.194      6.454
REMARK  1 active torsions:
REMARK  status: ('A' for Active; 'I' for Inactive)
REMARK    1  A    between atoms: C_6  and  C_10 
ROOT
ATOM      1  C   LIG d   1       3.948   1.064  -2.268  0.00  0.00    -0.057 A 
ATOM      2  C   LIG d   1       2.929   0.193  -2.685  0.00  0.00    -0.045 A 
ATOM      3  C   LIG d   1       3.236  -1.007  -3.220  0.00  0.00     0.011 A 
ATOM      4  N   LIG d   1       4.538  -1.386  -3.376  0.00  0.00    -0.306 N 
ATOM      5  C   LIG d   1       5.114  -2.518  -3.882  0.00  0.00     0.037 A 
ATOM      6  C   LIG d   1       6.463  -2.357  -3.791  0.00  0.00     0.090 A 
ATOM      7  N   LIG d   1       6.708  -1.156  -3.242  0.00  0.00    -0.228 NA
ATOM      8  C   LIG d   1       5.555  -0.555  -2.984  0.00  0.00     0.138 A 
ATOM      9  C   LIG d   1       5.251   0.700  -2.417  0.00  0.00    -0.019 A 
ATOM     10  H   LIG d   1       3.700   2.023  -1.836  0.00  0.00     0.062 H 
ATOM     11  H   LIG d   1       1.895   0.482  -2.572  0.00  0.00     0.063 H 
ATOM     12  H   LIG d   1       2.445  -1.672  -3.533  0.00  0.00     0.081 H 
ATOM     13  H   LIG d   1       4.596  -3.379  -4.281  0.00  0.00     0.084 H 
ATOM     14  H   LIG d   1       6.042   1.364  -2.103  0.00  0.00     0.065 H 
ENDROOT
BRANCH   6  15
ATOM     15  C   LIG d   1       7.488  -3.338  -4.225  0.00  0.00     0.003 A 
ATOM     16  C   LIG d   1       8.709  -3.413  -3.559  0.00  0.00    -0.033 A 
ATOM     17  C   LIG d   1       9.659  -4.332  -3.964  0.00  0.00     0.060 A 
ATOM     18  H   LIG d   1       8.912  -2.757  -2.725  0.00  0.00     0.064 H 
ATOM     19  C   LIG d   1       9.401  -5.170  -5.036  0.00  0.00     0.059 A 
ATOM     20 CL   LIG d   1      11.178  -4.432  -3.130  0.00  0.00    -0.082 Cl
ATOM     21  C   LIG d   1       8.191  -5.094  -5.704  0.00  0.00    -0.041 A 
ATOM     22 CL   LIG d   1      10.600  -6.317  -5.545  0.00  0.00    -0.082 Cl
ATOM     23  C   LIG d   1       7.234  -4.184  -5.304  0.00  0.00    -0.051 A 
ATOM     24  H   LIG d   1       7.994  -5.749  -6.540  0.00  0.00     0.063 H 
ATOM     25  H   LIG d   1       6.291  -4.126  -5.826  0.00  0.00     0.062 H 
ENDBRANCH   6  15
TORSDOF 1
ENDMDL
MODEL 7
REMARK VINA RESULT:      -5.7      5.486      6.945
REMARK  1 active torsions:
REMARK  status: ('A' for Active; 'I' for Inactive)
REMARK    1  A    between atoms: C_6  and  C_10 
ROOT
ATOM      1  C   LIG d   1      10.767   4.869  -4.966  0.00  0.00    -0.057 A 
ATOM      2  C   LIG d   1      10.670   4.321  -6.255  0.00  0.00    -0.045 A 
ATOM      3  C   LIG d   1       9.830   3.293  -6.497  0.00  0.00     0.011 A 
ATOM      4  N   LIG d   1       9.073   2.763  -5.493  0.00  0.00    -0.306 N 
ATOM      5  C   LIG d   1       8.166   1.741  -5.464  0.00  0.00     0.037 A 
ATOM      6  C   LIG d   1       7.709   1.646  -4.185  0.00  0.00     0.090 A 
ATOM      7  N   LIG d   1       8.321   2.586  -3.448  0.00  0.00    -0.228 NA
ATOM      8  C   LIG d   1       9.149   3.273  -4.222  0.00  0.00     0.138 A 
ATOM      9  C   LIG d   1      10.018   4.350  -3.955  0.00  0.00    -0.019 A 
ATOM     10  H   LIG d   1      11.438   5.694  -4.775  0.00  0.00     0.062 H 
ATOM     11  H   LIG d   1      11.268   4.727  -7.058  0.00  0.00     0.063 H 
ATOM     12  H   LIG d   1       9.760   2.883  -7.494  0.00  0.00     0.081 H 
ATOM     13  H   LIG d   1       7.867   1.124  -6.300  0.00  0.00     0.084 H 
ATOM     14  H   LIG d   1      10.088   4.761  -2.958  0.00  0.00     0.065 H 
ENDROOT
BRANCH   6  15
ATOM     15  C   LIG d   1       6.708   0.669  -3.689  0.00  0.00     0.003 A 
ATOM     16  C   LIG d   1       6.731  -0.647  -4.145  0.00  0.00    -0.033 A 
ATOM     17  C   LIG d   1       5.800  -1.554  -3.676  0.00  0.00     0.060 A 
ATOM     18  H   LIG d   1       7.478  -0.959  -4.860  0.00  0.00     0.064 H 
ATOM     19  C   LIG d   1       4.839  -1.154  -2.763  0.00  0.00     0.059 A 
ATOM     20 CL   LIG d   1       5.832  -3.197  -4.237  0.00  0.00    -0.082 Cl
ATOM     21  C   LIG d   1       4.809   0.155  -2.312  0.00  0.00    -0.041 A 
ATOM     22 CL   LIG d   1       3.666  -2.295  -2.183  0.00  0.00    -0.082 Cl
ATOM     23  C   LIG d   1       5.738   1.067  -2.770  0.00  0.00    -0.051 A 
ATOM     24  H   LIG d   1       4.058   0.463  -1.600  0.00  0.00     0.063 H 
ATOM     25  H   LIG d   1       5.714   2.087  -2.418  0.00  0.00     0.062 H 
ENDBRANCH   6  15
TORSDOF 1
ENDMDL
MODEL 8
REMARK VINA RESULT:      -5.1      5.606      6.562
REMARK  1 active torsions:
REMARK  status: ('A' for Active; 'I' for Inactive)
REMARK    1  A    between atoms: C_6  and  C_10 
ROOT
ATOM      1  C   LIG d   1       3.492   0.098  -2.170  0.00  0.00    -0.057 A 
ATOM      2  C   LIG d   1       3.509  -0.987  -3.061  0.00  0.00    -0.045 A 
ATOM      3  C   LIG d   1       4.529  -1.137  -3.932  0.00  0.00     0.011 A 
ATOM      4  N   LIG d   1       5.551  -0.233  -3.968  0.00  0.00    -0.306 N 
ATOM      5  C   LIG d   1       6.678  -0.147  -4.737  0.00  0.00     0.037 A 
ATOM      6  C   LIG d   1       7.350   0.970  -4.341  0.00  0.00     0.090 A 
ATOM      7  N   LIG d   1       6.651   1.553  -3.354  0.00  0.00    -0.228 NA
ATOM      8  C   LIG d   1       5.560   0.840  -3.114  0.00  0.00     0.138 A 
ATOM      9  C   LIG d   1       4.505   1.007  -2.195  0.00  0.00    -0.019 A 
ATOM     10  H   LIG d   1       2.677   0.214  -1.471  0.00  0.00     0.062 H 
ATOM     11  H   LIG d   1       2.704  -1.707  -3.047  0.00  0.00     0.063 H 
ATOM     12  H   LIG d   1       4.534  -1.977  -4.610  0.00  0.00     0.081 H 
ATOM     13  H   LIG d   1       6.980  -0.835  -5.514  0.00  0.00     0.084 H 
ATOM     14  H   LIG d   1       4.500   1.847  -1.516  0.00  0.00     0.065 H 
ENDROOT
BRANCH   6  15
ATOM     15  C   LIG d   1       8.632   1.460  -4.904  0.00  0.00     0.003 A 
ATOM     16  C   LIG d   1       9.785   0.687  -4.789  0.00  0.00    -0.033 A 
ATOM     17  C   LIG d   1      10.976   1.145  -5.319  0.00  0.00     0.060 A 
ATOM     18  H   LIG d   1       9.748  -0.271  -4.290  0.00  0.00     0.064 H 
ATOM     19  C   LIG d   1      11.026   2.375  -5.954  0.00  0.00     0.059 A 
ATOM     20 CL   LIG d   1      12.413   0.180  -5.184  0.00  0.00    -0.082 Cl
ATOM     21  C   LIG d   1       9.883   3.149  -6.065  0.00  0.00    -0.041 A 
ATOM     22 CL   LIG d   1      12.526   2.950  -6.612  0.00  0.00    -0.082 Cl
ATOM     23  C   LIG d   1       8.688   2.697  -5.544  0.00  0.00    -0.051 A 
ATOM     24  H   LIG d   1       9.926   4.107  -6.561  0.00  0.00     0.063 H 
ATOM     25  H   LIG d   1       7.797   3.301  -5.631  0.00  0.00     0.062 H 
ENDBRANCH   6  15
TORSDOF 1
ENDMDL
MODEL 9
REMARK VINA RESULT:      -5.1      5.599      7.367
REMARK  1 active torsions:
REMARK  status: ('A' for Active; 'I' for Inactive)
REMARK    1  A    between atoms: C_6  and  C_10 
ROOT
ATOM      1  C   LIG d   1      12.354  -3.069  -5.320  0.00  0.00    -0.057 A 
ATOM      2  C   LIG d   1      12.211  -4.175  -4.466  0.00  0.00    -0.045 A 
ATOM      3  C   LIG d   1      11.036  -4.406  -3.843  0.00  0.00     0.011 A 
ATOM      4  N   LIG d   1       9.976  -3.565  -4.023  0.00  0.00    -0.306 N 
ATOM      5  C   LIG d   1       8.705  -3.564  -3.521  0.00  0.00     0.037 A 
ATOM      6  C   LIG d   1       8.068  -2.480  -4.044  0.00  0.00     0.090 A 
ATOM      7  N   LIG d   1       8.927  -1.833  -4.846  0.00  0.00    -0.228 NA
ATOM      8  C   LIG d   1      10.087  -2.475  -4.847  0.00  0.00     0.138 A 
ATOM      9  C   LIG d   1      11.306  -2.223  -5.509  0.00  0.00    -0.019 A 
ATOM     10  H   LIG d   1      13.294  -2.889  -5.821  0.00  0.00     0.062 H 
ATOM     11  H   LIG d   1      13.043  -4.845  -4.310  0.00  0.00     0.063 H 
ATOM     12  H   LIG d   1      10.935  -5.261  -3.192  0.00  0.00     0.081 H 
ATOM     13  H   LIG d   1       8.284  -4.288  -2.838  0.00  0.00     0.084 H 
ATOM     14  H   LIG d   1      11.407  -1.368  -6.162  0.00  0.00     0.065 H 
ENDROOT
BRANCH   6  15
ATOM     15  C   LIG d   1       6.665  -2.081  -3.772  0.00  0.00     0.003 A 
ATOM     16  C   LIG d   1       6.397  -0.937  -3.024  0.00  0.00    -0.033 A 
ATOM     17  C   LIG d   1       5.089  -0.566  -2.778  0.00  0.00     0.060 A 
ATOM     18  H   LIG d   1       7.210  -0.338  -2.640  0.00  0.00     0.064 H 
ATOM     19  C   LIG d   1       4.045  -1.336  -3.265  0.00  0.00     0.059 A 
ATOM     20 CL   LIG d   1       4.753   0.863  -1.851  0.00  0.00    -0.082 Cl
ATOM     21  C   LIG d   1       4.307  -2.477  -4.004  0.00  0.00    -0.041 A 
ATOM     22 CL   LIG d   1       2.404  -0.870  -2.946  0.00  0.00    -0.082 Cl
ATOM     23  C   LIG d   1       5.611  -2.852  -4.260  0.00  0.00    -0.051 A 
ATOM     24  H   LIG d   1       3.491  -3.074  -4.382  0.00  0.00     0.063 H 
ATOM     25  H   LIG d   1       5.814  -3.742  -4.837  0.00  0.00     0.062 H 
ENDBRANCH   6  15
TORSDOF 1
ENDMDL
MODEL 10
REMARK VINA RESULT:      -5.0     10.402     12.276
REMARK  1 active torsions:
REMARK  status: ('A' for Active; 'I' for Inactive)
REMARK    1  A    between atoms: C_6  and  C_10 
ROOT
ATOM      1  C   LIG d   1       9.069   7.941  -8.564  0.00  0.00    -0.057 A 
ATOM      2  C   LIG d   1       9.397   6.586  -8.734  0.00  0.00    -0.045 A 
ATOM      3  C   LIG d   1       9.750   5.833  -7.672  0.00  0.00     0.011 A 
ATOM      4  N   LIG d   1       9.805   6.377  -6.421  0.00  0.00    -0.306 N 
ATOM      5  C   LIG d   1      10.129   5.853  -5.201  0.00  0.00     0.037 A 
ATOM      6  C   LIG d   1      10.012   6.857  -4.288  0.00  0.00     0.090 A 
ATOM      7  N   LIG d   1       9.626   7.969  -4.933  0.00  0.00    -0.228 NA
ATOM      8  C   LIG d   1       9.495   7.698  -6.224  0.00  0.00     0.138 A 
ATOM      9  C   LIG d   1       9.119   8.497  -7.324  0.00  0.00    -0.019 A 
ATOM     10  H   LIG d   1       8.783   8.540  -9.416  0.00  0.00     0.062 H 
ATOM     11  H   LIG d   1       9.363   6.143  -9.718  0.00  0.00     0.063 H 
ATOM     12  H   LIG d   1       9.996   4.791  -7.812  0.00  0.00     0.081 H 
ATOM     13  H   LIG d   1      10.423   4.832  -4.998  0.00  0.00     0.084 H 
ATOM     14  H   LIG d   1       8.872   9.539  -7.183  0.00  0.00     0.065 H 
ENDROOT
BRANCH   6  15
ATOM     15  C   LIG d   1      10.269   6.743  -2.832  0.00  0.00     0.003 A 
ATOM     16  C   LIG d   1      10.325   7.888  -2.041  0.00  0.00    -0.033 A 
ATOM     17  C   LIG d   1      10.559   7.777  -0.684  0.00  0.00     0.060 A 
ATOM     18  H   LIG d   1      10.180   8.861  -2.487  0.00  0.00     0.064 H 
ATOM     19  C   LIG d   1      10.750   6.530  -0.112  0.00  0.00     0.059 A 
ATOM     20 CL   LIG d   1      10.621   9.203   0.305  0.00  0.00    -0.082 Cl
ATOM     21  C   LIG d   1      10.701   5.389  -0.895  0.00  0.00    -0.041 A 
ATOM     22 CL   LIG d   1      11.052   6.396   1.592  0.00  0.00    -0.082 Cl
ATOM     23  C   LIG d   1      10.461   5.490  -2.251  0.00  0.00    -0.051 A 
ATOM     24  H   LIG d   1      10.850   4.419  -0.446  0.00  0.00     0.063 H 
ATOM     25  H   LIG d   1      10.424   4.600  -2.861  0.00  0.00     0.062 H 
ENDBRANCH   6  15
TORSDOF 1
ENDMDL
