MODEL 1
REMARK VINA RESULT:      -7.3      0.000      0.000
REMARK  10 active torsions:
REMARK  status: ('A' for Active; 'I' for Inactive)
REMARK    1  A    between atoms: C_1  and  O_2 
REMARK    2  A    between atoms: O_2  and  C_3 
REMARK    3  A    between atoms: C_5  and  C_13 
REMARK    4  A    between atoms: C_6  and  O_11 
REMARK    5  A    between atoms: C_8  and  O_9 
REMARK    6  A    between atoms: O_9  and  C_10 
REMARK    7  A    between atoms: O_11  and  C_12 
REMARK    8  A    between atoms: C_20  and  O_24 
REMARK    9  A    between atoms: O_24  and  C_25 
REMARK   10  A    between atoms: C_25  and  C_27 
ROOT
ATOM      1  C   LIG d   1      10.526   5.826  -4.818  0.00  0.00    -0.005 C 
ATOM      2  C   LIG d   1       9.970   4.684  -5.305  0.00  0.00     0.176 A 
ATOM      3  C   LIG d   1      10.009   4.228  -6.699  0.00  0.00     0.232 A 
ATOM      4  O   LIG d   1      10.535   4.779  -7.651  0.00  0.00    -0.283 OA
ATOM      5  C   LIG d   1       9.270   2.951  -6.692  0.00  0.00     0.068 A 
ATOM      6  C   LIG d   1       8.953   2.025  -7.686  0.00  0.00    -0.044 A 
ATOM      7  C   LIG d   1       8.232   0.909  -7.372  0.00  0.00    -0.018 A 
ATOM      8  C   LIG d   1       7.812   0.692  -6.062  0.00  0.00     0.136 A 
ATOM      9  C   LIG d   1       8.120   1.603  -5.065  0.00  0.00     0.024 A 
ATOM     10  C   LIG d   1       8.853   2.744  -5.367  0.00  0.00     0.143 A 
ATOM     11  O   LIG d   1       9.275   3.767  -4.593  0.00  0.00    -0.451 OA
ATOM     12  H   LIG d   1      10.959   6.547  -5.497  0.00  0.00     0.066 H 
ATOM     13  H   LIG d   1       9.278   2.192  -8.703  0.00  0.00     0.063 H 
ATOM     14  H   LIG d   1       7.987   0.192  -8.142  0.00  0.00     0.065 H 
ATOM     15  H   LIG d   1       7.789   1.426  -4.051  0.00  0.00     0.069 H 
ENDROOT
BRANCH   1  16
ATOM     16  C   LIG d   1      10.539   6.077  -3.375  0.00  0.00     0.024 A 
ATOM     17  C   LIG d   1       9.538   6.865  -2.789  0.00  0.00    -0.005 A 
ATOM     18  C   LIG d   1       9.552   7.094  -1.430  0.00  0.00     0.162 A 
ATOM     19  H   LIG d   1       8.754   7.288  -3.401  0.00  0.00     0.066 H 
ATOM     20  C   LIG d   1      10.566   6.553  -0.638  0.00  0.00     0.165 A 
ATOM     21  C   LIG d   1      11.560   5.772  -1.209  0.00  0.00     0.026 A 
ATOM     22  C   LIG d   1      11.555   5.530  -2.571  0.00  0.00     0.131 A 
ATOM     23  H   LIG d   1      12.340   5.354  -0.590  0.00  0.00     0.069 H 
BRANCH  18  24
ATOM     24  O   LIG d   1       8.578   7.853  -0.859  0.00  0.00    -0.491 OA
BRANCH  24  25
ATOM     25  C   LIG d   1       8.770   9.269  -0.870  0.00  0.00     0.079 C 
ATOM     26  H   LIG d   1       8.298   9.694  -1.757  0.00  0.00     0.066 H 
ATOM     27  H   LIG d   1       8.322   9.704   0.023  0.00  0.00     0.066 H 
ATOM     28  H   LIG d   1       9.838   9.491  -0.886  0.00  0.00     0.066 H 
ENDBRANCH  24  25
ENDBRANCH  18  24
BRANCH  20  29
ATOM     29  O   LIG d   1      10.576   6.787   0.700  0.00  0.00    -0.491 OA
BRANCH  29  30
ATOM     30  C   LIG d   1      11.029   5.724   1.541  0.00  0.00     0.079 C 
ATOM     31  H   LIG d   1      11.968   6.009   2.015  0.00  0.00     0.066 H 
ATOM     32  H   LIG d   1      11.182   4.827   0.942  0.00  0.00     0.066 H 
ATOM     33  H   LIG d   1      10.281   5.525   2.309  0.00  0.00     0.066 H 
ENDBRANCH  29  30
ENDBRANCH  20  29
BRANCH  22  34
ATOM     34  O   LIG d   1      12.528   4.767  -3.131  0.00  0.00    -0.494 OA
BRANCH  34  35
ATOM     35  C   LIG d   1      13.814   4.797  -2.508  0.00  0.00     0.079 C 
ATOM     36  H   LIG d   1      13.699   5.036  -1.450  0.00  0.00     0.066 H 
ATOM     37  H   LIG d   1      14.290   3.822  -2.610  0.00  0.00     0.066 H 
ATOM     38  H   LIG d   1      14.433   5.556  -2.987  0.00  0.00     0.066 H 
ENDBRANCH  34  35
ENDBRANCH  22  34
ENDBRANCH   1  16
BRANCH   8  39
ATOM     39  O   LIG d   1       7.096  -0.421  -5.760  0.00  0.00    -0.422 OA
BRANCH  39  40
ATOM     40  C   LIG d   1       5.780  -0.256  -5.521  0.00  0.00     0.347 C 
ATOM     41  O   LIG d   1       5.076   0.287  -6.350  0.00  0.00    -0.244 OA
BRANCH  40  42
ATOM     42  C   LIG d   1       5.194  -0.733  -4.254  0.00  0.00     0.095 A 
ATOM     43  C   LIG d   1       5.114   0.122  -3.150  0.00  0.00     0.137 A 
ATOM     44  C   LIG d   1       4.562  -0.335  -1.967  0.00  0.00    -0.026 A 
ATOM     45  F   LIG d   1       5.573   1.390  -3.240  0.00  0.00    -0.205 F 
ATOM     46  C   LIG d   1       4.092  -1.631  -1.875  0.00  0.00    -0.059 A 
ATOM     47  H   LIG d   1       4.499   0.324  -1.112  0.00  0.00     0.065 H 
ATOM     48  C   LIG d   1       4.169  -2.482  -2.965  0.00  0.00    -0.061 A 
ATOM     49  H   LIG d   1       3.663  -1.982  -0.948  0.00  0.00     0.062 H 
ATOM     50  C   LIG d   1       4.711  -2.040  -4.153  0.00  0.00    -0.045 A 
ATOM     51  H   LIG d   1       3.799  -3.494  -2.885  0.00  0.00     0.062 H 
ATOM     52  H   LIG d   1       4.766  -2.705  -5.002  0.00  0.00     0.063 H 
ENDBRANCH  40  42
ENDBRANCH  39  40
ENDBRANCH   8  39
TORSDOF 10
ENDMDL
MODEL 2
REMARK VINA RESULT:      -7.0      2.098      3.319
REMARK  10 active torsions:
REMARK  status: ('A' for Active; 'I' for Inactive)
REMARK    1  A    between atoms: C_1  and  O_2 
REMARK    2  A    between atoms: O_2  and  C_3 
REMARK    3  A    between atoms: C_5  and  C_13 
REMARK    4  A    between atoms: C_6  and  O_11 
REMARK    5  A    between atoms: C_8  and  O_9 
REMARK    6  A    between atoms: O_9  and  C_10 
REMARK    7  A    between atoms: O_11  and  C_12 
REMARK    8  A    between atoms: C_20  and  O_24 
REMARK    9  A    between atoms: O_24  and  C_25 
REMARK   10  A    between atoms: C_25  and  C_27 
ROOT
ATOM      1  C   LIG d   1      10.333   3.862  -4.419  0.00  0.00    -0.005 C 
ATOM      2  C   LIG d   1       9.620   2.707  -4.351  0.00  0.00     0.176 A 
ATOM      3  C   LIG d   1       9.876   1.483  -5.120  0.00  0.00     0.232 A 
ATOM      4  O   LIG d   1      10.756   1.288  -5.940  0.00  0.00    -0.283 OA
ATOM      5  C   LIG d   1       8.833   0.540  -4.675  0.00  0.00     0.068 A 
ATOM      6  C   LIG d   1       8.529  -0.777  -5.017  0.00  0.00    -0.044 A 
ATOM      7  C   LIG d   1       7.468  -1.406  -4.427  0.00  0.00    -0.018 A 
ATOM      8  C   LIG d   1       6.692  -0.735  -3.486  0.00  0.00     0.136 A 
ATOM      9  C   LIG d   1       6.982   0.574  -3.138  0.00  0.00     0.024 A 
ATOM     10  C   LIG d   1       8.057   1.227  -3.728  0.00  0.00     0.143 A 
ATOM     11  O   LIG d   1       8.540   2.478  -3.566  0.00  0.00    -0.451 OA
ATOM     12  H   LIG d   1      11.106   3.976  -5.166  0.00  0.00     0.066 H 
ATOM     13  H   LIG d   1       9.130  -1.300  -5.746  0.00  0.00     0.063 H 
ATOM     14  H   LIG d   1       7.233  -2.427  -4.691  0.00  0.00     0.065 H 
ATOM     15  H   LIG d   1       6.373   1.086  -2.407  0.00  0.00     0.069 H 
ENDROOT
BRANCH   1  16
ATOM     16  C   LIG d   1      10.054   4.952  -3.480  0.00  0.00     0.024 A 
ATOM     17  C   LIG d   1      10.377   4.813  -2.123  0.00  0.00    -0.005 A 
ATOM     18  C   LIG d   1      10.117   5.843  -1.246  0.00  0.00     0.162 A 
ATOM     19  H   LIG d   1      10.834   3.901  -1.767  0.00  0.00     0.066 H 
ATOM     20  C   LIG d   1       9.523   7.020  -1.704  0.00  0.00     0.165 A 
ATOM     21  C   LIG d   1       9.200   7.167  -3.045  0.00  0.00     0.026 A 
ATOM     22  C   LIG d   1       9.460   6.142  -3.937  0.00  0.00     0.131 A 
ATOM     23  H   LIG d   1       8.743   8.082  -3.392  0.00  0.00     0.069 H 
BRANCH  18  24
ATOM     24  O   LIG d   1      10.435   5.711   0.070  0.00  0.00    -0.491 OA
BRANCH  24  25
ATOM     25  C   LIG d   1      11.818   5.810   0.415  0.00  0.00     0.079 C 
ATOM     26  H   LIG d   1      12.210   4.817   0.637  0.00  0.00     0.066 H 
ATOM     27  H   LIG d   1      12.372   6.241  -0.419  0.00  0.00     0.066 H 
ATOM     28  H   LIG d   1      11.930   6.448   1.293  0.00  0.00     0.066 H 
ENDBRANCH  24  25
ENDBRANCH  18  24
BRANCH  20  29
ATOM     29  O   LIG d   1       9.264   8.030  -0.833  0.00  0.00    -0.491 OA
BRANCH  29  30
ATOM     30  C   LIG d   1      10.143   9.156  -0.865  0.00  0.00     0.079 C 
ATOM     31  H   LIG d   1      11.159   8.819  -1.072  0.00  0.00     0.066 H 
ATOM     32  H   LIG d   1      10.118   9.665   0.098  0.00  0.00     0.066 H 
ATOM     33  H   LIG d   1       9.823   9.844  -1.648  0.00  0.00     0.066 H 
ENDBRANCH  29  30
ENDBRANCH  20  29
BRANCH  22  34
ATOM     34  O   LIG d   1       9.143   6.285  -5.249  0.00  0.00    -0.494 OA
BRANCH  34  35
ATOM     35  C   LIG d   1       9.412   7.556  -5.846  0.00  0.00     0.079 C 
ATOM     36  H   LIG d   1      10.451   7.592  -6.173  0.00  0.00     0.066 H 
ATOM     37  H   LIG d   1       8.755   7.700  -6.704  0.00  0.00     0.066 H 
ATOM     38  H   LIG d   1       9.232   8.345  -5.115  0.00  0.00     0.066 H 
ENDBRANCH  34  35
ENDBRANCH  22  34
ENDBRANCH   1  16
BRANCH   8  39
ATOM     39  O   LIG d   1       5.641  -1.369  -2.906  0.00  0.00    -0.422 OA
BRANCH  39  40
ATOM     40  C   LIG d   1       4.705  -1.881  -3.728  0.00  0.00     0.347 C 
ATOM     41  O   LIG d   1       4.464  -3.072  -3.707  0.00  0.00    -0.244 OA
BRANCH  40  42
ATOM     42  C   LIG d   1       3.972  -0.997  -4.655  0.00  0.00     0.095 A 
ATOM     43  C   LIG d   1       2.996  -0.122  -4.167  0.00  0.00     0.137 A 
ATOM     44  C   LIG d   1       2.314   0.704  -5.044  0.00  0.00    -0.026 A 
ATOM     45  F   LIG d   1       2.720  -0.081  -2.845  0.00  0.00    -0.205 F 
ATOM     46  C   LIG d   1       2.596   0.663  -6.396  0.00  0.00    -0.059 A 
ATOM     47  H   LIG d   1       1.560   1.381  -4.670  0.00  0.00     0.065 H 
ATOM     48  C   LIG d   1       3.560  -0.203  -6.884  0.00  0.00    -0.061 A 
ATOM     49  H   LIG d   1       2.060   1.309  -7.076  0.00  0.00     0.062 H 
ATOM     50  C   LIG d   1       4.252  -1.027  -6.023  0.00  0.00    -0.045 A 
ATOM     51  H   LIG d   1       3.775  -0.228  -7.943  0.00  0.00     0.062 H 
ATOM     52  H   LIG d   1       5.007  -1.697  -6.406  0.00  0.00     0.063 H 
ENDBRANCH  40  42
ENDBRANCH  39  40
ENDBRANCH   8  39
TORSDOF 10
ENDMDL
MODEL 3
REMARK VINA RESULT:      -7.0      7.049     11.569
REMARK  10 active torsions:
REMARK  status: ('A' for Active; 'I' for Inactive)
REMARK    1  A    between atoms: C_1  and  O_2 
REMARK    2  A    between atoms: O_2  and  C_3 
REMARK    3  A    between atoms: C_5  and  C_13 
REMARK    4  A    between atoms: C_6  and  O_11 
REMARK    5  A    between atoms: C_8  and  O_9 
REMARK    6  A    between atoms: O_9  and  C_10 
REMARK    7  A    between atoms: O_11  and  C_12 
REMARK    8  A    between atoms: C_20  and  O_24 
REMARK    9  A    between atoms: O_24  and  C_25 
REMARK   10  A    between atoms: C_25  and  C_27 
ROOT
ATOM      1  C   LIG d   1       3.311  -3.377 -11.310  0.00  0.00    -0.005 C 
ATOM      2  C   LIG d   1       3.196  -2.291 -10.499  0.00  0.00     0.176 A 
ATOM      3  C   LIG d   1       2.967  -0.907 -10.932  0.00  0.00     0.232 A 
ATOM      4  O   LIG d   1       2.842  -0.492 -12.071  0.00  0.00    -0.283 OA
ATOM      5  C   LIG d   1       2.919  -0.131  -9.678  0.00  0.00     0.068 A 
ATOM      6  C   LIG d   1       2.731   1.223  -9.401  0.00  0.00    -0.044 A 
ATOM      7  C   LIG d   1       2.744   1.661  -8.107  0.00  0.00    -0.018 A 
ATOM      8  C   LIG d   1       2.943   0.759  -7.065  0.00  0.00     0.136 A 
ATOM      9  C   LIG d   1       3.131  -0.588  -7.326  0.00  0.00     0.024 A 
ATOM     10  C   LIG d   1       3.121  -1.050  -8.636  0.00  0.00     0.143 A 
ATOM     11  O   LIG d   1       3.279  -2.290  -9.148  0.00  0.00    -0.451 OA
ATOM     12  H   LIG d   1       3.346  -3.248 -12.383  0.00  0.00     0.066 H 
ATOM     13  H   LIG d   1       2.576   1.924 -10.208  0.00  0.00     0.063 H 
ATOM     14  H   LIG d   1       2.598   2.709  -7.892  0.00  0.00     0.065 H 
ATOM     15  H   LIG d   1       3.285  -1.280  -6.510  0.00  0.00     0.069 H 
ENDROOT
BRANCH   1  16
ATOM     16  C   LIG d   1       3.387  -4.720 -10.730  0.00  0.00     0.024 A 
ATOM     17  C   LIG d   1       2.216  -5.460 -10.513  0.00  0.00    -0.005 A 
ATOM     18  C   LIG d   1       2.294  -6.725  -9.971  0.00  0.00     0.162 A 
ATOM     19  H   LIG d   1       1.255  -5.042 -10.774  0.00  0.00     0.066 H 
ATOM     20  C   LIG d   1       3.535  -7.266  -9.628  0.00  0.00     0.165 A 
ATOM     21  C   LIG d   1       4.698  -6.540  -9.840  0.00  0.00     0.026 A 
ATOM     22  C   LIG d   1       4.634  -5.272 -10.387  0.00  0.00     0.131 A 
ATOM     23  H   LIG d   1       5.654  -6.966  -9.575  0.00  0.00     0.069 H 
BRANCH  18  24
ATOM     24  O   LIG d   1       1.159  -7.447  -9.765  0.00  0.00    -0.491 OA
BRANCH  24  25
ATOM     25  C   LIG d   1      -0.066  -6.872 -10.222  0.00  0.00     0.079 C 
ATOM     26  H   LIG d   1      -0.583  -7.581 -10.869  0.00  0.00     0.066 H 
ATOM     27  H   LIG d   1      -0.698  -6.635  -9.365  0.00  0.00     0.066 H 
ATOM     28  H   LIG d   1       0.145  -5.959 -10.780  0.00  0.00     0.066 H 
ENDBRANCH  24  25
ENDBRANCH  18  24
BRANCH  20  29
ATOM     29  O   LIG d   1       3.604  -8.511  -9.090  0.00  0.00    -0.491 OA
BRANCH  29  30
ATOM     30  C   LIG d   1       4.255  -8.636  -7.824  0.00  0.00     0.079 C 
ATOM     31  H   LIG d   1       4.434  -7.644  -7.408  0.00  0.00     0.066 H 
ATOM     32  H   LIG d   1       5.206  -9.151  -7.954  0.00  0.00     0.066 H 
ATOM     33  H   LIG d   1       3.622  -9.206  -7.145  0.00  0.00     0.066 H 
ENDBRANCH  29  30
ENDBRANCH  20  29
BRANCH  22  34
ATOM     34  O   LIG d   1       5.772  -4.561 -10.594  0.00  0.00    -0.494 OA
BRANCH  34  35
ATOM     35  C   LIG d   1       6.498  -4.149  -9.433  0.00  0.00     0.079 C 
ATOM     36  H   LIG d   1       5.885  -4.309  -8.546  0.00  0.00     0.066 H 
ATOM     37  H   LIG d   1       7.415  -4.734  -9.352  0.00  0.00     0.066 H 
ATOM     38  H   LIG d   1       6.748  -3.091  -9.517  0.00  0.00     0.066 H 
ENDBRANCH  34  35
ENDBRANCH  22  34
ENDBRANCH   1  16
BRANCH   8  39
ATOM     39  O   LIG d   1       2.954   1.204  -5.782  0.00  0.00    -0.422 OA
BRANCH  39  40
ATOM     40  C   LIG d   1       2.372   0.418  -4.856  0.00  0.00     0.347 C 
ATOM     41  O   LIG d   1       1.206   0.098  -4.977  0.00  0.00    -0.244 OA
BRANCH  40  42
ATOM     42  C   LIG d   1       3.150  -0.054  -3.694  0.00  0.00     0.095 A 
ATOM     43  C   LIG d   1       3.735   0.866  -2.819  0.00  0.00     0.137 A 
ATOM     44  C   LIG d   1       4.462   0.413  -1.732  0.00  0.00    -0.026 A 
ATOM     45  F   LIG d   1       3.591   2.193  -3.033  0.00  0.00    -0.205 F 
ATOM     46  C   LIG d   1       4.610  -0.943  -1.513  0.00  0.00    -0.059 A 
ATOM     47  H   LIG d   1       4.916   1.122  -1.055  0.00  0.00     0.065 H 
ATOM     48  C   LIG d   1       4.033  -1.858  -2.377  0.00  0.00    -0.061 A 
ATOM     49  H   LIG d   1       5.179  -1.291  -0.663  0.00  0.00     0.062 H 
ATOM     50  C   LIG d   1       3.301  -1.423  -3.461  0.00  0.00    -0.045 A 
ATOM     51  H   LIG d   1       4.153  -2.917  -2.198  0.00  0.00     0.062 H 
ATOM     52  H   LIG d   1       2.848  -2.140  -4.130  0.00  0.00     0.063 H 
ENDBRANCH  40  42
ENDBRANCH  39  40
ENDBRANCH   8  39
TORSDOF 10
ENDMDL
MODEL 4
REMARK VINA RESULT:      -6.9      1.966      2.614
REMARK  10 active torsions:
REMARK  status: ('A' for Active; 'I' for Inactive)
REMARK    1  A    between atoms: C_1  and  O_2 
REMARK    2  A    between atoms: O_2  and  C_3 
REMARK    3  A    between atoms: C_5  and  C_13 
REMARK    4  A    between atoms: C_6  and  O_11 
REMARK    5  A    between atoms: C_8  and  O_9 
REMARK    6  A    between atoms: O_9  and  C_10 
REMARK    7  A    between atoms: O_11  and  C_12 
REMARK    8  A    between atoms: C_20  and  O_24 
REMARK    9  A    between atoms: O_24  and  C_25 
REMARK   10  A    between atoms: C_25  and  C_27 
ROOT
ATOM      1  C   LIG d   1       9.695   3.852  -5.479  0.00  0.00    -0.005 C 
ATOM      2  C   LIG d   1       9.010   2.682  -5.579  0.00  0.00     0.176 A 
ATOM      3  C   LIG d   1       8.442   2.113  -6.808  0.00  0.00     0.232 A 
ATOM      4  O   LIG d   1       8.482   2.578  -7.934  0.00  0.00    -0.283 OA
ATOM      5  C   LIG d   1       7.815   0.850  -6.375  0.00  0.00     0.068 A 
ATOM      6  C   LIG d   1       7.115  -0.149  -7.051  0.00  0.00    -0.044 A 
ATOM      7  C   LIG d   1       6.634  -1.228  -6.365  0.00  0.00    -0.018 A 
ATOM      8  C   LIG d   1       6.840  -1.331  -4.991  0.00  0.00     0.136 A 
ATOM      9  C   LIG d   1       7.532  -0.346  -4.307  0.00  0.00     0.024 A 
ATOM     10  C   LIG d   1       8.028   0.757  -4.990  0.00  0.00     0.143 A 
ATOM     11  O   LIG d   1       8.722   1.834  -4.564  0.00  0.00    -0.451 OA
ATOM     12  H   LIG d   1       9.767   4.511  -6.334  0.00  0.00     0.066 H 
ATOM     13  H   LIG d   1       6.955  -0.070  -8.117  0.00  0.00     0.063 H 
ATOM     14  H   LIG d   1       6.093  -2.002  -6.888  0.00  0.00     0.065 H 
ATOM     15  H   LIG d   1       7.686  -0.436  -3.241  0.00  0.00     0.069 H 
ENDROOT
BRANCH   1  16
ATOM     16  C   LIG d   1      10.335   4.221  -4.214  0.00  0.00     0.024 A 
ATOM     17  C   LIG d   1       9.672   5.058  -3.307  0.00  0.00    -0.005 A 
ATOM     18  C   LIG d   1      10.277   5.397  -2.116  0.00  0.00     0.162 A 
ATOM     19  H   LIG d   1       8.685   5.433  -3.538  0.00  0.00     0.066 H 
ATOM     20  C   LIG d   1      11.553   4.918  -1.816  0.00  0.00     0.165 A 
ATOM     21  C   LIG d   1      12.217   4.089  -2.708  0.00  0.00     0.026 A 
ATOM     22  C   LIG d   1      11.619   3.736  -3.905  0.00  0.00     0.131 A 
ATOM     23  H   LIG d   1      13.203   3.719  -2.468  0.00  0.00     0.069 H 
BRANCH  18  24
ATOM     24  O   LIG d   1       9.631   6.205  -1.232  0.00  0.00    -0.491 OA
BRANCH  24  25
ATOM     25  C   LIG d   1       9.639   7.607  -1.509  0.00  0.00     0.079 C 
ATOM     26  H   LIG d   1       8.709   8.053  -1.156  0.00  0.00     0.066 H 
ATOM     27  H   LIG d   1      10.483   8.073  -1.000  0.00  0.00     0.066 H 
ATOM     28  H   LIG d   1       9.731   7.764  -2.584  0.00  0.00     0.066 H 
ENDBRANCH  24  25
ENDBRANCH  18  24
BRANCH  20  29
ATOM     29  O   LIG d   1      12.146   5.260  -0.643  0.00  0.00    -0.491 OA
BRANCH  29  30
ATOM     30  C   LIG d   1      13.422   5.898  -0.723  0.00  0.00     0.079 C 
ATOM     31  H   LIG d   1      13.357   6.760  -1.387  0.00  0.00     0.066 H 
ATOM     32  H   LIG d   1      14.156   5.194  -1.113  0.00  0.00     0.066 H 
ATOM     33  H   LIG d   1      13.726   6.227   0.271  0.00  0.00     0.066 H 
ENDBRANCH  29  30
ENDBRANCH  20  29
BRANCH  22  34
ATOM     34  O   LIG d   1      12.269   2.925  -4.779  0.00  0.00    -0.494 OA
BRANCH  34  35
ATOM     35  C   LIG d   1      12.899   1.763  -4.237  0.00  0.00     0.079 C 
ATOM     36  H   LIG d   1      12.804   1.771  -3.151  0.00  0.00     0.066 H 
ATOM     37  H   LIG d   1      12.418   0.869  -4.637  0.00  0.00     0.066 H 
ATOM     38  H   LIG d   1      13.955   1.760  -4.510  0.00  0.00     0.066 H 
ENDBRANCH  34  35
ENDBRANCH  22  34
ENDBRANCH   1  16
BRANCH   8  39
ATOM     39  O   LIG d   1       6.357  -2.407  -4.318  0.00  0.00    -0.422 OA
BRANCH  39  40
ATOM     40  C   LIG d   1       5.086  -2.334  -3.877  0.00  0.00     0.347 C 
ATOM     41  O   LIG d   1       4.378  -3.321  -3.900  0.00  0.00    -0.244 OA
BRANCH  40  42
ATOM     42  C   LIG d   1       4.553  -1.056  -3.368  0.00  0.00     0.095 A 
ATOM     43  C   LIG d   1       3.754  -0.251  -4.187  0.00  0.00     0.137 A 
ATOM     44  C   LIG d   1       3.258   0.945  -3.700  0.00  0.00    -0.026 A 
ATOM     45  F   LIG d   1       3.465  -0.642  -5.448  0.00  0.00    -0.205 F 
ATOM     46  C   LIG d   1       3.552   1.344  -2.410  0.00  0.00    -0.059 A 
ATOM     47  H   LIG d   1       2.641   1.569  -4.330  0.00  0.00     0.065 H 
ATOM     48  C   LIG d   1       4.344   0.552  -1.596  0.00  0.00    -0.061 A 
ATOM     49  H   LIG d   1       3.163   2.280  -2.036  0.00  0.00     0.062 H 
ATOM     50  C   LIG d   1       4.840  -0.645  -2.064  0.00  0.00    -0.045 A 
ATOM     51  H   LIG d   1       4.568   0.871  -0.588  0.00  0.00     0.062 H 
ATOM     52  H   LIG d   1       5.453  -1.264  -1.425  0.00  0.00     0.063 H 
ENDBRANCH  40  42
ENDBRANCH  39  40
ENDBRANCH   8  39
TORSDOF 10
ENDMDL
MODEL 5
REMARK VINA RESULT:      -6.7      6.457     11.992
REMARK  10 active torsions:
REMARK  status: ('A' for Active; 'I' for Inactive)
REMARK    1  A    between atoms: C_1  and  O_2 
REMARK    2  A    between atoms: O_2  and  C_3 
REMARK    3  A    between atoms: C_5  and  C_13 
REMARK    4  A    between atoms: C_6  and  O_11 
REMARK    5  A    between atoms: C_8  and  O_9 
REMARK    6  A    between atoms: O_9  and  C_10 
REMARK    7  A    between atoms: O_11  and  C_12 
REMARK    8  A    between atoms: C_20  and  O_24 
REMARK    9  A    between atoms: O_24  and  C_25 
REMARK   10  A    between atoms: C_25  and  C_27 
ROOT
ATOM      1  C   LIG d   1       4.914  -8.503  -5.689  0.00  0.00    -0.005 C 
ATOM      2  C   LIG d   1       5.084  -7.187  -5.986  0.00  0.00     0.176 A 
ATOM      3  C   LIG d   1       4.474  -6.466  -7.109  0.00  0.00     0.232 A 
ATOM      4  O   LIG d   1       3.721  -6.908  -7.959  0.00  0.00    -0.283 OA
ATOM      5  C   LIG d   1       4.973  -5.084  -6.977  0.00  0.00     0.068 A 
ATOM      6  C   LIG d   1       4.769  -3.920  -7.719  0.00  0.00    -0.044 A 
ATOM      7  C   LIG d   1       5.388  -2.760  -7.349  0.00  0.00    -0.018 A 
ATOM      8  C   LIG d   1       6.221  -2.736  -6.233  0.00  0.00     0.136 A 
ATOM      9  C   LIG d   1       6.433  -3.884  -5.488  0.00  0.00     0.024 A 
ATOM     10  C   LIG d   1       5.811  -5.072  -5.851  0.00  0.00     0.143 A 
ATOM     11  O   LIG d   1       5.853  -6.306  -5.302  0.00  0.00    -0.451 OA
ATOM     12  H   LIG d   1       4.371  -9.144  -6.369  0.00  0.00     0.066 H 
ATOM     13  H   LIG d   1       4.123  -3.937  -8.584  0.00  0.00     0.063 H 
ATOM     14  H   LIG d   1       5.229  -1.859  -7.922  0.00  0.00     0.065 H 
ATOM     15  H   LIG d   1       7.082  -3.855  -4.624  0.00  0.00     0.069 H 
ENDROOT
BRANCH   1  16
ATOM     16  C   LIG d   1       5.466  -9.052  -4.448  0.00  0.00     0.024 A 
ATOM     17  C   LIG d   1       6.827  -8.894  -4.152  0.00  0.00    -0.005 A 
ATOM     18  C   LIG d   1       7.340  -9.408  -2.981  0.00  0.00     0.162 A 
ATOM     19  H   LIG d   1       7.472  -8.366  -4.839  0.00  0.00     0.066 H 
ATOM     20  C   LIG d   1       6.509 -10.095  -2.094  0.00  0.00     0.165 A 
ATOM     21  C   LIG d   1       5.161 -10.256  -2.378  0.00  0.00     0.026 A 
ATOM     22  C   LIG d   1       4.632  -9.740  -3.548  0.00  0.00     0.131 A 
ATOM     23  H   LIG d   1       4.523 -10.785  -1.686  0.00  0.00     0.069 H 
BRANCH  18  24
ATOM     24  O   LIG d   1       8.660  -9.251  -2.690  0.00  0.00    -0.491 OA
BRANCH  24  25
ATOM     25  C   LIG d   1       9.069  -7.969  -2.209  0.00  0.00     0.079 C 
ATOM     26  H   LIG d   1      10.127  -7.821  -2.425  0.00  0.00     0.066 H 
ATOM     27  H   LIG d   1       8.485  -7.192  -2.703  0.00  0.00     0.066 H 
ATOM     28  H   LIG d   1       8.907  -7.916  -1.132  0.00  0.00     0.066 H 
ENDBRANCH  24  25
ENDBRANCH  18  24
BRANCH  20  29
ATOM     29  O   LIG d   1       7.022 -10.603  -0.943  0.00  0.00    -0.491 OA
BRANCH  29  30
ATOM     30  C   LIG d   1       7.083 -12.027  -0.834  0.00  0.00     0.079 C 
ATOM     31  H   LIG d   1       6.073 -12.437  -0.842  0.00  0.00     0.066 H 
ATOM     32  H   LIG d   1       7.578 -12.299   0.098  0.00  0.00     0.066 H 
ATOM     33  H   LIG d   1       7.646 -12.432  -1.676  0.00  0.00     0.066 H 
ENDBRANCH  29  30
ENDBRANCH  20  29
BRANCH  22  34
ATOM     34  O   LIG d   1       3.313  -9.898  -3.827  0.00  0.00    -0.494 OA
BRANCH  34  35
ATOM     35  C   LIG d   1       2.796 -11.229  -3.778  0.00  0.00     0.079 C 
ATOM     36  H   LIG d   1       3.256 -11.767  -2.950  0.00  0.00     0.066 H 
ATOM     37  H   LIG d   1       1.716 -11.194  -3.633  0.00  0.00     0.066 H 
ATOM     38  H   LIG d   1       3.020 -11.741  -4.715  0.00  0.00     0.066 H 
ENDBRANCH  34  35
ENDBRANCH  22  34
ENDBRANCH   1  16
BRANCH   8  39
ATOM     39  O   LIG d   1       6.831  -1.577  -5.874  0.00  0.00    -0.422 OA
BRANCH  39  40
ATOM     40  C   LIG d   1       6.035  -0.526  -5.597  0.00  0.00     0.347 C 
ATOM     41  O   LIG d   1       6.144   0.503  -6.235  0.00  0.00    -0.244 OA
BRANCH  40  42
ATOM     42  C   LIG d   1       5.033  -0.623  -4.519  0.00  0.00     0.095 A 
ATOM     43  C   LIG d   1       5.426  -0.966  -3.221  0.00  0.00     0.137 A 
ATOM     44  C   LIG d   1       4.478  -1.054  -2.217  0.00  0.00    -0.026 A 
ATOM     45  F   LIG d   1       6.727  -1.211  -2.949  0.00  0.00    -0.205 F 
ATOM     46  C   LIG d   1       3.148  -0.803  -2.495  0.00  0.00    -0.059 A 
ATOM     47  H   LIG d   1       4.779  -1.319  -1.214  0.00  0.00     0.065 H 
ATOM     48  C   LIG d   1       2.753  -0.463  -3.778  0.00  0.00    -0.061 A 
ATOM     49  H   LIG d   1       2.412  -0.873  -1.707  0.00  0.00     0.062 H 
ATOM     50  C   LIG d   1       3.686  -0.366  -4.788  0.00  0.00    -0.045 A 
ATOM     51  H   LIG d   1       1.711  -0.268  -3.987  0.00  0.00     0.062 H 
ATOM     52  H   LIG d   1       3.376  -0.096  -5.787  0.00  0.00     0.063 H 
ENDBRANCH  40  42
ENDBRANCH  39  40
ENDBRANCH   8  39
TORSDOF 10
ENDMDL
MODEL 6
REMARK VINA RESULT:      -6.7      1.624      2.581
REMARK  10 active torsions:
REMARK  status: ('A' for Active; 'I' for Inactive)
REMARK    1  A    between atoms: C_1  and  O_2 
REMARK    2  A    between atoms: O_2  and  C_3 
REMARK    3  A    between atoms: C_5  and  C_13 
REMARK    4  A    between atoms: C_6  and  O_11 
REMARK    5  A    between atoms: C_8  and  O_9 
REMARK    6  A    between atoms: O_9  and  C_10 
REMARK    7  A    between atoms: O_11  and  C_12 
REMARK    8  A    between atoms: C_20  and  O_24 
REMARK    9  A    between atoms: O_24  and  C_25 
REMARK   10  A    between atoms: C_25  and  C_27 
ROOT
ATOM      1  C   LIG d   1      11.905   4.841  -3.863  0.00  0.00    -0.005 C 
ATOM      2  C   LIG d   1      11.422   3.628  -4.244  0.00  0.00     0.176 A 
ATOM      3  C   LIG d   1      12.177   2.570  -4.926  0.00  0.00     0.232 A 
ATOM      4  O   LIG d   1      13.347   2.590  -5.268  0.00  0.00    -0.283 OA
ATOM      5  C   LIG d   1      11.203   1.477  -5.105  0.00  0.00     0.068 A 
ATOM      6  C   LIG d   1      11.288   0.207  -5.676  0.00  0.00    -0.044 A 
ATOM      7  C   LIG d   1      10.188  -0.603  -5.702  0.00  0.00    -0.018 A 
ATOM      8  C   LIG d   1       8.982  -0.163  -5.161  0.00  0.00     0.136 A 
ATOM      9  C   LIG d   1       8.884   1.096  -4.591  0.00  0.00     0.024 A 
ATOM     10  C   LIG d   1       9.993   1.931  -4.556  0.00  0.00     0.143 A 
ATOM     11  O   LIG d   1      10.157   3.180  -4.068  0.00  0.00    -0.451 OA
ATOM     12  H   LIG d   1      12.900   5.143  -4.158  0.00  0.00     0.066 H 
ATOM     13  H   LIG d   1      12.222  -0.136  -6.096  0.00  0.00     0.063 H 
ATOM     14  H   LIG d   1      10.253  -1.586  -6.144  0.00  0.00     0.065 H 
ATOM     15  H   LIG d   1       7.944   1.427  -4.174  0.00  0.00     0.069 H 
ENDROOT
BRANCH   1  16
ATOM     16  C   LIG d   1      11.076   5.739  -3.055  0.00  0.00     0.024 A 
ATOM     17  C   LIG d   1      11.038   5.597  -1.661  0.00  0.00    -0.005 A 
ATOM     18  C   LIG d   1      10.261   6.448  -0.905  0.00  0.00     0.162 A 
ATOM     19  H   LIG d   1      11.621   4.825  -1.179  0.00  0.00     0.066 H 
ATOM     20  C   LIG d   1       9.503   7.442  -1.525  0.00  0.00     0.165 A 
ATOM     21  C   LIG d   1       9.534   7.590  -2.904  0.00  0.00     0.026 A 
ATOM     22  C   LIG d   1      10.315   6.746  -3.674  0.00  0.00     0.131 A 
ATOM     23  H   LIG d   1       8.948   8.364  -3.377  0.00  0.00     0.069 H 
BRANCH  18  24
ATOM     24  O   LIG d   1      10.228   6.314   0.449  0.00  0.00    -0.491 OA
BRANCH  24  25
ATOM     25  C   LIG d   1      11.365   5.713   1.069  0.00  0.00     0.079 C 
ATOM     26  H   LIG d   1      11.120   5.443   2.097  0.00  0.00     0.066 H 
ATOM     27  H   LIG d   1      11.649   4.817   0.517  0.00  0.00     0.066 H 
ATOM     28  H   LIG d   1      12.197   6.419   1.068  0.00  0.00     0.066 H 
ENDBRANCH  24  25
ENDBRANCH  18  24
BRANCH  20  29
ATOM     29  O   LIG d   1       8.735   8.274  -0.774  0.00  0.00    -0.491 OA
BRANCH  29  30
ATOM     30  C   LIG d   1       8.998   9.674  -0.883  0.00  0.00     0.079 C 
ATOM     31  H   LIG d   1       9.545  10.011  -0.003  0.00  0.00     0.066 H 
ATOM     32  H   LIG d   1       8.055  10.216  -0.952  0.00  0.00     0.066 H 
ATOM     33  H   LIG d   1       9.593   9.864  -1.776  0.00  0.00     0.066 H 
ENDBRANCH  29  30
ENDBRANCH  20  29
BRANCH  22  34
ATOM     34  O   LIG d   1      10.345   6.890  -5.024  0.00  0.00    -0.494 OA
BRANCH  34  35
ATOM     35  C   LIG d   1       9.333   7.710  -5.610  0.00  0.00     0.079 C 
ATOM     36  H   LIG d   1       9.115   7.355  -6.617  0.00  0.00     0.066 H 
ATOM     37  H   LIG d   1       8.428   7.661  -5.004  0.00  0.00     0.066 H 
ATOM     38  H   LIG d   1       9.683   8.742  -5.656  0.00  0.00     0.066 H 
ENDBRANCH  34  35
ENDBRANCH  22  34
ENDBRANCH   1  16
BRANCH   8  39
ATOM     39  O   LIG d   1       7.895  -0.975  -5.192  0.00  0.00    -0.422 OA
BRANCH  39  40
ATOM     40  C   LIG d   1       6.686  -0.382  -5.134  0.00  0.00     0.347 C 
ATOM     41  O   LIG d   1       6.330   0.360  -6.028  0.00  0.00    -0.244 OA
BRANCH  40  42
ATOM     42  C   LIG d   1       5.795  -0.633  -3.985  0.00  0.00     0.095 A 
ATOM     43  C   LIG d   1       5.556   0.378  -3.047  0.00  0.00     0.137 A 
ATOM     44  C   LIG d   1       4.719   0.134  -1.973  0.00  0.00    -0.026 A 
ATOM     45  F   LIG d   1       6.139   1.588  -3.191  0.00  0.00    -0.205 F 
ATOM     46  C   LIG d   1       4.122  -1.104  -1.827  0.00  0.00    -0.059 A 
ATOM     47  H   LIG d   1       4.532   0.912  -1.248  0.00  0.00     0.065 H 
ATOM     48  C   LIG d   1       4.356  -2.108  -2.751  0.00  0.00    -0.061 A 
ATOM     49  H   LIG d   1       3.469  -1.289  -0.986  0.00  0.00     0.062 H 
ATOM     50  C   LIG d   1       5.183  -1.879  -3.830  0.00  0.00    -0.045 A 
ATOM     51  H   LIG d   1       3.885  -3.072  -2.630  0.00  0.00     0.062 H 
ATOM     52  H   LIG d   1       5.360  -2.662  -4.552  0.00  0.00     0.063 H 
ENDBRANCH  40  42
ENDBRANCH  39  40
ENDBRANCH   8  39
TORSDOF 10
ENDMDL
MODEL 7
REMARK VINA RESULT:      -6.7      7.083     13.018
REMARK  10 active torsions:
REMARK  status: ('A' for Active; 'I' for Inactive)
REMARK    1  A    between atoms: C_1  and  O_2 
REMARK    2  A    between atoms: O_2  and  C_3 
REMARK    3  A    between atoms: C_5  and  C_13 
REMARK    4  A    between atoms: C_6  and  O_11 
REMARK    5  A    between atoms: C_8  and  O_9 
REMARK    6  A    between atoms: O_9  and  C_10 
REMARK    7  A    between atoms: O_11  and  C_12 
REMARK    8  A    between atoms: C_20  and  O_24 
REMARK    9  A    between atoms: O_24  and  C_25 
REMARK   10  A    between atoms: C_25  and  C_27 
ROOT
ATOM      1  C   LIG d   1       0.905  -3.718 -11.909  0.00  0.00    -0.005 C 
ATOM      2  C   LIG d   1       1.512  -2.700 -11.242  0.00  0.00     0.176 A 
ATOM      3  C   LIG d   1       2.193  -1.550 -11.849  0.00  0.00     0.232 A 
ATOM      4  O   LIG d   1       2.333  -1.307 -13.035  0.00  0.00    -0.283 OA
ATOM      5  C   LIG d   1       2.666  -0.752 -10.702  0.00  0.00     0.068 A 
ATOM      6  C   LIG d   1       3.374   0.445 -10.600  0.00  0.00    -0.044 A 
ATOM      7  C   LIG d   1       3.683   0.950  -9.369  0.00  0.00    -0.018 A 
ATOM      8  C   LIG d   1       3.293   0.273  -8.216  0.00  0.00     0.136 A 
ATOM      9  C   LIG d   1       2.590  -0.917  -8.303  0.00  0.00     0.024 A 
ATOM     10  C   LIG d   1       2.267  -1.445  -9.548  0.00  0.00     0.143 A 
ATOM     11  O   LIG d   1       1.603  -2.567  -9.898  0.00  0.00    -0.451 OA
ATOM     12  H   LIG d   1       0.993  -3.786 -12.985  0.00  0.00     0.066 H 
ATOM     13  H   LIG d   1       3.677   0.972 -11.493  0.00  0.00     0.063 H 
ATOM     14  H   LIG d   1       4.230   1.878  -9.289  0.00  0.00     0.065 H 
ATOM     15  H   LIG d   1       2.292  -1.435  -7.403  0.00  0.00     0.069 H 
ENDROOT
BRANCH   1  16
ATOM     16  C   LIG d   1       0.133  -4.721 -11.171  0.00  0.00     0.024 A 
ATOM     17  C   LIG d   1      -1.178  -4.440 -10.764  0.00  0.00    -0.005 A 
ATOM     18  C   LIG d   1      -1.901  -5.390 -10.074  0.00  0.00     0.162 A 
ATOM     19  H   LIG d   1      -1.623  -3.484 -10.995  0.00  0.00     0.066 H 
ATOM     20  C   LIG d   1      -1.326  -6.625  -9.771  0.00  0.00     0.165 A 
ATOM     21  C   LIG d   1      -0.029  -6.911 -10.170  0.00  0.00     0.026 A 
ATOM     22  C   LIG d   1       0.706  -5.969 -10.867  0.00  0.00     0.131 A 
ATOM     23  H   LIG d   1       0.408  -7.870  -9.935  0.00  0.00     0.069 H 
BRANCH  18  24
ATOM     24  O   LIG d   1      -3.176  -5.121  -9.684  0.00  0.00    -0.491 OA
BRANCH  24  25
ATOM     25  C   LIG d   1      -4.185  -5.152 -10.696  0.00  0.00     0.079 C 
ATOM     26  H   LIG d   1      -4.052  -4.304 -11.368  0.00  0.00     0.066 H 
ATOM     27  H   LIG d   1      -4.103  -6.080 -11.262  0.00  0.00     0.066 H 
ATOM     28  H   LIG d   1      -5.169  -5.096 -10.231  0.00  0.00     0.066 H 
ENDBRANCH  24  25
ENDBRANCH  18  24
BRANCH  20  29
ATOM     29  O   LIG d   1      -2.043  -7.554  -9.087  0.00  0.00    -0.491 OA
BRANCH  29  30
ATOM     30  C   LIG d   1      -2.623  -8.616  -9.847  0.00  0.00     0.079 C 
ATOM     31  H   LIG d   1      -2.404  -9.569  -9.367  0.00  0.00     0.066 H 
ATOM     32  H   LIG d   1      -2.206  -8.612 -10.854  0.00  0.00     0.066 H 
ATOM     33  H   LIG d   1      -3.703  -8.476  -9.900  0.00  0.00     0.066 H 
ENDBRANCH  29  30
ENDBRANCH  20  29
BRANCH  22  34
ATOM     34  O   LIG d   1       1.976  -6.248 -11.257  0.00  0.00    -0.494 OA
BRANCH  34  35
ATOM     35  C   LIG d   1       2.983  -6.234 -10.243  0.00  0.00     0.079 C 
ATOM     36  H   LIG d   1       3.884  -5.761 -10.633  0.00  0.00     0.066 H 
ATOM     37  H   LIG d   1       2.622  -5.671  -9.381  0.00  0.00     0.066 H 
ATOM     38  H   LIG d   1       3.209  -7.256  -9.940  0.00  0.00     0.066 H 
ENDBRANCH  34  35
ENDBRANCH  22  34
ENDBRANCH   1  16
BRANCH   8  39
ATOM     39  O   LIG d   1       3.605   0.783  -6.998  0.00  0.00    -0.422 OA
BRANCH  39  40
ATOM     40  C   LIG d   1       4.528   0.120  -6.274  0.00  0.00     0.347 C 
ATOM     41  O   LIG d   1       5.677   0.060  -6.666  0.00  0.00    -0.244 OA
BRANCH  40  42
ATOM     42  C   LIG d   1       4.145  -0.533  -5.008  0.00  0.00     0.095 A 
ATOM     43  C   LIG d   1       3.155   0.032  -4.197  0.00  0.00     0.137 A 
ATOM     44  C   LIG d   1       2.802  -0.588  -3.011  0.00  0.00    -0.026 A 
ATOM     45  F   LIG d   1       2.544   1.178  -4.571  0.00  0.00    -0.205 F 
ATOM     46  C   LIG d   1       3.427  -1.760  -2.629  0.00  0.00    -0.059 A 
ATOM     47  H   LIG d   1       2.038  -0.154  -2.383  0.00  0.00     0.065 H 
ATOM     48  C   LIG d   1       4.408  -2.323  -3.428  0.00  0.00    -0.061 A 
ATOM     49  H   LIG d   1       3.148  -2.240  -1.702  0.00  0.00     0.062 H 
ATOM     50  C   LIG d   1       4.767  -1.720  -4.615  0.00  0.00    -0.045 A 
ATOM     51  H   LIG d   1       4.891  -3.240  -3.122  0.00  0.00     0.062 H 
ATOM     52  H   LIG d   1       5.529  -2.164  -5.238  0.00  0.00     0.063 H 
ENDBRANCH  40  42
ENDBRANCH  39  40
ENDBRANCH   8  39
TORSDOF 10
ENDMDL
MODEL 8
REMARK VINA RESULT:      -6.7      1.919      2.899
REMARK  10 active torsions:
REMARK  status: ('A' for Active; 'I' for Inactive)
REMARK    1  A    between atoms: C_1  and  O_2 
REMARK    2  A    between atoms: O_2  and  C_3 
REMARK    3  A    between atoms: C_5  and  C_13 
REMARK    4  A    between atoms: C_6  and  O_11 
REMARK    5  A    between atoms: C_8  and  O_9 
REMARK    6  A    between atoms: O_9  and  C_10 
REMARK    7  A    between atoms: O_11  and  C_12 
REMARK    8  A    between atoms: C_20  and  O_24 
REMARK    9  A    between atoms: O_24  and  C_25 
REMARK   10  A    between atoms: C_25  and  C_27 
ROOT
ATOM      1  C   LIG d   1      11.980   5.304  -2.682  0.00  0.00    -0.005 C 
ATOM      2  C   LIG d   1      11.315   4.274  -3.269  0.00  0.00     0.176 A 
ATOM      3  C   LIG d   1      11.900   2.997  -3.699  0.00  0.00     0.232 A 
ATOM      4  O   LIG d   1      13.062   2.641  -3.609  0.00  0.00    -0.283 OA
ATOM      5  C   LIG d   1      10.765   2.241  -4.261  0.00  0.00     0.068 A 
ATOM      6  C   LIG d   1      10.653   0.973  -4.831  0.00  0.00    -0.044 A 
ATOM      7  C   LIG d   1       9.440   0.534  -5.281  0.00  0.00    -0.018 A 
ATOM      8  C   LIG d   1       8.316   1.350  -5.172  0.00  0.00     0.136 A 
ATOM      9  C   LIG d   1       8.414   2.611  -4.609  0.00  0.00     0.024 A 
ATOM     10  C   LIG d   1       9.640   3.072  -4.146  0.00  0.00     0.143 A 
ATOM     11  O   LIG d   1       9.995   4.241  -3.569  0.00  0.00    -0.451 OA
ATOM     12  H   LIG d   1      13.057   5.272  -2.596  0.00  0.00     0.066 H 
ATOM     13  H   LIG d   1      11.523   0.339  -4.916  0.00  0.00     0.063 H 
ATOM     14  H   LIG d   1       9.352  -0.448  -5.722  0.00  0.00     0.065 H 
ATOM     15  H   LIG d   1       7.536   3.237  -4.530  0.00  0.00     0.069 H 
ENDROOT
BRANCH   1  16
ATOM     16  C   LIG d   1      11.238   6.458  -2.169  0.00  0.00     0.024 A 
ATOM     17  C   LIG d   1      10.879   7.504  -3.030  0.00  0.00    -0.005 A 
ATOM     18  C   LIG d   1      10.176   8.585  -2.542  0.00  0.00     0.162 A 
ATOM     19  H   LIG d   1      11.150   7.462  -4.075  0.00  0.00     0.066 H 
ATOM     20  C   LIG d   1       9.830   8.644  -1.191  0.00  0.00     0.165 A 
ATOM     21  C   LIG d   1      10.181   7.614  -0.332  0.00  0.00     0.026 A 
ATOM     22  C   LIG d   1      10.882   6.521  -0.810  0.00  0.00     0.131 A 
ATOM     23  H   LIG d   1       9.907   7.664   0.711  0.00  0.00     0.069 H 
BRANCH  18  24
ATOM     24  O   LIG d   1       9.823   9.599  -3.378  0.00  0.00    -0.491 OA
BRANCH  24  25
ATOM     25  C   LIG d   1       9.939   9.353  -4.781  0.00  0.00     0.079 C 
ATOM     26  H   LIG d   1      10.851   9.817  -5.157  0.00  0.00     0.066 H 
ATOM     27  H   LIG d   1       9.978   8.278  -4.959  0.00  0.00     0.066 H 
ATOM     28  H   LIG d   1       9.077   9.775  -5.297  0.00  0.00     0.066 H 
ENDBRANCH  24  25
ENDBRANCH  18  24
BRANCH  20  29
ATOM     29  O   LIG d   1       9.142   9.715  -0.716  0.00  0.00    -0.491 OA
BRANCH  29  30
ATOM     30  C   LIG d   1       9.873  10.660   0.067  0.00  0.00     0.079 C 
ATOM     31  H   LIG d   1      10.940  10.451  -0.012  0.00  0.00     0.066 H 
ATOM     32  H   LIG d   1       9.564  10.585   1.109  0.00  0.00     0.066 H 
ATOM     33  H   LIG d   1       9.672  11.668  -0.300  0.00  0.00     0.066 H 
ENDBRANCH  29  30
ENDBRANCH  20  29
BRANCH  22  34
ATOM     34  O   LIG d   1      11.226   5.511   0.031  0.00  0.00    -0.494 OA
BRANCH  34  35
ATOM     35  C   LIG d   1      11.044   5.743   1.429  0.00  0.00     0.079 C 
ATOM     36  H   LIG d   1      12.005   5.674   1.938  0.00  0.00     0.066 H 
ATOM     37  H   LIG d   1      10.624   6.739   1.581  0.00  0.00     0.066 H 
ATOM     38  H   LIG d   1      10.362   4.996   1.836  0.00  0.00     0.066 H 
ENDBRANCH  34  35
ENDBRANCH  22  34
ENDBRANCH   1  16
BRANCH   8  39
ATOM     39  O   LIG d   1       7.115   0.905  -5.623  0.00  0.00    -0.422 OA
BRANCH  39  40
ATOM     40  C   LIG d   1       6.544  -0.109  -4.944  0.00  0.00     0.347 C 
ATOM     41  O   LIG d   1       6.944  -1.246  -5.099  0.00  0.00    -0.244 OA
BRANCH  40  42
ATOM     42  C   LIG d   1       5.432   0.161  -4.012  0.00  0.00     0.095 A 
ATOM     43  C   LIG d   1       4.115  -0.130  -4.386  0.00  0.00     0.137 A 
ATOM     44  C   LIG d   1       3.079   0.126  -3.505  0.00  0.00    -0.026 A 
ATOM     45  F   LIG d   1       3.856  -0.660  -5.601  0.00  0.00    -0.205 F 
ATOM     46  C   LIG d   1       3.344   0.667  -2.261  0.00  0.00    -0.059 A 
ATOM     47  H   LIG d   1       2.062  -0.098  -3.790  0.00  0.00     0.065 H 
ATOM     48  C   LIG d   1       4.645   0.958  -1.887  0.00  0.00    -0.061 A 
ATOM     49  H   LIG d   1       2.531   0.865  -1.578  0.00  0.00     0.062 H 
ATOM     50  C   LIG d   1       5.689   0.703  -2.751  0.00  0.00    -0.045 A 
ATOM     51  H   LIG d   1       4.844   1.380  -0.913  0.00  0.00     0.062 H 
ATOM     52  H   LIG d   1       6.703   0.926  -2.454  0.00  0.00     0.063 H 
ENDBRANCH  40  42
ENDBRANCH  39  40
ENDBRANCH   8  39
TORSDOF 10
ENDMDL
MODEL 9
REMARK VINA RESULT:      -6.5      6.895     12.735
REMARK  10 active torsions:
REMARK  status: ('A' for Active; 'I' for Inactive)
REMARK    1  A    between atoms: C_1  and  O_2 
REMARK    2  A    between atoms: O_2  and  C_3 
REMARK    3  A    between atoms: C_5  and  C_13 
REMARK    4  A    between atoms: C_6  and  O_11 
REMARK    5  A    between atoms: C_8  and  O_9 
REMARK    6  A    between atoms: O_9  and  C_10 
REMARK    7  A    between atoms: O_11  and  C_12 
REMARK    8  A    between atoms: C_20  and  O_24 
REMARK    9  A    between atoms: O_24  and  C_25 
REMARK   10  A    between atoms: C_25  and  C_27 
ROOT
ATOM      1  C   LIG d   1       2.469  -3.325 -11.708  0.00  0.00    -0.005 C 
ATOM      2  C   LIG d   1       2.891  -2.566 -10.662  0.00  0.00     0.176 A 
ATOM      3  C   LIG d   1       4.285  -2.350 -10.255  0.00  0.00     0.232 A 
ATOM      4  O   LIG d   1       5.292  -2.803 -10.771  0.00  0.00    -0.283 OA
ATOM      5  C   LIG d   1       4.196  -1.459  -9.083  0.00  0.00     0.068 A 
ATOM      6  C   LIG d   1       5.151  -0.887  -8.243  0.00  0.00    -0.044 A 
ATOM      7  C   LIG d   1       4.757  -0.089  -7.207  0.00  0.00    -0.018 A 
ATOM      8  C   LIG d   1       3.403   0.155  -6.987  0.00  0.00     0.136 A 
ATOM      9  C   LIG d   1       2.443  -0.408  -7.812  0.00  0.00     0.024 A 
ATOM     10  C   LIG d   1       2.828  -1.222  -8.870  0.00  0.00     0.143 A 
ATOM     11  O   LIG d   1       2.103  -1.878  -9.802  0.00  0.00    -0.451 OA
ATOM     12  H   LIG d   1       3.178  -3.926 -12.259  0.00  0.00     0.066 H 
ATOM     13  H   LIG d   1       6.201  -1.074  -8.413  0.00  0.00     0.063 H 
ATOM     14  H   LIG d   1       5.496   0.356  -6.557  0.00  0.00     0.065 H 
ATOM     15  H   LIG d   1       1.396  -0.213  -7.633  0.00  0.00     0.069 H 
ENDROOT
BRANCH   1  16
ATOM     16  C   LIG d   1       1.054  -3.327 -12.087  0.00  0.00     0.024 A 
ATOM     17  C   LIG d   1       0.585  -2.436 -13.063  0.00  0.00    -0.005 A 
ATOM     18  C   LIG d   1      -0.746  -2.446 -13.419  0.00  0.00     0.162 A 
ATOM     19  H   LIG d   1       1.268  -1.747 -13.539  0.00  0.00     0.066 H 
ATOM     20  C   LIG d   1      -1.630  -3.333 -12.803  0.00  0.00     0.165 A 
ATOM     21  C   LIG d   1      -1.176  -4.217 -11.836  0.00  0.00     0.026 A 
ATOM     22  C   LIG d   1       0.159  -4.221 -11.473  0.00  0.00     0.131 A 
ATOM     23  H   LIG d   1      -1.865  -4.902 -11.365  0.00  0.00     0.069 H 
BRANCH  18  24
ATOM     24  O   LIG d   1      -1.201  -1.586 -14.371  0.00  0.00    -0.491 OA
BRANCH  24  25
ATOM     25  C   LIG d   1      -0.998  -1.962 -15.734  0.00  0.00     0.079 C 
ATOM     26  H   LIG d   1      -0.698  -1.088 -16.312  0.00  0.00     0.066 H 
ATOM     27  H   LIG d   1      -0.216  -2.720 -15.790  0.00  0.00     0.066 H 
ATOM     28  H   LIG d   1      -1.925  -2.366 -16.143  0.00  0.00     0.066 H 
ENDBRANCH  24  25
ENDBRANCH  18  24
BRANCH  20  29
ATOM     29  O   LIG d   1      -2.942  -3.333 -13.155  0.00  0.00    -0.491 OA
BRANCH  29  30
ATOM     30  C   LIG d   1      -3.420  -4.472 -13.874  0.00  0.00     0.079 C 
ATOM     31  H   LIG d   1      -2.667  -5.259 -13.852  0.00  0.00     0.066 H 
ATOM     32  H   LIG d   1      -3.621  -4.191 -14.908  0.00  0.00     0.066 H 
ATOM     33  H   LIG d   1      -4.338  -4.835 -13.411  0.00  0.00     0.066 H 
ENDBRANCH  29  30
ENDBRANCH  20  29
BRANCH  22  34
ATOM     34  O   LIG d   1       0.605  -5.086 -10.526  0.00  0.00    -0.494 OA
BRANCH  34  35
ATOM     35  C   LIG d   1       0.159  -6.440 -10.625  0.00  0.00     0.079 C 
ATOM     36  H   LIG d   1       0.926  -7.041 -11.114  0.00  0.00     0.066 H 
ATOM     37  H   LIG d   1      -0.028  -6.835  -9.626  0.00  0.00     0.066 H 
ATOM     38  H   LIG d   1      -0.761  -6.478 -11.209  0.00  0.00     0.066 H 
ENDBRANCH  34  35
ENDBRANCH  22  34
ENDBRANCH   1  16
BRANCH   8  39
ATOM     39  O   LIG d   1       3.021   0.949  -5.954  0.00  0.00    -0.422 OA
BRANCH  39  40
ATOM     40  C   LIG d   1       2.406   0.350  -4.916  0.00  0.00     0.347 C 
ATOM     41  O   LIG d   1       1.203   0.179  -4.939  0.00  0.00    -0.244 OA
BRANCH  40  42
ATOM     42  C   LIG d   1       3.192  -0.096  -3.750  0.00  0.00     0.095 A 
ATOM     43  C   LIG d   1       3.741   0.843  -2.870  0.00  0.00     0.137 A 
ATOM     44  C   LIG d   1       4.476   0.414  -1.779  0.00  0.00    -0.026 A 
ATOM     45  F   LIG d   1       3.552   2.164  -3.083  0.00  0.00    -0.205 F 
ATOM     46  C   LIG d   1       4.669  -0.937  -1.560  0.00  0.00    -0.059 A 
ATOM     47  H   LIG d   1       4.901   1.137  -1.098  0.00  0.00     0.065 H 
ATOM     48  C   LIG d   1       4.129  -1.871  -2.429  0.00  0.00    -0.061 A 
ATOM     49  H   LIG d   1       5.244  -1.266  -0.707  0.00  0.00     0.062 H 
ATOM     50  C   LIG d   1       3.389  -1.460  -3.517  0.00  0.00    -0.045 A 
ATOM     51  H   LIG d   1       4.283  -2.925  -2.250  0.00  0.00     0.062 H 
ATOM     52  H   LIG d   1       2.965  -2.190  -4.190  0.00  0.00     0.063 H 
ENDBRANCH  40  42
ENDBRANCH  39  40
ENDBRANCH   8  39
TORSDOF 10
ENDMDL
MODEL 10
REMARK VINA RESULT:      -6.4      7.007     13.129
REMARK  10 active torsions:
REMARK  status: ('A' for Active; 'I' for Inactive)
REMARK    1  A    between atoms: C_1  and  O_2 
REMARK    2  A    between atoms: O_2  and  C_3 
REMARK    3  A    between atoms: C_5  and  C_13 
REMARK    4  A    between atoms: C_6  and  O_11 
REMARK    5  A    between atoms: C_8  and  O_9 
REMARK    6  A    between atoms: O_9  and  C_10 
REMARK    7  A    between atoms: O_11  and  C_12 
REMARK    8  A    between atoms: C_20  and  O_24 
REMARK    9  A    between atoms: O_24  and  C_25 
REMARK   10  A    between atoms: C_25  and  C_27 
ROOT
ATOM      1  C   LIG d   1       1.341  -3.348 -12.372  0.00  0.00    -0.005 C 
ATOM      2  C   LIG d   1       1.899  -2.393 -11.581  0.00  0.00     0.176 A 
ATOM      3  C   LIG d   1       2.719  -1.263 -12.034  0.00  0.00     0.232 A 
ATOM      4  O   LIG d   1       3.039  -0.983 -13.176  0.00  0.00    -0.283 OA
ATOM      5  C   LIG d   1       3.066  -0.538 -10.797  0.00  0.00     0.068 A 
ATOM      6  C   LIG d   1       3.814   0.612 -10.542  0.00  0.00    -0.044 A 
ATOM      7  C   LIG d   1       3.971   1.051  -9.258  0.00  0.00    -0.018 A 
ATOM      8  C   LIG d   1       3.387   0.354  -8.204  0.00  0.00     0.136 A 
ATOM      9  C   LIG d   1       2.642  -0.789  -8.442  0.00  0.00     0.024 A 
ATOM     10  C   LIG d   1       2.472  -1.249  -9.742  0.00  0.00     0.143 A 
ATOM     11  O   LIG d   1       1.806  -2.317 -10.232  0.00  0.00    -0.451 OA
ATOM     12  H   LIG d   1       1.576  -3.380 -13.427  0.00  0.00     0.066 H 
ATOM     13  H   LIG d   1       4.267   1.154 -11.359  0.00  0.00     0.063 H 
ATOM     14  H   LIG d   1       4.550   1.941  -9.061  0.00  0.00     0.065 H 
ATOM     15  H   LIG d   1       2.193  -1.323  -7.617  0.00  0.00     0.069 H 
ENDROOT
BRANCH   1  16
ATOM     16  C   LIG d   1       0.421  -4.331 -11.795  0.00  0.00     0.024 A 
ATOM     17  C   LIG d   1       0.918  -5.397 -11.031  0.00  0.00    -0.005 A 
ATOM     18  C   LIG d   1       0.047  -6.316 -10.487  0.00  0.00     0.162 A 
ATOM     19  H   LIG d   1       1.981  -5.494 -10.865  0.00  0.00     0.066 H 
ATOM     20  C   LIG d   1      -1.326  -6.195 -10.704  0.00  0.00     0.165 A 
ATOM     21  C   LIG d   1      -1.826  -5.145 -11.459  0.00  0.00     0.026 A 
ATOM     22  C   LIG d   1      -0.964  -4.212 -12.007  0.00  0.00     0.131 A 
ATOM     23  H   LIG d   1      -2.891  -5.056 -11.621  0.00  0.00     0.069 H 
BRANCH  18  24
ATOM     24  O   LIG d   1       0.528  -7.347  -9.741  0.00  0.00    -0.491 OA
BRANCH  24  25
ATOM     25  C   LIG d   1       1.506  -8.190 -10.353  0.00  0.00     0.079 C 
ATOM     26  H   LIG d   1       1.764  -7.794 -11.335  0.00  0.00     0.066 H 
ATOM     27  H   LIG d   1       2.400  -8.222  -9.728  0.00  0.00     0.066 H 
ATOM     28  H   LIG d   1       1.103  -9.197 -10.462  0.00  0.00     0.066 H 
ENDBRANCH  24  25
ENDBRANCH  18  24
BRANCH  20  29
ATOM     29  O   LIG d   1      -2.178  -7.108 -10.170  0.00  0.00    -0.491 OA
BRANCH  29  30
ATOM     30  C   LIG d   1      -3.086  -6.641  -9.171  0.00  0.00     0.079 C 
ATOM     31  H   LIG d   1      -2.646  -6.782  -8.184  0.00  0.00     0.066 H 
ATOM     32  H   LIG d   1      -4.019  -7.202  -9.236  0.00  0.00     0.066 H 
ATOM     33  H   LIG d   1      -3.288  -5.581  -9.330  0.00  0.00     0.066 H 
ENDBRANCH  29  30
ENDBRANCH  20  29
BRANCH  22  34
ATOM     34  O   LIG d   1      -1.453  -3.183 -12.746  0.00  0.00    -0.494 OA
BRANCH  34  35
ATOM     35  C   LIG d   1      -2.868  -3.142 -12.940  0.00  0.00     0.079 C 
ATOM     36  H   LIG d   1      -3.365  -3.635 -12.105  0.00  0.00     0.066 H 
ATOM     37  H   LIG d   1      -3.197  -2.103 -12.995  0.00  0.00     0.066 H 
ATOM     38  H   LIG d   1      -3.123  -3.653 -13.869  0.00  0.00     0.066 H 
ENDBRANCH  34  35
ENDBRANCH  22  34
ENDBRANCH   1  16
BRANCH   8  39
ATOM     39  O   LIG d   1       3.549   0.798  -6.931  0.00  0.00    -0.422 OA
BRANCH  39  40
ATOM     40  C   LIG d   1       4.501   0.199  -6.190  0.00  0.00     0.347 C 
ATOM     41  O   LIG d   1       5.662   0.235  -6.548  0.00  0.00    -0.244 OA
BRANCH  40  42
ATOM     42  C   LIG d   1       4.135  -0.502  -4.944  0.00  0.00     0.095 A 
ATOM     43  C   LIG d   1       3.255   0.095  -4.034  0.00  0.00     0.137 A 
ATOM     44  C   LIG d   1       2.918  -0.571  -2.869  0.00  0.00    -0.026 A 
ATOM     45  F   LIG d   1       2.737   1.315  -4.293  0.00  0.00    -0.205 F 
ATOM     46  C   LIG d   1       3.448  -1.819  -2.605  0.00  0.00    -0.059 A 
ATOM     47  H   LIG d   1       2.239  -0.112  -2.164  0.00  0.00     0.065 H 
ATOM     48  C   LIG d   1       4.320  -2.414  -3.502  0.00  0.00    -0.061 A 
ATOM     49  H   LIG d   1       3.181  -2.334  -1.693  0.00  0.00     0.062 H 
ATOM     50  C   LIG d   1       4.661  -1.766  -4.670  0.00  0.00    -0.045 A 
ATOM     51  H   LIG d   1       4.729  -3.390  -3.288  0.00  0.00     0.062 H 
ATOM     52  H   LIG d   1       5.337  -2.234  -5.370  0.00  0.00     0.063 H 
ENDBRANCH  40  42
ENDBRANCH  39  40
ENDBRANCH   8  39
TORSDOF 10
ENDMDL
