MODEL 1
REMARK VINA RESULT:      -7.6      0.000      0.000
REMARK  5 active torsions:
REMARK  status: ('A' for Active; 'I' for Inactive)
REMARK    1  A    between atoms: C_1  and  O_2 
REMARK    2  A    between atoms: O_2  and  C_3 
REMARK    3  A    between atoms: C_8  and  C_9 
REMARK       I    between atoms: C_9  and  N_11 
REMARK    4  A    between atoms: C_22  and  C_27 
REMARK    5  A    between atoms: C_31  and  C_33 
ROOT
ATOM      1  C   LIG d   1       7.044   1.542  -9.170  0.00  0.00     0.250 C 
ATOM      2  O   LIG d   1       5.920   1.991  -9.288  0.00  0.00    -0.270 OA
ATOM      3  N   LIG d   1       7.423   0.472  -9.897  0.00  0.00    -0.296 N 
ATOM      4  C   LIG d   1       8.807  -0.013  -9.853  0.00  0.00     0.019 C 
ATOM      5  C   LIG d   1       8.828  -1.512  -9.582  0.00  0.00    -0.006 C 
ATOM      6  H   LIG d   1       9.839  -1.875  -9.768  0.00  0.00     0.033 H 
ATOM      7  C   LIG d   1       7.889  -2.255 -10.533  0.00  0.00    -0.037 C 
ATOM      8  C   LIG d   1       6.472  -1.713 -10.335  0.00  0.00     0.016 C 
ATOM      9  H   LIG d   1       5.756  -2.279 -10.931  0.00  0.00     0.038 H 
ATOM     10  C   LIG d   1       6.457  -0.233 -10.754  0.00  0.00     0.023 C 
ATOM     11  C   LIG d   1       6.099  -1.781  -8.871  0.00  0.00     0.027 A 
ATOM     12  C   LIG d   1       4.773  -1.845  -8.572  0.00  0.00    -0.041 A 
ATOM     13  C   LIG d   1       4.336  -1.773  -7.248  0.00  0.00    -0.047 A 
ATOM     14  C   LIG d   1       5.281  -1.621  -6.244  0.00  0.00     0.047 A 
ATOM     15  C   LIG d   1       6.647  -1.574  -6.599  0.00  0.00     0.259 A 
ATOM     16  O   LIG d   1       7.489  -1.396  -5.735  0.00  0.00    -0.267 OA
ATOM     17  N   LIG d   1       7.030  -1.724  -7.891  0.00  0.00    -0.311 N 
ATOM     18  C   LIG d   1       8.467  -1.835  -8.145  0.00  0.00     0.031 C 
ATOM     19  H   LIG d   1       9.346   0.505  -9.061  0.00  0.00     0.047 H 
ATOM     20  H   LIG d   1       9.290   0.188 -10.809  0.00  0.00     0.047 H 
ATOM     21  H   LIG d   1       8.205  -2.090 -11.564  0.00  0.00     0.028 H 
ATOM     22  H   LIG d   1       7.909  -3.322 -10.309  0.00  0.00     0.028 H 
ATOM     23  H   LIG d   1       6.748  -0.141 -11.799  0.00  0.00     0.047 H 
ATOM     24  H   LIG d   1       5.459   0.183 -10.609  0.00  0.00     0.047 H 
ATOM     25  H   LIG d   1       4.050  -1.953  -9.367  0.00  0.00     0.064 H 
ATOM     26  H   LIG d   1       3.284  -1.834  -7.011  0.00  0.00     0.063 H 
ATOM     27  H   LIG d   1       8.788  -2.852  -7.920  0.00  0.00     0.050 H 
ATOM     28  H   LIG d   1       8.996  -1.146  -7.484  0.00  0.00     0.050 H 
ENDROOT
BRANCH   1  29
ATOM     29  C   LIG d   1       7.996   2.171  -8.233  0.00  0.00     0.078 A 
ATOM     30  C   LIG d   1       8.843   3.197  -8.674  0.00  0.00     0.132 A 
ATOM     31  C   LIG d   1       9.733   3.781  -7.784  0.00  0.00    -0.019 A 
ATOM     32  C   LIG d   1       9.784   3.353  -6.473  0.00  0.00    -0.058 A 
ATOM     33  H   LIG d   1      10.388   4.573  -8.119  0.00  0.00     0.065 H 
ATOM     34  C   LIG d   1       8.949   2.337  -6.035  0.00  0.00    -0.061 A 
ATOM     35  H   LIG d   1      10.479   3.811  -5.785  0.00  0.00     0.062 H 
ATOM     36  C   LIG d   1       8.055   1.749  -6.903  0.00  0.00    -0.046 A 
ATOM     37  H   LIG d   1       8.996   2.010  -5.007  0.00  0.00     0.062 H 
ATOM     38  H   LIG d   1       7.402   0.962  -6.556  0.00  0.00     0.063 H 
BRANCH  30  39
ATOM     39  O   LIG d   1       8.792   3.618  -9.962  0.00  0.00    -0.494 OA
BRANCH  39  40
ATOM     40  C   LIG d   1      10.008   3.567 -10.710  0.00  0.00     0.079 C 
ATOM     41  H   LIG d   1      10.360   4.580 -10.900  0.00  0.00     0.066 H 
ATOM     42  H   LIG d   1      10.762   3.021 -10.142  0.00  0.00     0.066 H 
ATOM     43  H   LIG d   1       9.830   3.059 -11.658  0.00  0.00     0.066 H 
ENDBRANCH  39  40
ENDBRANCH  30  39
ENDBRANCH   1  29
BRANCH  14  44
ATOM     44  C   LIG d   1       4.864  -1.511  -4.826  0.00  0.00    -0.012 A 
ATOM     45  C   LIG d   1       4.839  -0.265  -4.199  0.00  0.00    -0.042 A 
ATOM     46  C   LIG d   1       4.450  -0.170  -2.879  0.00  0.00     0.055 A 
ATOM     47  H   LIG d   1       5.123   0.622  -4.746  0.00  0.00     0.063 H 
ATOM     48  C   LIG d   1       4.084  -1.304  -2.178  0.00  0.00    -0.050 A 
ATOM     49  C   LIG d   1       4.108  -2.542  -2.795  0.00  0.00    -0.061 A 
ATOM     50  H   LIG d   1       3.780  -1.225  -1.145  0.00  0.00     0.062 H 
ATOM     51  C   LIG d   1       4.491  -2.651  -4.116  0.00  0.00    -0.054 A 
ATOM     52  H   LIG d   1       3.822  -3.425  -2.242  0.00  0.00     0.062 H 
ATOM     53  H   LIG d   1       4.505  -3.618  -4.598  0.00  0.00     0.062 H 
BRANCH  46  54
ATOM     54  C   LIG d   1       4.422   1.175  -2.199  0.00  0.00     0.417 C 
ATOM     55  F   LIG d   1       3.125   1.699  -2.255  0.00  0.00    -0.166 F 
ATOM     56  F   LIG d   1       4.809   1.031  -0.863  0.00  0.00    -0.166 F 
ATOM     57  F   LIG d   1       5.304   2.045  -2.850  0.00  0.00    -0.166 F 
ENDBRANCH  46  54
ENDBRANCH  14  44
TORSDOF 5
ENDMDL
MODEL 2
REMARK VINA RESULT:      -7.3      2.427      4.709
REMARK  5 active torsions:
REMARK  status: ('A' for Active; 'I' for Inactive)
REMARK    1  A    between atoms: C_1  and  O_2 
REMARK    2  A    between atoms: O_2  and  C_3 
REMARK    3  A    between atoms: C_8  and  C_9 
REMARK       I    between atoms: C_9  and  N_11 
REMARK    4  A    between atoms: C_22  and  C_27 
REMARK    5  A    between atoms: C_31  and  C_33 
ROOT
ATOM      1  C   LIG d   1       4.776  -2.876 -10.176  0.00  0.00     0.250 C 
ATOM      2  O   LIG d   1       4.737  -4.032  -9.802  0.00  0.00    -0.270 OA
ATOM      3  N   LIG d   1       5.948  -2.331 -10.559  0.00  0.00    -0.296 N 
ATOM      4  C   LIG d   1       5.998  -0.975 -11.118  0.00  0.00     0.019 C 
ATOM      5  C   LIG d   1       7.057  -0.151 -10.399  0.00  0.00    -0.006 C 
ATOM      6  H   LIG d   1       7.219   0.764 -10.970  0.00  0.00     0.033 H 
ATOM      7  C   LIG d   1       8.390  -0.898 -10.341  0.00  0.00    -0.037 C 
ATOM      8  C   LIG d   1       8.170  -2.219  -9.600  0.00  0.00     0.016 C 
ATOM      9  H   LIG d   1       9.116  -2.743  -9.457  0.00  0.00     0.038 H 
ATOM     10  C   LIG d   1       7.205  -3.084 -10.428  0.00  0.00     0.023 C 
ATOM     11  C   LIG d   1       7.517  -1.952  -8.263  0.00  0.00     0.027 A 
ATOM     12  C   LIG d   1       7.713  -2.876  -7.282  0.00  0.00    -0.041 A 
ATOM     13  C   LIG d   1       7.037  -2.778  -6.064  0.00  0.00    -0.047 A 
ATOM     14  C   LIG d   1       6.152  -1.726  -5.879  0.00  0.00     0.047 A 
ATOM     15  C   LIG d   1       5.992  -0.782  -6.916  0.00  0.00     0.259 A 
ATOM     16  O   LIG d   1       5.186   0.124  -6.789  0.00  0.00    -0.267 OA
ATOM     17  N   LIG d   1       6.726  -0.875  -8.053  0.00  0.00    -0.311 N 
ATOM     18  C   LIG d   1       6.622   0.237  -8.999  0.00  0.00     0.031 C 
ATOM     19  H   LIG d   1       5.026  -0.499 -10.998  0.00  0.00     0.047 H 
ATOM     20  H   LIG d   1       6.243  -1.032 -12.179  0.00  0.00     0.047 H 
ATOM     21  H   LIG d   1       8.743  -1.099 -11.353  0.00  0.00     0.028 H 
ATOM     22  H   LIG d   1       9.125  -0.296  -9.808  0.00  0.00     0.028 H 
ATOM     23  H   LIG d   1       7.630  -3.275 -11.412  0.00  0.00     0.047 H 
ATOM     24  H   LIG d   1       7.020  -4.029  -9.914  0.00  0.00     0.047 H 
ATOM     25  H   LIG d   1       8.397  -3.695  -7.448  0.00  0.00     0.064 H 
ATOM     26  H   LIG d   1       7.200  -3.506  -5.283  0.00  0.00     0.063 H 
ATOM     27  H   LIG d   1       7.248   1.057  -8.648  0.00  0.00     0.050 H 
ATOM     28  H   LIG d   1       5.586   0.577  -9.032  0.00  0.00     0.050 H 
ENDROOT
BRANCH   1  29
ATOM     29  C   LIG d   1       3.541  -2.068 -10.212  0.00  0.00     0.078 A 
ATOM     30  C   LIG d   1       2.782  -1.996 -11.387  0.00  0.00     0.132 A 
ATOM     31  C   LIG d   1       1.622  -1.235 -11.410  0.00  0.00    -0.019 A 
ATOM     32  C   LIG d   1       1.220  -0.552 -10.279  0.00  0.00    -0.058 A 
ATOM     33  H   LIG d   1       1.033  -1.176 -12.313  0.00  0.00     0.065 H 
ATOM     34  C   LIG d   1       1.970  -0.620  -9.116  0.00  0.00    -0.061 A 
ATOM     35  H   LIG d   1       0.317   0.040 -10.302  0.00  0.00     0.062 H 
ATOM     36  C   LIG d   1       3.122  -1.375  -9.074  0.00  0.00    -0.046 A 
ATOM     37  H   LIG d   1       1.647  -0.082  -8.237  0.00  0.00     0.062 H 
ATOM     38  H   LIG d   1       3.700  -1.430  -8.163  0.00  0.00     0.063 H 
BRANCH  30  39
ATOM     39  O   LIG d   1       3.177  -2.668 -12.497  0.00  0.00    -0.494 OA
BRANCH  39  40
ATOM     40  C   LIG d   1       3.146  -1.953 -13.733  0.00  0.00     0.079 C 
ATOM     41  H   LIG d   1       3.107  -0.883 -13.533  0.00  0.00     0.066 H 
ATOM     42  H   LIG d   1       4.043  -2.182 -14.308  0.00  0.00     0.066 H 
ATOM     43  H   LIG d   1       2.265  -2.249 -14.303  0.00  0.00     0.066 H 
ENDBRANCH  39  40
ENDBRANCH  30  39
ENDBRANCH   1  29
BRANCH  14  44
ATOM     44  C   LIG d   1       5.390  -1.595  -4.614  0.00  0.00    -0.012 A 
ATOM     45  C   LIG d   1       5.273  -0.351  -3.994  0.00  0.00    -0.042 A 
ATOM     46  C   LIG d   1       4.562  -0.236  -2.817  0.00  0.00     0.055 A 
ATOM     47  H   LIG d   1       5.738   0.519  -4.433  0.00  0.00     0.063 H 
ATOM     48  C   LIG d   1       3.965  -1.349  -2.253  0.00  0.00    -0.050 A 
ATOM     49  C   LIG d   1       4.079  -2.585  -2.865  0.00  0.00    -0.061 A 
ATOM     50  H   LIG d   1       3.409  -1.255  -1.332  0.00  0.00     0.062 H 
ATOM     51  C   LIG d   1       4.784  -2.713  -4.044  0.00  0.00    -0.054 A 
ATOM     52  H   LIG d   1       3.612  -3.452  -2.419  0.00  0.00     0.062 H 
ATOM     53  H   LIG d   1       4.868  -3.678  -4.523  0.00  0.00     0.062 H 
BRANCH  46  54
ATOM     54  C   LIG d   1       4.434   1.106  -2.144  0.00  0.00     0.417 C 
ATOM     55  F   LIG d   1       5.230   2.042  -2.815  0.00  0.00    -0.166 F 
ATOM     56  F   LIG d   1       3.098   1.521  -2.181  0.00  0.00    -0.166 F 
ATOM     57  F   LIG d   1       4.854   1.004  -0.814  0.00  0.00    -0.166 F 
ENDBRANCH  46  54
ENDBRANCH  14  44
TORSDOF 5
ENDMDL
MODEL 3
REMARK VINA RESULT:      -7.0      2.996      4.602
REMARK  5 active torsions:
REMARK  status: ('A' for Active; 'I' for Inactive)
REMARK    1  A    between atoms: C_1  and  O_2 
REMARK    2  A    between atoms: O_2  and  C_3 
REMARK    3  A    between atoms: C_8  and  C_9 
REMARK       I    between atoms: C_9  and  N_11 
REMARK    4  A    between atoms: C_22  and  C_27 
REMARK    5  A    between atoms: C_31  and  C_33 
ROOT
ATOM      1  C   LIG d   1       5.161  -0.986 -11.362  0.00  0.00     0.250 C 
ATOM      2  O   LIG d   1       5.259   0.226 -11.381  0.00  0.00    -0.270 OA
ATOM      3  N   LIG d   1       3.954  -1.567 -11.511  0.00  0.00    -0.296 N 
ATOM      4  C   LIG d   1       3.830  -3.027 -11.603  0.00  0.00     0.019 C 
ATOM      5  C   LIG d   1       2.777  -3.525 -10.623  0.00  0.00    -0.006 C 
ATOM      6  H   LIG d   1       2.556  -4.566 -10.864  0.00  0.00     0.033 H 
ATOM      7  C   LIG d   1       1.476  -2.734 -10.765  0.00  0.00    -0.037 C 
ATOM      8  C   LIG d   1       1.777  -1.258 -10.494  0.00  0.00     0.016 C 
ATOM      9  H   LIG d   1       0.858  -0.671 -10.497  0.00  0.00     0.038 H 
ATOM     10  C   LIG d   1       2.732  -0.751 -11.588  0.00  0.00     0.023 C 
ATOM     11  C   LIG d   1       2.481  -1.115  -9.165  0.00  0.00     0.027 A 
ATOM     12  C   LIG d   1       2.365   0.082  -8.527  0.00  0.00    -0.041 A 
ATOM     13  C   LIG d   1       3.093   0.345  -7.365  0.00  0.00    -0.047 A 
ATOM     14  C   LIG d   1       3.947  -0.634  -6.880  0.00  0.00     0.047 A 
ATOM     15  C   LIG d   1       4.025  -1.867  -7.565  0.00  0.00     0.259 A 
ATOM     16  O   LIG d   1       4.803  -2.724  -7.180  0.00  0.00    -0.267 OA
ATOM     17  N   LIG d   1       3.243  -2.107  -8.646  0.00  0.00    -0.311 N 
ATOM     18  C   LIG d   1       3.263  -3.466  -9.187  0.00  0.00     0.031 C 
ATOM     19  H   LIG d   1       4.789  -3.486 -11.368  0.00  0.00     0.047 H 
ATOM     20  H   LIG d   1       3.538  -3.299 -12.618  0.00  0.00     0.047 H 
ATOM     21  H   LIG d   1       1.084  -2.851 -11.776  0.00  0.00     0.028 H 
ATOM     22  H   LIG d   1       0.745  -3.099 -10.042  0.00  0.00     0.028 H 
ATOM     23  H   LIG d   1       2.269  -0.864 -12.567  0.00  0.00     0.047 H 
ATOM     24  H   LIG d   1       2.974   0.298 -11.410  0.00  0.00     0.047 H 
ATOM     25  H   LIG d   1       1.703   0.836  -8.924  0.00  0.00     0.064 H 
ATOM     26  H   LIG d   1       2.992   1.291  -6.854  0.00  0.00     0.063 H 
ATOM     27  H   LIG d   1       2.624  -4.100  -8.572  0.00  0.00     0.050 H 
ATOM     28  H   LIG d   1       4.284  -3.849  -9.144  0.00  0.00     0.050 H 
ENDROOT
BRANCH   1  29
ATOM     29  C   LIG d   1       6.363  -1.821 -11.177  0.00  0.00     0.078 A 
ATOM     30  C   LIG d   1       7.115  -2.228 -12.288  0.00  0.00     0.132 A 
ATOM     31  C   LIG d   1       8.244  -3.013 -12.102  0.00  0.00    -0.019 A 
ATOM     32  C   LIG d   1       8.623  -3.391 -10.830  0.00  0.00    -0.058 A 
ATOM     33  H   LIG d   1       8.827  -3.329 -12.955  0.00  0.00     0.065 H 
ATOM     34  C   LIG d   1       7.881  -2.992  -9.730  0.00  0.00    -0.061 A 
ATOM     35  H   LIG d   1       9.503  -4.002 -10.691  0.00  0.00     0.062 H 
ATOM     36  C   LIG d   1       6.760  -2.208  -9.895  0.00  0.00    -0.046 A 
ATOM     37  H   LIG d   1       8.186  -3.293  -8.739  0.00  0.00     0.062 H 
ATOM     38  H   LIG d   1       6.188  -1.894  -9.034  0.00  0.00     0.063 H 
BRANCH  30  39
ATOM     39  O   LIG d   1       6.742  -1.856 -13.537  0.00  0.00    -0.494 OA
BRANCH  39  40
ATOM     40  C   LIG d   1       7.548  -0.872 -14.189  0.00  0.00     0.079 C 
ATOM     41  H   LIG d   1       7.943  -1.284 -15.117  0.00  0.00     0.066 H 
ATOM     42  H   LIG d   1       6.942   0.006 -14.410  0.00  0.00     0.066 H 
ATOM     43  H   LIG d   1       8.374  -0.588 -13.536  0.00  0.00     0.066 H 
ENDBRANCH  39  40
ENDBRANCH  30  39
ENDBRANCH   1  29
BRANCH  14  44
ATOM     44  C   LIG d   1       4.762  -0.391  -5.667  0.00  0.00    -0.012 A 
ATOM     45  C   LIG d   1       4.145  -0.283  -4.420  0.00  0.00    -0.042 A 
ATOM     46  C   LIG d   1       4.909  -0.056  -3.294  0.00  0.00     0.055 A 
ATOM     47  H   LIG d   1       3.072  -0.375  -4.337  0.00  0.00     0.063 H 
ATOM     48  C   LIG d   1       6.284   0.060  -3.398  0.00  0.00    -0.050 A 
ATOM     49  C   LIG d   1       6.900  -0.046  -4.632  0.00  0.00    -0.061 A 
ATOM     50  H   LIG d   1       6.878   0.237  -2.514  0.00  0.00     0.062 H 
ATOM     51  C   LIG d   1       6.147  -0.277  -5.766  0.00  0.00    -0.054 A 
ATOM     52  H   LIG d   1       7.973   0.047  -4.708  0.00  0.00     0.062 H 
ATOM     53  H   LIG d   1       6.631  -0.364  -6.728  0.00  0.00     0.062 H 
BRANCH  46  54
ATOM     54  C   LIG d   1       4.246   0.061  -1.946  0.00  0.00     0.417 C 
ATOM     55  F   LIG d   1       4.794   1.143  -1.248  0.00  0.00    -0.166 F 
ATOM     56  F   LIG d   1       2.872   0.267  -2.119  0.00  0.00    -0.166 F 
ATOM     57  F   LIG d   1       4.453  -1.116  -1.219  0.00  0.00    -0.166 F 
ENDBRANCH  46  54
ENDBRANCH  14  44
TORSDOF 5
ENDMDL
MODEL 4
REMARK VINA RESULT:      -7.0      4.075      6.462
REMARK  5 active torsions:
REMARK  status: ('A' for Active; 'I' for Inactive)
REMARK    1  A    between atoms: C_1  and  O_2 
REMARK    2  A    between atoms: O_2  and  C_3 
REMARK    3  A    between atoms: C_8  and  C_9 
REMARK       I    between atoms: C_9  and  N_11 
REMARK    4  A    between atoms: C_22  and  C_27 
REMARK    5  A    between atoms: C_31  and  C_33 
ROOT
ATOM      1  C   LIG d   1       6.545  -0.106  -4.967  0.00  0.00     0.250 C 
ATOM      2  O   LIG d   1       6.683   0.744  -5.825  0.00  0.00    -0.270 OA
ATOM      3  N   LIG d   1       7.526  -1.003  -4.741  0.00  0.00    -0.296 N 
ATOM      4  C   LIG d   1       7.424  -1.963  -3.636  0.00  0.00     0.019 C 
ATOM      5  C   LIG d   1       7.695  -3.373  -4.142  0.00  0.00    -0.006 C 
ATOM      6  H   LIG d   1       7.826  -4.024  -3.277  0.00  0.00     0.033 H 
ATOM      7  C   LIG d   1       8.988  -3.426  -4.956  0.00  0.00    -0.037 C 
ATOM      8  C   LIG d   1       8.851  -2.468  -6.142  0.00  0.00     0.016 C 
ATOM      9  H   LIG d   1       9.718  -2.543  -6.799  0.00  0.00     0.038 H 
ATOM     10  C   LIG d   1       8.723  -1.036  -5.595  0.00  0.00     0.023 C 
ATOM     11  C   LIG d   1       7.588  -2.782  -6.910  0.00  0.00     0.027 A 
ATOM     12  C   LIG d   1       7.555  -2.424  -8.223  0.00  0.00    -0.041 A 
ATOM     13  C   LIG d   1       6.381  -2.552  -8.969  0.00  0.00    -0.047 A 
ATOM     14  C   LIG d   1       5.246  -3.041  -8.340  0.00  0.00     0.047 A 
ATOM     15  C   LIG d   1       5.329  -3.415  -6.981  0.00  0.00     0.259 A 
ATOM     16  O   LIG d   1       4.330  -3.805  -6.400  0.00  0.00    -0.267 OA
ATOM     17  N   LIG d   1       6.509  -3.344  -6.317  0.00  0.00    -0.311 N 
ATOM     18  C   LIG d   1       6.543  -3.912  -4.969  0.00  0.00     0.031 C 
ATOM     19  H   LIG d   1       6.423  -1.918  -3.209  0.00  0.00     0.047 H 
ATOM     20  H   LIG d   1       8.156  -1.708  -2.869  0.00  0.00     0.047 H 
ATOM     21  H   LIG d   1       9.828  -3.121  -4.332  0.00  0.00     0.028 H 
ATOM     22  H   LIG d   1       9.150  -4.441  -5.321  0.00  0.00     0.028 H 
ATOM     23  H   LIG d   1       9.606  -0.783  -5.010  0.00  0.00     0.047 H 
ATOM     24  H   LIG d   1       8.610  -0.333  -6.421  0.00  0.00     0.047 H 
ATOM     25  H   LIG d   1       8.446  -2.036  -8.693  0.00  0.00     0.064 H 
ATOM     26  H   LIG d   1       6.359  -2.277 -10.013  0.00  0.00     0.063 H 
ATOM     27  H   LIG d   1       6.638  -4.995  -5.044  0.00  0.00     0.050 H 
ATOM     28  H   LIG d   1       5.605  -3.676  -4.463  0.00  0.00     0.050 H 
ENDROOT
BRANCH   1  29
ATOM     29  C   LIG d   1       5.303  -0.156  -4.171  0.00  0.00     0.078 A 
ATOM     30  C   LIG d   1       4.071  -0.378  -4.801  0.00  0.00     0.132 A 
ATOM     31  C   LIG d   1       2.910  -0.423  -4.043  0.00  0.00    -0.019 A 
ATOM     32  C   LIG d   1       2.970  -0.250  -2.674  0.00  0.00    -0.058 A 
ATOM     33  H   LIG d   1       1.958  -0.595  -4.524  0.00  0.00     0.065 H 
ATOM     34  C   LIG d   1       4.186  -0.029  -2.048  0.00  0.00    -0.061 A 
ATOM     35  H   LIG d   1       2.063  -0.286  -2.089  0.00  0.00     0.062 H 
ATOM     36  C   LIG d   1       5.349   0.014  -2.785  0.00  0.00    -0.046 A 
ATOM     37  H   LIG d   1       4.222   0.104  -0.977  0.00  0.00     0.062 H 
ATOM     38  H   LIG d   1       6.296   0.181  -2.292  0.00  0.00     0.063 H 
BRANCH  30  39
ATOM     39  O   LIG d   1       4.014  -0.548  -6.145  0.00  0.00    -0.494 OA
BRANCH  39  40
ATOM     40  C   LIG d   1       3.035   0.212  -6.855  0.00  0.00     0.079 C 
ATOM     41  H   LIG d   1       3.078   1.252  -6.530  0.00  0.00     0.066 H 
ATOM     42  H   LIG d   1       3.236   0.158  -7.924  0.00  0.00     0.066 H 
ATOM     43  H   LIG d   1       2.043  -0.191  -6.651  0.00  0.00     0.066 H 
ENDBRANCH  39  40
ENDBRANCH  30  39
ENDBRANCH   1  29
BRANCH  14  44
ATOM     44  C   LIG d   1       3.969  -3.169  -9.082  0.00  0.00    -0.012 A 
ATOM     45  C   LIG d   1       3.358  -2.037  -9.623  0.00  0.00    -0.042 A 
ATOM     46  C   LIG d   1       2.169  -2.163 -10.312  0.00  0.00     0.055 A 
ATOM     47  H   LIG d   1       3.814  -1.066  -9.501  0.00  0.00     0.063 H 
ATOM     48  C   LIG d   1       1.585  -3.406 -10.470  0.00  0.00    -0.050 A 
ATOM     49  C   LIG d   1       2.187  -4.531  -9.935  0.00  0.00    -0.061 A 
ATOM     50  H   LIG d   1       0.655  -3.500 -11.011  0.00  0.00     0.062 H 
ATOM     51  C   LIG d   1       3.378  -4.420  -9.247  0.00  0.00    -0.054 A 
ATOM     52  H   LIG d   1       1.726  -5.500 -10.061  0.00  0.00     0.062 H 
ATOM     53  H   LIG d   1       3.849  -5.300  -8.834  0.00  0.00     0.062 H 
BRANCH  46  54
ATOM     54  C   LIG d   1       1.507  -0.942 -10.897  0.00  0.00     0.417 C 
ATOM     55  F   LIG d   1       0.910  -0.199  -9.873  0.00  0.00    -0.166 F 
ATOM     56  F   LIG d   1       2.467  -0.156 -11.544  0.00  0.00    -0.166 F 
ATOM     57  F   LIG d   1       0.530  -1.337 -11.817  0.00  0.00    -0.166 F 
ENDBRANCH  46  54
ENDBRANCH  14  44
TORSDOF 5
ENDMDL
MODEL 5
REMARK VINA RESULT:      -6.9      3.321      6.620
REMARK  5 active torsions:
REMARK  status: ('A' for Active; 'I' for Inactive)
REMARK    1  A    between atoms: C_1  and  O_2 
REMARK    2  A    between atoms: O_2  and  C_3 
REMARK    3  A    between atoms: C_8  and  C_9 
REMARK       I    between atoms: C_9  and  N_11 
REMARK    4  A    between atoms: C_22  and  C_27 
REMARK    5  A    between atoms: C_31  and  C_33 
ROOT
ATOM      1  C   LIG d   1       4.041  -0.431  -6.388  0.00  0.00     0.250 C 
ATOM      2  O   LIG d   1       3.551   0.681  -6.426  0.00  0.00    -0.270 OA
ATOM      3  N   LIG d   1       3.837  -1.222  -5.316  0.00  0.00    -0.296 N 
ATOM      4  C   LIG d   1       4.325  -2.606  -5.301  0.00  0.00     0.019 C 
ATOM      5  C   LIG d   1       5.112  -2.869  -4.024  0.00  0.00    -0.006 C 
ATOM      6  H   LIG d   1       5.273  -3.944  -3.941  0.00  0.00     0.033 H 
ATOM      7  C   LIG d   1       4.324  -2.425  -2.791  0.00  0.00    -0.037 C 
ATOM      8  C   LIG d   1       4.030  -0.928  -2.919  0.00  0.00     0.016 C 
ATOM      9  H   LIG d   1       3.547  -0.552  -2.017  0.00  0.00     0.038 H 
ATOM     10  C   LIG d   1       3.115  -0.717  -4.137  0.00  0.00     0.023 C 
ATOM     11  C   LIG d   1       5.316  -0.175  -3.173  0.00  0.00     0.027 A 
ATOM     12  C   LIG d   1       5.349   1.135  -2.806  0.00  0.00    -0.041 A 
ATOM     13  C   LIG d   1       6.445   1.939  -3.127  0.00  0.00    -0.047 A 
ATOM     14  C   LIG d   1       7.494   1.377  -3.840  0.00  0.00     0.047 A 
ATOM     15  C   LIG d   1       7.424   0.010  -4.187  0.00  0.00     0.259 A 
ATOM     16  O   LIG d   1       8.316  -0.490  -4.852  0.00  0.00    -0.267 OA
ATOM     17  N   LIG d   1       6.375  -0.751  -3.788  0.00  0.00    -0.311 N 
ATOM     18  C   LIG d   1       6.468  -2.189  -4.042  0.00  0.00     0.031 C 
ATOM     19  H   LIG d   1       4.969  -2.771  -6.164  0.00  0.00     0.047 H 
ATOM     20  H   LIG d   1       3.476  -3.288  -5.349  0.00  0.00     0.047 H 
ATOM     21  H   LIG d   1       3.387  -2.980  -2.735  0.00  0.00     0.028 H 
ATOM     22  H   LIG d   1       4.915  -2.608  -1.893  0.00  0.00     0.028 H 
ATOM     23  H   LIG d   1       2.186  -1.270  -4.003  0.00  0.00     0.047 H 
ATOM     24  H   LIG d   1       2.901   0.345  -4.260  0.00  0.00     0.047 H 
ATOM     25  H   LIG d   1       4.519   1.559  -2.260  0.00  0.00     0.064 H 
ATOM     26  H   LIG d   1       6.474   2.976  -2.827  0.00  0.00     0.063 H 
ATOM     27  H   LIG d   1       7.100  -2.642  -3.279  0.00  0.00     0.050 H 
ATOM     28  H   LIG d   1       6.929  -2.346  -5.018  0.00  0.00     0.050 H 
ENDROOT
BRANCH   1  29
ATOM     29  C   LIG d   1       4.860  -0.916  -7.516  0.00  0.00     0.078 A 
ATOM     30  C   LIG d   1       4.253  -1.573  -8.595  0.00  0.00     0.132 A 
ATOM     31  C   LIG d   1       5.032  -2.024  -9.650  0.00  0.00    -0.019 A 
ATOM     32  C   LIG d   1       6.398  -1.826  -9.637  0.00  0.00    -0.058 A 
ATOM     33  H   LIG d   1       4.568  -2.531 -10.484  0.00  0.00     0.065 H 
ATOM     34  C   LIG d   1       7.002  -1.178  -8.572  0.00  0.00    -0.061 A 
ATOM     35  H   LIG d   1       6.999  -2.179 -10.461  0.00  0.00     0.062 H 
ATOM     36  C   LIG d   1       6.242  -0.718  -7.517  0.00  0.00    -0.046 A 
ATOM     37  H   LIG d   1       8.071  -1.027  -8.571  0.00  0.00     0.062 H 
ATOM     38  H   LIG d   1       6.716  -0.208  -6.691  0.00  0.00     0.063 H 
BRANCH  30  39
ATOM     39  O   LIG d   1       2.911  -1.767  -8.607  0.00  0.00    -0.494 OA
BRANCH  39  40
ATOM     40  C   LIG d   1       2.147  -0.959  -9.505  0.00  0.00     0.079 C 
ATOM     41  H   LIG d   1       1.438  -0.357  -8.937  0.00  0.00     0.066 H 
ATOM     42  H   LIG d   1       2.815  -0.304 -10.063  0.00  0.00     0.066 H 
ATOM     43  H   LIG d   1       1.604  -1.601 -10.199  0.00  0.00     0.066 H 
ENDBRANCH  39  40
ENDBRANCH  30  39
ENDBRANCH   1  29
BRANCH  14  44
ATOM     44  C   LIG d   1       8.666   2.197  -4.229  0.00  0.00    -0.012 A 
ATOM     45  C   LIG d   1       8.700   2.820  -5.477  0.00  0.00    -0.042 A 
ATOM     46  C   LIG d   1       9.794   3.581  -5.833  0.00  0.00     0.055 A 
ATOM     47  H   LIG d   1       7.873   2.705  -6.162  0.00  0.00     0.063 H 
ATOM     48  C   LIG d   1      10.853   3.730  -4.956  0.00  0.00    -0.050 A 
ATOM     49  C   LIG d   1      10.824   3.114  -3.718  0.00  0.00    -0.061 A 
ATOM     50  H   LIG d   1      11.707   4.327  -5.239  0.00  0.00     0.062 H 
ATOM     51  C   LIG d   1       9.734   2.353  -3.347  0.00  0.00    -0.054 A 
ATOM     52  H   LIG d   1      11.655   3.232  -3.037  0.00  0.00     0.062 H 
ATOM     53  H   LIG d   1       9.711   1.876  -2.378  0.00  0.00     0.062 H 
BRANCH  46  54
ATOM     54  C   LIG d   1       9.834   4.255  -7.181  0.00  0.00     0.417 C 
ATOM     55  F   LIG d   1       9.520   5.610  -7.034  0.00  0.00    -0.166 F 
ATOM     56  F   LIG d   1      11.117   4.131  -7.727  0.00  0.00    -0.166 F 
ATOM     57  F   LIG d   1       8.904   3.650  -8.032  0.00  0.00    -0.166 F 
ENDBRANCH  46  54
ENDBRANCH  14  44
TORSDOF 5
ENDMDL
MODEL 6
REMARK VINA RESULT:      -6.9      2.896      5.470
REMARK  5 active torsions:
REMARK  status: ('A' for Active; 'I' for Inactive)
REMARK    1  A    between atoms: C_1  and  O_2 
REMARK    2  A    between atoms: O_2  and  C_3 
REMARK    3  A    between atoms: C_8  and  C_9 
REMARK       I    between atoms: C_9  and  N_11 
REMARK    4  A    between atoms: C_22  and  C_27 
REMARK    5  A    between atoms: C_31  and  C_33 
ROOT
ATOM      1  C   LIG d   1       3.829  -4.067  -8.648  0.00  0.00     0.250 C 
ATOM      2  O   LIG d   1       3.481  -4.710  -7.677  0.00  0.00    -0.270 OA
ATOM      3  N   LIG d   1       4.926  -4.434  -9.342  0.00  0.00    -0.296 N 
ATOM      4  C   LIG d   1       5.297  -3.739 -10.580  0.00  0.00     0.019 C 
ATOM      5  C   LIG d   1       6.761  -3.323 -10.528  0.00  0.00    -0.006 C 
ATOM      6  H   LIG d   1       7.060  -3.010 -11.528  0.00  0.00     0.033 H 
ATOM      7  C   LIG d   1       7.652  -4.499 -10.129  0.00  0.00    -0.037 C 
ATOM      8  C   LIG d   1       7.206  -4.998  -8.752  0.00  0.00     0.016 C 
ATOM      9  H   LIG d   1       7.875  -5.779  -8.390  0.00  0.00     0.038 H 
ATOM     10  C   LIG d   1       5.773  -5.542  -8.875  0.00  0.00     0.023 C 
ATOM     11  C   LIG d   1       7.178  -3.844  -7.775  0.00  0.00     0.027 A 
ATOM     12  C   LIG d   1       7.319  -4.146  -6.455  0.00  0.00    -0.041 A 
ATOM     13  C   LIG d   1       7.168  -3.161  -5.478  0.00  0.00    -0.047 A 
ATOM     14  C   LIG d   1       6.860  -1.870  -5.879  0.00  0.00     0.047 A 
ATOM     15  C   LIG d   1       6.737  -1.598  -7.259  0.00  0.00     0.259 A 
ATOM     16  O   LIG d   1       6.422  -0.479  -7.629  0.00  0.00    -0.267 OA
ATOM     17  N   LIG d   1       6.967  -2.569  -8.177  0.00  0.00    -0.311 N 
ATOM     18  C   LIG d   1       6.987  -2.159  -9.581  0.00  0.00     0.031 C 
ATOM     19  H   LIG d   1       4.673  -2.854 -10.699  0.00  0.00     0.047 H 
ATOM     20  H   LIG d   1       5.141  -4.407 -11.428  0.00  0.00     0.047 H 
ATOM     21  H   LIG d   1       7.552  -5.301 -10.860  0.00  0.00     0.028 H 
ATOM     22  H   LIG d   1       8.691  -4.172 -10.082  0.00  0.00     0.028 H 
ATOM     23  H   LIG d   1       5.748  -6.360  -9.594  0.00  0.00     0.047 H 
ATOM     24  H   LIG d   1       5.425  -5.892  -7.903  0.00  0.00     0.047 H 
ATOM     25  H   LIG d   1       7.550  -5.159  -6.160  0.00  0.00     0.064 H 
ATOM     26  H   LIG d   1       7.290  -3.400  -4.431  0.00  0.00     0.063 H 
ATOM     27  H   LIG d   1       7.954  -1.707  -9.802  0.00  0.00     0.050 H 
ATOM     28  H   LIG d   1       6.206  -1.415  -9.743  0.00  0.00     0.050 H 
ENDROOT
BRANCH   1  29
ATOM     29  C   LIG d   1       3.052  -2.886  -9.069  0.00  0.00     0.078 A 
ATOM     30  C   LIG d   1       2.032  -3.017 -10.021  0.00  0.00     0.132 A 
ATOM     31  C   LIG d   1       1.307  -1.900 -10.409  0.00  0.00    -0.019 A 
ATOM     32  C   LIG d   1       1.590  -0.665  -9.860  0.00  0.00    -0.058 A 
ATOM     33  H   LIG d   1       0.519  -1.996 -11.143  0.00  0.00     0.065 H 
ATOM     34  C   LIG d   1       2.599  -0.531  -8.920  0.00  0.00    -0.061 A 
ATOM     35  H   LIG d   1       1.023   0.201 -10.166  0.00  0.00     0.062 H 
ATOM     36  C   LIG d   1       3.326  -1.632  -8.519  0.00  0.00    -0.046 A 
ATOM     37  H   LIG d   1       2.812   0.438  -8.496  0.00  0.00     0.062 H 
ATOM     38  H   LIG d   1       4.107  -1.524  -7.781  0.00  0.00     0.063 H 
BRANCH  30  39
ATOM     39  O   LIG d   1       1.754  -4.230 -10.560  0.00  0.00    -0.494 OA
BRANCH  39  40
ATOM     40  C   LIG d   1       1.842  -4.345 -11.981  0.00  0.00     0.079 C 
ATOM     41  H   LIG d   1       2.640  -3.700 -12.349  0.00  0.00     0.066 H 
ATOM     42  H   LIG d   1       2.057  -5.379 -12.250  0.00  0.00     0.066 H 
ATOM     43  H   LIG d   1       0.895  -4.042 -12.430  0.00  0.00     0.066 H 
ENDBRANCH  39  40
ENDBRANCH  30  39
ENDBRANCH   1  29
BRANCH  14  44
ATOM     44  C   LIG d   1       6.662  -0.796  -4.877  0.00  0.00    -0.012 A 
ATOM     45  C   LIG d   1       5.621  -0.885  -3.952  0.00  0.00    -0.042 A 
ATOM     46  C   LIG d   1       5.442   0.119  -3.022  0.00  0.00     0.055 A 
ATOM     47  H   LIG d   1       4.957  -1.736  -3.965  0.00  0.00     0.063 H 
ATOM     48  C   LIG d   1       6.293   1.209  -3.003  0.00  0.00    -0.050 A 
ATOM     49  C   LIG d   1       7.326   1.302  -3.919  0.00  0.00    -0.061 A 
ATOM     50  H   LIG d   1       6.149   1.992  -2.273  0.00  0.00     0.062 H 
ATOM     51  C   LIG d   1       7.518   0.304  -4.852  0.00  0.00    -0.054 A 
ATOM     52  H   LIG d   1       7.986   2.157  -3.901  0.00  0.00     0.062 H 
ATOM     53  H   LIG d   1       8.328   0.376  -5.562  0.00  0.00     0.062 H 
BRANCH  46  54
ATOM     54  C   LIG d   1       4.319   0.025  -2.022  0.00  0.00     0.417 C 
ATOM     55  F   LIG d   1       3.092   0.072  -2.693  0.00  0.00    -0.166 F 
ATOM     56  F   LIG d   1       4.419  -1.180  -1.319  0.00  0.00    -0.166 F 
ATOM     57  F   LIG d   1       4.401   1.097  -1.126  0.00  0.00    -0.166 F 
ENDBRANCH  46  54
ENDBRANCH  14  44
TORSDOF 5
ENDMDL
MODEL 7
REMARK VINA RESULT:      -6.9      4.887      7.123
REMARK  5 active torsions:
REMARK  status: ('A' for Active; 'I' for Inactive)
REMARK    1  A    between atoms: C_1  and  O_2 
REMARK    2  A    between atoms: O_2  and  C_3 
REMARK    3  A    between atoms: C_8  and  C_9 
REMARK       I    between atoms: C_9  and  N_11 
REMARK    4  A    between atoms: C_22  and  C_27 
REMARK    5  A    between atoms: C_31  and  C_33 
ROOT
ATOM      1  C   LIG d   1       5.868  -0.524  -6.889  0.00  0.00     0.250 C 
ATOM      2  O   LIG d   1       6.980  -0.625  -7.370  0.00  0.00    -0.270 OA
ATOM      3  N   LIG d   1       5.724  -0.223  -5.583  0.00  0.00    -0.296 N 
ATOM      4  C   LIG d   1       4.394   0.014  -5.010  0.00  0.00     0.019 C 
ATOM      5  C   LIG d   1       4.209  -0.825  -3.753  0.00  0.00    -0.006 C 
ATOM      6  H   LIG d   1       3.315  -0.471  -3.238  0.00  0.00     0.033 H 
ATOM      7  C   LIG d   1       5.389  -0.650  -2.796  0.00  0.00    -0.037 C 
ATOM      8  C   LIG d   1       6.666  -1.079  -3.522  0.00  0.00     0.016 C 
ATOM      9  H   LIG d   1       7.520  -1.055  -2.845  0.00  0.00     0.038 H 
ATOM     10  C   LIG d   1       6.898  -0.120  -4.702  0.00  0.00     0.023 C 
ATOM     11  C   LIG d   1       6.490  -2.470  -4.087  0.00  0.00     0.027 A 
ATOM     12  C   LIG d   1       7.618  -3.204  -4.290  0.00  0.00    -0.041 A 
ATOM     13  C   LIG d   1       7.558  -4.442  -4.934  0.00  0.00    -0.047 A 
ATOM     14  C   LIG d   1       6.326  -4.903  -5.372  0.00  0.00     0.047 A 
ATOM     15  C   LIG d   1       5.180  -4.116  -5.126  0.00  0.00     0.259 A 
ATOM     16  O   LIG d   1       4.094  -4.483  -5.543  0.00  0.00    -0.267 OA
ATOM     17  N   LIG d   1       5.275  -2.956  -4.430  0.00  0.00    -0.311 N 
ATOM     18  C   LIG d   1       4.019  -2.295  -4.073  0.00  0.00     0.031 C 
ATOM     19  H   LIG d   1       3.633  -0.256  -5.740  0.00  0.00     0.047 H 
ATOM     20  H   LIG d   1       4.293   1.070  -4.758  0.00  0.00     0.047 H 
ATOM     21  H   LIG d   1       5.469   0.397  -2.499  0.00  0.00     0.028 H 
ATOM     22  H   LIG d   1       5.241  -1.272  -1.914  0.00  0.00     0.028 H 
ATOM     23  H   LIG d   1       7.002   0.900  -4.335  0.00  0.00     0.047 H 
ATOM     24  H   LIG d   1       7.797  -0.413  -5.246  0.00  0.00     0.047 H 
ATOM     25  H   LIG d   1       8.571  -2.825  -3.952  0.00  0.00     0.064 H 
ATOM     26  H   LIG d   1       8.453  -5.027  -5.087  0.00  0.00     0.063 H 
ATOM     27  H   LIG d   1       3.593  -2.794  -3.204  0.00  0.00     0.050 H 
ATOM     28  H   LIG d   1       3.322  -2.387  -4.908  0.00  0.00     0.050 H 
ENDROOT
BRANCH   1  29
ATOM     29  C   LIG d   1       4.676  -0.730  -7.734  0.00  0.00     0.078 A 
ATOM     30  C   LIG d   1       4.083   0.357  -8.391  0.00  0.00     0.132 A 
ATOM     31  C   LIG d   1       2.963   0.152  -9.183  0.00  0.00    -0.019 A 
ATOM     32  C   LIG d   1       2.435  -1.117  -9.322  0.00  0.00    -0.058 A 
ATOM     33  H   LIG d   1       2.503   0.986  -9.693  0.00  0.00     0.065 H 
ATOM     34  C   LIG d   1       3.017  -2.193  -8.671  0.00  0.00    -0.061 A 
ATOM     35  H   LIG d   1       1.563  -1.270  -9.939  0.00  0.00     0.062 H 
ATOM     36  C   LIG d   1       4.134  -2.008  -7.885  0.00  0.00    -0.046 A 
ATOM     37  H   LIG d   1       2.598  -3.180  -8.786  0.00  0.00     0.062 H 
ATOM     38  H   LIG d   1       4.588  -2.851  -7.384  0.00  0.00     0.063 H 
BRANCH  30  39
ATOM     39  O   LIG d   1       4.603   1.602  -8.255  0.00  0.00    -0.494 OA
BRANCH  39  40
ATOM     40  C   LIG d   1       4.208   2.579  -9.220  0.00  0.00     0.079 C 
ATOM     41  H   LIG d   1       3.715   2.084 -10.057  0.00  0.00     0.066 H 
ATOM     42  H   LIG d   1       3.520   3.287  -8.760  0.00  0.00     0.066 H 
ATOM     43  H   LIG d   1       5.089   3.110  -9.581  0.00  0.00     0.066 H 
ENDBRANCH  39  40
ENDBRANCH  30  39
ENDBRANCH   1  29
BRANCH  14  44
ATOM     44  C   LIG d   1       6.215  -6.197  -6.086  0.00  0.00    -0.012 A 
ATOM     45  C   LIG d   1       5.649  -7.301  -5.448  0.00  0.00    -0.042 A 
ATOM     46  C   LIG d   1       5.549  -8.503  -6.118  0.00  0.00     0.055 A 
ATOM     47  H   LIG d   1       5.291  -7.215  -4.433  0.00  0.00     0.063 H 
ATOM     48  C   LIG d   1       6.006  -8.615  -7.419  0.00  0.00    -0.050 A 
ATOM     49  C   LIG d   1       6.568  -7.523  -8.055  0.00  0.00    -0.061 A 
ATOM     50  H   LIG d   1       5.925  -9.557  -7.939  0.00  0.00     0.062 H 
ATOM     51  C   LIG d   1       6.671  -6.314  -7.398  0.00  0.00    -0.054 A 
ATOM     52  H   LIG d   1       6.925  -7.616  -9.071  0.00  0.00     0.062 H 
ATOM     53  H   LIG d   1       7.106  -5.461  -7.898  0.00  0.00     0.062 H 
BRANCH  46  54
ATOM     54  C   LIG d   1       4.938  -9.697  -5.431  0.00  0.00     0.417 C 
ATOM     55  F   LIG d   1       4.156  -9.266  -4.354  0.00  0.00    -0.166 F 
ATOM     56  F   LIG d   1       4.135 -10.397  -6.339  0.00  0.00    -0.166 F 
ATOM     57  F   LIG d   1       5.954 -10.537  -4.963  0.00  0.00    -0.166 F 
ENDBRANCH  46  54
ENDBRANCH  14  44
TORSDOF 5
ENDMDL
MODEL 8
REMARK VINA RESULT:      -6.8      4.358      7.280
REMARK  5 active torsions:
REMARK  status: ('A' for Active; 'I' for Inactive)
REMARK    1  A    between atoms: C_1  and  O_2 
REMARK    2  A    between atoms: O_2  and  C_3 
REMARK    3  A    between atoms: C_8  and  C_9 
REMARK       I    between atoms: C_9  and  N_11 
REMARK    4  A    between atoms: C_22  and  C_27 
REMARK    5  A    between atoms: C_31  and  C_33 
ROOT
ATOM      1  C   LIG d   1       5.281  -3.271  -4.380  0.00  0.00     0.250 C 
ATOM      2  O   LIG d   1       4.220  -3.841  -4.548  0.00  0.00    -0.270 OA
ATOM      3  N   LIG d   1       5.387  -2.306  -3.445  0.00  0.00    -0.296 N 
ATOM      4  C   LIG d   1       6.684  -1.686  -3.150  0.00  0.00     0.019 C 
ATOM      5  C   LIG d   1       6.559  -0.169  -3.187  0.00  0.00    -0.006 C 
ATOM      6  H   LIG d   1       7.467   0.256  -2.759  0.00  0.00     0.033 H 
ATOM      7  C   LIG d   1       5.382   0.307  -2.335  0.00  0.00    -0.037 C 
ATOM      8  C   LIG d   1       4.102  -0.332  -2.880  0.00  0.00     0.016 C 
ATOM      9  H   LIG d   1       3.227   0.053  -2.356  0.00  0.00     0.038 H 
ATOM     10  C   LIG d   1       4.204  -1.855  -2.694  0.00  0.00     0.023 C 
ATOM     11  C   LIG d   1       3.984  -0.055  -4.361  0.00  0.00     0.027 A 
ATOM     12  C   LIG d   1       2.733  -0.072  -4.897  0.00  0.00    -0.041 A 
ATOM     13  C   LIG d   1       2.545   0.037  -6.277  0.00  0.00    -0.047 A 
ATOM     14  C   LIG d   1       3.662   0.151  -7.091  0.00  0.00     0.047 A 
ATOM     15  C   LIG d   1       4.940   0.180  -6.492  0.00  0.00     0.259 A 
ATOM     16  O   LIG d   1       5.936   0.234  -7.194  0.00  0.00    -0.267 OA
ATOM     17  N   LIG d   1       5.070   0.147  -5.143  0.00  0.00    -0.311 N 
ATOM     18  C   LIG d   1       6.415   0.355  -4.604  0.00  0.00     0.031 C 
ATOM     19  H   LIG d   1       7.415  -2.008  -3.891  0.00  0.00     0.047 H 
ATOM     20  H   LIG d   1       7.015  -1.997  -2.159  0.00  0.00     0.047 H 
ATOM     21  H   LIG d   1       5.532   0.002  -1.299  0.00  0.00     0.028 H 
ATOM     22  H   LIG d   1       5.304   1.393  -2.392  0.00  0.00     0.028 H 
ATOM     23  H   LIG d   1       4.319  -2.093  -1.638  0.00  0.00     0.047 H 
ATOM     24  H   LIG d   1       3.308  -2.337  -3.088  0.00  0.00     0.047 H 
ATOM     25  H   LIG d   1       1.875  -0.171  -4.249  0.00  0.00     0.064 H 
ATOM     26  H   LIG d   1       1.551   0.033  -6.700  0.00  0.00     0.063 H 
ATOM     27  H   LIG d   1       6.637   1.422  -4.610  0.00  0.00     0.050 H 
ATOM     28  H   LIG d   1       7.135  -0.157  -5.245  0.00  0.00     0.050 H 
ENDROOT
BRANCH   1  29
ATOM     29  C   LIG d   1       6.453  -3.636  -5.199  0.00  0.00     0.078 A 
ATOM     30  C   LIG d   1       6.410  -3.494  -6.593  0.00  0.00     0.132 A 
ATOM     31  C   LIG d   1       7.518  -3.839  -7.352  0.00  0.00    -0.019 A 
ATOM     32  C   LIG d   1       8.657  -4.321  -6.737  0.00  0.00    -0.058 A 
ATOM     33  H   LIG d   1       7.490  -3.731  -8.427  0.00  0.00     0.065 H 
ATOM     34  C   LIG d   1       8.702  -4.464  -5.360  0.00  0.00    -0.061 A 
ATOM     35  H   LIG d   1       9.516  -4.588  -7.333  0.00  0.00     0.062 H 
ATOM     36  C   LIG d   1       7.612  -4.121  -4.589  0.00  0.00    -0.046 A 
ATOM     37  H   LIG d   1       9.597  -4.841  -4.888  0.00  0.00     0.062 H 
ATOM     38  H   LIG d   1       7.654  -4.228  -3.515  0.00  0.00     0.063 H 
BRANCH  30  39
ATOM     39  O   LIG d   1       5.292  -3.021  -7.195  0.00  0.00    -0.494 OA
BRANCH  39  40
ATOM     40  C   LIG d   1       5.231  -3.118  -8.619  0.00  0.00     0.079 C 
ATOM     41  H   LIG d   1       5.832  -3.965  -8.951  0.00  0.00     0.066 H 
ATOM     42  H   LIG d   1       4.197  -3.262  -8.931  0.00  0.00     0.066 H 
ATOM     43  H   LIG d   1       5.620  -2.201  -9.063  0.00  0.00     0.066 H 
ENDBRANCH  39  40
ENDBRANCH  30  39
ENDBRANCH   1  29
BRANCH  14  44
ATOM     44  C   LIG d   1       3.515   0.241  -8.563  0.00  0.00    -0.012 A 
ATOM     45  C   LIG d   1       2.659  -0.631  -9.236  0.00  0.00    -0.042 A 
ATOM     46  C   LIG d   1       2.528  -0.543 -10.607  0.00  0.00     0.055 A 
ATOM     47  H   LIG d   1       2.102  -1.374  -8.685  0.00  0.00     0.063 H 
ATOM     48  C   LIG d   1       3.240   0.410 -11.313  0.00  0.00    -0.050 A 
ATOM     49  C   LIG d   1       4.091   1.276 -10.651  0.00  0.00    -0.061 A 
ATOM     50  H   LIG d   1       3.133   0.476 -12.386  0.00  0.00     0.062 H 
ATOM     51  C   LIG d   1       4.228   1.201  -9.280  0.00  0.00    -0.054 A 
ATOM     52  H   LIG d   1       4.645   2.017 -11.208  0.00  0.00     0.062 H 
ATOM     53  H   LIG d   1       4.889   1.882  -8.764  0.00  0.00     0.062 H 
BRANCH  46  54
ATOM     54  C   LIG d   1       1.604  -1.484 -11.335  0.00  0.00     0.417 C 
ATOM     55  F   LIG d   1       0.497  -0.773 -11.813  0.00  0.00    -0.166 F 
ATOM     56  F   LIG d   1       2.283  -2.065 -12.411  0.00  0.00    -0.166 F 
ATOM     57  F   LIG d   1       1.172  -2.485 -10.459  0.00  0.00    -0.166 F 
ENDBRANCH  46  54
ENDBRANCH  14  44
TORSDOF 5
ENDMDL
MODEL 9
REMARK VINA RESULT:      -6.5      4.054      6.156
REMARK  5 active torsions:
REMARK  status: ('A' for Active; 'I' for Inactive)
REMARK    1  A    between atoms: C_1  and  O_2 
REMARK    2  A    between atoms: O_2  and  C_3 
REMARK    3  A    between atoms: C_8  and  C_9 
REMARK       I    between atoms: C_9  and  N_11 
REMARK    4  A    between atoms: C_22  and  C_27 
REMARK    5  A    between atoms: C_31  and  C_33 
ROOT
ATOM      1  C   LIG d   1       9.894   6.123  -4.623  0.00  0.00     0.250 C 
ATOM      2  O   LIG d   1       8.792   6.442  -5.025  0.00  0.00    -0.270 OA
ATOM      3  N   LIG d   1      10.875   5.838  -5.503  0.00  0.00    -0.296 N 
ATOM      4  C   LIG d   1      12.240   5.561  -5.040  0.00  0.00     0.019 C 
ATOM      5  C   LIG d   1      12.751   4.268  -5.660  0.00  0.00    -0.006 C 
ATOM      6  H   LIG d   1      13.823   4.203  -5.474  0.00  0.00     0.033 H 
ATOM      7  C   LIG d   1      12.546   4.266  -7.175  0.00  0.00    -0.037 C 
ATOM      8  C   LIG d   1      11.051   4.422  -7.461  0.00  0.00     0.016 C 
ATOM      9  H   LIG d   1      10.851   4.336  -8.529  0.00  0.00     0.038 H 
ATOM     10  C   LIG d   1      10.601   5.801  -6.948  0.00  0.00     0.023 C 
ATOM     11  C   LIG d   1      10.273   3.372  -6.700  0.00  0.00     0.027 A 
ATOM     12  C   LIG d   1       9.058   3.017  -7.201  0.00  0.00    -0.041 A 
ATOM     13  C   LIG d   1       8.217   2.158  -6.491  0.00  0.00    -0.047 A 
ATOM     14  C   LIG d   1       8.640   1.684  -5.258  0.00  0.00     0.047 A 
ATOM     15  C   LIG d   1       9.914   2.066  -4.784  0.00  0.00     0.259 A 
ATOM     16  O   LIG d   1      10.284   1.696  -3.682  0.00  0.00    -0.267 OA
ATOM     17  N   LIG d   1      10.728   2.841  -5.542  0.00  0.00    -0.311 N 
ATOM     18  C   LIG d   1      12.091   3.045  -5.050  0.00  0.00     0.031 C 
ATOM     19  H   LIG d   1      12.242   5.467  -3.954  0.00  0.00     0.047 H 
ATOM     20  H   LIG d   1      12.893   6.384  -5.331  0.00  0.00     0.047 H 
ATOM     21  H   LIG d   1      13.094   5.097  -7.620  0.00  0.00     0.028 H 
ATOM     22  H   LIG d   1      12.903   3.325  -7.592  0.00  0.00     0.028 H 
ATOM     23  H   LIG d   1      11.161   6.586  -7.454  0.00  0.00     0.047 H 
ATOM     24  H   LIG d   1       9.533   5.932  -7.126  0.00  0.00     0.047 H 
ATOM     25  H   LIG d   1       8.741   3.403  -8.158  0.00  0.00     0.064 H 
ATOM     26  H   LIG d   1       7.257   1.869  -6.894  0.00  0.00     0.063 H 
ATOM     27  H   LIG d   1      12.688   2.165  -5.289  0.00  0.00     0.050 H 
ATOM     28  H   LIG d   1      12.061   3.165  -3.965  0.00  0.00     0.050 H 
ENDROOT
BRANCH   1  29
ATOM     29  C   LIG d   1      10.159   6.050  -3.173  0.00  0.00     0.078 A 
ATOM     30  C   LIG d   1      10.223   7.223  -2.409  0.00  0.00     0.132 A 
ATOM     31  C   LIG d   1      10.472   7.142  -1.047  0.00  0.00    -0.019 A 
ATOM     32  C   LIG d   1      10.657   5.911  -0.449  0.00  0.00    -0.058 A 
ATOM     33  H   LIG d   1      10.521   8.043  -0.453  0.00  0.00     0.065 H 
ATOM     34  C   LIG d   1      10.597   4.750  -1.202  0.00  0.00    -0.061 A 
ATOM     35  H   LIG d   1      10.851   5.854   0.612  0.00  0.00     0.062 H 
ATOM     36  C   LIG d   1      10.345   4.811  -2.555  0.00  0.00    -0.046 A 
ATOM     37  H   LIG d   1      10.743   3.792  -0.724  0.00  0.00     0.062 H 
ATOM     38  H   LIG d   1      10.293   3.903  -3.137  0.00  0.00     0.063 H 
BRANCH  30  39
ATOM     39  O   LIG d   1      10.040   8.431  -2.997  0.00  0.00    -0.494 OA
BRANCH  39  40
ATOM     40  C   LIG d   1      11.169   9.304  -3.051  0.00  0.00     0.079 C 
ATOM     41  H   LIG d   1      11.013  10.051  -3.829  0.00  0.00     0.066 H 
ATOM     42  H   LIG d   1      11.291   9.801  -2.089  0.00  0.00     0.066 H 
ATOM     43  H   LIG d   1      12.065   8.725  -3.278  0.00  0.00     0.066 H 
ENDBRANCH  39  40
ENDBRANCH  30  39
ENDBRANCH   1  29
BRANCH  14  44
ATOM     44  C   LIG d   1       7.770   0.793  -4.454  0.00  0.00    -0.012 A 
ATOM     45  C   LIG d   1       6.668   1.316  -3.776  0.00  0.00    -0.042 A 
ATOM     46  C   LIG d   1       5.863   0.481  -3.029  0.00  0.00     0.055 A 
ATOM     47  H   LIG d   1       6.447   2.371  -3.836  0.00  0.00     0.063 H 
ATOM     48  C   LIG d   1       6.144  -0.871  -2.953  0.00  0.00    -0.050 A 
ATOM     49  C   LIG d   1       7.236  -1.394  -3.622  0.00  0.00    -0.061 A 
ATOM     50  H   LIG d   1       5.511  -1.521  -2.367  0.00  0.00     0.062 H 
ATOM     51  C   LIG d   1       8.048  -0.571  -4.376  0.00  0.00    -0.054 A 
ATOM     52  H   LIG d   1       7.452  -2.451  -3.558  0.00  0.00     0.062 H 
ATOM     53  H   LIG d   1       8.897  -0.982  -4.902  0.00  0.00     0.062 H 
BRANCH  46  54
ATOM     54  C   LIG d   1       4.672   1.043  -2.297  0.00  0.00     0.417 C 
ATOM     55  F   LIG d   1       5.029   1.325  -0.973  0.00  0.00    -0.166 F 
ATOM     56  F   LIG d   1       4.251   2.220  -2.925  0.00  0.00    -0.166 F 
ATOM     57  F   LIG d   1       3.632   0.108  -2.310  0.00  0.00    -0.166 F 
ENDBRANCH  46  54
ENDBRANCH  14  44
TORSDOF 5
ENDMDL
