MODEL 1
REMARK VINA RESULT:      -7.2      0.000      0.000
REMARK  3 active torsions:
REMARK  status: ('A' for Active; 'I' for Inactive)
REMARK    1  A    between atoms: C_1  and  C_2 
REMARK    2  A    between atoms: C_2  and  C_23 
REMARK    3  A    between atoms: N_7  and  O_8 
ROOT
ATOM      1  C   LIG d   1       9.441  -4.560  -5.699  0.00  0.00    -0.022 C 
ATOM      2  C   LIG d   1       8.848  -3.860  -4.476  0.00  0.00    -0.006 C 
ATOM      3  C   LIG d   1       7.353  -3.726  -4.645  0.00  0.00     0.032 A 
ATOM      4  C   LIG d   1       6.653  -4.662  -5.370  0.00  0.00     0.065 A 
ATOM      5  C   LIG d   1       5.186  -4.499  -5.517  0.00  0.00     0.117 A 
ATOM      6  N   LIG d   1       4.466  -5.368  -6.191  0.00  0.00    -0.087 NA
ATOM      7  C   LIG d   1       4.572  -3.330  -4.878  0.00  0.00    -0.008 A 
ATOM      8  C   LIG d   1       5.363  -2.474  -4.187  0.00  0.00     0.052 A 
ATOM      9  N   LIG d   1       6.723  -2.680  -4.066  0.00  0.00    -0.343 N 
ATOM     10  C   LIG d   1       7.519  -1.734  -3.266  0.00  0.00     0.028 C 
ATOM     11  C   LIG d   1       7.061  -0.304  -3.588  0.00  0.00    -0.009 C 
ATOM     12  C   LIG d   1       5.595  -0.198  -3.240  0.00  0.00    -0.037 A 
ATOM     13  C   LIG d   1       4.764  -1.282  -3.543  0.00  0.00     0.002 A 
ATOM     14  C   LIG d   1       3.408  -1.223  -3.239  0.00  0.00    -0.052 A 
ATOM     15  C   LIG d   1       2.895  -0.089  -2.637  0.00  0.00    -0.061 A 
ATOM     16  C   LIG d   1       3.724   0.978  -2.339  0.00  0.00    -0.061 A 
ATOM     17  C   LIG d   1       5.075   0.924  -2.641  0.00  0.00    -0.058 A 
ATOM     18  C   LIG d   1       7.299  -5.766  -5.973  0.00  0.00     0.168 C 
ATOM     19  O   LIG d   1       6.647  -6.579  -6.597  0.00  0.00    -0.292 OA
ATOM     20  C   LIG d   1       8.791  -5.939  -5.850  0.00  0.00     0.016 C 
ATOM     21  H   LIG d   1       9.060  -4.445  -3.583  0.00  0.00     0.033 H 
ATOM     22  H   LIG d   1       9.290  -2.869  -4.375  0.00  0.00     0.033 H 
ATOM     23  H   LIG d   1       3.509  -3.154  -4.958  0.00  0.00     0.066 H 
ATOM     24  H   LIG d   1       7.369  -1.936  -2.205  0.00  0.00     0.050 H 
ATOM     25  H   LIG d   1       8.575  -1.844  -3.515  0.00  0.00     0.050 H 
ATOM     26  H   LIG d   1       7.634   0.410  -2.996  0.00  0.00     0.033 H 
ATOM     27  H   LIG d   1       7.202  -0.101  -4.649  0.00  0.00     0.033 H 
ATOM     28  H   LIG d   1       2.761  -2.056  -3.471  0.00  0.00     0.062 H 
ATOM     29  H   LIG d   1       1.844  -0.036  -2.398  0.00  0.00     0.062 H 
ATOM     30  H   LIG d   1       3.314   1.860  -1.869  0.00  0.00     0.062 H 
ATOM     31  H   LIG d   1       5.717   1.760  -2.405  0.00  0.00     0.062 H 
ATOM     32  H   LIG d   1       9.177  -6.430  -6.742  0.00  0.00     0.035 H 
ATOM     33  H   LIG d   1       9.016  -6.546  -4.972  0.00  0.00     0.035 H 
ENDROOT
BRANCH   1  34
ATOM     34  C   LIG d   1      10.951  -4.724  -5.512  0.00  0.00    -0.059 C 
ATOM     35  H   LIG d   1      11.185  -4.744  -4.448  0.00  0.00     0.024 H 
ATOM     36  H   LIG d   1      11.276  -5.656  -5.974  0.00  0.00     0.024 H 
ATOM     37  H   LIG d   1      11.467  -3.886  -5.981  0.00  0.00     0.024 H 
ENDBRANCH   1  34
BRANCH   1  38
ATOM     38  C   LIG d   1       9.168  -3.727  -6.953  0.00  0.00    -0.059 C 
ATOM     39  H   LIG d   1       8.176  -3.282  -6.885  0.00  0.00     0.024 H 
ATOM     40  H   LIG d   1       9.915  -2.937  -7.033  0.00  0.00     0.024 H 
ATOM     41  H   LIG d   1       9.221  -4.368  -7.833  0.00  0.00     0.024 H 
ENDBRANCH   1  38
BRANCH   6  42
ATOM     42  O   LIG d   1       3.067  -5.184  -6.313  0.00  0.00    -0.409 OA
ATOM     43  H   LIG d   1       2.765  -4.297  -6.074  0.00  0.00     0.328 HD
ENDBRANCH   6  42
TORSDOF 3
ENDMDL
MODEL 2
REMARK VINA RESULT:      -6.6      3.877      5.998
REMARK  3 active torsions:
REMARK  status: ('A' for Active; 'I' for Inactive)
REMARK    1  A    between atoms: C_1  and  C_2 
REMARK    2  A    between atoms: C_2  and  C_23 
REMARK    3  A    between atoms: N_7  and  O_8 
ROOT
ATOM      1  C   LIG d   1       4.930   0.241  -2.875  0.00  0.00    -0.022 C 
ATOM      2  C   LIG d   1       3.860  -0.028  -3.934  0.00  0.00    -0.006 C 
ATOM      3  C   LIG d   1       4.465  -0.802  -5.081  0.00  0.00     0.032 A 
ATOM      4  C   LIG d   1       5.513  -1.664  -4.856  0.00  0.00     0.065 A 
ATOM      5  C   LIG d   1       6.085  -2.406  -6.005  0.00  0.00     0.117 A 
ATOM      6  N   LIG d   1       7.080  -3.250  -5.847  0.00  0.00    -0.087 NA
ATOM      7  C   LIG d   1       5.493  -2.161  -7.326  0.00  0.00    -0.008 A 
ATOM      8  C   LIG d   1       4.461  -1.289  -7.427  0.00  0.00     0.052 A 
ATOM      9  N   LIG d   1       3.954  -0.635  -6.320  0.00  0.00    -0.343 N 
ATOM     10  C   LIG d   1       2.805   0.270  -6.492  0.00  0.00     0.028 C 
ATOM     11  C   LIG d   1       3.023   1.112  -7.758  0.00  0.00    -0.009 C 
ATOM     12  C   LIG d   1       3.139   0.168  -8.930  0.00  0.00    -0.037 A 
ATOM     13  C   LIG d   1       3.857  -1.021  -8.751  0.00  0.00     0.002 A 
ATOM     14  C   LIG d   1       3.988  -1.917  -9.806  0.00  0.00    -0.052 A 
ATOM     15  C   LIG d   1       3.404  -1.622 -11.025  0.00  0.00    -0.061 A 
ATOM     16  C   LIG d   1       2.696  -0.447 -11.193  0.00  0.00    -0.061 A 
ATOM     17  C   LIG d   1       2.563   0.450 -10.144  0.00  0.00    -0.058 A 
ATOM     18  C   LIG d   1       6.051  -1.854  -3.562  0.00  0.00     0.168 C 
ATOM     19  O   LIG d   1       6.968  -2.632  -3.399  0.00  0.00    -0.292 OA
ATOM     20  C   LIG d   1       5.495  -1.095  -2.384  0.00  0.00     0.016 C 
ATOM     21  H   LIG d   1       3.050  -0.608  -3.493  0.00  0.00     0.033 H 
ATOM     22  H   LIG d   1       3.468   0.920  -4.304  0.00  0.00     0.033 H 
ATOM     23  H   LIG d   1       5.873  -2.667  -8.201  0.00  0.00     0.066 H 
ATOM     24  H   LIG d   1       1.891  -0.316  -6.596  0.00  0.00     0.050 H 
ATOM     25  H   LIG d   1       2.724   0.926  -5.625  0.00  0.00     0.050 H 
ATOM     26  H   LIG d   1       2.174   1.782  -7.906  0.00  0.00     0.033 H 
ATOM     27  H   LIG d   1       3.939   1.694  -7.661  0.00  0.00     0.033 H 
ATOM     28  H   LIG d   1       4.541  -2.835  -9.676  0.00  0.00     0.062 H 
ATOM     29  H   LIG d   1       3.502  -2.314 -11.848  0.00  0.00     0.062 H 
ATOM     30  H   LIG d   1       2.243  -0.225 -12.149  0.00  0.00     0.062 H 
ATOM     31  H   LIG d   1       2.007   1.366 -10.282  0.00  0.00     0.062 H 
ATOM     32  H   LIG d   1       6.287  -0.914  -1.660  0.00  0.00     0.035 H 
ATOM     33  H   LIG d   1       4.700  -1.678  -1.919  0.00  0.00     0.035 H 
ENDROOT
BRANCH   1  34
ATOM     34  C   LIG d   1       4.307   0.997  -1.699  0.00  0.00    -0.059 C 
ATOM     35  H   LIG d   1       3.298   1.311  -1.964  0.00  0.00     0.024 H 
ATOM     36  H   LIG d   1       4.269   0.344  -0.827  0.00  0.00     0.024 H 
ATOM     37  H   LIG d   1       4.912   1.874  -1.471  0.00  0.00     0.024 H 
ENDBRANCH   1  34
BRANCH   1  38
ATOM     38  C   LIG d   1       6.056   1.079  -3.483  0.00  0.00    -0.059 C 
ATOM     39  H   LIG d   1       5.868   1.226  -4.546  0.00  0.00     0.024 H 
ATOM     40  H   LIG d   1       6.097   2.048  -2.985  0.00  0.00     0.024 H 
ATOM     41  H   LIG d   1       7.006   0.562  -3.349  0.00  0.00     0.024 H 
ENDBRANCH   1  38
BRANCH   6  42
ATOM     42  O   LIG d   1       7.604  -3.944  -6.966  0.00  0.00    -0.409 OA
ATOM     43  H   LIG d   1       8.266  -3.445  -7.463  0.00  0.00     0.328 HD
ENDBRANCH   6  42
TORSDOF 3
ENDMDL
MODEL 3
REMARK VINA RESULT:      -6.6      3.605      4.554
REMARK  3 active torsions:
REMARK  status: ('A' for Active; 'I' for Inactive)
REMARK    1  A    between atoms: C_1  and  C_2 
REMARK    2  A    between atoms: C_2  and  C_23 
REMARK    3  A    between atoms: N_7  and  O_8 
ROOT
ATOM      1  C   LIG d   1       5.307  -3.932  -8.947  0.00  0.00    -0.022 C 
ATOM      2  C   LIG d   1       4.771  -3.820  -7.519  0.00  0.00    -0.006 C 
ATOM      3  C   LIG d   1       4.303  -2.407  -7.263  0.00  0.00     0.032 A 
ATOM      4  C   LIG d   1       3.811  -1.644  -8.297  0.00  0.00     0.065 A 
ATOM      5  C   LIG d   1       3.362  -0.260  -8.010  0.00  0.00     0.117 A 
ATOM      6  N   LIG d   1       2.875   0.510  -8.957  0.00  0.00    -0.087 NA
ATOM      7  C   LIG d   1       3.482   0.213  -6.626  0.00  0.00    -0.008 A 
ATOM      8  C   LIG d   1       3.981  -0.630  -5.690  0.00  0.00     0.052 A 
ATOM      9  N   LIG d   1       4.370  -1.917  -6.006  0.00  0.00    -0.343 N 
ATOM     10  C   LIG d   1       4.866  -2.795  -4.933  0.00  0.00     0.028 C 
ATOM     11  C   LIG d   1       5.807  -1.988  -4.027  0.00  0.00    -0.009 C 
ATOM     12  C   LIG d   1       5.022  -0.834  -3.453  0.00  0.00    -0.037 A 
ATOM     13  C   LIG d   1       4.119  -0.168  -4.290  0.00  0.00     0.002 A 
ATOM     14  C   LIG d   1       3.377   0.901  -3.799  0.00  0.00    -0.052 A 
ATOM     15  C   LIG d   1       3.540   1.294  -2.483  0.00  0.00    -0.061 A 
ATOM     16  C   LIG d   1       4.433   0.631  -1.662  0.00  0.00    -0.061 A 
ATOM     17  C   LIG d   1       5.175  -0.435  -2.147  0.00  0.00    -0.058 A 
ATOM     18  C   LIG d   1       3.728  -2.149  -9.615  0.00  0.00     0.168 C 
ATOM     19  O   LIG d   1       3.278  -1.451 -10.500  0.00  0.00    -0.292 OA
ATOM     20  C   LIG d   1       4.196  -3.547  -9.929  0.00  0.00     0.016 C 
ATOM     21  H   LIG d   1       3.937  -4.507  -7.388  0.00  0.00     0.033 H 
ATOM     22  H   LIG d   1       5.563  -4.072  -6.813  0.00  0.00     0.033 H 
ATOM     23  H   LIG d   1       3.178   1.215  -6.359  0.00  0.00     0.066 H 
ATOM     24  H   LIG d   1       4.025  -3.167  -4.348  0.00  0.00     0.050 H 
ATOM     25  H   LIG d   1       5.409  -3.634  -5.369  0.00  0.00     0.050 H 
ATOM     26  H   LIG d   1       6.176  -2.622  -3.220  0.00  0.00     0.033 H 
ATOM     27  H   LIG d   1       6.646  -1.609  -4.611  0.00  0.00     0.033 H 
ATOM     28  H   LIG d   1       2.679   1.419  -4.439  0.00  0.00     0.062 H 
ATOM     29  H   LIG d   1       2.967   2.123  -2.096  0.00  0.00     0.062 H 
ATOM     30  H   LIG d   1       4.554   0.946  -0.636  0.00  0.00     0.062 H 
ATOM     31  H   LIG d   1       5.871  -0.949  -1.500  0.00  0.00     0.062 H 
ATOM     32  H   LIG d   1       4.580  -3.583 -10.948  0.00  0.00     0.035 H 
ATOM     33  H   LIG d   1       3.362  -4.241  -9.827  0.00  0.00     0.035 H 
ENDROOT
BRANCH   1  34
ATOM     34  C   LIG d   1       5.751  -5.372  -9.215  0.00  0.00    -0.059 C 
ATOM     35  H   LIG d   1       6.667  -5.578  -8.661  0.00  0.00     0.024 H 
ATOM     36  H   LIG d   1       4.969  -6.059  -8.894  0.00  0.00     0.024 H 
ATOM     37  H   LIG d   1       5.935  -5.502 -10.282  0.00  0.00     0.024 H 
ENDBRANCH   1  34
BRANCH   1  38
ATOM     38  C   LIG d   1       6.497  -2.988  -9.126  0.00  0.00    -0.059 C 
ATOM     39  H   LIG d   1       6.339  -2.086  -8.535  0.00  0.00     0.024 H 
ATOM     40  H   LIG d   1       7.408  -3.485  -8.794  0.00  0.00     0.024 H 
ATOM     41  H   LIG d   1       6.593  -2.720 -10.179  0.00  0.00     0.024 H 
ENDBRANCH   1  38
BRANCH   6  42
ATOM     42  O   LIG d   1       2.454   1.828  -8.651  0.00  0.00    -0.409 OA
ATOM     43  H   LIG d   1       1.771   2.170  -9.244  0.00  0.00     0.328 HD
ENDBRANCH   6  42
TORSDOF 3
ENDMDL
MODEL 4
REMARK VINA RESULT:      -6.4      4.288      5.613
REMARK  3 active torsions:
REMARK  status: ('A' for Active; 'I' for Inactive)
REMARK    1  A    between atoms: C_1  and  C_2 
REMARK    2  A    between atoms: C_2  and  C_23 
REMARK    3  A    between atoms: N_7  and  O_8 
ROOT
ATOM      1  C   LIG d   1      11.341  -1.300  -6.343  0.00  0.00    -0.022 C 
ATOM      2  C   LIG d   1       9.812  -1.345  -6.316  0.00  0.00    -0.006 C 
ATOM      3  C   LIG d   1       9.288  -0.242  -5.427  0.00  0.00     0.032 A 
ATOM      4  C   LIG d   1       9.993   0.931  -5.293  0.00  0.00     0.065 A 
ATOM      5  C   LIG d   1       9.451   1.992  -4.410  0.00  0.00     0.117 A 
ATOM      6  N   LIG d   1      10.077   3.136  -4.252  0.00  0.00    -0.087 NA
ATOM      7  C   LIG d   1       8.185   1.712  -3.722  0.00  0.00    -0.008 A 
ATOM      8  C   LIG d   1       7.578   0.519  -3.932  0.00  0.00     0.052 A 
ATOM      9  N   LIG d   1       8.118  -0.430  -4.779  0.00  0.00    -0.343 N 
ATOM     10  C   LIG d   1       7.387  -1.690  -4.995  0.00  0.00     0.028 C 
ATOM     11  C   LIG d   1       6.849  -2.189  -3.646  0.00  0.00    -0.009 C 
ATOM     12  C   LIG d   1       5.931  -1.127  -3.091  0.00  0.00    -0.037 A 
ATOM     13  C   LIG d   1       6.305   0.214  -3.240  0.00  0.00     0.002 A 
ATOM     14  C   LIG d   1       5.487   1.222  -2.742  0.00  0.00    -0.052 A 
ATOM     15  C   LIG d   1       4.307   0.887  -2.103  0.00  0.00    -0.061 A 
ATOM     16  C   LIG d   1       3.943  -0.440  -1.962  0.00  0.00    -0.061 A 
ATOM     17  C   LIG d   1       4.756  -1.448  -2.456  0.00  0.00    -0.058 A 
ATOM     18  C   LIG d   1      11.215   1.142  -5.973  0.00  0.00     0.168 C 
ATOM     19  O   LIG d   1      11.804   2.195  -5.839  0.00  0.00    -0.292 OA
ATOM     20  C   LIG d   1      11.791   0.069  -6.861  0.00  0.00     0.016 C 
ATOM     21  H   LIG d   1       9.426  -1.210  -7.326  0.00  0.00     0.033 H 
ATOM     22  H   LIG d   1       9.484  -2.309  -5.929  0.00  0.00     0.033 H 
ATOM     23  H   LIG d   1       7.746   2.443  -3.059  0.00  0.00     0.066 H 
ATOM     24  H   LIG d   1       6.555  -1.517  -5.679  0.00  0.00     0.050 H 
ATOM     25  H   LIG d   1       8.061  -2.435  -5.418  0.00  0.00     0.050 H 
ATOM     26  H   LIG d   1       6.295  -3.117  -3.790  0.00  0.00     0.033 H 
ATOM     27  H   LIG d   1       7.677  -2.356  -2.958  0.00  0.00     0.033 H 
ATOM     28  H   LIG d   1       5.771   2.257  -2.852  0.00  0.00     0.062 H 
ATOM     29  H   LIG d   1       3.667   1.664  -1.714  0.00  0.00     0.062 H 
ATOM     30  H   LIG d   1       3.020  -0.692  -1.461  0.00  0.00     0.062 H 
ATOM     31  H   LIG d   1       4.465  -2.483  -2.342  0.00  0.00     0.062 H 
ATOM     32  H   LIG d   1      12.879   0.127  -6.844  0.00  0.00     0.035 H 
ATOM     33  H   LIG d   1      11.433   0.210  -7.881  0.00  0.00     0.035 H 
ENDROOT
BRANCH   1  34
ATOM     34  C   LIG d   1      11.868  -2.397  -7.270  0.00  0.00    -0.059 C 
ATOM     35  H   LIG d   1      11.212  -2.488  -8.135  0.00  0.00     0.024 H 
ATOM     36  H   LIG d   1      12.874  -2.140  -7.601  0.00  0.00     0.024 H 
ATOM     37  H   LIG d   1      11.893  -3.345  -6.732  0.00  0.00     0.024 H 
ENDBRANCH   1  34
BRANCH   1  38
ATOM     38  C   LIG d   1      11.886  -1.517  -4.931  0.00  0.00    -0.059 C 
ATOM     39  H   LIG d   1      11.057  -1.603  -4.229  0.00  0.00     0.024 H 
ATOM     40  H   LIG d   1      12.479  -2.432  -4.907  0.00  0.00     0.024 H 
ATOM     41  H   LIG d   1      12.514  -0.671  -4.649  0.00  0.00     0.024 H 
ENDBRANCH   1  38
BRANCH   6  42
ATOM     42  O   LIG d   1       9.533   4.129  -3.401  0.00  0.00    -0.409 OA
ATOM     43  H   LIG d   1       8.817   3.811  -2.833  0.00  0.00     0.328 HD
ENDBRANCH   6  42
TORSDOF 3
ENDMDL
MODEL 5
REMARK VINA RESULT:      -6.3      4.249      5.113
REMARK  3 active torsions:
REMARK  status: ('A' for Active; 'I' for Inactive)
REMARK    1  A    between atoms: C_1  and  C_2 
REMARK    2  A    between atoms: C_2  and  C_23 
REMARK    3  A    between atoms: N_7  and  O_8 
ROOT
ATOM      1  C   LIG d   1       7.750  -2.779  -4.394  0.00  0.00    -0.022 C 
ATOM      2  C   LIG d   1       7.721  -1.609  -5.380  0.00  0.00    -0.006 C 
ATOM      3  C   LIG d   1       6.298  -1.138  -5.565  0.00  0.00     0.032 A 
ATOM      4  C   LIG d   1       5.391  -1.259  -4.539  0.00  0.00     0.065 A 
ATOM      5  C   LIG d   1       4.002  -0.788  -4.756  0.00  0.00     0.117 A 
ATOM      6  N   LIG d   1       3.096  -0.870  -3.807  0.00  0.00    -0.087 NA
ATOM      7  C   LIG d   1       3.681  -0.224  -6.072  0.00  0.00    -0.008 A 
ATOM      8  C   LIG d   1       4.659  -0.154  -7.008  0.00  0.00     0.052 A 
ATOM      9  N   LIG d   1       5.943  -0.593  -6.749  0.00  0.00    -0.343 N 
ATOM     10  C   LIG d   1       6.968  -0.451  -7.796  0.00  0.00     0.028 C 
ATOM     11  C   LIG d   1       6.357  -0.851  -9.147  0.00  0.00    -0.009 C 
ATOM     12  C   LIG d   1       5.188   0.064  -9.417  0.00  0.00    -0.037 A 
ATOM     13  C   LIG d   1       4.352   0.402  -8.345  0.00  0.00     0.002 A 
ATOM     14  C   LIG d   1       3.264   1.243  -8.553  0.00  0.00    -0.052 A 
ATOM     15  C   LIG d   1       3.020   1.738  -9.820  0.00  0.00    -0.061 A 
ATOM     16  C   LIG d   1       3.851   1.401 -10.873  0.00  0.00    -0.061 A 
ATOM     17  C   LIG d   1       4.936   0.563 -10.672  0.00  0.00    -0.058 A 
ATOM     18  C   LIG d   1       5.754  -1.820  -3.293  0.00  0.00     0.168 C 
ATOM     19  O   LIG d   1       4.929  -1.900  -2.405  0.00  0.00    -0.292 OA
ATOM     20  C   LIG d   1       7.156  -2.321  -3.059  0.00  0.00     0.016 C 
ATOM     21  H   LIG d   1       8.326  -0.791  -4.991  0.00  0.00     0.033 H 
ATOM     22  H   LIG d   1       8.123  -1.934  -6.340  0.00  0.00     0.033 H 
ATOM     23  H   LIG d   1       2.684   0.128  -6.292  0.00  0.00     0.066 H 
ATOM     24  H   LIG d   1       7.305   0.586  -7.840  0.00  0.00     0.050 H 
ATOM     25  H   LIG d   1       7.814  -1.101  -7.570  0.00  0.00     0.050 H 
ATOM     26  H   LIG d   1       7.102  -0.742  -9.936  0.00  0.00     0.033 H 
ATOM     27  H   LIG d   1       6.014  -1.884  -9.104  0.00  0.00     0.033 H 
ATOM     28  H   LIG d   1       2.615   1.506  -7.731  0.00  0.00     0.062 H 
ATOM     29  H   LIG d   1       2.177   2.391  -9.989  0.00  0.00     0.062 H 
ATOM     30  H   LIG d   1       3.651   1.793 -11.860  0.00  0.00     0.062 H 
ATOM     31  H   LIG d   1       5.582   0.304 -11.498  0.00  0.00     0.062 H 
ATOM     32  H   LIG d   1       7.133  -3.158  -2.363  0.00  0.00     0.035 H 
ATOM     33  H   LIG d   1       7.765  -1.517  -2.645  0.00  0.00     0.035 H 
ENDROOT
BRANCH   1  34
ATOM     34  C   LIG d   1       9.195  -3.234  -4.183  0.00  0.00    -0.059 C 
ATOM     35  H   LIG d   1       9.830  -2.795  -4.953  0.00  0.00     0.024 H 
ATOM     36  H   LIG d   1       9.538  -2.911  -3.200  0.00  0.00     0.024 H 
ATOM     37  H   LIG d   1       9.246  -4.321  -4.247  0.00  0.00     0.024 H 
ENDBRANCH   1  34
BRANCH   1  38
ATOM     38  C   LIG d   1       6.924  -3.940  -4.950  0.00  0.00    -0.059 C 
ATOM     39  H   LIG d   1       5.944  -3.576  -5.257  0.00  0.00     0.024 H 
ATOM     40  H   LIG d   1       7.436  -4.372  -5.809  0.00  0.00     0.024 H 
ATOM     41  H   LIG d   1       6.803  -4.701  -4.179  0.00  0.00     0.024 H 
ENDBRANCH   1  38
BRANCH   6  42
ATOM     42  O   LIG d   1       1.778  -0.410  -4.046  0.00  0.00    -0.409 OA
ATOM     43  H   LIG d   1       1.655  -0.001  -4.914  0.00  0.00     0.328 HD
ENDBRANCH   6  42
TORSDOF 3
ENDMDL
MODEL 6
REMARK VINA RESULT:      -6.3      3.424      4.730
REMARK  3 active torsions:
REMARK  status: ('A' for Active; 'I' for Inactive)
REMARK    1  A    between atoms: C_1  and  C_2 
REMARK    2  A    between atoms: C_2  and  C_23 
REMARK    3  A    between atoms: N_7  and  O_8 
ROOT
ATOM      1  C   LIG d   1       3.305  -2.025 -10.297  0.00  0.00    -0.022 C 
ATOM      2  C   LIG d   1       3.892  -1.133  -9.202  0.00  0.00    -0.006 C 
ATOM      3  C   LIG d   1       4.177  -1.962  -7.972  0.00  0.00     0.032 A 
ATOM      4  C   LIG d   1       4.509  -3.291  -8.097  0.00  0.00     0.065 A 
ATOM      5  C   LIG d   1       4.781  -4.076  -6.869  0.00  0.00     0.117 A 
ATOM      6  N   LIG d   1       5.112  -5.346  -6.928  0.00  0.00    -0.087 NA
ATOM      7  C   LIG d   1       4.668  -3.375  -5.584  0.00  0.00    -0.008 A 
ATOM      8  C   LIG d   1       4.335  -2.062  -5.584  0.00  0.00     0.052 A 
ATOM      9  N   LIG d   1       4.107  -1.372  -6.759  0.00  0.00    -0.343 N 
ATOM     10  C   LIG d   1       3.789   0.064  -6.691  0.00  0.00     0.028 C 
ATOM     11  C   LIG d   1       2.793   0.298  -5.546  0.00  0.00    -0.009 C 
ATOM     12  C   LIG d   1       3.443  -0.166  -4.264  0.00  0.00    -0.037 A 
ATOM     13  C   LIG d   1       4.206  -1.340  -4.298  0.00  0.00     0.002 A 
ATOM     14  C   LIG d   1       4.820  -1.801  -3.139  0.00  0.00    -0.052 A 
ATOM     15  C   LIG d   1       4.671  -1.091  -1.962  0.00  0.00    -0.061 A 
ATOM     16  C   LIG d   1       3.918   0.068  -1.937  0.00  0.00    -0.061 A 
ATOM     17  C   LIG d   1       3.303   0.532  -3.089  0.00  0.00    -0.058 A 
ATOM     18  C   LIG d   1       4.594  -3.917  -9.361  0.00  0.00     0.168 C 
ATOM     19  O   LIG d   1       4.901  -5.090  -9.434  0.00  0.00    -0.292 OA
ATOM     20  C   LIG d   1       4.304  -3.141 -10.620  0.00  0.00     0.016 C 
ATOM     21  H   LIG d   1       4.817  -0.681  -9.557  0.00  0.00     0.033 H 
ATOM     22  H   LIG d   1       3.177  -0.348  -8.952  0.00  0.00     0.033 H 
ATOM     23  H   LIG d   1       4.846  -3.897  -4.655  0.00  0.00     0.066 H 
ATOM     24  H   LIG d   1       4.700   0.632  -6.505  0.00  0.00     0.050 H 
ATOM     25  H   LIG d   1       3.343   0.384  -7.634  0.00  0.00     0.050 H 
ATOM     26  H   LIG d   1       2.554   1.360  -5.475  0.00  0.00     0.033 H 
ATOM     27  H   LIG d   1       1.883  -0.274  -5.725  0.00  0.00     0.033 H 
ATOM     28  H   LIG d   1       5.408  -2.706  -3.158  0.00  0.00     0.062 H 
ATOM     29  H   LIG d   1       5.146  -1.443  -1.058  0.00  0.00     0.062 H 
ATOM     30  H   LIG d   1       3.807   0.616  -1.012  0.00  0.00     0.062 H 
ATOM     31  H   LIG d   1       2.716   1.438  -3.064  0.00  0.00     0.062 H 
ATOM     32  H   LIG d   1       3.878  -3.806 -11.370  0.00  0.00     0.035 H 
ATOM     33  H   LIG d   1       5.228  -2.705 -11.000  0.00  0.00     0.035 H 
ENDROOT
BRANCH   1  34
ATOM     34  C   LIG d   1       3.047  -1.190 -11.553  0.00  0.00    -0.059 C 
ATOM     35  H   LIG d   1       2.607  -1.822 -12.325  0.00  0.00     0.024 H 
ATOM     36  H   LIG d   1       2.361  -0.377 -11.314  0.00  0.00     0.024 H 
ATOM     37  H   LIG d   1       3.989  -0.777 -11.915  0.00  0.00     0.024 H 
ENDBRANCH   1  34
BRANCH   1  38
ATOM     38  C   LIG d   1       1.991  -2.639  -9.812  0.00  0.00    -0.059 C 
ATOM     39  H   LIG d   1       1.759  -3.521 -10.410  0.00  0.00     0.024 H 
ATOM     40  H   LIG d   1       2.089  -2.926  -8.765  0.00  0.00     0.024 H 
ATOM     41  H   LIG d   1       1.189  -1.909  -9.915  0.00  0.00     0.024 H 
ENDBRANCH   1  38
BRANCH   6  42
ATOM     42  O   LIG d   1       5.366  -6.068  -5.736  0.00  0.00    -0.409 OA
ATOM     43  H   LIG d   1       5.866  -5.571  -5.075  0.00  0.00     0.328 HD
ENDBRANCH   6  42
TORSDOF 3
ENDMDL
MODEL 7
REMARK VINA RESULT:      -6.3      4.561      6.041
REMARK  3 active torsions:
REMARK  status: ('A' for Active; 'I' for Inactive)
REMARK    1  A    between atoms: C_1  and  C_2 
REMARK    2  A    between atoms: C_2  and  C_23 
REMARK    3  A    between atoms: N_7  and  O_8 
ROOT
ATOM      1  C   LIG d   1       8.732   0.652  -8.932  0.00  0.00    -0.022 C 
ATOM      2  C   LIG d   1       7.359   0.423  -8.298  0.00  0.00    -0.006 C 
ATOM      3  C   LIG d   1       7.418   0.756  -6.826  0.00  0.00     0.032 A 
ATOM      4  C   LIG d   1       8.289   1.717  -6.370  0.00  0.00     0.065 A 
ATOM      5  C   LIG d   1       8.322   2.017  -4.918  0.00  0.00     0.117 A 
ATOM      6  N   LIG d   1       9.127   2.933  -4.427  0.00  0.00    -0.087 NA
ATOM      7  C   LIG d   1       7.418   1.252  -4.052  0.00  0.00    -0.008 A 
ATOM      8  C   LIG d   1       6.601   0.328  -4.615  0.00  0.00     0.052 A 
ATOM      9  N   LIG d   1       6.598   0.098  -5.977  0.00  0.00    -0.343 N 
ATOM     10  C   LIG d   1       5.657  -0.890  -6.530  0.00  0.00     0.028 C 
ATOM     11  C   LIG d   1       5.643  -2.125  -5.618  0.00  0.00    -0.009 C 
ATOM     12  C   LIG d   1       5.205  -1.682  -4.243  0.00  0.00    -0.037 A 
ATOM     13  C   LIG d   1       5.689  -0.461  -3.757  0.00  0.00     0.002 A 
ATOM     14  C   LIG d   1       5.309  -0.018  -2.495  0.00  0.00    -0.052 A 
ATOM     15  C   LIG d   1       4.454  -0.790  -1.732  0.00  0.00    -0.061 A 
ATOM     16  C   LIG d   1       3.979  -1.994  -2.219  0.00  0.00    -0.061 A 
ATOM     17  C   LIG d   1       4.355  -2.441  -3.476  0.00  0.00    -0.058 A 
ATOM     18  C   LIG d   1       9.146   2.418  -7.250  0.00  0.00     0.168 C 
ATOM     19  O   LIG d   1       9.893   3.269  -6.812  0.00  0.00    -0.292 OA
ATOM     20  C   LIG d   1       9.139   2.114  -8.726  0.00  0.00     0.016 C 
ATOM     21  H   LIG d   1       6.623   1.062  -8.785  0.00  0.00     0.033 H 
ATOM     22  H   LIG d   1       7.072  -0.621  -8.422  0.00  0.00     0.033 H 
ATOM     23  H   LIG d   1       7.404   1.421  -2.985  0.00  0.00     0.066 H 
ATOM     24  H   LIG d   1       4.657  -0.458  -6.575  0.00  0.00     0.050 H 
ATOM     25  H   LIG d   1       5.977  -1.179  -7.532  0.00  0.00     0.050 H 
ATOM     26  H   LIG d   1       4.942  -2.865  -6.008  0.00  0.00     0.033 H 
ATOM     27  H   LIG d   1       6.642  -2.556  -5.565  0.00  0.00     0.033 H 
ATOM     28  H   LIG d   1       5.680   0.922  -2.115  0.00  0.00     0.062 H 
ATOM     29  H   LIG d   1       4.155  -0.452  -0.751  0.00  0.00     0.062 H 
ATOM     30  H   LIG d   1       3.311  -2.591  -1.615  0.00  0.00     0.062 H 
ATOM     31  H   LIG d   1       3.980  -3.382  -3.851  0.00  0.00     0.062 H 
ATOM     32  H   LIG d   1      10.134   2.278  -9.137  0.00  0.00     0.035 H 
ATOM     33  H   LIG d   1       8.424   2.766  -9.228  0.00  0.00     0.035 H 
ENDROOT
BRANCH   1  34
ATOM     34  C   LIG d   1       8.662   0.346 -10.429  0.00  0.00    -0.059 C 
ATOM     35  H   LIG d   1       7.652   0.537 -10.792  0.00  0.00     0.024 H 
ATOM     36  H   LIG d   1       9.367   0.982 -10.964  0.00  0.00     0.024 H 
ATOM     37  H   LIG d   1       8.917  -0.701 -10.597  0.00  0.00     0.024 H 
ENDBRANCH   1  34
BRANCH   1  38
ATOM     38  C   LIG d   1       9.763  -0.263  -8.270  0.00  0.00    -0.059 C 
ATOM     39  H   LIG d   1       9.295  -0.805  -7.448  0.00  0.00     0.024 H 
ATOM     40  H   LIG d   1      10.142  -0.974  -9.004  0.00  0.00     0.024 H 
ATOM     41  H   LIG d   1      10.589   0.337  -7.886  0.00  0.00     0.024 H 
ENDBRANCH   1  38
BRANCH   6  42
ATOM     42  O   LIG d   1       9.135   3.196  -3.036  0.00  0.00    -0.409 OA
ATOM     43  H   LIG d   1       9.771   3.874  -2.767  0.00  0.00     0.328 HD
ENDBRANCH   6  42
TORSDOF 3
ENDMDL
MODEL 8
REMARK VINA RESULT:      -6.2      9.693     12.571
REMARK  3 active torsions:
REMARK  status: ('A' for Active; 'I' for Inactive)
REMARK    1  A    between atoms: C_1  and  C_2 
REMARK    2  A    between atoms: C_2  and  C_23 
REMARK    3  A    between atoms: N_7  and  O_8 
ROOT
ATOM      1  C   LIG d   1      10.985  10.689  -2.286  0.00  0.00    -0.022 C 
ATOM      2  C   LIG d   1      10.053   9.756  -3.061  0.00  0.00    -0.006 C 
ATOM      3  C   LIG d   1      10.115   8.369  -2.466  0.00  0.00     0.032 A 
ATOM      4  C   LIG d   1      10.376   8.204  -1.125  0.00  0.00     0.065 A 
ATOM      5  C   LIG d   1      10.432   6.828  -0.574  0.00  0.00     0.117 A 
ATOM      6  N   LIG d   1      10.667   6.611   0.700  0.00  0.00    -0.087 NA
ATOM      7  C   LIG d   1      10.210   5.719  -1.510  0.00  0.00    -0.008 A 
ATOM      8  C   LIG d   1       9.960   6.004  -2.811  0.00  0.00     0.052 A 
ATOM      9  N   LIG d   1       9.903   7.305  -3.271  0.00  0.00    -0.343 N 
ATOM     10  C   LIG d   1       9.586   7.547  -4.688  0.00  0.00     0.028 C 
ATOM     11  C   LIG d   1      10.365   6.541  -5.549  0.00  0.00    -0.009 C 
ATOM     12  C   LIG d   1       9.941   5.152  -5.136  0.00  0.00    -0.037 A 
ATOM     13  C   LIG d   1       9.744   4.899  -3.773  0.00  0.00     0.002 A 
ATOM     14  C   LIG d   1       9.354   3.633  -3.352  0.00  0.00    -0.052 A 
ATOM     15  C   LIG d   1       9.164   2.633  -4.289  0.00  0.00    -0.061 A 
ATOM     16  C   LIG d   1       9.359   2.891  -5.633  0.00  0.00    -0.061 A 
ATOM     17  C   LIG d   1       9.748   4.152  -6.058  0.00  0.00    -0.058 A 
ATOM     18  C   LIG d   1      10.592   9.309  -0.271  0.00  0.00     0.168 C 
ATOM     19  O   LIG d   1      10.808   9.126   0.910  0.00  0.00    -0.292 OA
ATOM     20  C   LIG d   1      10.556  10.715  -0.816  0.00  0.00     0.016 C 
ATOM     21  H   LIG d   1       9.032  10.130  -3.002  0.00  0.00     0.033 H 
ATOM     22  H   LIG d   1      10.365   9.716  -4.105  0.00  0.00     0.033 H 
ATOM     23  H   LIG d   1      10.247   4.695  -1.169  0.00  0.00     0.066 H 
ATOM     24  H   LIG d   1       8.516   7.416  -4.851  0.00  0.00     0.050 H 
ATOM     25  H   LIG d   1       9.877   8.562  -4.960  0.00  0.00     0.050 H 
ATOM     26  H   LIG d   1      10.133   6.700  -6.603  0.00  0.00     0.033 H 
ATOM     27  H   LIG d   1      11.434   6.664  -5.384  0.00  0.00     0.033 H 
ATOM     28  H   LIG d   1       9.202   3.431  -2.303  0.00  0.00     0.062 H 
ATOM     29  H   LIG d   1       8.862   1.648  -3.969  0.00  0.00     0.062 H 
ATOM     30  H   LIG d   1       9.208   2.104  -6.358  0.00  0.00     0.062 H 
ATOM     31  H   LIG d   1       9.898   4.347  -7.110  0.00  0.00     0.062 H 
ATOM     32  H   LIG d   1      11.239  11.344  -0.246  0.00  0.00     0.035 H 
ATOM     33  H   LIG d   1       9.543  11.110  -0.738  0.00  0.00     0.035 H 
ENDROOT
BRANCH   1  34
ATOM     34  C   LIG d   1      10.897  12.101  -2.870  0.00  0.00    -0.059 C 
ATOM     35  H   LIG d   1      11.286  12.818  -2.146  0.00  0.00     0.024 H 
ATOM     36  H   LIG d   1      11.484  12.153  -3.786  0.00  0.00     0.024 H 
ATOM     37  H   LIG d   1       9.856  12.337  -3.091  0.00  0.00     0.024 H 
ENDBRANCH   1  34
BRANCH   1  38
ATOM     38  C   LIG d   1      12.424  10.182  -2.390  0.00  0.00    -0.059 C 
ATOM     39  H   LIG d   1      13.110  10.958  -2.050  0.00  0.00     0.024 H 
ATOM     40  H   LIG d   1      12.543   9.295  -1.767  0.00  0.00     0.024 H 
ATOM     41  H   LIG d   1      12.646   9.929  -3.427  0.00  0.00     0.024 H 
ENDBRANCH   1  38
BRANCH   6  42
ATOM     42  O   LIG d   1      10.714   5.285   1.195  0.00  0.00    -0.409 OA
ATOM     43  H   LIG d   1       9.877   4.975   1.570  0.00  0.00     0.328 HD
ENDBRANCH   6  42
TORSDOF 3
ENDMDL
MODEL 9
REMARK VINA RESULT:      -6.1     11.597     14.345
REMARK  3 active torsions:
REMARK  status: ('A' for Active; 'I' for Inactive)
REMARK    1  A    between atoms: C_1  and  C_2 
REMARK    2  A    between atoms: C_2  and  C_23 
REMARK    3  A    between atoms: N_7  and  O_8 
ROOT
ATOM      1  C   LIG d   1      12.846  11.063   1.852  0.00  0.00    -0.022 C 
ATOM      2  C   LIG d   1      11.781  11.022   0.754  0.00  0.00    -0.006 C 
ATOM      3  C   LIG d   1      11.410   9.587   0.462  0.00  0.00     0.032 A 
ATOM      4  C   LIG d   1      11.480   8.639   1.456  0.00  0.00     0.065 A 
ATOM      5  C   LIG d   1      11.110   7.240   1.135  0.00  0.00     0.117 A 
ATOM      6  N   LIG d   1      11.149   6.295   2.047  0.00  0.00    -0.087 NA
ATOM      7  C   LIG d   1      10.696   6.954  -0.244  0.00  0.00    -0.008 A 
ATOM      8  C   LIG d   1      10.663   7.970  -1.140  0.00  0.00     0.052 A 
ATOM      9  N   LIG d   1      11.003   9.261  -0.784  0.00  0.00    -0.343 N 
ATOM     10  C   LIG d   1      10.907  10.327  -1.795  0.00  0.00     0.028 C 
ATOM     11  C   LIG d   1      11.471   9.802  -3.124  0.00  0.00    -0.009 C 
ATOM     12  C   LIG d   1      10.652   8.601  -3.534  0.00  0.00    -0.037 A 
ATOM     13  C   LIG d   1      10.258   7.700  -2.538  0.00  0.00     0.002 A 
ATOM     14  C   LIG d   1       9.503   6.581  -2.874  0.00  0.00    -0.052 A 
ATOM     15  C   LIG d   1       9.148   6.373  -4.194  0.00  0.00    -0.061 A 
ATOM     16  C   LIG d   1       9.539   7.269  -5.172  0.00  0.00    -0.061 A 
ATOM     17  C   LIG d   1      10.292   8.385  -4.842  0.00  0.00    -0.058 A 
ATOM     18  C   LIG d   1      11.896   8.970   2.766  0.00  0.00     0.168 C 
ATOM     19  O   LIG d   1      11.935   8.109   3.622  0.00  0.00    -0.292 OA
ATOM     20  C   LIG d   1      12.293  10.384   3.108  0.00  0.00     0.016 C 
ATOM     21  H   LIG d   1      10.897  11.565   1.084  0.00  0.00     0.033 H 
ATOM     22  H   LIG d   1      12.175  11.485  -0.151  0.00  0.00     0.033 H 
ATOM     23  H   LIG d   1      10.423   5.951  -0.539  0.00  0.00     0.066 H 
ATOM     24  H   LIG d   1       9.863  10.611  -1.928  0.00  0.00     0.050 H 
ATOM     25  H   LIG d   1      11.485  11.192  -1.470  0.00  0.00     0.050 H 
ATOM     26  H   LIG d   1      11.397  10.577  -3.888  0.00  0.00     0.033 H 
ATOM     27  H   LIG d   1      12.512   9.510  -2.993  0.00  0.00     0.033 H 
ATOM     28  H   LIG d   1       9.197   5.882  -2.111  0.00  0.00     0.062 H 
ATOM     29  H   LIG d   1       8.562   5.506  -4.462  0.00  0.00     0.062 H 
ATOM     30  H   LIG d   1       9.257   7.097  -6.201  0.00  0.00     0.062 H 
ATOM     31  H   LIG d   1      10.594   9.081  -5.610  0.00  0.00     0.062 H 
ATOM     32  H   LIG d   1      13.059  10.370   3.883  0.00  0.00     0.035 H 
ATOM     33  H   LIG d   1      11.421  10.931   3.465  0.00  0.00     0.035 H 
ENDROOT
BRANCH   1  34
ATOM     34  C   LIG d   1      13.198  12.518   2.168  0.00  0.00    -0.059 C 
ATOM     35  H   LIG d   1      14.254  12.587   2.427  0.00  0.00     0.024 H 
ATOM     36  H   LIG d   1      12.995  13.139   1.296  0.00  0.00     0.024 H 
ATOM     37  H   LIG d   1      12.594  12.862   3.008  0.00  0.00     0.024 H 
ENDBRANCH   1  34
BRANCH   1  38
ATOM     38  C   LIG d   1      14.100  10.324   1.381  0.00  0.00    -0.059 C 
ATOM     39  H   LIG d   1      14.986  10.878   1.690  0.00  0.00     0.024 H 
ATOM     40  H   LIG d   1      14.122   9.328   1.822  0.00  0.00     0.024 H 
ATOM     41  H   LIG d   1      14.085  10.239   0.294  0.00  0.00     0.024 H 
ENDBRANCH   1  38
BRANCH   6  42
ATOM     42  O   LIG d   1      10.789   4.968   1.708  0.00  0.00    -0.409 OA
ATOM     43  H   LIG d   1       9.837   4.798   1.743  0.00  0.00     0.328 HD
ENDBRANCH   6  42
TORSDOF 3
ENDMDL
