MODEL 1
REMARK VINA RESULT:      -6.3      0.000      0.000
REMARK  11 active torsions:
REMARK  status: ('A' for Active; 'I' for Inactive)
REMARK    1  A    between atoms: C_1  and  O_2 
REMARK    2  A    between atoms: O_2  and  C_3 
REMARK    3  A    between atoms: C_5  and  C_10 
REMARK    4  A    between atoms: C_8  and  O_9 
REMARK    5  A    between atoms: C_12  and  C_26 
REMARK    6  A    between atoms: C_16  and  C_22 
REMARK    7  A    between atoms: C_18  and  O_21 
REMARK    8  A    between atoms: C_22  and  C_23 
REMARK    9  A    between atoms: C_23  and  C_24 
REMARK   10  A    between atoms: C_24  and  O_25 
REMARK   11  A    between atoms: C_26  and  O_27 
ROOT
ATOM      1  C   LIG d   1       8.525  -3.808  -4.965  0.00  0.00     0.134 C 
ATOM      2  H   LIG d   1       9.209  -3.805  -5.813  0.00  0.00     0.079 H 
ATOM      3  C   LIG d   1       8.488  -2.418  -4.287  0.00  0.00     0.052 C 
ATOM      4  H   LIG d   1       9.139  -2.393  -3.413  0.00  0.00     0.041 H 
ATOM      5  C   LIG d   1       7.032  -2.307  -3.881  0.00  0.00     0.007 A 
ATOM      6  C   LIG d   1       6.377  -1.464  -3.008  0.00  0.00    -0.051 A 
ATOM      7  C   LIG d   1       5.012  -1.587  -2.815  0.00  0.00    -0.043 A 
ATOM      8  C   LIG d   1       4.307  -2.559  -3.502  0.00  0.00    -0.013 A 
ATOM      9  C   LIG d   1       4.960  -3.405  -4.382  0.00  0.00     0.159 A 
ATOM     10  C   LIG d   1       6.337  -3.281  -4.582  0.00  0.00     0.166 A 
ATOM     11  O   LIG d   1       7.169  -3.988  -5.406  0.00  0.00    -0.480 OA
ATOM     12  H   LIG d   1       6.930  -0.705  -2.473  0.00  0.00     0.062 H 
ATOM     13  H   LIG d   1       3.242  -2.659  -3.351  0.00  0.00     0.066 H 
ENDROOT
BRANCH   1  14
ATOM     14  C   LIG d   1       8.911  -4.876  -3.974  0.00  0.00    -0.003 A 
ATOM     15  C   LIG d   1       8.711  -6.208  -4.282  0.00  0.00    -0.010 A 
ATOM     16  C   LIG d   1       9.066  -7.191  -3.372  0.00  0.00     0.162 A 
ATOM     17  H   LIG d   1       8.280  -6.484  -5.233  0.00  0.00     0.066 H 
ATOM     18  C   LIG d   1       9.618  -6.832  -2.146  0.00  0.00     0.159 A 
ATOM     19  C   LIG d   1       9.822  -5.496  -1.846  0.00  0.00    -0.016 A 
ATOM     20  C   LIG d   1       9.465  -4.520  -2.758  0.00  0.00    -0.051 A 
ATOM     21  H   LIG d   1      10.254  -5.215  -0.896  0.00  0.00     0.066 H 
ATOM     22  H   LIG d   1       9.620  -3.478  -2.522  0.00  0.00     0.062 H 
BRANCH  16  23
ATOM     23  O   LIG d   1       8.870  -8.502  -3.674  0.00  0.00    -0.491 OA
BRANCH  23  24
ATOM     24  C   LIG d   1       7.526  -8.987  -3.620  0.00  0.00     0.079 C 
ATOM     25  H   LIG d   1       7.333  -9.413  -2.636  0.00  0.00     0.066 H 
ATOM     26  H   LIG d   1       6.836  -8.163  -3.800  0.00  0.00     0.066 H 
ATOM     27  H   LIG d   1       7.386  -9.753  -4.382  0.00  0.00     0.066 H 
ENDBRANCH  23  24
ENDBRANCH  16  23
BRANCH  18  28
ATOM     28  O   LIG d   1       9.963  -7.793  -1.247  0.00  0.00    -0.503 OA
ATOM     29  H   LIG d   1      10.581  -7.491  -0.568  0.00  0.00     0.292 HD
ENDBRANCH  18  28
ENDBRANCH   1  14
BRANCH   3  30
ATOM     30  C   LIG d   1       8.867  -1.316  -5.278  0.00  0.00     0.055 C 
ATOM     31  H   LIG d   1       9.524  -1.726  -6.043  0.00  0.00     0.056 H 
ATOM     32  H   LIG d   1       7.964  -0.923  -5.747  0.00  0.00     0.056 H 
BRANCH  30  33
ATOM     33  O   LIG d   1       9.539  -0.262  -4.585  0.00  0.00    -0.394 OA
ATOM     34  H   LIG d   1       9.975  -0.543  -3.770  0.00  0.00     0.209 HD
ENDBRANCH  30  33
ENDBRANCH   3  30
BRANCH   9  35
ATOM     35  O   LIG d   1       4.259  -4.358  -5.052  0.00  0.00    -0.503 OA
ATOM     36  H   LIG d   1       4.601  -4.548  -5.937  0.00  0.00     0.292 HD
ENDBRANCH   9  35
BRANCH   7  37
ATOM     37  C   LIG d   1       4.297  -0.667  -1.862  0.00  0.00    -0.025 C 
ATOM     38  H   LIG d   1       3.222  -0.724  -2.038  0.00  0.00     0.031 H 
ATOM     39  H   LIG d   1       4.513  -0.966  -0.836  0.00  0.00     0.031 H 
BRANCH  37  40
ATOM     40  C   LIG d   1       4.774   0.770  -2.085  0.00  0.00    -0.026 C 
ATOM     41  H   LIG d   1       5.071   1.206  -1.131  0.00  0.00     0.029 H 
ATOM     42  H   LIG d   1       5.626   0.768  -2.765  0.00  0.00     0.029 H 
BRANCH  40  43
ATOM     43  C   LIG d   1       3.639   1.597  -2.693  0.00  0.00     0.044 C 
ATOM     44  H   LIG d   1       2.716   1.404  -2.145  0.00  0.00     0.056 H 
ATOM     45  H   LIG d   1       3.886   2.657  -2.626  0.00  0.00     0.056 H 
BRANCH  43  46
ATOM     46  O   LIG d   1       3.465   1.233  -4.064  0.00  0.00    -0.395 OA
ATOM     47  H   LIG d   1       3.708   1.928  -4.689  0.00  0.00     0.209 HD
ENDBRANCH  43  46
ENDBRANCH  40  43
ENDBRANCH  37  40
ENDBRANCH   7  37
TORSDOF 11
ENDMDL
MODEL 2
REMARK VINA RESULT:      -6.3      3.540      6.871
REMARK  11 active torsions:
REMARK  status: ('A' for Active; 'I' for Inactive)
REMARK    1  A    between atoms: C_1  and  O_2 
REMARK    2  A    between atoms: O_2  and  C_3 
REMARK    3  A    between atoms: C_5  and  C_10 
REMARK    4  A    between atoms: C_8  and  O_9 
REMARK    5  A    between atoms: C_12  and  C_26 
REMARK    6  A    between atoms: C_16  and  C_22 
REMARK    7  A    between atoms: C_18  and  O_21 
REMARK    8  A    between atoms: C_22  and  C_23 
REMARK    9  A    between atoms: C_23  and  C_24 
REMARK   10  A    between atoms: C_24  and  O_25 
REMARK   11  A    between atoms: C_26  and  O_27 
ROOT
ATOM      1  C   LIG d   1       5.737  -3.049  -7.327  0.00  0.00     0.134 C 
ATOM      2  H   LIG d   1       5.901  -3.929  -7.947  0.00  0.00     0.079 H 
ATOM      3  C   LIG d   1       4.593  -3.296  -6.315  0.00  0.00     0.052 C 
ATOM      4  H   LIG d   1       3.655  -2.877  -6.678  0.00  0.00     0.041 H 
ATOM      5  C   LIG d   1       5.086  -2.542  -5.096  0.00  0.00     0.007 A 
ATOM      6  C   LIG d   1       4.448  -2.122  -3.947  0.00  0.00    -0.051 A 
ATOM      7  C   LIG d   1       5.150  -1.431  -2.976  0.00  0.00    -0.043 A 
ATOM      8  C   LIG d   1       6.494  -1.163  -3.160  0.00  0.00    -0.013 A 
ATOM      9  C   LIG d   1       7.140  -1.585  -4.309  0.00  0.00     0.159 A 
ATOM     10  C   LIG d   1       6.436  -2.287  -5.291  0.00  0.00     0.166 A 
ATOM     11  O   LIG d   1       6.872  -2.807  -6.478  0.00  0.00    -0.480 OA
ATOM     12  H   LIG d   1       3.398  -2.333  -3.806  0.00  0.00     0.062 H 
ATOM     13  H   LIG d   1       7.043  -0.621  -2.404  0.00  0.00     0.066 H 
ENDROOT
BRANCH   1  14
ATOM     14  C   LIG d   1       5.443  -1.843  -8.182  0.00  0.00    -0.003 A 
ATOM     15  C   LIG d   1       4.147  -1.374  -8.290  0.00  0.00    -0.010 A 
ATOM     16  C   LIG d   1       3.875  -0.265  -9.076  0.00  0.00     0.162 A 
ATOM     17  H   LIG d   1       3.346  -1.871  -7.762  0.00  0.00     0.066 H 
ATOM     18  C   LIG d   1       4.907   0.369  -9.759  0.00  0.00     0.159 A 
ATOM     19  C   LIG d   1       6.204  -0.102  -9.642  0.00  0.00    -0.016 A 
ATOM     20  C   LIG d   1       6.470  -1.208  -8.857  0.00  0.00    -0.051 A 
ATOM     21  H   LIG d   1       7.008   0.392 -10.168  0.00  0.00     0.066 H 
ATOM     22  H   LIG d   1       7.480  -1.578  -8.769  0.00  0.00     0.062 H 
BRANCH  16  23
ATOM     23  O   LIG d   1       2.600   0.197  -9.184  0.00  0.00    -0.491 OA
BRANCH  23  24
ATOM     24  C   LIG d   1       1.644  -0.671  -9.795  0.00  0.00     0.079 C 
ATOM     25  H   LIG d   1       2.082  -1.127 -10.682  0.00  0.00     0.066 H 
ATOM     26  H   LIG d   1       1.359  -1.452  -9.089  0.00  0.00     0.066 H 
ATOM     27  H   LIG d   1       0.762  -0.097 -10.078  0.00  0.00     0.066 H 
ENDBRANCH  23  24
ENDBRANCH  16  23
BRANCH  18  28
ATOM     28  O   LIG d   1       4.645   1.455 -10.536  0.00  0.00    -0.503 OA
ATOM     29  H   LIG d   1       4.942   2.292 -10.155  0.00  0.00     0.292 HD
ENDBRANCH  18  28
ENDBRANCH   1  14
BRANCH   3  30
ATOM     30  C   LIG d   1       4.443  -4.788  -6.013  0.00  0.00     0.055 C 
ATOM     31  H   LIG d   1       5.162  -5.353  -6.606  0.00  0.00     0.056 H 
ATOM     32  H   LIG d   1       4.627  -4.965  -4.953  0.00  0.00     0.056 H 
BRANCH  30  33
ATOM     33  O   LIG d   1       3.118  -5.209  -6.342  0.00  0.00    -0.394 OA
ATOM     34  H   LIG d   1       2.959  -6.152  -6.203  0.00  0.00     0.209 HD
ENDBRANCH  30  33
ENDBRANCH   3  30
BRANCH   9  35
ATOM     35  O   LIG d   1       8.461  -1.318  -4.483  0.00  0.00    -0.503 OA
ATOM     36  H   LIG d   1       8.860  -0.818  -3.757  0.00  0.00     0.292 HD
ENDBRANCH   9  35
BRANCH   7  37
ATOM     37  C   LIG d   1       4.453  -0.973  -1.722  0.00  0.00    -0.025 C 
ATOM     38  H   LIG d   1       3.398  -1.243  -1.773  0.00  0.00     0.031 H 
ATOM     39  H   LIG d   1       4.910  -1.452  -0.856  0.00  0.00     0.031 H 
BRANCH  37  40
ATOM     40  C   LIG d   1       4.584   0.546  -1.591  0.00  0.00    -0.026 C 
ATOM     41  H   LIG d   1       4.465   0.832  -0.547  0.00  0.00     0.029 H 
ATOM     42  H   LIG d   1       5.567   0.858  -1.944  0.00  0.00     0.029 H 
BRANCH  40  43
ATOM     43  C   LIG d   1       3.502   1.227  -2.433  0.00  0.00     0.044 C 
ATOM     44  H   LIG d   1       2.945   0.471  -2.987  0.00  0.00     0.056 H 
ATOM     45  H   LIG d   1       2.822   1.772  -1.778  0.00  0.00     0.056 H 
BRANCH  43  46
ATOM     46  O   LIG d   1       4.113   2.137  -3.350  0.00  0.00    -0.395 OA
ATOM     47  H   LIG d   1       3.580   2.920  -3.540  0.00  0.00     0.209 HD
ENDBRANCH  43  46
ENDBRANCH  40  43
ENDBRANCH  37  40
ENDBRANCH   7  37
TORSDOF 11
ENDMDL
MODEL 3
REMARK VINA RESULT:      -5.6      1.234      2.009
REMARK  11 active torsions:
REMARK  status: ('A' for Active; 'I' for Inactive)
REMARK    1  A    between atoms: C_1  and  O_2 
REMARK    2  A    between atoms: O_2  and  C_3 
REMARK    3  A    between atoms: C_5  and  C_10 
REMARK    4  A    between atoms: C_8  and  O_9 
REMARK    5  A    between atoms: C_12  and  C_26 
REMARK    6  A    between atoms: C_16  and  C_22 
REMARK    7  A    between atoms: C_18  and  O_21 
REMARK    8  A    between atoms: C_22  and  C_23 
REMARK    9  A    between atoms: C_23  and  C_24 
REMARK   10  A    between atoms: C_24  and  O_25 
REMARK   11  A    between atoms: C_26  and  O_27 
ROOT
ATOM      1  C   LIG d   1       8.206  -4.226  -5.617  0.00  0.00     0.134 C 
ATOM      2  H   LIG d   1       8.942  -4.154  -6.417  0.00  0.00     0.079 H 
ATOM      3  C   LIG d   1       8.377  -3.064  -4.608  0.00  0.00     0.052 C 
ATOM      4  H   LIG d   1       8.950  -3.385  -3.739  0.00  0.00     0.041 H 
ATOM      5  C   LIG d   1       6.940  -2.764  -4.230  0.00  0.00     0.007 A 
ATOM      6  C   LIG d   1       6.389  -2.045  -3.191  0.00  0.00    -0.051 A 
ATOM      7  C   LIG d   1       5.015  -1.934  -3.075  0.00  0.00    -0.043 A 
ATOM      8  C   LIG d   1       4.196  -2.546  -4.006  0.00  0.00    -0.013 A 
ATOM      9  C   LIG d   1       4.745  -3.266  -5.053  0.00  0.00     0.159 A 
ATOM     10  C   LIG d   1       6.132  -3.377  -5.176  0.00  0.00     0.166 A 
ATOM     11  O   LIG d   1       6.879  -4.015  -6.128  0.00  0.00    -0.480 OA
ATOM     12  H   LIG d   1       7.031  -1.567  -2.465  0.00  0.00     0.062 H 
ATOM     13  H   LIG d   1       3.123  -2.463  -3.916  0.00  0.00     0.066 H 
ENDROOT
BRANCH   1  14
ATOM     14  C   LIG d   1       8.305  -5.558  -4.919  0.00  0.00    -0.003 A 
ATOM     15  C   LIG d   1       9.172  -5.716  -3.854  0.00  0.00    -0.010 A 
ATOM     16  C   LIG d   1       9.264  -6.941  -3.212  0.00  0.00     0.162 A 
ATOM     17  H   LIG d   1       9.777  -4.885  -3.522  0.00  0.00     0.066 H 
ATOM     18  C   LIG d   1       8.487  -8.010  -3.645  0.00  0.00     0.159 A 
ATOM     19  C   LIG d   1       7.615  -7.843  -4.708  0.00  0.00    -0.016 A 
ATOM     20  C   LIG d   1       7.528  -6.619  -5.345  0.00  0.00    -0.051 A 
ATOM     21  H   LIG d   1       7.007  -8.671  -5.044  0.00  0.00     0.066 H 
ATOM     22  H   LIG d   1       6.851  -6.491  -6.177  0.00  0.00     0.062 H 
BRANCH  16  23
ATOM     23  O   LIG d   1      10.117  -7.097  -2.164  0.00  0.00    -0.491 OA
BRANCH  23  24
ATOM     24  C   LIG d   1      11.510  -6.922  -2.429  0.00  0.00     0.079 C 
ATOM     25  H   LIG d   1      12.076  -7.711  -1.935  0.00  0.00     0.066 H 
ATOM     26  H   LIG d   1      11.684  -6.969  -3.504  0.00  0.00     0.066 H 
ATOM     27  H   LIG d   1      11.833  -5.952  -2.051  0.00  0.00     0.066 H 
ENDBRANCH  23  24
ENDBRANCH  16  23
BRANCH  18  28
ATOM     28  O   LIG d   1       8.578  -9.215  -3.021  0.00  0.00    -0.503 OA
ATOM     29  H   LIG d   1       9.386  -9.330  -2.504  0.00  0.00     0.292 HD
ENDBRANCH  18  28
ENDBRANCH   1  14
BRANCH   3  30
ATOM     30  C   LIG d   1       9.033  -1.854  -5.276  0.00  0.00     0.055 C 
ATOM     31  H   LIG d   1       8.459  -0.957  -5.046  0.00  0.00     0.056 H 
ATOM     32  H   LIG d   1      10.050  -1.740  -4.901  0.00  0.00     0.056 H 
BRANCH  30  33
ATOM     33  O   LIG d   1       9.066  -2.050  -6.691  0.00  0.00    -0.394 OA
ATOM     34  H   LIG d   1       8.575  -2.826  -6.992  0.00  0.00     0.209 HD
ENDBRANCH  30  33
ENDBRANCH   3  30
BRANCH   9  35
ATOM     35  O   LIG d   1       3.933  -3.865  -5.964  0.00  0.00    -0.503 OA
ATOM     36  H   LIG d   1       3.405  -3.246  -6.488  0.00  0.00     0.292 HD
ENDBRANCH   9  35
BRANCH   7  37
ATOM     37  C   LIG d   1       4.413  -1.148  -1.940  0.00  0.00    -0.025 C 
ATOM     38  H   LIG d   1       3.969  -1.834  -1.218  0.00  0.00     0.031 H 
ATOM     39  H   LIG d   1       5.190  -0.560  -1.452  0.00  0.00     0.031 H 
BRANCH  37  40
ATOM     40  C   LIG d   1       3.332  -0.211  -2.484  0.00  0.00    -0.026 C 
ATOM     41  H   LIG d   1       3.124  -0.463  -3.524  0.00  0.00     0.029 H 
ATOM     42  H   LIG d   1       2.422  -0.326  -1.894  0.00  0.00     0.029 H 
BRANCH  40  43
ATOM     43  C   LIG d   1       3.818   1.236  -2.396  0.00  0.00     0.044 C 
ATOM     44  H   LIG d   1       4.107   1.583  -3.388  0.00  0.00     0.056 H 
ATOM     45  H   LIG d   1       3.017   1.866  -2.010  0.00  0.00     0.056 H 
BRANCH  43  46
ATOM     46  O   LIG d   1       4.945   1.308  -1.520  0.00  0.00    -0.395 OA
ATOM     47  H   LIG d   1       5.573   2.007  -1.743  0.00  0.00     0.209 HD
ENDBRANCH  43  46
ENDBRANCH  40  43
ENDBRANCH  37  40
ENDBRANCH   7  37
TORSDOF 11
ENDMDL
MODEL 4
REMARK VINA RESULT:      -5.5      2.707      3.784
REMARK  11 active torsions:
REMARK  status: ('A' for Active; 'I' for Inactive)
REMARK    1  A    between atoms: C_1  and  O_2 
REMARK    2  A    between atoms: O_2  and  C_3 
REMARK    3  A    between atoms: C_5  and  C_10 
REMARK    4  A    between atoms: C_8  and  O_9 
REMARK    5  A    between atoms: C_12  and  C_26 
REMARK    6  A    between atoms: C_16  and  C_22 
REMARK    7  A    between atoms: C_18  and  O_21 
REMARK    8  A    between atoms: C_22  and  C_23 
REMARK    9  A    between atoms: C_23  and  C_24 
REMARK   10  A    between atoms: C_24  and  O_25 
REMARK   11  A    between atoms: C_26  and  O_27 
ROOT
ATOM      1  C   LIG d   1       7.138  -4.300  -6.339  0.00  0.00     0.134 C 
ATOM      2  H   LIG d   1       8.023  -4.394  -6.967  0.00  0.00     0.079 H 
ATOM      3  C   LIG d   1       7.521  -3.820  -4.918  0.00  0.00     0.052 C 
ATOM      4  H   LIG d   1       7.587  -4.661  -4.228  0.00  0.00     0.041 H 
ATOM      5  C   LIG d   1       6.353  -2.920  -4.567  0.00  0.00     0.007 A 
ATOM      6  C   LIG d   1       5.919  -2.394  -3.368  0.00  0.00    -0.051 A 
ATOM      7  C   LIG d   1       4.794  -1.590  -3.329  0.00  0.00    -0.043 A 
ATOM      8  C   LIG d   1       4.105  -1.316  -4.497  0.00  0.00    -0.013 A 
ATOM      9  C   LIG d   1       4.540  -1.838  -5.703  0.00  0.00     0.159 A 
ATOM     10  C   LIG d   1       5.678  -2.648  -5.747  0.00  0.00     0.166 A 
ATOM     11  O   LIG d   1       6.286  -3.246  -6.816  0.00  0.00    -0.480 OA
ATOM     12  H   LIG d   1       6.459  -2.610  -2.457  0.00  0.00     0.062 H 
ATOM     13  H   LIG d   1       3.225  -0.691  -4.469  0.00  0.00     0.066 H 
ENDROOT
BRANCH   1  14
ATOM     14  C   LIG d   1       6.388  -5.606  -6.277  0.00  0.00    -0.003 A 
ATOM     15  C   LIG d   1       5.356  -5.852  -7.163  0.00  0.00    -0.010 A 
ATOM     16  C   LIG d   1       4.666  -7.053  -7.107  0.00  0.00     0.162 A 
ATOM     17  H   LIG d   1       5.088  -5.109  -7.900  0.00  0.00     0.066 H 
ATOM     18  C   LIG d   1       5.011  -8.006  -6.154  0.00  0.00     0.159 A 
ATOM     19  C   LIG d   1       6.051  -7.756  -5.274  0.00  0.00    -0.016 A 
ATOM     20  C   LIG d   1       6.735  -6.556  -5.334  0.00  0.00    -0.051 A 
ATOM     21  H   LIG d   1       6.323  -8.496  -4.535  0.00  0.00     0.066 H 
ATOM     22  H   LIG d   1       7.542  -6.360  -4.644  0.00  0.00     0.062 H 
BRANCH  16  23
ATOM     23  O   LIG d   1       3.651  -7.296  -7.979  0.00  0.00    -0.491 OA
BRANCH  23  24
ATOM     24  C   LIG d   1       3.564  -6.449  -9.126  0.00  0.00     0.079 C 
ATOM     25  H   LIG d   1       4.492  -5.891  -9.237  0.00  0.00     0.066 H 
ATOM     26  H   LIG d   1       3.398  -7.058 -10.015  0.00  0.00     0.066 H 
ATOM     27  H   LIG d   1       2.734  -5.754  -9.002  0.00  0.00     0.066 H 
ENDBRANCH  23  24
ENDBRANCH  16  23
BRANCH  18  28
ATOM     28  O   LIG d   1       4.334  -9.184  -6.092  0.00  0.00    -0.503 OA
ATOM     29  H   LIG d   1       4.895  -9.951  -5.913  0.00  0.00     0.292 HD
ENDBRANCH  18  28
ENDBRANCH   1  14
BRANCH   3  30
ATOM     30  C   LIG d   1       8.832  -3.033  -4.943  0.00  0.00     0.055 C 
ATOM     31  H   LIG d   1       8.701  -2.091  -4.411  0.00  0.00     0.056 H 
ATOM     32  H   LIG d   1       9.616  -3.617  -4.461  0.00  0.00     0.056 H 
BRANCH  30  33
ATOM     33  O   LIG d   1       9.202  -2.767  -6.297  0.00  0.00    -0.394 OA
ATOM     34  H   LIG d   1       8.452  -2.635  -6.892  0.00  0.00     0.209 HD
ENDBRANCH  30  33
ENDBRANCH   3  30
BRANCH   9  35
ATOM     35  O   LIG d   1       3.857  -1.564  -6.846  0.00  0.00    -0.503 OA
ATOM     36  H   LIG d   1       4.133  -2.094  -7.606  0.00  0.00     0.292 HD
ENDBRANCH   9  35
BRANCH   7  37
ATOM     37  C   LIG d   1       4.320  -1.016  -2.020  0.00  0.00    -0.025 C 
ATOM     38  H   LIG d   1       3.231  -1.063  -1.975  0.00  0.00     0.031 H 
ATOM     39  H   LIG d   1       4.742  -1.592  -1.196  0.00  0.00     0.031 H 
BRANCH  37  40
ATOM     40  C   LIG d   1       4.773   0.441  -1.908  0.00  0.00    -0.026 C 
ATOM     41  H   LIG d   1       5.138   0.631  -0.900  0.00  0.00     0.029 H 
ATOM     42  H   LIG d   1       5.571   0.629  -2.626  0.00  0.00     0.029 H 
BRANCH  40  43
ATOM     43  C   LIG d   1       3.591   1.368  -2.206  0.00  0.00     0.044 C 
ATOM     44  H   LIG d   1       2.677   0.779  -2.272  0.00  0.00     0.056 H 
ATOM     45  H   LIG d   1       3.494   2.100  -1.404  0.00  0.00     0.056 H 
BRANCH  43  46
ATOM     46  O   LIG d   1       3.815   2.043  -3.444  0.00  0.00    -0.395 OA
ATOM     47  H   LIG d   1       4.230   2.911  -3.350  0.00  0.00     0.209 HD
ENDBRANCH  43  46
ENDBRANCH  40  43
ENDBRANCH  37  40
ENDBRANCH   7  37
TORSDOF 11
ENDMDL
MODEL 5
REMARK VINA RESULT:      -5.5      3.872      6.490
REMARK  11 active torsions:
REMARK  status: ('A' for Active; 'I' for Inactive)
REMARK    1  A    between atoms: C_1  and  O_2 
REMARK    2  A    between atoms: O_2  and  C_3 
REMARK    3  A    between atoms: C_5  and  C_10 
REMARK    4  A    between atoms: C_8  and  O_9 
REMARK    5  A    between atoms: C_12  and  C_26 
REMARK    6  A    between atoms: C_16  and  C_22 
REMARK    7  A    between atoms: C_18  and  O_21 
REMARK    8  A    between atoms: C_22  and  C_23 
REMARK    9  A    between atoms: C_23  and  C_24 
REMARK   10  A    between atoms: C_24  and  O_25 
REMARK   11  A    between atoms: C_26  and  O_27 
ROOT
ATOM      1  C   LIG d   1       5.796  -1.312  -4.013  0.00  0.00     0.134 C 
ATOM      2  H   LIG d   1       5.925  -1.916  -3.115  0.00  0.00     0.079 H 
ATOM      3  C   LIG d   1       5.632  -2.213  -5.261  0.00  0.00     0.052 C 
ATOM      4  H   LIG d   1       6.577  -2.313  -5.795  0.00  0.00     0.041 H 
ATOM      5  C   LIG d   1       4.626  -1.430  -6.081  0.00  0.00     0.007 A 
ATOM      6  C   LIG d   1       4.247  -1.514  -7.404  0.00  0.00    -0.051 A 
ATOM      7  C   LIG d   1       3.288  -0.653  -7.908  0.00  0.00    -0.043 A 
ATOM      8  C   LIG d   1       2.712   0.293  -7.080  0.00  0.00    -0.013 A 
ATOM      9  C   LIG d   1       3.086   0.378  -5.750  0.00  0.00     0.159 A 
ATOM     10  C   LIG d   1       4.051  -0.492  -5.236  0.00  0.00     0.166 A 
ATOM     11  O   LIG d   1       4.551  -0.595  -3.968  0.00  0.00    -0.480 OA
ATOM     12  H   LIG d   1       4.699  -2.254  -8.049  0.00  0.00     0.062 H 
ATOM     13  H   LIG d   1       1.965   0.968  -7.472  0.00  0.00     0.066 H 
ENDROOT
BRANCH   1  14
ATOM     14  C   LIG d   1       6.953  -0.363  -4.188  0.00  0.00    -0.003 A 
ATOM     15  C   LIG d   1       8.055  -0.747  -4.929  0.00  0.00    -0.010 A 
ATOM     16  C   LIG d   1       9.120   0.125  -5.091  0.00  0.00     0.162 A 
ATOM     17  H   LIG d   1       8.085  -1.727  -5.384  0.00  0.00     0.066 H 
ATOM     18  C   LIG d   1       9.080   1.384  -4.500  0.00  0.00     0.159 A 
ATOM     19  C   LIG d   1       7.971   1.765  -3.763  0.00  0.00    -0.016 A 
ATOM     20  C   LIG d   1       6.911   0.891  -3.606  0.00  0.00    -0.051 A 
ATOM     21  H   LIG d   1       7.935   2.744  -3.307  0.00  0.00     0.066 H 
ATOM     22  H   LIG d   1       6.049   1.187  -3.028  0.00  0.00     0.062 H 
BRANCH  16  23
ATOM     23  O   LIG d   1      10.204  -0.252  -5.820  0.00  0.00    -0.491 OA
BRANCH  23  24
ATOM     24  C   LIG d   1      10.071  -0.227  -7.243  0.00  0.00     0.079 C 
ATOM     25  H   LIG d   1       9.114  -0.663  -7.526  0.00  0.00     0.066 H 
ATOM     26  H   LIG d   1      10.117   0.804  -7.593  0.00  0.00     0.066 H 
ATOM     27  H   LIG d   1      10.880  -0.801  -7.693  0.00  0.00     0.066 H 
ENDBRANCH  23  24
ENDBRANCH  16  23
BRANCH  18  28
ATOM     28  O   LIG d   1      10.125   2.241  -4.651  0.00  0.00    -0.503 OA
ATOM     29  H   LIG d   1       9.862   3.163  -4.774  0.00  0.00     0.292 HD
ENDBRANCH  18  28
ENDBRANCH   1  14
BRANCH   3  30
ATOM     30  C   LIG d   1       5.076  -3.585  -4.875  0.00  0.00     0.055 C 
ATOM     31  H   LIG d   1       4.524  -4.002  -5.716  0.00  0.00     0.056 H 
ATOM     32  H   LIG d   1       5.900  -4.250  -4.615  0.00  0.00     0.056 H 
BRANCH  30  33
ATOM     33  O   LIG d   1       4.204  -3.447  -3.752  0.00  0.00    -0.394 OA
ATOM     34  H   LIG d   1       3.300  -3.745  -3.917  0.00  0.00     0.209 HD
ENDBRANCH  30  33
ENDBRANCH   3  30
BRANCH   9  35
ATOM     35  O   LIG d   1       2.515   1.310  -4.943  0.00  0.00    -0.503 OA
ATOM     36  H   LIG d   1       2.983   1.449  -4.108  0.00  0.00     0.292 HD
ENDBRANCH   9  35
BRANCH   7  37
ATOM     37  C   LIG d   1       2.874  -0.745  -9.353  0.00  0.00    -0.025 C 
ATOM     38  H   LIG d   1       3.639  -1.279  -9.917  0.00  0.00     0.031 H 
ATOM     39  H   LIG d   1       1.928  -1.280  -9.427  0.00  0.00     0.031 H 
BRANCH  37  40
ATOM     40  C   LIG d   1       2.709   0.664  -9.927  0.00  0.00    -0.026 C 
ATOM     41  H   LIG d   1       1.792   0.711 -10.515  0.00  0.00     0.029 H 
ATOM     42  H   LIG d   1       2.654   1.385  -9.111  0.00  0.00     0.029 H 
BRANCH  40  43
ATOM     43  C   LIG d   1       3.906   0.996 -10.821  0.00  0.00     0.044 C 
ATOM     44  H   LIG d   1       4.382   0.071 -11.147  0.00  0.00     0.056 H 
ATOM     45  H   LIG d   1       3.564   1.555 -11.692  0.00  0.00     0.056 H 
BRANCH  43  46
ATOM     46  O   LIG d   1       4.845   1.784 -10.087  0.00  0.00    -0.395 OA
ATOM     47  H   LIG d   1       4.556   2.006  -9.192  0.00  0.00     0.209 HD
ENDBRANCH  43  46
ENDBRANCH  40  43
ENDBRANCH  37  40
ENDBRANCH   7  37
TORSDOF 11
ENDMDL
MODEL 6
REMARK VINA RESULT:      -5.3      3.452      5.862
REMARK  11 active torsions:
REMARK  status: ('A' for Active; 'I' for Inactive)
REMARK    1  A    between atoms: C_1  and  O_2 
REMARK    2  A    between atoms: O_2  and  C_3 
REMARK    3  A    between atoms: C_5  and  C_10 
REMARK    4  A    between atoms: C_8  and  O_9 
REMARK    5  A    between atoms: C_12  and  C_26 
REMARK    6  A    between atoms: C_16  and  C_22 
REMARK    7  A    between atoms: C_18  and  O_21 
REMARK    8  A    between atoms: C_22  and  C_23 
REMARK    9  A    between atoms: C_23  and  C_24 
REMARK   10  A    between atoms: C_24  and  O_25 
REMARK   11  A    between atoms: C_26  and  O_27 
ROOT
ATOM      1  C   LIG d   1       9.306   0.000  -6.052  0.00  0.00     0.134 C 
ATOM      2  H   LIG d   1       9.567   0.006  -7.110  0.00  0.00     0.079 H 
ATOM      3  C   LIG d   1       8.161   1.002  -5.765  0.00  0.00     0.052 C 
ATOM      4  H   LIG d   1       8.555   1.943  -5.382  0.00  0.00     0.041 H 
ATOM      5  C   LIG d   1       7.368   0.273  -4.699  0.00  0.00     0.007 A 
ATOM      6  C   LIG d   1       6.399   0.698  -3.815  0.00  0.00    -0.051 A 
ATOM      7  C   LIG d   1       5.832  -0.195  -2.923  0.00  0.00    -0.043 A 
ATOM      8  C   LIG d   1       6.241  -1.516  -2.921  0.00  0.00    -0.013 A 
ATOM      9  C   LIG d   1       7.211  -1.949  -3.809  0.00  0.00     0.159 A 
ATOM     10  C   LIG d   1       7.783  -1.051  -4.714  0.00  0.00     0.166 A 
ATOM     11  O   LIG d   1       8.730  -1.263  -5.677  0.00  0.00    -0.480 OA
ATOM     12  H   LIG d   1       6.081   1.731  -3.818  0.00  0.00     0.062 H 
ATOM     13  H   LIG d   1       5.802  -2.215  -2.224  0.00  0.00     0.066 H 
ENDROOT
BRANCH   1  14
ATOM     14  C   LIG d   1      10.512   0.310  -5.204  0.00  0.00    -0.003 A 
ATOM     15  C   LIG d   1      10.626   1.545  -4.592  0.00  0.00    -0.010 A 
ATOM     16  C   LIG d   1      11.736   1.831  -3.812  0.00  0.00     0.162 A 
ATOM     17  H   LIG d   1       9.851   2.286  -4.722  0.00  0.00     0.066 H 
ATOM     18  C   LIG d   1      12.734   0.876  -3.651  0.00  0.00     0.159 A 
ATOM     19  C   LIG d   1      12.610  -0.361  -4.261  0.00  0.00    -0.016 A 
ATOM     20  C   LIG d   1      11.502  -0.641  -5.039  0.00  0.00    -0.051 A 
ATOM     21  H   LIG d   1      13.383  -1.106  -4.134  0.00  0.00     0.066 H 
ATOM     22  H   LIG d   1      11.408  -1.604  -5.518  0.00  0.00     0.062 H 
BRANCH  16  23
ATOM     23  O   LIG d   1      11.849   3.045  -3.210  0.00  0.00    -0.491 OA
BRANCH  23  24
ATOM     24  C   LIG d   1      10.665   3.596  -2.630  0.00  0.00     0.079 C 
ATOM     25  H   LIG d   1      10.208   4.294  -3.330  0.00  0.00     0.066 H 
ATOM     26  H   LIG d   1       9.962   2.793  -2.408  0.00  0.00     0.066 H 
ATOM     27  H   LIG d   1      10.921   4.120  -1.709  0.00  0.00     0.066 H 
ENDBRANCH  23  24
ENDBRANCH  16  23
BRANCH  18  28
ATOM     28  O   LIG d   1      13.827   1.154  -2.891  0.00  0.00    -0.503 OA
ATOM     29  H   LIG d   1      13.887   0.629  -2.082  0.00  0.00     0.292 HD
ENDBRANCH  18  28
ENDBRANCH   1  14
BRANCH   3  30
ATOM     30  C   LIG d   1       7.313   1.235  -7.016  0.00  0.00     0.055 C 
ATOM     31  H   LIG d   1       6.259   1.117  -6.768  0.00  0.00     0.056 H 
ATOM     32  H   LIG d   1       7.487   2.244  -7.391  0.00  0.00     0.056 H 
BRANCH  30  33
ATOM     33  O   LIG d   1       7.675   0.286  -8.021  0.00  0.00    -0.394 OA
ATOM     34  H   LIG d   1       7.671  -0.631  -7.716  0.00  0.00     0.209 HD
ENDBRANCH  30  33
ENDBRANCH   3  30
BRANCH   9  35
ATOM     35  O   LIG d   1       7.607  -3.249  -3.801  0.00  0.00    -0.503 OA
ATOM     36  H   LIG d   1       6.940  -3.862  -3.463  0.00  0.00     0.292 HD
ENDBRANCH   9  35
BRANCH   7  37
ATOM     37  C   LIG d   1       4.774   0.269  -1.957  0.00  0.00    -0.025 C 
ATOM     38  H   LIG d   1       4.529  -0.540  -1.269  0.00  0.00     0.031 H 
ATOM     39  H   LIG d   1       5.145   1.125  -1.394  0.00  0.00     0.031 H 
BRANCH  37  40
ATOM     40  C   LIG d   1       3.518   0.676  -2.733  0.00  0.00    -0.026 C 
ATOM     41  H   LIG d   1       2.909   1.336  -2.116  0.00  0.00     0.029 H 
ATOM     42  H   LIG d   1       3.808   1.196  -3.646  0.00  0.00     0.029 H 
BRANCH  40  43
ATOM     43  C   LIG d   1       2.713  -0.575  -3.092  0.00  0.00     0.044 C 
ATOM     44  H   LIG d   1       3.377  -1.438  -3.123  0.00  0.00     0.056 H 
ATOM     45  H   LIG d   1       1.940  -0.737  -2.340  0.00  0.00     0.056 H 
BRANCH  43  46
ATOM     46  O   LIG d   1       2.102  -0.397  -4.371  0.00  0.00    -0.395 OA
ATOM     47  H   LIG d   1       2.522  -0.901  -5.081  0.00  0.00     0.209 HD
ENDBRANCH  43  46
ENDBRANCH  40  43
ENDBRANCH  37  40
ENDBRANCH   7  37
TORSDOF 11
ENDMDL
MODEL 7
REMARK VINA RESULT:      -5.3      4.343      6.188
REMARK  11 active torsions:
REMARK  status: ('A' for Active; 'I' for Inactive)
REMARK    1  A    between atoms: C_1  and  O_2 
REMARK    2  A    between atoms: O_2  and  C_3 
REMARK    3  A    between atoms: C_5  and  C_10 
REMARK    4  A    between atoms: C_8  and  O_9 
REMARK    5  A    between atoms: C_12  and  C_26 
REMARK    6  A    between atoms: C_16  and  C_22 
REMARK    7  A    between atoms: C_18  and  O_21 
REMARK    8  A    between atoms: C_22  and  C_23 
REMARK    9  A    between atoms: C_23  and  C_24 
REMARK   10  A    between atoms: C_24  and  O_25 
REMARK   11  A    between atoms: C_26  and  O_27 
ROOT
ATOM      1  C   LIG d   1       5.592  -2.407  -7.989  0.00  0.00     0.134 C 
ATOM      2  H   LIG d   1       6.499  -2.408  -8.593  0.00  0.00     0.079 H 
ATOM      3  C   LIG d   1       5.935  -2.509  -6.484  0.00  0.00     0.052 C 
ATOM      4  H   LIG d   1       5.842  -3.536  -6.132  0.00  0.00     0.041 H 
ATOM      5  C   LIG d   1       4.874  -1.624  -5.860  0.00  0.00     0.007 A 
ATOM      6  C   LIG d   1       4.431  -1.487  -4.562  0.00  0.00    -0.051 A 
ATOM      7  C   LIG d   1       3.420  -0.589  -4.265  0.00  0.00    -0.043 A 
ATOM      8  C   LIG d   1       2.857   0.169  -5.274  0.00  0.00    -0.013 A 
ATOM      9  C   LIG d   1       3.301   0.038  -6.578  0.00  0.00     0.159 A 
ATOM     10  C   LIG d   1       4.324  -0.865  -6.883  0.00  0.00     0.166 A 
ATOM     11  O   LIG d   1       4.921  -1.139  -8.082  0.00  0.00    -0.480 OA
ATOM     12  H   LIG d   1       4.872  -2.081  -3.775  0.00  0.00     0.062 H 
ATOM     13  H   LIG d   1       2.066   0.868  -5.045  0.00  0.00     0.066 H 
ENDROOT
BRANCH   1  14
ATOM     14  C   LIG d   1       4.675  -3.529  -8.405  0.00  0.00    -0.003 A 
ATOM     15  C   LIG d   1       3.768  -3.334  -9.429  0.00  0.00    -0.010 A 
ATOM     16  C   LIG d   1       2.924  -4.365  -9.813  0.00  0.00     0.162 A 
ATOM     17  H   LIG d   1       3.716  -2.379  -9.932  0.00  0.00     0.066 H 
ATOM     18  C   LIG d   1       2.990  -5.592  -9.161  0.00  0.00     0.159 A 
ATOM     19  C   LIG d   1       3.906  -5.783  -8.140  0.00  0.00    -0.016 A 
ATOM     20  C   LIG d   1       4.745  -4.751  -7.761  0.00  0.00    -0.051 A 
ATOM     21  H   LIG d   1       3.962  -6.736  -7.635  0.00  0.00     0.066 H 
ATOM     22  H   LIG d   1       5.456  -4.898  -6.963  0.00  0.00     0.062 H 
BRANCH  16  23
ATOM     23  O   LIG d   1       2.031  -4.175 -10.820  0.00  0.00    -0.491 OA
BRANCH  23  24
ATOM     24  C   LIG d   1       0.888  -3.367 -10.530  0.00  0.00     0.079 C 
ATOM     25  H   LIG d   1       0.693  -3.384  -9.459  0.00  0.00     0.066 H 
ATOM     26  H   LIG d   1       1.077  -2.342 -10.849  0.00  0.00     0.066 H 
ATOM     27  H   LIG d   1       0.022  -3.759 -11.063  0.00  0.00     0.066 H 
ENDBRANCH  23  24
ENDBRANCH  16  23
BRANCH  18  28
ATOM     28  O   LIG d   1       2.161  -6.605  -9.530  0.00  0.00    -0.503 OA
ATOM     29  H   LIG d   1       2.390  -7.461  -9.144  0.00  0.00     0.292 HD
ENDBRANCH  18  28
ENDBRANCH   1  14
BRANCH   3  30
ATOM     30  C   LIG d   1       7.337  -1.963  -6.205  0.00  0.00     0.055 C 
ATOM     31  H   LIG d   1       7.294  -1.258  -5.376  0.00  0.00     0.056 H 
ATOM     32  H   LIG d   1       8.003  -2.787  -5.948  0.00  0.00     0.056 H 
BRANCH  30  33
ATOM     33  O   LIG d   1       7.830  -1.300  -7.370  0.00  0.00    -0.394 OA
ATOM     34  H   LIG d   1       7.749  -1.818  -8.182  0.00  0.00     0.209 HD
ENDBRANCH  30  33
ENDBRANCH   3  30
BRANCH   9  35
ATOM     35  O   LIG d   1       2.742   0.787  -7.565  0.00  0.00    -0.503 OA
ATOM     36  H   LIG d   1       1.847   0.513  -7.808  0.00  0.00     0.292 HD
ENDBRANCH   9  35
BRANCH   7  37
ATOM     37  C   LIG d   1       2.936  -0.439  -2.847  0.00  0.00    -0.025 C 
ATOM     38  H   LIG d   1       2.307   0.448  -2.769  0.00  0.00     0.031 H 
ATOM     39  H   LIG d   1       2.358  -1.320  -2.564  0.00  0.00     0.031 H 
BRANCH  37  40
ATOM     40  C   LIG d   1       4.137  -0.297  -1.909  0.00  0.00    -0.026 C 
ATOM     41  H   LIG d   1       3.871  -0.667  -0.920  0.00  0.00     0.029 H 
ATOM     42  H   LIG d   1       4.974  -0.875  -2.301  0.00  0.00     0.029 H 
BRANCH  40  43
ATOM     43  C   LIG d   1       4.537   1.177  -1.812  0.00  0.00     0.044 C 
ATOM     44  H   LIG d   1       3.754   1.795  -2.251  0.00  0.00     0.056 H 
ATOM     45  H   LIG d   1       4.669   1.449  -0.764  0.00  0.00     0.056 H 
BRANCH  43  46
ATOM     46  O   LIG d   1       5.762   1.387  -2.517  0.00  0.00    -0.395 OA
ATOM     47  H   LIG d   1       6.551   1.305  -1.965  0.00  0.00     0.209 HD
ENDBRANCH  43  46
ENDBRANCH  40  43
ENDBRANCH  37  40
ENDBRANCH   7  37
TORSDOF 11
ENDMDL
MODEL 8
REMARK VINA RESULT:      -5.1      3.183      6.151
REMARK  11 active torsions:
REMARK  status: ('A' for Active; 'I' for Inactive)
REMARK    1  A    between atoms: C_1  and  O_2 
REMARK    2  A    between atoms: O_2  and  C_3 
REMARK    3  A    between atoms: C_5  and  C_10 
REMARK    4  A    between atoms: C_8  and  O_9 
REMARK    5  A    between atoms: C_12  and  C_26 
REMARK    6  A    between atoms: C_16  and  C_22 
REMARK    7  A    between atoms: C_18  and  O_21 
REMARK    8  A    between atoms: C_22  and  C_23 
REMARK    9  A    between atoms: C_23  and  C_24 
REMARK   10  A    between atoms: C_24  and  O_25 
REMARK   11  A    between atoms: C_26  and  O_27 
ROOT
ATOM      1  C   LIG d   1       6.148  -4.254  -6.885  0.00  0.00     0.134 C 
ATOM      2  H   LIG d   1       6.342  -5.240  -7.307  0.00  0.00     0.079 H 
ATOM      3  C   LIG d   1       4.885  -4.280  -5.991  0.00  0.00     0.052 C 
ATOM      4  H   LIG d   1       4.014  -3.916  -6.537  0.00  0.00     0.041 H 
ATOM      5  C   LIG d   1       5.267  -3.322  -4.881  0.00  0.00     0.007 A 
ATOM      6  C   LIG d   1       4.521  -2.679  -3.916  0.00  0.00    -0.051 A 
ATOM      7  C   LIG d   1       5.136  -1.834  -3.010  0.00  0.00    -0.043 A 
ATOM      8  C   LIG d   1       6.503  -1.636  -3.076  0.00  0.00    -0.013 A 
ATOM      9  C   LIG d   1       7.258  -2.282  -4.040  0.00  0.00     0.159 A 
ATOM     10  C   LIG d   1       6.640  -3.139  -4.954  0.00  0.00     0.166 A 
ATOM     11  O   LIG d   1       7.187  -3.883  -5.963  0.00  0.00    -0.480 OA
ATOM     12  H   LIG d   1       3.452  -2.836  -3.867  0.00  0.00     0.062 H 
ATOM     13  H   LIG d   1       6.986  -0.974  -2.371  0.00  0.00     0.066 H 
ENDROOT
BRANCH   1  14
ATOM     14  C   LIG d   1       6.009  -3.225  -7.976  0.00  0.00    -0.003 A 
ATOM     15  C   LIG d   1       7.136  -2.633  -8.514  0.00  0.00    -0.010 A 
ATOM     16  C   LIG d   1       7.010  -1.685  -9.518  0.00  0.00     0.162 A 
ATOM     17  H   LIG d   1       8.116  -2.909  -8.152  0.00  0.00     0.066 H 
ATOM     18  C   LIG d   1       5.746  -1.329  -9.978  0.00  0.00     0.159 A 
ATOM     19  C   LIG d   1       4.621  -1.931  -9.440  0.00  0.00    -0.016 A 
ATOM     20  C   LIG d   1       4.753  -2.874  -8.438  0.00  0.00    -0.051 A 
ATOM     21  H   LIG d   1       3.639  -1.659  -9.798  0.00  0.00     0.066 H 
ATOM     22  H   LIG d   1       3.875  -3.340  -8.016  0.00  0.00     0.062 H 
BRANCH  16  23
ATOM     23  O   LIG d   1       8.118  -1.102 -10.048  0.00  0.00    -0.491 OA
BRANCH  23  24
ATOM     24  C   LIG d   1       8.760  -0.095  -9.263  0.00  0.00     0.079 C 
ATOM     25  H   LIG d   1       8.074   0.736  -9.107  0.00  0.00     0.066 H 
ATOM     26  H   LIG d   1       9.047  -0.514  -8.298  0.00  0.00     0.066 H 
ATOM     27  H   LIG d   1       9.649   0.260  -9.784  0.00  0.00     0.066 H 
ENDBRANCH  23  24
ENDBRANCH  16  23
BRANCH  18  28
ATOM     28  O   LIG d   1       5.616  -0.396 -10.959  0.00  0.00    -0.503 OA
ATOM     29  H   LIG d   1       5.036   0.341 -10.726  0.00  0.00     0.292 HD
ENDBRANCH  18  28
ENDBRANCH   1  14
BRANCH   3  30
ATOM     30  C   LIG d   1       4.633  -5.685  -5.440  0.00  0.00     0.055 C 
ATOM     31  H   LIG d   1       4.444  -5.627  -4.369  0.00  0.00     0.056 H 
ATOM     32  H   LIG d   1       3.768  -6.122  -5.940  0.00  0.00     0.056 H 
BRANCH  30  33
ATOM     33  O   LIG d   1       5.782  -6.502  -5.678  0.00  0.00    -0.394 OA
ATOM     34  H   LIG d   1       5.883  -7.230  -5.051  0.00  0.00     0.209 HD
ENDBRANCH  30  33
ENDBRANCH   3  30
BRANCH   9  35
ATOM     35  O   LIG d   1       8.601  -2.082  -4.097  0.00  0.00    -0.503 OA
ATOM     36  H   LIG d   1       9.125  -2.845  -3.816  0.00  0.00     0.292 HD
ENDBRANCH   9  35
BRANCH   7  37
ATOM     37  C   LIG d   1       4.321  -1.132  -1.956  0.00  0.00    -0.025 C 
ATOM     38  H   LIG d   1       3.775  -1.870  -1.367  0.00  0.00     0.031 H 
ATOM     39  H   LIG d   1       4.983  -0.562  -1.303  0.00  0.00     0.031 H 
BRANCH  37  40
ATOM     40  C   LIG d   1       3.327  -0.181  -2.629  0.00  0.00    -0.026 C 
ATOM     41  H   LIG d   1       3.344  -0.342  -3.706  0.00  0.00     0.029 H 
ATOM     42  H   LIG d   1       2.325  -0.376  -2.248  0.00  0.00     0.029 H 
BRANCH  40  43
ATOM     43  C   LIG d   1       3.718   1.266  -2.322  0.00  0.00     0.044 C 
ATOM     44  H   LIG d   1       2.859   1.916  -2.488  0.00  0.00     0.056 H 
ATOM     45  H   LIG d   1       4.036   1.343  -1.282  0.00  0.00     0.056 H 
BRANCH  43  46
ATOM     46  O   LIG d   1       4.790   1.663  -3.179  0.00  0.00    -0.395 OA
ATOM     47  H   LIG d   1       4.940   1.065  -3.923  0.00  0.00     0.209 HD
ENDBRANCH  43  46
ENDBRANCH  40  43
ENDBRANCH  37  40
ENDBRANCH   7  37
TORSDOF 11
ENDMDL
MODEL 9
REMARK VINA RESULT:      -5.1      3.443      5.193
REMARK  11 active torsions:
REMARK  status: ('A' for Active; 'I' for Inactive)
REMARK    1  A    between atoms: C_1  and  O_2 
REMARK    2  A    between atoms: O_2  and  C_3 
REMARK    3  A    between atoms: C_5  and  C_10 
REMARK    4  A    between atoms: C_8  and  O_9 
REMARK    5  A    between atoms: C_12  and  C_26 
REMARK    6  A    between atoms: C_16  and  C_22 
REMARK    7  A    between atoms: C_18  and  O_21 
REMARK    8  A    between atoms: C_22  and  C_23 
REMARK    9  A    between atoms: C_23  and  C_24 
REMARK   10  A    between atoms: C_24  and  O_25 
REMARK   11  A    between atoms: C_26  and  O_27 
ROOT
ATOM      1  C   LIG d   1       9.358  -0.014  -6.062  0.00  0.00     0.134 C 
ATOM      2  H   LIG d   1       9.623  -0.006  -7.119  0.00  0.00     0.079 H 
ATOM      3  C   LIG d   1       8.218   0.993  -5.776  0.00  0.00     0.052 C 
ATOM      4  H   LIG d   1       8.614   1.931  -5.389  0.00  0.00     0.041 H 
ATOM      5  C   LIG d   1       7.418   0.264  -4.714  0.00  0.00     0.007 A 
ATOM      6  C   LIG d   1       6.448   0.692  -3.832  0.00  0.00    -0.051 A 
ATOM      7  C   LIG d   1       5.875  -0.201  -2.944  0.00  0.00    -0.043 A 
ATOM      8  C   LIG d   1       6.277  -1.524  -2.945  0.00  0.00    -0.013 A 
ATOM      9  C   LIG d   1       7.248  -1.959  -3.831  0.00  0.00     0.159 A 
ATOM     10  C   LIG d   1       7.827  -1.061  -4.732  0.00  0.00     0.166 A 
ATOM     11  O   LIG d   1       8.775  -1.275  -5.693  0.00  0.00    -0.480 OA
ATOM     12  H   LIG d   1       6.135   1.726  -3.833  0.00  0.00     0.062 H 
ATOM     13  H   LIG d   1       5.833  -2.223  -2.251  0.00  0.00     0.066 H 
ENDROOT
BRANCH   1  14
ATOM     14  C   LIG d   1      10.563   0.289  -5.210  0.00  0.00    -0.003 A 
ATOM     15  C   LIG d   1      11.492  -0.702  -4.952  0.00  0.00    -0.010 A 
ATOM     16  C   LIG d   1      12.601  -0.426  -4.168  0.00  0.00     0.162 A 
ATOM     17  H   LIG d   1      11.355  -1.692  -5.363  0.00  0.00     0.066 H 
ATOM     18  C   LIG d   1      12.773   0.849  -3.637  0.00  0.00     0.159 A 
ATOM     19  C   LIG d   1      11.842   1.839  -3.904  0.00  0.00    -0.016 A 
ATOM     20  C   LIG d   1      10.738   1.557  -4.687  0.00  0.00    -0.051 A 
ATOM     21  H   LIG d   1      11.976   2.830  -3.497  0.00  0.00     0.066 H 
ATOM     22  H   LIG d   1      10.010   2.328  -4.891  0.00  0.00     0.062 H 
BRANCH  16  23
ATOM     23  O   LIG d   1      13.516  -1.400  -3.914  0.00  0.00    -0.491 OA
BRANCH  23  24
ATOM     24  C   LIG d   1      13.073  -2.753  -4.036  0.00  0.00     0.079 C 
ATOM     25  H   LIG d   1      13.771  -3.309  -4.662  0.00  0.00     0.066 H 
ATOM     26  H   LIG d   1      13.028  -3.211  -3.048  0.00  0.00     0.066 H 
ATOM     27  H   LIG d   1      12.083  -2.772  -4.491  0.00  0.00     0.066 H 
ENDBRANCH  23  24
ENDBRANCH  16  23
BRANCH  18  28
ATOM     28  O   LIG d   1      13.857   1.124  -2.863  0.00  0.00    -0.503 OA
ATOM     29  H   LIG d   1      14.490   1.728  -3.273  0.00  0.00     0.292 HD
ENDBRANCH  18  28
ENDBRANCH   1  14
BRANCH   3  30
ATOM     30  C   LIG d   1       7.374   1.234  -7.029  0.00  0.00     0.055 C 
ATOM     31  H   LIG d   1       6.317   1.206  -6.766  0.00  0.00     0.056 H 
ATOM     32  H   LIG d   1       7.618   2.209  -7.449  0.00  0.00     0.056 H 
BRANCH  30  33
ATOM     33  O   LIG d   1       7.652   0.217  -7.993  0.00  0.00    -0.394 OA
ATOM     34  H   LIG d   1       6.924  -0.403  -8.133  0.00  0.00     0.209 HD
ENDBRANCH  30  33
ENDBRANCH   3  30
BRANCH   9  35
ATOM     35  O   LIG d   1       7.638  -3.261  -3.825  0.00  0.00    -0.503 OA
ATOM     36  H   LIG d   1       7.589  -3.690  -4.690  0.00  0.00     0.292 HD
ENDBRANCH   9  35
BRANCH   7  37
ATOM     37  C   LIG d   1       4.816   0.265  -1.980  0.00  0.00    -0.025 C 
ATOM     38  H   LIG d   1       4.595  -0.531  -1.268  0.00  0.00     0.031 H 
ATOM     39  H   LIG d   1       5.174   1.143  -1.443  0.00  0.00     0.031 H 
BRANCH  37  40
ATOM     40  C   LIG d   1       3.545   0.625  -2.753  0.00  0.00    -0.026 C 
ATOM     41  H   LIG d   1       2.933   1.298  -2.153  0.00  0.00     0.029 H 
ATOM     42  H   LIG d   1       3.815   1.116  -3.688  0.00  0.00     0.029 H 
BRANCH  40  43
ATOM     43  C   LIG d   1       2.754  -0.649  -3.056  0.00  0.00     0.044 C 
ATOM     44  H   LIG d   1       3.440  -1.492  -3.136  0.00  0.00     0.056 H 
ATOM     45  H   LIG d   1       2.042  -0.835  -2.252  0.00  0.00     0.056 H 
BRANCH  43  46
ATOM     46  O   LIG d   1       2.048  -0.491  -4.289  0.00  0.00    -0.395 OA
ATOM     47  H   LIG d   1       1.605  -1.293  -4.594  0.00  0.00     0.209 HD
ENDBRANCH  43  46
ENDBRANCH  40  43
ENDBRANCH  37  40
ENDBRANCH   7  37
TORSDOF 11
ENDMDL
MODEL 10
REMARK VINA RESULT:      -5.1      2.476      3.623
REMARK  11 active torsions:
REMARK  status: ('A' for Active; 'I' for Inactive)
REMARK    1  A    between atoms: C_1  and  O_2 
REMARK    2  A    between atoms: O_2  and  C_3 
REMARK    3  A    between atoms: C_5  and  C_10 
REMARK    4  A    between atoms: C_8  and  O_9 
REMARK    5  A    between atoms: C_12  and  C_26 
REMARK    6  A    between atoms: C_16  and  C_22 
REMARK    7  A    between atoms: C_18  and  O_21 
REMARK    8  A    between atoms: C_22  and  C_23 
REMARK    9  A    between atoms: C_23  and  C_24 
REMARK   10  A    between atoms: C_24  and  O_25 
REMARK   11  A    between atoms: C_26  and  O_27 
ROOT
ATOM      1  C   LIG d   1       8.888  -1.653  -5.936  0.00  0.00     0.134 C 
ATOM      2  H   LIG d   1       9.295  -1.325  -6.891  0.00  0.00     0.079 H 
ATOM      3  C   LIG d   1       8.325  -0.453  -5.137  0.00  0.00     0.052 C 
ATOM      4  H   LIG d   1       9.047  -0.104  -4.399  0.00  0.00     0.041 H 
ATOM      5  C   LIG d   1       7.113  -1.066  -4.463  0.00  0.00     0.007 A 
ATOM      6  C   LIG d   1       6.328  -0.643  -3.412  0.00  0.00    -0.051 A 
ATOM      7  C   LIG d   1       5.264  -1.417  -2.985  0.00  0.00    -0.043 A 
ATOM      8  C   LIG d   1       4.991  -2.617  -3.616  0.00  0.00    -0.013 A 
ATOM      9  C   LIG d   1       5.774  -3.043  -4.675  0.00  0.00     0.159 A 
ATOM     10  C   LIG d   1       6.847  -2.263  -5.112  0.00  0.00     0.166 A 
ATOM     11  O   LIG d   1       7.728  -2.479  -6.135  0.00  0.00    -0.480 OA
ATOM     12  H   LIG d   1       6.544   0.295  -2.920  0.00  0.00     0.062 H 
ATOM     13  H   LIG d   1       4.162  -3.224  -3.283  0.00  0.00     0.066 H 
ENDROOT
BRANCH   1  14
ATOM     14  C   LIG d   1       9.934  -2.385  -5.134  0.00  0.00    -0.003 A 
ATOM     15  C   LIG d   1      11.128  -1.760  -4.826  0.00  0.00    -0.010 A 
ATOM     16  C   LIG d   1      12.090  -2.432  -4.088  0.00  0.00     0.162 A 
ATOM     17  H   LIG d   1      11.310  -0.749  -5.158  0.00  0.00     0.066 H 
ATOM     18  C   LIG d   1      11.854  -3.736  -3.665  0.00  0.00     0.159 A 
ATOM     19  C   LIG d   1      10.652  -4.353  -3.972  0.00  0.00    -0.016 A 
ATOM     20  C   LIG d   1       9.696  -3.679  -4.708  0.00  0.00    -0.051 A 
ATOM     21  H   LIG d   1      10.464  -5.365  -3.641  0.00  0.00     0.066 H 
ATOM     22  H   LIG d   1       8.762  -4.162  -4.951  0.00  0.00     0.062 H 
BRANCH  16  23
ATOM     23  O   LIG d   1      13.266  -1.819  -3.785  0.00  0.00    -0.491 OA
BRANCH  23  24
ATOM     24  C   LIG d   1      13.314  -0.398  -3.933  0.00  0.00     0.079 C 
ATOM     25  H   LIG d   1      12.363  -0.041  -4.326  0.00  0.00     0.066 H 
ATOM     26  H   LIG d   1      13.503   0.062  -2.963  0.00  0.00     0.066 H 
ATOM     27  H   LIG d   1      14.115  -0.133  -4.623  0.00  0.00     0.066 H 
ENDBRANCH  23  24
ENDBRANCH  16  23
BRANCH  18  28
ATOM     28  O   LIG d   1      12.797  -4.401  -2.946  0.00  0.00    -0.503 OA
ATOM     29  H   LIG d   1      13.449  -3.825  -2.525  0.00  0.00     0.292 HD
ENDBRANCH  18  28
ENDBRANCH   1  14
BRANCH   3  30
ATOM     30  C   LIG d   1       7.914   0.683  -6.076  0.00  0.00     0.055 C 
ATOM     31  H   LIG d   1       6.904   1.010  -5.831  0.00  0.00     0.056 H 
ATOM     32  H   LIG d   1       8.605   1.518  -5.959  0.00  0.00     0.056 H 
BRANCH  30  33
ATOM     33  O   LIG d   1       7.951   0.221  -7.428  0.00  0.00    -0.394 OA
ATOM     34  H   LIG d   1       7.531  -0.639  -7.561  0.00  0.00     0.209 HD
ENDBRANCH  30  33
ENDBRANCH   3  30
BRANCH   9  35
ATOM     35  O   LIG d   1       5.499  -4.224  -5.290  0.00  0.00    -0.503 OA
ATOM     36  H   LIG d   1       5.290  -4.138  -6.231  0.00  0.00     0.292 HD
ENDBRANCH   9  35
BRANCH   7  37
ATOM     37  C   LIG d   1       4.406  -0.956  -1.836  0.00  0.00    -0.025 C 
ATOM     38  H   LIG d   1       3.360  -1.173  -2.053  0.00  0.00     0.031 H 
ATOM     39  H   LIG d   1       4.704  -1.477  -0.927  0.00  0.00     0.031 H 
BRANCH  37  40
ATOM     40  C   LIG d   1       4.583   0.552  -1.640  0.00  0.00    -0.026 C 
ATOM     41  H   LIG d   1       4.532   0.788  -0.578  0.00  0.00     0.029 H 
ATOM     42  H   LIG d   1       5.553   0.857  -2.034  0.00  0.00     0.029 H 
BRANCH  40  43
ATOM     43  C   LIG d   1       3.473   1.297  -2.383  0.00  0.00     0.044 C 
ATOM     44  H   LIG d   1       2.815   0.578  -2.870  0.00  0.00     0.056 H 
ATOM     45  H   LIG d   1       2.898   1.892  -1.673  0.00  0.00     0.056 H 
BRANCH  43  46
ATOM     46  O   LIG d   1       4.051   2.157  -3.367  0.00  0.00    -0.395 OA
ATOM     47  H   LIG d   1       3.664   2.063  -4.247  0.00  0.00     0.209 HD
ENDBRANCH  43  46
ENDBRANCH  40  43
ENDBRANCH  37  40
ENDBRANCH   7  37
TORSDOF 11
ENDMDL
