MODEL 1
REMARK VINA RESULT:      -7.0      0.000      0.000
REMARK  17 active torsions:
REMARK  status: ('A' for Active; 'I' for Inactive)
REMARK    1  A    between atoms: C_1  and  C_2 
REMARK    2  A    between atoms: C_2  and  C_4 
REMARK    3  A    between atoms: C_2  and  N_34 
REMARK       I    between atoms: C_4  and  N_6 
REMARK    4  A    between atoms: N_6  and  C_7 
REMARK    5  A    between atoms: C_7  and  C_9 
REMARK    6  A    between atoms: C_7  and  C_10 
REMARK       I    between atoms: C_10  and  N_12 
REMARK    7  A    between atoms: N_12  and  C_13 
REMARK    8  A    between atoms: C_13  and  C_15 
REMARK    9  A    between atoms: C_13  and  C_22 
REMARK   10  A    between atoms: C_15  and  C_16 
REMARK       I    between atoms: C_22  and  N_24 
REMARK   11  A    between atoms: N_24  and  C_25 
REMARK   12  A    between atoms: C_28  and  C_31 
REMARK   13  A    between atoms: N_34  and  CA_35 
REMARK   14  A    between atoms: CA_35  and  C_37 
REMARK   15  A    between atoms: CA_35  and  C_45 
REMARK   16  A    between atoms: C_37  and  C_38 
REMARK   17  A    between atoms: C_38  and  C_39 
ROOT
ATOM      1  C   LIG d   1       3.362  -5.132  -8.793  0.00  0.00     0.097 C 
ATOM      2  H   LIG d   1       2.329  -5.480  -8.839  0.00  0.00     0.059 H 
ENDROOT
BRANCH   1   3
ATOM      3  N   LIG d   1       3.413  -3.706  -9.121  0.00  0.00    -0.300 N 
ATOM      4  C   LIG d   1       2.365  -3.116  -9.728  0.00  0.00     0.262 C 
ATOM      5  O   LIG d   1       1.378  -3.767 -10.004  0.00  0.00    -0.270 OA
ATOM      6  H   LIG d   1       4.202  -3.185  -8.901  0.00  0.00     0.150 HD
BRANCH   4   7
ATOM      7  C   LIG d   1       2.417  -1.648 -10.066  0.00  0.00     0.053 C 
ATOM      8  H   LIG d   1       1.443  -1.197  -9.874  0.00  0.00     0.095 H 
BRANCH   7   9
ATOM      9  C   LIG d   1       2.776  -1.477 -11.544  0.00  0.00    -0.013 C 
ATOM     10  H   LIG d   1       2.223  -2.204 -12.138  0.00  0.00     0.029 H 
ATOM     11  H   LIG d   1       2.515  -0.468 -11.866  0.00  0.00     0.029 H 
ATOM     12  H   LIG d   1       3.846  -1.637 -11.677  0.00  0.00     0.029 H 
ENDBRANCH   7   9
BRANCH   7  13
ATOM     13  N   LIG d   1       3.433  -0.989  -9.235  0.00  0.00     0.242 N 
ATOM     14  H1  LIG d   1       3.943  -1.686  -8.713  0.00  0.00     0.203 HD
ATOM     15  H2  LIG d   1       4.069  -0.477  -9.825  0.00  0.00     0.203 HD
BRANCH  13  16
ATOM     16  CA  LIG d   1       2.777  -0.063  -8.302  0.00  0.00     0.019 C 
ATOM     17  HA  LIG d   1       1.695  -0.139  -8.414  0.00  0.00     0.091 H 
BRANCH  16  18
ATOM     18  C   LIG d   1       3.168  -0.422  -6.867  0.00  0.00    -0.000 C 
ATOM     19  H   LIG d   1       2.884  -1.454  -6.661  0.00  0.00     0.033 H 
ATOM     20  H   LIG d   1       4.245  -0.309  -6.745  0.00  0.00     0.033 H 
BRANCH  18  21
ATOM     21  C   LIG d   1       2.444   0.511  -5.893  0.00  0.00    -0.022 C 
ATOM     22  H   LIG d   1       2.622   1.546  -6.183  0.00  0.00     0.032 H 
ATOM     23  H   LIG d   1       1.373   0.305  -5.921  0.00  0.00     0.032 H 
BRANCH  21  24
ATOM     24  C   LIG d   1       2.964   0.282  -4.497  0.00  0.00    -0.047 A 
ATOM     25  C   LIG d   1       3.543   1.322  -3.796  0.00  0.00    -0.059 A 
ATOM     26  C   LIG d   1       4.016   1.114  -2.515  0.00  0.00    -0.061 A 
ATOM     27  H   LIG d   1       3.623   2.300  -4.249  0.00  0.00     0.062 H 
ATOM     28  C   LIG d   1       3.918  -0.138  -1.937  0.00  0.00    -0.062 A 
ATOM     29  H   LIG d   1       4.465   1.928  -1.965  0.00  0.00     0.062 H 
ATOM     30  C   LIG d   1       3.343  -1.180  -2.641  0.00  0.00    -0.061 A 
ATOM     31  H   LIG d   1       4.290  -0.303  -0.937  0.00  0.00     0.062 H 
ATOM     32  C   LIG d   1       2.866  -0.971  -3.921  0.00  0.00    -0.059 A 
ATOM     33  H   LIG d   1       3.267  -2.159  -2.189  0.00  0.00     0.062 H 
ATOM     34  H   LIG d   1       2.417  -1.785  -4.470  0.00  0.00     0.062 H 
ENDBRANCH  21  24
ENDBRANCH  18  21
ENDBRANCH  16  18
BRANCH  16  35
ATOM     35  C   LIG d   1       3.215   1.347  -8.603  0.00  0.00     0.089 C 
ATOM     36  O   LIG d   1       4.367   1.686  -8.392  0.00  0.00    -0.544 OA
ATOM     37  OXT LIG d   1       2.418   2.149  -9.060  0.00  0.00    -0.544 OA
ENDBRANCH  16  35
ENDBRANCH  13  16
ENDBRANCH   7  13
ENDBRANCH   4   7
ENDBRANCH   1   3
BRANCH   1  38
ATOM     38  C   LIG d   1       4.210  -5.917  -9.797  0.00  0.00    -0.038 C 
ATOM     39  H   LIG d   1       4.693  -5.224 -10.485  0.00  0.00     0.025 H 
ATOM     40  H   LIG d   1       4.970  -6.488  -9.264  0.00  0.00     0.025 H 
ATOM     41  H   LIG d   1       3.570  -6.598 -10.357  0.00  0.00     0.025 H 
ENDBRANCH   1  38
BRANCH   1  42
ATOM     42  C   LIG d   1       3.903  -5.348  -7.403  0.00  0.00     0.234 C 
ATOM     43  O   LIG d   1       3.168  -5.243  -6.443  0.00  0.00    -0.274 OA
ATOM     44  N   LIG d   1       5.203  -5.658  -7.225  0.00  0.00    -0.302 N 
ATOM     45  H   LIG d   1       5.791  -5.742  -7.992  0.00  0.00     0.149 HD
BRANCH  44  46
ATOM     46  C   LIG d   1       5.727  -5.868  -5.874  0.00  0.00     0.104 C 
ATOM     47  H   LIG d   1       4.917  -6.173  -5.213  0.00  0.00     0.060 H 
BRANCH  46  48
ATOM     48  C   LIG d   1       6.797  -6.961  -5.907  0.00  0.00    -0.001 C 
ATOM     49  H   LIG d   1       6.921  -7.317  -6.929  0.00  0.00     0.034 H 
ATOM     50  H   LIG d   1       7.743  -6.554  -5.546  0.00  0.00     0.034 H 
BRANCH  48  51
ATOM     51  C   LIG d   1       6.374  -8.106  -5.023  0.00  0.00    -0.045 A 
ATOM     52  C   LIG d   1       5.064  -8.547  -5.043  0.00  0.00    -0.059 A 
ATOM     53  C   LIG d   1       4.677  -9.599  -4.236  0.00  0.00    -0.061 A 
ATOM     54  H   LIG d   1       4.344  -8.070  -5.694  0.00  0.00     0.062 H 
ATOM     55  C   LIG d   1       5.597 -10.205  -3.402  0.00  0.00    -0.062 A 
ATOM     56  H   LIG d   1       3.655  -9.947  -4.256  0.00  0.00     0.062 H 
ATOM     57  C   LIG d   1       6.906  -9.761  -3.377  0.00  0.00    -0.061 A 
ATOM     58  H   LIG d   1       5.294 -11.026  -2.769  0.00  0.00     0.062 H 
ATOM     59  C   LIG d   1       7.294  -8.710  -4.187  0.00  0.00    -0.059 A 
ATOM     60  H   LIG d   1       7.625 -10.234  -2.725  0.00  0.00     0.062 H 
ATOM     61  H   LIG d   1       8.317  -8.363  -4.169  0.00  0.00     0.062 H 
ENDBRANCH  48  51
ENDBRANCH  46  48
BRANCH  46  62
ATOM     62  C   LIG d   1       6.334  -4.585  -5.366  0.00  0.00     0.238 C 
ATOM     63  O   LIG d   1       7.496  -4.560  -5.020  0.00  0.00    -0.273 OA
ATOM     64  N   LIG d   1       5.585  -3.467  -5.297  0.00  0.00    -0.284 N 
ATOM     65  H   LIG d   1       4.639  -3.503  -5.507  0.00  0.00     0.155 HD
BRANCH  64  66
ATOM     66  C   LIG d   1       6.170  -2.259  -4.924  0.00  0.00     0.034 A 
ATOM     67  C   LIG d   1       6.582  -2.064  -3.608  0.00  0.00    -0.040 A 
ATOM     68  C   LIG d   1       7.162  -0.878  -3.238  0.00  0.00    -0.051 A 
ATOM     69  H   LIG d   1       6.446  -2.849  -2.879  0.00  0.00     0.064 H 
ATOM     70  C   LIG d   1       7.332   0.141  -4.183  0.00  0.00    -0.003 A 
ATOM     71  H   LIG d   1       7.484  -0.729  -2.219  0.00  0.00     0.062 H 
ATOM     72  C   LIG d   1       6.913  -0.057  -5.503  0.00  0.00    -0.051 A 
ATOM     73  C   LIG d   1       6.337  -1.249  -5.866  0.00  0.00    -0.040 A 
ATOM     74  H   LIG d   1       7.043   0.725  -6.235  0.00  0.00     0.062 H 
ATOM     75  H   LIG d   1       6.014  -1.402  -6.885  0.00  0.00     0.064 H 
BRANCH  70  76
ATOM     76  C   LIG d   1       7.951   1.416  -3.789  0.00  0.00     0.072 C 
ATOM     77  O   LIG d   1       7.248   2.355  -3.437  0.00  0.00    -0.545 OA
ATOM     78  O   LIG d   1       9.168   1.540  -3.812  0.00  0.00    -0.545 OA
ENDBRANCH  70  76
ENDBRANCH  64  66
ENDBRANCH  46  62
ENDBRANCH  44  46
ENDBRANCH   1  42
TORSDOF 17
ENDMDL
MODEL 2
REMARK VINA RESULT:      -7.0      3.037      7.505
REMARK  17 active torsions:
REMARK  status: ('A' for Active; 'I' for Inactive)
REMARK    1  A    between atoms: C_1  and  C_2 
REMARK    2  A    between atoms: C_2  and  C_4 
REMARK    3  A    between atoms: C_2  and  N_34 
REMARK       I    between atoms: C_4  and  N_6 
REMARK    4  A    between atoms: N_6  and  C_7 
REMARK    5  A    between atoms: C_7  and  C_9 
REMARK    6  A    between atoms: C_7  and  C_10 
REMARK       I    between atoms: C_10  and  N_12 
REMARK    7  A    between atoms: N_12  and  C_13 
REMARK    8  A    between atoms: C_13  and  C_15 
REMARK    9  A    between atoms: C_13  and  C_22 
REMARK   10  A    between atoms: C_15  and  C_16 
REMARK       I    between atoms: C_22  and  N_24 
REMARK   11  A    between atoms: N_24  and  C_25 
REMARK   12  A    between atoms: C_28  and  C_31 
REMARK   13  A    between atoms: N_34  and  CA_35 
REMARK   14  A    between atoms: CA_35  and  C_37 
REMARK   15  A    between atoms: CA_35  and  C_45 
REMARK   16  A    between atoms: C_37  and  C_38 
REMARK   17  A    between atoms: C_38  and  C_39 
ROOT
ATOM      1  C   LIG d   1       7.808   0.426  -5.013  0.00  0.00     0.097 C 
ATOM      2  H   LIG d   1       8.898   0.453  -4.996  0.00  0.00     0.059 H 
ENDROOT
BRANCH   1   3
ATOM      3  N   LIG d   1       7.328   0.886  -6.318  0.00  0.00    -0.300 N 
ATOM      4  C   LIG d   1       8.019   0.585  -7.435  0.00  0.00     0.262 C 
ATOM      5  O   LIG d   1       9.039  -0.067  -7.360  0.00  0.00    -0.270 OA
ATOM      6  H   LIG d   1       6.512   1.408  -6.379  0.00  0.00     0.150 HD
BRANCH   4   7
ATOM      7  C   LIG d   1       7.525   1.058  -8.778  0.00  0.00     0.053 C 
ATOM      8  H   LIG d   1       8.259   0.806  -9.544  0.00  0.00     0.095 H 
BRANCH   7   9
ATOM      9  C   LIG d   1       7.324   2.574  -8.742  0.00  0.00    -0.013 C 
ATOM     10  H   LIG d   1       7.802   3.025  -9.612  0.00  0.00     0.029 H 
ATOM     11  H   LIG d   1       6.257   2.799  -8.756  0.00  0.00     0.029 H 
ATOM     12  H   LIG d   1       7.770   2.978  -7.833  0.00  0.00     0.029 H 
ENDBRANCH   7   9
BRANCH   7  13
ATOM     13  N   LIG d   1       6.249   0.402  -9.090  0.00  0.00     0.242 N 
ATOM     14  H1  LIG d   1       6.302  -0.019 -10.006  0.00  0.00     0.203 HD
ATOM     15  H2  LIG d   1       6.060  -0.310  -8.403  0.00  0.00     0.203 HD
BRANCH  13  16
ATOM     16  CA  LIG d   1       5.169   1.398  -9.073  0.00  0.00     0.019 C 
ATOM     17  HA  LIG d   1       5.592   2.389  -8.904  0.00  0.00     0.091 H 
BRANCH  16  18
ATOM     18  C   LIG d   1       4.434   1.379 -10.415  0.00  0.00    -0.000 C 
ATOM     19  H   LIG d   1       3.362   1.478 -10.243  0.00  0.00     0.033 H 
ATOM     20  H   LIG d   1       4.782   2.207 -11.032  0.00  0.00     0.033 H 
BRANCH  18  21
ATOM     21  C   LIG d   1       4.716   0.056 -11.131  0.00  0.00    -0.022 C 
ATOM     22  H   LIG d   1       5.317   0.245 -12.020  0.00  0.00     0.032 H 
ATOM     23  H   LIG d   1       5.260  -0.612 -10.461  0.00  0.00     0.032 H 
BRANCH  21  24
ATOM     24  C   LIG d   1       3.413  -0.587 -11.531  0.00  0.00    -0.047 A 
ATOM     25  C   LIG d   1       3.282  -1.162 -12.781  0.00  0.00    -0.059 A 
ATOM     26  C   LIG d   1       2.089  -1.754 -13.148  0.00  0.00    -0.061 A 
ATOM     27  H   LIG d   1       4.113  -1.151 -13.471  0.00  0.00     0.062 H 
ATOM     28  C   LIG d   1       1.023  -1.764 -12.267  0.00  0.00    -0.062 A 
ATOM     29  H   LIG d   1       1.988  -2.207 -14.123  0.00  0.00     0.062 H 
ATOM     30  C   LIG d   1       1.153  -1.185 -11.019  0.00  0.00    -0.061 A 
ATOM     31  H   LIG d   1       0.089  -2.225 -12.554  0.00  0.00     0.062 H 
ATOM     32  C   LIG d   1       2.348  -0.596 -10.651  0.00  0.00    -0.059 A 
ATOM     33  H   LIG d   1       0.320  -1.192 -10.331  0.00  0.00     0.062 H 
ATOM     34  H   LIG d   1       2.449  -0.143  -9.675  0.00  0.00     0.062 H 
ENDBRANCH  21  24
ENDBRANCH  18  21
ENDBRANCH  16  18
BRANCH  16  35
ATOM     35  C   LIG d   1       4.200   1.070  -7.966  0.00  0.00     0.089 C 
ATOM     36  O   LIG d   1       4.481   0.214  -7.144  0.00  0.00    -0.544 OA
ATOM     37  OXT LIG d   1       3.137   1.662  -7.892  0.00  0.00    -0.544 OA
ENDBRANCH  16  35
ENDBRANCH  13  16
ENDBRANCH   7  13
ENDBRANCH   4   7
ENDBRANCH   1   3
BRANCH   1  38
ATOM     38  C   LIG d   1       7.258   1.341  -3.916  0.00  0.00    -0.038 C 
ATOM     39  H   LIG d   1       7.908   1.290  -3.042  0.00  0.00     0.025 H 
ATOM     40  H   LIG d   1       7.222   2.367  -4.282  0.00  0.00     0.025 H 
ATOM     41  H   LIG d   1       6.255   1.017  -3.642  0.00  0.00     0.025 H 
ENDBRANCH   1  38
BRANCH   1  42
ATOM     42  C   LIG d   1       7.336  -0.984  -4.773  0.00  0.00     0.234 C 
ATOM     43  O   LIG d   1       8.124  -1.835  -4.416  0.00  0.00    -0.274 OA
ATOM     44  N   LIG d   1       6.038  -1.302  -4.954  0.00  0.00    -0.302 N 
ATOM     45  H   LIG d   1       5.408  -0.622  -5.239  0.00  0.00     0.149 HD
BRANCH  44  46
ATOM     46  C   LIG d   1       5.580  -2.673  -4.720  0.00  0.00     0.104 C 
ATOM     47  H   LIG d   1       6.381  -3.249  -4.258  0.00  0.00     0.060 H 
BRANCH  46  48
ATOM     48  C   LIG d   1       4.365  -2.654  -3.792  0.00  0.00    -0.001 C 
ATOM     49  H   LIG d   1       3.486  -2.997  -4.338  0.00  0.00     0.034 H 
ATOM     50  H   LIG d   1       4.545  -3.313  -2.942  0.00  0.00     0.034 H 
BRANCH  48  51
ATOM     51  C   LIG d   1       4.132  -1.249  -3.298  0.00  0.00    -0.045 A 
ATOM     52  C   LIG d   1       4.719  -0.825  -2.120  0.00  0.00    -0.059 A 
ATOM     53  C   LIG d   1       4.509   0.464  -1.669  0.00  0.00    -0.061 A 
ATOM     54  H   LIG d   1       5.345  -1.500  -1.555  0.00  0.00     0.062 H 
ATOM     55  C   LIG d   1       3.705   1.326  -2.390  0.00  0.00    -0.062 A 
ATOM     56  H   LIG d   1       4.972   0.797  -0.752  0.00  0.00     0.062 H 
ATOM     57  C   LIG d   1       3.113   0.901  -3.565  0.00  0.00    -0.061 A 
ATOM     58  H   LIG d   1       3.538   2.334  -2.036  0.00  0.00     0.062 H 
ATOM     59  C   LIG d   1       3.326  -0.387  -4.018  0.00  0.00    -0.059 A 
ATOM     60  H   LIG d   1       2.484   1.575  -4.128  0.00  0.00     0.062 H 
ATOM     61  H   LIG d   1       2.865  -0.720  -4.937  0.00  0.00     0.062 H 
ENDBRANCH  48  51
ENDBRANCH  46  48
BRANCH  46  62
ATOM     62  C   LIG d   1       5.200  -3.307  -6.034  0.00  0.00     0.238 C 
ATOM     63  O   LIG d   1       4.870  -4.474  -6.071  0.00  0.00    -0.273 OA
ATOM     64  N   LIG d   1       5.227  -2.577  -7.166  0.00  0.00    -0.284 N 
ATOM     65  H   LIG d   1       5.556  -1.665  -7.149  0.00  0.00     0.155 HD
BRANCH  64  66
ATOM     66  C   LIG d   1       4.779  -3.132  -8.364  0.00  0.00     0.034 A 
ATOM     67  C   LIG d   1       3.458  -3.555  -8.481  0.00  0.00    -0.040 A 
ATOM     68  C   LIG d   1       3.013  -4.098  -9.659  0.00  0.00    -0.051 A 
ATOM     69  H   LIG d   1       2.783  -3.454  -7.644  0.00  0.00     0.064 H 
ATOM     70  C   LIG d   1       3.890  -4.235 -10.741  0.00  0.00    -0.003 A 
ATOM     71  H   LIG d   1       1.987  -4.423  -9.750  0.00  0.00     0.062 H 
ATOM     72  C   LIG d   1       5.218  -3.812 -10.617  0.00  0.00    -0.051 A 
ATOM     73  C   LIG d   1       5.655  -3.266  -9.436  0.00  0.00    -0.040 A 
ATOM     74  H   LIG d   1       5.898  -3.915 -11.449  0.00  0.00     0.062 H 
ATOM     75  H   LIG d   1       6.679  -2.940  -9.340  0.00  0.00     0.064 H 
BRANCH  70  76
ATOM     76  C   LIG d   1       3.417  -4.820 -12.005  0.00  0.00     0.072 C 
ATOM     77  O   LIG d   1       2.248  -5.165 -12.120  0.00  0.00    -0.545 OA
ATOM     78  O   LIG d   1       4.191  -4.962 -12.942  0.00  0.00    -0.545 OA
ENDBRANCH  70  76
ENDBRANCH  64  66
ENDBRANCH  46  62
ENDBRANCH  44  46
ENDBRANCH   1  42
TORSDOF 17
ENDMDL
MODEL 3
REMARK VINA RESULT:      -6.7      6.262     10.332
REMARK  17 active torsions:
REMARK  status: ('A' for Active; 'I' for Inactive)
REMARK    1  A    between atoms: C_1  and  C_2 
REMARK    2  A    between atoms: C_2  and  C_4 
REMARK    3  A    between atoms: C_2  and  N_34 
REMARK       I    between atoms: C_4  and  N_6 
REMARK    4  A    between atoms: N_6  and  C_7 
REMARK    5  A    between atoms: C_7  and  C_9 
REMARK    6  A    between atoms: C_7  and  C_10 
REMARK       I    between atoms: C_10  and  N_12 
REMARK    7  A    between atoms: N_12  and  C_13 
REMARK    8  A    between atoms: C_13  and  C_15 
REMARK    9  A    between atoms: C_13  and  C_22 
REMARK   10  A    between atoms: C_15  and  C_16 
REMARK       I    between atoms: C_22  and  N_24 
REMARK   11  A    between atoms: N_24  and  C_25 
REMARK   12  A    between atoms: C_28  and  C_31 
REMARK   13  A    between atoms: N_34  and  CA_35 
REMARK   14  A    between atoms: CA_35  and  C_37 
REMARK   15  A    between atoms: CA_35  and  C_45 
REMARK   16  A    between atoms: C_37  and  C_38 
REMARK   17  A    between atoms: C_38  and  C_39 
ROOT
ATOM      1  C   LIG d   1       9.029   2.204  -5.816  0.00  0.00     0.097 C 
ATOM      2  H   LIG d   1       9.757   1.409  -5.653  0.00  0.00     0.059 H 
ENDROOT
BRANCH   1   3
ATOM      3  N   LIG d   1       7.675   1.665  -5.668  0.00  0.00    -0.300 N 
ATOM      4  C   LIG d   1       7.491   0.340  -5.508  0.00  0.00     0.262 C 
ATOM      5  O   LIG d   1       8.447  -0.407  -5.487  0.00  0.00    -0.270 OA
ATOM      6  H   LIG d   1       6.911   2.262  -5.685  0.00  0.00     0.150 HD
BRANCH   4   7
ATOM      7  C   LIG d   1       6.098  -0.215  -5.355  0.00  0.00     0.053 C 
ATOM      8  H   LIG d   1       5.664   0.146  -4.423  0.00  0.00     0.095 H 
BRANCH   7   9
ATOM      9  C   LIG d   1       6.159  -1.744  -5.332  0.00  0.00    -0.013 C 
ATOM     10  H   LIG d   1       5.306  -2.133  -4.775  0.00  0.00     0.029 H 
ATOM     11  H   LIG d   1       6.130  -2.124  -6.354  0.00  0.00     0.029 H 
ATOM     12  H   LIG d   1       7.083  -2.063  -4.851  0.00  0.00     0.029 H 
ENDBRANCH   7   9
BRANCH   7  13
ATOM     13  N   LIG d   1       5.268   0.225  -6.484  0.00  0.00     0.242 N 
ATOM     14  H1  LIG d   1       5.193   1.231  -6.474  0.00  0.00     0.203 HD
ATOM     15  H2  LIG d   1       5.692  -0.072  -7.349  0.00  0.00     0.203 HD
BRANCH  13  16
ATOM     16  CA  LIG d   1       3.929  -0.366  -6.366  0.00  0.00     0.019 C 
ATOM     17  HA  LIG d   1       3.951  -1.175  -5.635  0.00  0.00     0.091 H 
BRANCH  16  18
ATOM     18  C   LIG d   1       2.936   0.705  -5.911  0.00  0.00    -0.000 C 
ATOM     19  H   LIG d   1       3.482   1.590  -5.583  0.00  0.00     0.033 H 
ATOM     20  H   LIG d   1       2.280   0.969  -6.740  0.00  0.00     0.033 H 
BRANCH  18  21
ATOM     21  C   LIG d   1       2.098   0.164  -4.751  0.00  0.00    -0.022 C 
ATOM     22  H   LIG d   1       1.360   0.910  -4.456  0.00  0.00     0.032 H 
ATOM     23  H   LIG d   1       1.587  -0.747  -5.065  0.00  0.00     0.032 H 
BRANCH  21  24
ATOM     24  C   LIG d   1       2.997  -0.143  -3.581  0.00  0.00    -0.047 A 
ATOM     25  C   LIG d   1       3.600   0.887  -2.883  0.00  0.00    -0.059 A 
ATOM     26  C   LIG d   1       4.421   0.606  -1.809  0.00  0.00    -0.061 A 
ATOM     27  H   LIG d   1       3.426   1.912  -3.177  0.00  0.00     0.062 H 
ATOM     28  C   LIG d   1       4.648  -0.705  -1.436  0.00  0.00    -0.062 A 
ATOM     29  H   LIG d   1       4.889   1.411  -1.261  0.00  0.00     0.062 H 
ATOM     30  C   LIG d   1       4.050  -1.736  -2.137  0.00  0.00    -0.061 A 
ATOM     31  H   LIG d   1       5.293  -0.926  -0.598  0.00  0.00     0.062 H 
ATOM     32  C   LIG d   1       3.224  -1.455  -3.210  0.00  0.00    -0.059 A 
ATOM     33  H   LIG d   1       4.228  -2.761  -1.847  0.00  0.00     0.062 H 
ATOM     34  H   LIG d   1       2.757  -2.260  -3.757  0.00  0.00     0.062 H 
ENDBRANCH  21  24
ENDBRANCH  18  21
ENDBRANCH  16  18
BRANCH  16  35
ATOM     35  C   LIG d   1       3.500  -0.910  -7.705  0.00  0.00     0.089 C 
ATOM     36  O   LIG d   1       4.229  -1.675  -8.314  0.00  0.00    -0.544 OA
ATOM     37  OXT LIG d   1       2.423  -0.587  -8.178  0.00  0.00    -0.544 OA
ENDBRANCH  16  35
ENDBRANCH  13  16
ENDBRANCH   7  13
ENDBRANCH   4   7
ENDBRANCH   1   3
BRANCH   1  38
ATOM     38  C   LIG d   1       9.201   2.771  -7.228  0.00  0.00    -0.038 C 
ATOM     39  H   LIG d   1       8.326   2.522  -7.828  0.00  0.00     0.025 H 
ATOM     40  H   LIG d   1       9.309   3.854  -7.174  0.00  0.00     0.025 H 
ATOM     41  H   LIG d   1      10.090   2.338  -7.686  0.00  0.00     0.025 H 
ENDBRANCH   1  38
BRANCH   1  42
ATOM     42  C   LIG d   1       9.247   3.300  -4.806  0.00  0.00     0.234 C 
ATOM     43  O   LIG d   1       8.946   3.123  -3.644  0.00  0.00    -0.274 OA
ATOM     44  N   LIG d   1       9.777   4.478  -5.192  0.00  0.00    -0.302 N 
ATOM     45  H   LIG d   1      10.018   4.621  -6.121  0.00  0.00     0.149 HD
BRANCH  44  46
ATOM     46  C   LIG d   1       9.989   5.543  -4.209  0.00  0.00     0.104 C 
ATOM     47  H   LIG d   1       9.329   5.387  -3.356  0.00  0.00     0.060 H 
BRANCH  46  48
ATOM     48  C   LIG d   1      11.444   5.521  -3.738  0.00  0.00    -0.001 C 
ATOM     49  H   LIG d   1      11.887   4.553  -3.975  0.00  0.00     0.034 H 
ATOM     50  H   LIG d   1      12.002   6.309  -4.244  0.00  0.00     0.034 H 
BRANCH  48  51
ATOM     51  C   LIG d   1      11.495   5.746  -2.249  0.00  0.00    -0.045 A 
ATOM     52  C   LIG d   1      10.367   6.176  -1.576  0.00  0.00    -0.059 A 
ATOM     53  C   LIG d   1      10.412   6.379  -0.210  0.00  0.00    -0.061 A 
ATOM     54  H   LIG d   1       9.448   6.350  -2.119  0.00  0.00     0.062 H 
ATOM     55  C   LIG d   1      11.588   6.161   0.482  0.00  0.00    -0.062 A 
ATOM     56  H   LIG d   1       9.529   6.710   0.316  0.00  0.00     0.062 H 
ATOM     57  C   LIG d   1      12.719   5.736  -0.192  0.00  0.00    -0.061 A 
ATOM     58  H   LIG d   1      11.624   6.322   1.550  0.00  0.00     0.062 H 
ATOM     59  C   LIG d   1      12.672   5.529  -1.557  0.00  0.00    -0.059 A 
ATOM     60  H   LIG d   1      13.637   5.566   0.350  0.00  0.00     0.062 H 
ATOM     61  H   LIG d   1      13.555   5.196  -2.084  0.00  0.00     0.062 H 
ENDBRANCH  48  51
ENDBRANCH  46  48
BRANCH  46  62
ATOM     62  C   LIG d   1       9.686   6.877  -4.841  0.00  0.00     0.238 C 
ATOM     63  O   LIG d   1       8.562   7.124  -5.227  0.00  0.00    -0.273 OA
ATOM     64  N   LIG d   1      10.662   7.795  -4.977  0.00  0.00    -0.284 N 
ATOM     65  H   LIG d   1      11.575   7.574  -4.734  0.00  0.00     0.155 HD
BRANCH  64  66
ATOM     66  C   LIG d   1      10.362   9.065  -5.468  0.00  0.00     0.034 A 
ATOM     67  C   LIG d   1       9.819  10.026  -4.620  0.00  0.00    -0.040 A 
ATOM     68  C   LIG d   1       9.526  11.277  -5.098  0.00  0.00    -0.051 A 
ATOM     69  H   LIG d   1       9.631   9.786  -3.584  0.00  0.00     0.064 H 
ATOM     70  C   LIG d   1       9.764  11.585  -6.443  0.00  0.00    -0.003 A 
ATOM     71  H   LIG d   1       9.109  12.023  -4.439  0.00  0.00     0.062 H 
ATOM     72  C   LIG d   1      10.305  10.615  -7.292  0.00  0.00    -0.051 A 
ATOM     73  C   LIG d   1      10.600   9.366  -6.806  0.00  0.00    -0.040 A 
ATOM     74  H   LIG d   1      10.492  10.848  -8.330  0.00  0.00     0.062 H 
ATOM     75  H   LIG d   1      11.018   8.617  -7.461  0.00  0.00     0.064 H 
BRANCH  70  76
ATOM     76  C   LIG d   1       9.447  12.925  -6.960  0.00  0.00     0.072 C 
ATOM     77  O   LIG d   1       9.137  13.070  -8.136  0.00  0.00    -0.545 OA
ATOM     78  O   LIG d   1       9.493  13.896  -6.217  0.00  0.00    -0.545 OA
ENDBRANCH  70  76
ENDBRANCH  64  66
ENDBRANCH  46  62
ENDBRANCH  44  46
ENDBRANCH   1  42
TORSDOF 17
ENDMDL
MODEL 4
REMARK VINA RESULT:      -6.6      2.227      7.416
REMARK  17 active torsions:
REMARK  status: ('A' for Active; 'I' for Inactive)
REMARK    1  A    between atoms: C_1  and  C_2 
REMARK    2  A    between atoms: C_2  and  C_4 
REMARK    3  A    between atoms: C_2  and  N_34 
REMARK       I    between atoms: C_4  and  N_6 
REMARK    4  A    between atoms: N_6  and  C_7 
REMARK    5  A    between atoms: C_7  and  C_9 
REMARK    6  A    between atoms: C_7  and  C_10 
REMARK       I    between atoms: C_10  and  N_12 
REMARK    7  A    between atoms: N_12  and  C_13 
REMARK    8  A    between atoms: C_13  and  C_15 
REMARK    9  A    between atoms: C_13  and  C_22 
REMARK   10  A    between atoms: C_15  and  C_16 
REMARK       I    between atoms: C_22  and  N_24 
REMARK   11  A    between atoms: N_24  and  C_25 
REMARK   12  A    between atoms: C_28  and  C_31 
REMARK   13  A    between atoms: N_34  and  CA_35 
REMARK   14  A    between atoms: CA_35  and  C_37 
REMARK   15  A    between atoms: CA_35  and  C_45 
REMARK   16  A    between atoms: C_37  and  C_38 
REMARK   17  A    between atoms: C_38  and  C_39 
ROOT
ATOM      1  C   LIG d   1       7.703   0.283  -4.785  0.00  0.00     0.097 C 
ATOM      2  H   LIG d   1       8.768   0.190  -5.002  0.00  0.00     0.059 H 
ENDROOT
BRANCH   1   3
ATOM      3  N   LIG d   1       6.971   0.538  -6.027  0.00  0.00    -0.300 N 
ATOM      4  C   LIG d   1       7.543   0.260  -7.216  0.00  0.00     0.262 C 
ATOM      5  O   LIG d   1       8.664  -0.201  -7.256  0.00  0.00    -0.270 OA
ATOM      6  H   LIG d   1       6.074   0.907  -5.995  0.00  0.00     0.150 HD
BRANCH   4   7
ATOM      7  C   LIG d   1       6.789   0.522  -8.495  0.00  0.00     0.053 C 
ATOM      8  H   LIG d   1       6.343  -0.408  -8.850  0.00  0.00     0.095 H 
BRANCH   7   9
ATOM      9  C   LIG d   1       7.754   1.062  -9.553  0.00  0.00    -0.013 C 
ATOM     10  H   LIG d   1       8.586   0.369  -9.673  0.00  0.00     0.029 H 
ATOM     11  H   LIG d   1       7.228   1.167 -10.503  0.00  0.00     0.029 H 
ATOM     12  H   LIG d   1       8.132   2.034  -9.236  0.00  0.00     0.029 H 
ENDBRANCH   7   9
BRANCH   7  13
ATOM     13  N   LIG d   1       5.731   1.509  -8.247  0.00  0.00     0.242 N 
ATOM     14  H1  LIG d   1       5.656   1.681  -7.256  0.00  0.00     0.203 HD
ATOM     15  H2  LIG d   1       5.955   2.369  -8.723  0.00  0.00     0.203 HD
BRANCH  13  16
ATOM     16  CA  LIG d   1       4.451   0.991  -8.750  0.00  0.00     0.019 C 
ATOM     17  HA  LIG d   1       4.613   0.481  -9.700  0.00  0.00     0.091 H 
BRANCH  16  18
ATOM     18  C   LIG d   1       3.866   0.005  -7.736  0.00  0.00    -0.000 C 
ATOM     19  H   LIG d   1       4.412  -0.937  -7.788  0.00  0.00     0.033 H 
ATOM     20  H   LIG d   1       3.953   0.421  -6.733  0.00  0.00     0.033 H 
BRANCH  18  21
ATOM     21  C   LIG d   1       2.391  -0.242  -8.058  0.00  0.00    -0.022 C 
ATOM     22  H   LIG d   1       1.903  -0.702  -7.199  0.00  0.00     0.032 H 
ATOM     23  H   LIG d   1       1.904   0.708  -8.286  0.00  0.00     0.032 H 
BRANCH  21  24
ATOM     24  C   LIG d   1       2.283  -1.159  -9.250  0.00  0.00    -0.047 A 
ATOM     25  C   LIG d   1       2.917  -2.387  -9.236  0.00  0.00    -0.059 A 
ATOM     26  C   LIG d   1       2.815  -3.229 -10.326  0.00  0.00    -0.061 A 
ATOM     27  H   LIG d   1       3.490  -2.689  -8.371  0.00  0.00     0.062 H 
ATOM     28  C   LIG d   1       2.087  -2.840 -11.435  0.00  0.00    -0.062 A 
ATOM     29  H   LIG d   1       3.307  -4.191 -10.314  0.00  0.00     0.062 H 
ATOM     30  C   LIG d   1       1.457  -1.610 -11.450  0.00  0.00    -0.061 A 
ATOM     31  H   LIG d   1       2.009  -3.497 -12.288  0.00  0.00     0.062 H 
ATOM     32  C   LIG d   1       1.555  -0.769 -10.358  0.00  0.00    -0.059 A 
ATOM     33  H   LIG d   1       0.888  -1.305 -12.317  0.00  0.00     0.062 H 
ATOM     34  H   LIG d   1       1.062   0.193 -10.370  0.00  0.00     0.062 H 
ENDBRANCH  21  24
ENDBRANCH  18  21
ENDBRANCH  16  18
BRANCH  16  35
ATOM     35  C   LIG d   1       3.490   2.134  -8.950  0.00  0.00     0.089 C 
ATOM     36  O   LIG d   1       2.888   2.598  -7.996  0.00  0.00    -0.544 OA
ATOM     37  OXT LIG d   1       3.315   2.596 -10.065  0.00  0.00    -0.544 OA
ENDBRANCH  16  35
ENDBRANCH  13  16
ENDBRANCH   7  13
ENDBRANCH   4   7
ENDBRANCH   1   3
BRANCH   1  38
ATOM     38  C   LIG d   1       7.482   1.446  -3.815  0.00  0.00    -0.038 C 
ATOM     39  H   LIG d   1       7.033   2.284  -4.348  0.00  0.00     0.025 H 
ATOM     40  H   LIG d   1       6.816   1.129  -3.012  0.00  0.00     0.025 H 
ATOM     41  H   LIG d   1       8.438   1.755  -3.394  0.00  0.00     0.025 H 
ENDBRANCH   1  38
BRANCH   1  42
ATOM     42  C   LIG d   1       7.204  -0.994  -4.160  0.00  0.00     0.234 C 
ATOM     43  O   LIG d   1       7.836  -1.521  -3.269  0.00  0.00    -0.274 OA
ATOM     44  N   LIG d   1       6.054  -1.551  -4.591  0.00  0.00    -0.302 N 
ATOM     45  H   LIG d   1       5.548  -1.130  -5.303  0.00  0.00     0.149 HD
BRANCH  44  46
ATOM     46  C   LIG d   1       5.569  -2.792  -3.983  0.00  0.00     0.104 C 
ATOM     47  H   LIG d   1       6.249  -3.096  -3.187  0.00  0.00     0.060 H 
BRANCH  46  48
ATOM     48  C   LIG d   1       4.174  -2.563  -3.401  0.00  0.00    -0.001 C 
ATOM     49  H   LIG d   1       3.422  -2.874  -4.126  0.00  0.00     0.034 H 
ATOM     50  H   LIG d   1       4.060  -3.148  -2.487  0.00  0.00     0.034 H 
BRANCH  48  51
ATOM     51  C   LIG d   1       3.993  -1.100  -3.086  0.00  0.00    -0.045 A 
ATOM     52  C   LIG d   1       4.532  -0.571  -1.928  0.00  0.00    -0.059 A 
ATOM     53  C   LIG d   1       4.370   0.771  -1.642  0.00  0.00    -0.061 A 
ATOM     54  H   LIG d   1       5.082  -1.206  -1.250  0.00  0.00     0.062 H 
ATOM     55  C   LIG d   1       3.662   1.582  -2.509  0.00  0.00    -0.062 A 
ATOM     56  H   LIG d   1       4.795   1.186  -0.740  0.00  0.00     0.062 H 
ATOM     57  C   LIG d   1       3.119   1.052  -3.664  0.00  0.00    -0.061 A 
ATOM     58  H   LIG d   1       3.533   2.631  -2.283  0.00  0.00     0.062 H 
ATOM     59  C   LIG d   1       3.284  -0.290  -3.952  0.00  0.00    -0.059 A 
ATOM     60  H   LIG d   1       2.565   1.686  -4.341  0.00  0.00     0.062 H 
ATOM     61  H   LIG d   1       2.860  -0.704  -4.856  0.00  0.00     0.062 H 
ENDBRANCH  48  51
ENDBRANCH  46  48
BRANCH  46  62
ATOM     62  C   LIG d   1       5.506  -3.873  -5.031  0.00  0.00     0.238 C 
ATOM     63  O   LIG d   1       6.461  -4.077  -5.751  0.00  0.00    -0.273 OA
ATOM     64  N   LIG d   1       4.388  -4.613  -5.168  0.00  0.00    -0.284 N 
ATOM     65  H   LIG d   1       3.601  -4.406  -4.642  0.00  0.00     0.155 HD
BRANCH  64  66
ATOM     66  C   LIG d   1       4.364  -5.679  -6.066  0.00  0.00     0.034 A 
ATOM     67  C   LIG d   1       3.922  -5.476  -7.371  0.00  0.00    -0.040 A 
ATOM     68  C   LIG d   1       3.901  -6.521  -8.259  0.00  0.00    -0.051 A 
ATOM     69  H   LIG d   1       3.597  -4.495  -7.684  0.00  0.00     0.064 H 
ATOM     70  C   LIG d   1       4.316  -7.794  -7.850  0.00  0.00    -0.003 A 
ATOM     71  H   LIG d   1       3.562  -6.362  -9.271  0.00  0.00     0.062 H 
ATOM     72  C   LIG d   1       4.756  -7.993  -6.537  0.00  0.00    -0.051 A 
ATOM     73  C   LIG d   1       4.778  -6.942  -5.656  0.00  0.00    -0.040 A 
ATOM     74  H   LIG d   1       5.078  -8.973  -6.218  0.00  0.00     0.062 H 
ATOM     75  H   LIG d   1       5.117  -7.096  -4.642  0.00  0.00     0.064 H 
BRANCH  70  76
ATOM     76  C   LIG d   1       4.292  -8.918  -8.799  0.00  0.00     0.072 C 
ATOM     77  O   LIG d   1       4.235  -8.701 -10.003  0.00  0.00    -0.545 OA
ATOM     78  O   LIG d   1       4.328 -10.069  -8.386  0.00  0.00    -0.545 OA
ENDBRANCH  70  76
ENDBRANCH  64  66
ENDBRANCH  46  62
ENDBRANCH  44  46
ENDBRANCH   1  42
TORSDOF 17
ENDMDL
MODEL 5
REMARK VINA RESULT:      -6.5      2.279      7.741
REMARK  17 active torsions:
REMARK  status: ('A' for Active; 'I' for Inactive)
REMARK    1  A    between atoms: C_1  and  C_2 
REMARK    2  A    between atoms: C_2  and  C_4 
REMARK    3  A    between atoms: C_2  and  N_34 
REMARK       I    between atoms: C_4  and  N_6 
REMARK    4  A    between atoms: N_6  and  C_7 
REMARK    5  A    between atoms: C_7  and  C_9 
REMARK    6  A    between atoms: C_7  and  C_10 
REMARK       I    between atoms: C_10  and  N_12 
REMARK    7  A    between atoms: N_12  and  C_13 
REMARK    8  A    between atoms: C_13  and  C_15 
REMARK    9  A    between atoms: C_13  and  C_22 
REMARK   10  A    between atoms: C_15  and  C_16 
REMARK       I    between atoms: C_22  and  N_24 
REMARK   11  A    between atoms: N_24  and  C_25 
REMARK   12  A    between atoms: C_28  and  C_31 
REMARK   13  A    between atoms: N_34  and  CA_35 
REMARK   14  A    between atoms: CA_35  and  C_37 
REMARK   15  A    between atoms: CA_35  and  C_45 
REMARK   16  A    between atoms: C_37  and  C_38 
REMARK   17  A    between atoms: C_38  and  C_39 
ROOT
ATOM      1  C   LIG d   1       7.327   0.138  -6.094  0.00  0.00     0.097 C 
ATOM      2  H   LIG d   1       8.091  -0.104  -6.833  0.00  0.00     0.059 H 
ENDROOT
BRANCH   1   3
ATOM      3  N   LIG d   1       6.073   0.465  -6.776  0.00  0.00    -0.300 N 
ATOM      4  C   LIG d   1       6.071   0.708  -8.102  0.00  0.00     0.262 C 
ATOM      5  O   LIG d   1       7.107   0.656  -8.731  0.00  0.00    -0.270 OA
ATOM      6  H   LIG d   1       5.244   0.507  -6.274  0.00  0.00     0.150 HD
BRANCH   4   7
ATOM      7  C   LIG d   1       4.781   1.044  -8.805  0.00  0.00     0.053 C 
ATOM      8  H   LIG d   1       4.702   0.457  -9.721  0.00  0.00     0.095 H 
BRANCH   7   9
ATOM      9  C   LIG d   1       4.762   2.535  -9.151  0.00  0.00    -0.013 C 
ATOM     10  H   LIG d   1       5.783   2.885  -9.301  0.00  0.00     0.029 H 
ATOM     11  H   LIG d   1       4.186   2.688 -10.064  0.00  0.00     0.029 H 
ATOM     12  H   LIG d   1       4.303   3.091  -8.333  0.00  0.00     0.029 H 
ENDBRANCH   7   9
BRANCH   7  13
ATOM     13  N   LIG d   1       3.647   0.731  -7.925  0.00  0.00     0.242 N 
ATOM     14  H1  LIG d   1       3.991   0.453  -7.019  0.00  0.00     0.203 HD
ATOM     15  H2  LIG d   1       3.062   1.546  -7.828  0.00  0.00     0.203 HD
BRANCH  13  16
ATOM     16  CA  LIG d   1       2.864  -0.367  -8.508  0.00  0.00     0.019 C 
ATOM     17  HA  LIG d   1       1.876  -0.394  -8.047  0.00  0.00     0.091 H 
BRANCH  16  18
ATOM     18  C   LIG d   1       2.718  -0.146 -10.015  0.00  0.00    -0.000 C 
ATOM     19  H   LIG d   1       2.796   0.919 -10.235  0.00  0.00     0.033 H 
ATOM     20  H   LIG d   1       3.507  -0.685 -10.540  0.00  0.00     0.033 H 
BRANCH  18  21
ATOM     21  C   LIG d   1       1.354  -0.663 -10.476  0.00  0.00    -0.022 C 
ATOM     22  H   LIG d   1       0.998  -1.421  -9.778  0.00  0.00     0.032 H 
ATOM     23  H   LIG d   1       0.643   0.163 -10.508  0.00  0.00     0.032 H 
BRANCH  21  24
ATOM     24  C   LIG d   1       1.483  -1.267 -11.851  0.00  0.00    -0.047 A 
ATOM     25  C   LIG d   1       0.387  -1.858 -12.452  0.00  0.00    -0.059 A 
ATOM     26  C   LIG d   1       0.504  -2.409 -13.714  0.00  0.00    -0.061 A 
ATOM     27  H   LIG d   1      -0.561  -1.888 -11.936  0.00  0.00     0.062 H 
ATOM     28  C   LIG d   1       1.719  -2.377 -14.372  0.00  0.00    -0.062 A 
ATOM     29  H   LIG d   1      -0.353  -2.867 -14.185  0.00  0.00     0.062 H 
ATOM     30  C   LIG d   1       2.816  -1.790 -13.769  0.00  0.00    -0.061 A 
ATOM     31  H   LIG d   1       1.813  -2.809 -15.357  0.00  0.00     0.062 H 
ATOM     32  C   LIG d   1       2.698  -1.235 -12.508  0.00  0.00    -0.059 A 
ATOM     33  H   LIG d   1       3.766  -1.765 -14.283  0.00  0.00     0.062 H 
ATOM     34  H   LIG d   1       3.555  -0.777 -12.038  0.00  0.00     0.062 H 
ENDBRANCH  21  24
ENDBRANCH  18  21
ENDBRANCH  16  18
BRANCH  16  35
ATOM     35  C   LIG d   1       3.571  -1.675  -8.260  0.00  0.00     0.089 C 
ATOM     36  O   LIG d   1       3.725  -2.468  -9.173  0.00  0.00    -0.544 OA
ATOM     37  OXT LIG d   1       3.990  -1.939  -7.145  0.00  0.00    -0.544 OA
ENDBRANCH  16  35
ENDBRANCH  13  16
ENDBRANCH   7  13
ENDBRANCH   4   7
ENDBRANCH   1   3
BRANCH   1  38
ATOM     38  C   LIG d   1       7.784   1.340  -5.263  0.00  0.00    -0.038 C 
ATOM     39  H   LIG d   1       7.525   2.261  -5.784  0.00  0.00     0.025 H 
ATOM     40  H   LIG d   1       7.290   1.320  -4.292  0.00  0.00     0.025 H 
ATOM     41  H   LIG d   1       8.864   1.294  -5.123  0.00  0.00     0.025 H 
ENDBRANCH   1  38
BRANCH   1  42
ATOM     42  C   LIG d   1       7.112  -1.046  -5.188  0.00  0.00     0.234 C 
ATOM     43  O   LIG d   1       8.031  -1.475  -4.522  0.00  0.00    -0.274 OA
ATOM     44  N   LIG d   1       5.898  -1.630  -5.117  0.00  0.00    -0.302 N 
ATOM     45  H   LIG d   1       5.164  -1.287  -5.649  0.00  0.00     0.149 HD
BRANCH  44  46
ATOM     46  C   LIG d   1       5.690  -2.781  -4.235  0.00  0.00     0.104 C 
ATOM     47  H   LIG d   1       6.489  -2.821  -3.496  0.00  0.00     0.060 H 
BRANCH  46  48
ATOM     48  C   LIG d   1       4.343  -2.640  -3.523  0.00  0.00    -0.001 C 
ATOM     49  H   LIG d   1       3.545  -2.966  -4.190  0.00  0.00     0.034 H 
ATOM     50  H   LIG d   1       4.341  -3.258  -2.625  0.00  0.00     0.034 H 
BRANCH  48  51
ATOM     51  C   LIG d   1       4.124  -1.199  -3.142  0.00  0.00    -0.045 A 
ATOM     52  C   LIG d   1       3.310  -0.395  -3.918  0.00  0.00    -0.059 A 
ATOM     53  C   LIG d   1       3.105   0.925  -3.566  0.00  0.00    -0.061 A 
ATOM     54  H   LIG d   1       2.831  -0.801  -4.797  0.00  0.00     0.062 H 
ATOM     55  C   LIG d   1       3.722   1.445  -2.444  0.00  0.00    -0.062 A 
ATOM     56  H   LIG d   1       2.465   1.552  -4.170  0.00  0.00     0.062 H 
ATOM     57  C   LIG d   1       4.540   0.643  -1.670  0.00  0.00    -0.061 A 
ATOM     58  H   LIG d   1       3.564   2.478  -2.170  0.00  0.00     0.062 H 
ATOM     59  C   LIG d   1       4.742  -0.679  -2.020  0.00  0.00    -0.059 A 
ATOM     60  H   LIG d   1       5.022   1.049  -0.794  0.00  0.00     0.062 H 
ATOM     61  H   LIG d   1       5.381  -1.306  -1.416  0.00  0.00     0.062 H 
ENDBRANCH  48  51
ENDBRANCH  46  48
BRANCH  46  62
ATOM     62  C   LIG d   1       5.697  -4.047  -5.053  0.00  0.00     0.238 C 
ATOM     63  O   LIG d   1       6.751  -4.547  -5.386  0.00  0.00    -0.273 OA
ATOM     64  N   LIG d   1       4.533  -4.622  -5.413  0.00  0.00    -0.284 N 
ATOM     65  H   LIG d   1       3.692  -4.186  -5.207  0.00  0.00     0.155 HD
BRANCH  64  66
ATOM     66  C   LIG d   1       4.538  -5.845  -6.081  0.00  0.00     0.034 A 
ATOM     67  C   LIG d   1       4.885  -7.008  -5.398  0.00  0.00    -0.040 A 
ATOM     68  C   LIG d   1       4.887  -8.214  -6.051  0.00  0.00    -0.051 A 
ATOM     69  H   LIG d   1       5.150  -6.959  -4.352  0.00  0.00     0.064 H 
ATOM     70  C   LIG d   1       4.549  -8.274  -7.408  0.00  0.00    -0.003 A 
ATOM     71  H   LIG d   1       5.152  -9.115  -5.519  0.00  0.00     0.062 H 
ATOM     72  C   LIG d   1       4.206  -7.103  -8.092  0.00  0.00    -0.051 A 
ATOM     73  C   LIG d   1       4.202  -5.900  -7.430  0.00  0.00    -0.040 A 
ATOM     74  H   LIG d   1       3.944  -7.145  -9.138  0.00  0.00     0.062 H 
ATOM     75  H   LIG d   1       3.937  -4.996  -7.958  0.00  0.00     0.064 H 
BRANCH  70  76
ATOM     76  C   LIG d   1       4.554  -9.565  -8.113  0.00  0.00     0.072 C 
ATOM     77  O   LIG d   1       4.223 -10.586  -7.523  0.00  0.00    -0.545 OA
ATOM     78  O   LIG d   1       4.888  -9.620  -9.288  0.00  0.00    -0.545 OA
ENDBRANCH  70  76
ENDBRANCH  64  66
ENDBRANCH  46  62
ENDBRANCH  44  46
ENDBRANCH   1  42
TORSDOF 17
ENDMDL
MODEL 6
REMARK VINA RESULT:      -6.5      2.828      7.388
REMARK  17 active torsions:
REMARK  status: ('A' for Active; 'I' for Inactive)
REMARK    1  A    between atoms: C_1  and  C_2 
REMARK    2  A    between atoms: C_2  and  C_4 
REMARK    3  A    between atoms: C_2  and  N_34 
REMARK       I    between atoms: C_4  and  N_6 
REMARK    4  A    between atoms: N_6  and  C_7 
REMARK    5  A    between atoms: C_7  and  C_9 
REMARK    6  A    between atoms: C_7  and  C_10 
REMARK       I    between atoms: C_10  and  N_12 
REMARK    7  A    between atoms: N_12  and  C_13 
REMARK    8  A    between atoms: C_13  and  C_15 
REMARK    9  A    between atoms: C_13  and  C_22 
REMARK   10  A    between atoms: C_15  and  C_16 
REMARK       I    between atoms: C_22  and  N_24 
REMARK   11  A    between atoms: N_24  and  C_25 
REMARK   12  A    between atoms: C_28  and  C_31 
REMARK   13  A    between atoms: N_34  and  CA_35 
REMARK   14  A    between atoms: CA_35  and  C_37 
REMARK   15  A    between atoms: CA_35  and  C_45 
REMARK   16  A    between atoms: C_37  and  C_38 
REMARK   17  A    between atoms: C_38  and  C_39 
ROOT
ATOM      1  C   LIG d   1       4.584  -0.920  -7.158  0.00  0.00     0.097 C 
ATOM      2  H   LIG d   1       4.930  -0.667  -8.161  0.00  0.00     0.059 H 
ENDROOT
BRANCH   1   3
ATOM      3  N   LIG d   1       4.192  -2.330  -7.116  0.00  0.00    -0.300 N 
ATOM      4  C   LIG d   1       4.371  -3.112  -8.199  0.00  0.00     0.262 C 
ATOM      5  O   LIG d   1       4.855  -2.647  -9.210  0.00  0.00    -0.270 OA
ATOM      6  H   LIG d   1       3.805  -2.702  -6.308  0.00  0.00     0.150 HD
BRANCH   4   7
ATOM      7  C   LIG d   1       3.969  -4.564  -8.156  0.00  0.00     0.053 C 
ATOM      8  H   LIG d   1       4.857  -5.189  -8.247  0.00  0.00     0.095 H 
BRANCH   7   9
ATOM      9  C   LIG d   1       3.014  -4.862  -9.314  0.00  0.00    -0.013 C 
ATOM     10  H   LIG d   1       2.628  -5.877  -9.213  0.00  0.00     0.029 H 
ATOM     11  H   LIG d   1       2.185  -4.154  -9.292  0.00  0.00     0.029 H 
ATOM     12  H   LIG d   1       3.548  -4.768 -10.259  0.00  0.00     0.029 H 
ENDBRANCH   7   9
BRANCH   7  13
ATOM     13  N   LIG d   1       3.298  -4.849  -6.881  0.00  0.00     0.242 N 
ATOM     14  H1  LIG d   1       3.097  -3.982  -6.406  0.00  0.00     0.203 HD
ATOM     15  H2  LIG d   1       2.439  -5.345  -7.057  0.00  0.00     0.203 HD
BRANCH  13  16
ATOM     16  CA  LIG d   1       4.176  -5.674  -6.041  0.00  0.00     0.019 C 
ATOM     17  HA  LIG d   1       3.570  -6.323  -5.408  0.00  0.00     0.091 H 
BRANCH  16  18
ATOM     18  C   LIG d   1       5.079  -6.530  -6.932  0.00  0.00    -0.000 C 
ATOM     19  H   LIG d   1       4.948  -6.234  -7.973  0.00  0.00     0.033 H 
ATOM     20  H   LIG d   1       6.119  -6.385  -6.640  0.00  0.00     0.033 H 
BRANCH  18  21
ATOM     21  C   LIG d   1       4.705  -8.005  -6.770  0.00  0.00    -0.022 C 
ATOM     22  H   LIG d   1       3.626  -8.094  -6.645  0.00  0.00     0.032 H 
ATOM     23  H   LIG d   1       5.015  -8.558  -7.657  0.00  0.00     0.032 H 
BRANCH  21  24
ATOM     24  C   LIG d   1       5.401  -8.570  -5.558  0.00  0.00    -0.047 A 
ATOM     25  C   LIG d   1       4.708  -9.383  -4.681  0.00  0.00    -0.059 A 
ATOM     26  C   LIG d   1       5.346  -9.905  -3.572  0.00  0.00    -0.061 A 
ATOM     27  H   LIG d   1       3.669  -9.614  -4.864  0.00  0.00     0.062 H 
ATOM     28  C   LIG d   1       6.675  -9.606  -3.334  0.00  0.00    -0.062 A 
ATOM     29  H   LIG d   1       4.806 -10.544  -2.888  0.00  0.00     0.062 H 
ATOM     30  C   LIG d   1       7.366  -8.788  -4.209  0.00  0.00    -0.061 A 
ATOM     31  H   LIG d   1       7.173 -10.011  -2.466  0.00  0.00     0.062 H 
ATOM     32  C   LIG d   1       6.729  -8.270  -5.321  0.00  0.00    -0.059 A 
ATOM     33  H   LIG d   1       8.404  -8.554  -4.023  0.00  0.00     0.062 H 
ATOM     34  H   LIG d   1       7.269  -7.631  -6.004  0.00  0.00     0.062 H 
ENDBRANCH  21  24
ENDBRANCH  18  21
ENDBRANCH  16  18
BRANCH  16  35
ATOM     35  C   LIG d   1       5.027  -4.781  -5.175  0.00  0.00     0.089 C 
ATOM     36  O   LIG d   1       6.243  -4.839  -5.249  0.00  0.00    -0.544 OA
ATOM     37  OXT LIG d   1       4.500  -4.000  -4.401  0.00  0.00    -0.544 OA
ENDBRANCH  16  35
ENDBRANCH  13  16
ENDBRANCH   7  13
ENDBRANCH   4   7
ENDBRANCH   1   3
BRANCH   1  38
ATOM     38  C   LIG d   1       3.379  -0.045  -6.800  0.00  0.00    -0.038 C 
ATOM     39  H   LIG d   1       3.483   0.929  -7.278  0.00  0.00     0.025 H 
ATOM     40  H   LIG d   1       2.465  -0.525  -7.149  0.00  0.00     0.025 H 
ATOM     41  H   LIG d   1       3.333   0.084  -5.719  0.00  0.00     0.025 H 
ENDBRANCH   1  38
BRANCH   1  42
ATOM     42  C   LIG d   1       5.693  -0.676  -6.168  0.00  0.00     0.234 C 
ATOM     43  O   LIG d   1       6.254   0.400  -6.138  0.00  0.00    -0.274 OA
ATOM     44  N   LIG d   1       6.063  -1.652  -5.315  0.00  0.00    -0.302 N 
ATOM     45  H   LIG d   1       5.614  -2.512  -5.338  0.00  0.00     0.149 HD
BRANCH  44  46
ATOM     46  C   LIG d   1       7.141  -1.414  -4.353  0.00  0.00     0.104 C 
ATOM     47  H   LIG d   1       7.560  -0.422  -4.515  0.00  0.00     0.060 H 
BRANCH  46  48
ATOM     48  C   LIG d   1       6.584  -1.505  -2.931  0.00  0.00    -0.001 C 
ATOM     49  H   LIG d   1       6.257  -2.526  -2.733  0.00  0.00     0.034 H 
ATOM     50  H   LIG d   1       7.361  -1.228  -2.217  0.00  0.00     0.034 H 
BRANCH  48  51
ATOM     51  C   LIG d   1       5.414  -0.566  -2.788  0.00  0.00    -0.045 A 
ATOM     52  C   LIG d   1       4.129  -1.068  -2.712  0.00  0.00    -0.059 A 
ATOM     53  C   LIG d   1       3.057  -0.207  -2.576  0.00  0.00    -0.061 A 
ATOM     54  H   LIG d   1       3.964  -2.135  -2.754  0.00  0.00     0.062 H 
ATOM     55  C   LIG d   1       3.269   1.158  -2.526  0.00  0.00    -0.062 A 
ATOM     56  H   LIG d   1       2.053  -0.601  -2.512  0.00  0.00     0.062 H 
ATOM     57  C   LIG d   1       4.554   1.661  -2.608  0.00  0.00    -0.061 A 
ATOM     58  H   LIG d   1       2.430   1.831  -2.423  0.00  0.00     0.062 H 
ATOM     59  C   LIG d   1       5.626   0.800  -2.739  0.00  0.00    -0.059 A 
ATOM     60  H   LIG d   1       4.719   2.728  -2.569  0.00  0.00     0.062 H 
ATOM     61  H   LIG d   1       6.631   1.193  -2.802  0.00  0.00     0.062 H 
ENDBRANCH  48  51
ENDBRANCH  46  48
BRANCH  46  62
ATOM     62  C   LIG d   1       8.217  -2.452  -4.538  0.00  0.00     0.238 C 
ATOM     63  O   LIG d   1       8.807  -2.532  -5.595  0.00  0.00    -0.273 OA
ATOM     64  N   LIG d   1       8.524  -3.292  -3.530  0.00  0.00    -0.284 N 
ATOM     65  H   LIG d   1       8.007  -3.275  -2.709  0.00  0.00     0.155 HD
BRANCH  64  66
ATOM     66  C   LIG d   1       9.587  -4.183  -3.665  0.00  0.00     0.034 A 
ATOM     67  C   LIG d   1      10.890  -3.750  -3.438  0.00  0.00    -0.040 A 
ATOM     68  C   LIG d   1      11.938  -4.625  -3.566  0.00  0.00    -0.051 A 
ATOM     69  H   LIG d   1      11.076  -2.723  -3.160  0.00  0.00     0.064 H 
ATOM     70  C   LIG d   1      11.697  -5.954  -3.934  0.00  0.00    -0.003 A 
ATOM     71  H   LIG d   1      12.948  -4.289  -3.386  0.00  0.00     0.062 H 
ATOM     72  C   LIG d   1      10.386  -6.384  -4.165  0.00  0.00    -0.051 A 
ATOM     73  C   LIG d   1       9.342  -5.503  -4.031  0.00  0.00    -0.040 A 
ATOM     74  H   LIG d   1      10.195  -7.409  -4.447  0.00  0.00     0.062 H 
ATOM     75  H   LIG d   1       8.331  -5.835  -4.209  0.00  0.00     0.064 H 
BRANCH  70  76
ATOM     76  C   LIG d   1      12.818  -6.895  -4.075  0.00  0.00     0.072 C 
ATOM     77  O   LIG d   1      13.012  -7.460  -5.144  0.00  0.00    -0.545 OA
ATOM     78  O   LIG d   1      13.558  -7.114  -3.126  0.00  0.00    -0.545 OA
ENDBRANCH  70  76
ENDBRANCH  64  66
ENDBRANCH  46  62
ENDBRANCH  44  46
ENDBRANCH   1  42
TORSDOF 17
ENDMDL
MODEL 7
REMARK VINA RESULT:      -6.4      2.020      3.488
REMARK  17 active torsions:
REMARK  status: ('A' for Active; 'I' for Inactive)
REMARK    1  A    between atoms: C_1  and  C_2 
REMARK    2  A    between atoms: C_2  and  C_4 
REMARK    3  A    between atoms: C_2  and  N_34 
REMARK       I    between atoms: C_4  and  N_6 
REMARK    4  A    between atoms: N_6  and  C_7 
REMARK    5  A    between atoms: C_7  and  C_9 
REMARK    6  A    between atoms: C_7  and  C_10 
REMARK       I    between atoms: C_10  and  N_12 
REMARK    7  A    between atoms: N_12  and  C_13 
REMARK    8  A    between atoms: C_13  and  C_15 
REMARK    9  A    between atoms: C_13  and  C_22 
REMARK   10  A    between atoms: C_15  and  C_16 
REMARK       I    between atoms: C_22  and  N_24 
REMARK   11  A    between atoms: N_24  and  C_25 
REMARK   12  A    between atoms: C_28  and  C_31 
REMARK   13  A    between atoms: N_34  and  CA_35 
REMARK   14  A    between atoms: CA_35  and  C_37 
REMARK   15  A    between atoms: CA_35  and  C_45 
REMARK   16  A    between atoms: C_37  and  C_38 
REMARK   17  A    between atoms: C_38  and  C_39 
ROOT
ATOM      1  C   LIG d   1       4.073  -6.423  -9.726  0.00  0.00     0.097 C 
ATOM      2  H   LIG d   1       3.591  -7.284 -10.192  0.00  0.00     0.059 H 
ENDROOT
BRANCH   1   3
ATOM      3  N   LIG d   1       3.239  -5.234  -9.915  0.00  0.00    -0.300 N 
ATOM      4  C   LIG d   1       1.900  -5.358 -10.010  0.00  0.00     0.262 C 
ATOM      5  O   LIG d   1       1.386  -6.454  -9.938  0.00  0.00    -0.270 OA
ATOM      6  H   LIG d   1       3.651  -4.357  -9.973  0.00  0.00     0.150 HD
BRANCH   4   7
ATOM      7  C   LIG d   1       1.042  -4.134 -10.204  0.00  0.00     0.053 C 
ATOM      8  H   LIG d   1       0.175  -4.190  -9.545  0.00  0.00     0.095 H 
BRANCH   7   9
ATOM      9  C   LIG d   1       0.573  -4.066 -11.659  0.00  0.00    -0.013 C 
ATOM     10  H   LIG d   1       1.191  -4.723 -12.271  0.00  0.00     0.029 H 
ATOM     11  H   LIG d   1      -0.468  -4.386 -11.720  0.00  0.00     0.029 H 
ATOM     12  H   LIG d   1       0.661  -3.042 -12.021  0.00  0.00     0.029 H 
ENDBRANCH   7   9
BRANCH   7  13
ATOM     13  N   LIG d   1       1.822  -2.932  -9.885  0.00  0.00     0.242 N 
ATOM     14  H1  LIG d   1       1.448  -2.498  -9.054  0.00  0.00     0.203 HD
ATOM     15  H2  LIG d   1       2.785  -3.187  -9.727  0.00  0.00     0.203 HD
BRANCH  13  16
ATOM     16  CA  LIG d   1       1.745  -1.986 -11.006  0.00  0.00     0.019 C 
ATOM     17  HA  LIG d   1       0.998  -2.330 -11.722  0.00  0.00     0.091 H 
BRANCH  16  18
ATOM     18  C   LIG d   1       1.349  -0.604 -10.481  0.00  0.00    -0.000 C 
ATOM     19  H   LIG d   1       1.788   0.165 -11.117  0.00  0.00     0.033 H 
ATOM     20  H   LIG d   1       0.264  -0.508 -10.492  0.00  0.00     0.033 H 
BRANCH  18  21
ATOM     21  C   LIG d   1       1.862  -0.436  -9.049  0.00  0.00    -0.022 C 
ATOM     22  H   LIG d   1       1.074  -0.008  -8.429  0.00  0.00     0.032 H 
ATOM     23  H   LIG d   1       2.149  -1.409  -8.649  0.00  0.00     0.032 H 
BRANCH  21  24
ATOM     24  C   LIG d   1       3.058   0.480  -9.047  0.00  0.00    -0.047 A 
ATOM     25  C   LIG d   1       4.319  -0.030  -8.799  0.00  0.00    -0.059 A 
ATOM     26  C   LIG d   1       5.416   0.810  -8.801  0.00  0.00    -0.061 A 
ATOM     27  H   LIG d   1       4.446  -1.085  -8.607  0.00  0.00     0.062 H 
ATOM     28  C   LIG d   1       5.253   2.161  -9.042  0.00  0.00    -0.062 A 
ATOM     29  H   LIG d   1       6.402   0.410  -8.611  0.00  0.00     0.062 H 
ATOM     30  C   LIG d   1       3.991   2.671  -9.285  0.00  0.00    -0.061 A 
ATOM     31  H   LIG d   1       6.110   2.818  -9.040  0.00  0.00     0.062 H 
ATOM     32  C   LIG d   1       2.894   1.831  -9.288  0.00  0.00    -0.059 A 
ATOM     33  H   LIG d   1       3.864   3.728  -9.473  0.00  0.00     0.062 H 
ATOM     34  H   LIG d   1       1.909   2.231  -9.478  0.00  0.00     0.062 H 
ENDBRANCH  21  24
ENDBRANCH  18  21
ENDBRANCH  16  18
BRANCH  16  35
ATOM     35  C   LIG d   1       3.088  -1.899 -11.684  0.00  0.00     0.089 C 
ATOM     36  O   LIG d   1       3.380  -0.908 -12.332  0.00  0.00    -0.544 OA
ATOM     37  OXT LIG d   1       3.883  -2.818 -11.583  0.00  0.00    -0.544 OA
ENDBRANCH  16  35
ENDBRANCH  13  16
ENDBRANCH   7  13
ENDBRANCH   4   7
ENDBRANCH   1   3
BRANCH   1  38
ATOM     38  C   LIG d   1       5.442  -6.195 -10.372  0.00  0.00    -0.038 C 
ATOM     39  H   LIG d   1       5.836  -5.230 -10.055  0.00  0.00     0.025 H 
ATOM     40  H   LIG d   1       6.125  -6.986 -10.064  0.00  0.00     0.025 H 
ATOM     41  H   LIG d   1       5.337  -6.206 -11.457  0.00  0.00     0.025 H 
ENDBRANCH   1  38
BRANCH   1  42
ATOM     42  C   LIG d   1       4.250  -6.683  -8.253  0.00  0.00     0.234 C 
ATOM     43  O   LIG d   1       3.679  -7.616  -7.728  0.00  0.00    -0.274 OA
ATOM     44  N   LIG d   1       5.045  -5.880  -7.517  0.00  0.00    -0.302 N 
ATOM     45  H   LIG d   1       5.502  -5.134  -7.936  0.00  0.00     0.149 HD
BRANCH  44  46
ATOM     46  C   LIG d   1       5.217  -6.134  -6.085  0.00  0.00     0.104 C 
ATOM     47  H   LIG d   1       4.358  -6.688  -5.708  0.00  0.00     0.060 H 
BRANCH  46  48
ATOM     48  C   LIG d   1       6.489  -6.953  -5.862  0.00  0.00    -0.001 C 
ATOM     49  H   LIG d   1       6.854  -7.325  -6.819  0.00  0.00     0.034 H 
ATOM     50  H   LIG d   1       7.252  -6.323  -5.402  0.00  0.00     0.034 H 
BRANCH  48  51
ATOM     51  C   LIG d   1       6.185  -8.117  -4.953  0.00  0.00    -0.045 A 
ATOM     52  C   LIG d   1       4.900  -8.620  -4.881  0.00  0.00    -0.059 A 
ATOM     53  C   LIG d   1       4.623  -9.690  -4.052  0.00  0.00    -0.061 A 
ATOM     54  H   LIG d   1       4.114  -8.179  -5.477  0.00  0.00     0.062 H 
ATOM     55  C   LIG d   1       5.628 -10.250  -3.286  0.00  0.00    -0.062 A 
ATOM     56  H   LIG d   1       3.620 -10.086  -3.999  0.00  0.00     0.062 H 
ATOM     57  C   LIG d   1       6.913  -9.743  -3.354  0.00  0.00    -0.061 A 
ATOM     58  H   LIG d   1       5.410 -11.084  -2.636  0.00  0.00     0.062 H 
ATOM     59  C   LIG d   1       7.191  -8.676  -4.187  0.00  0.00    -0.059 A 
ATOM     60  H   LIG d   1       7.698 -10.181  -2.755  0.00  0.00     0.062 H 
ATOM     61  H   LIG d   1       8.195  -8.280  -4.240  0.00  0.00     0.062 H 
ENDBRANCH  48  51
ENDBRANCH  46  48
BRANCH  46  62
ATOM     62  C   LIG d   1       5.329  -4.821  -5.352  0.00  0.00     0.238 C 
ATOM     63  O   LIG d   1       6.419  -4.401  -5.025  0.00  0.00    -0.273 OA
ATOM     64  N   LIG d   1       4.219  -4.115  -5.062  0.00  0.00    -0.284 N 
ATOM     65  H   LIG d   1       3.344  -4.483  -5.261  0.00  0.00     0.155 HD
BRANCH  64  66
ATOM     66  C   LIG d   1       4.328  -2.856  -4.475  0.00  0.00     0.034 A 
ATOM     67  C   LIG d   1       4.594  -1.742  -5.267  0.00  0.00    -0.040 A 
ATOM     68  C   LIG d   1       4.698  -0.501  -4.695  0.00  0.00    -0.051 A 
ATOM     69  H   LIG d   1       4.717  -1.857  -6.334  0.00  0.00     0.064 H 
ATOM     70  C   LIG d   1       4.546  -0.355  -3.311  0.00  0.00    -0.003 A 
ATOM     71  H   LIG d   1       4.900   0.363  -5.311  0.00  0.00     0.062 H 
ATOM     72  C   LIG d   1       4.283  -1.477  -2.518  0.00  0.00    -0.051 A 
ATOM     73  C   LIG d   1       4.176  -2.715  -3.099  0.00  0.00    -0.040 A 
ATOM     74  H   LIG d   1       4.164  -1.369  -1.451  0.00  0.00     0.062 H 
ATOM     75  H   LIG d   1       3.973  -3.582  -2.488  0.00  0.00     0.064 H 
BRANCH  70  76
ATOM     76  C   LIG d   1       4.660   0.975  -2.693  0.00  0.00     0.072 C 
ATOM     77  O   LIG d   1       3.821   1.348  -1.883  0.00  0.00    -0.545 OA
ATOM     78  O   LIG d   1       5.594   1.709  -2.986  0.00  0.00    -0.545 OA
ENDBRANCH  70  76
ENDBRANCH  64  66
ENDBRANCH  46  62
ENDBRANCH  44  46
ENDBRANCH   1  42
TORSDOF 17
ENDMDL
MODEL 8
REMARK VINA RESULT:      -6.4      2.952      6.656
REMARK  17 active torsions:
REMARK  status: ('A' for Active; 'I' for Inactive)
REMARK    1  A    between atoms: C_1  and  C_2 
REMARK    2  A    between atoms: C_2  and  C_4 
REMARK    3  A    between atoms: C_2  and  N_34 
REMARK       I    between atoms: C_4  and  N_6 
REMARK    4  A    between atoms: N_6  and  C_7 
REMARK    5  A    between atoms: C_7  and  C_9 
REMARK    6  A    between atoms: C_7  and  C_10 
REMARK       I    between atoms: C_10  and  N_12 
REMARK    7  A    between atoms: N_12  and  C_13 
REMARK    8  A    between atoms: C_13  and  C_15 
REMARK    9  A    between atoms: C_13  and  C_22 
REMARK   10  A    between atoms: C_15  and  C_16 
REMARK       I    between atoms: C_22  and  N_24 
REMARK   11  A    between atoms: N_24  and  C_25 
REMARK   12  A    between atoms: C_28  and  C_31 
REMARK   13  A    between atoms: N_34  and  CA_35 
REMARK   14  A    between atoms: CA_35  and  C_37 
REMARK   15  A    between atoms: CA_35  and  C_45 
REMARK   16  A    between atoms: C_37  and  C_38 
REMARK   17  A    between atoms: C_38  and  C_39 
ROOT
ATOM      1  C   LIG d   1       6.407  -1.170  -7.982  0.00  0.00     0.097 C 
ATOM      2  H   LIG d   1       7.236  -1.861  -7.823  0.00  0.00     0.059 H 
ENDROOT
BRANCH   1   3
ATOM      3  N   LIG d   1       5.171  -1.928  -8.187  0.00  0.00    -0.300 N 
ATOM      4  C   LIG d   1       5.093  -3.212  -7.784  0.00  0.00     0.262 C 
ATOM      5  O   LIG d   1       6.047  -3.740  -7.252  0.00  0.00    -0.270 OA
ATOM      6  H   LIG d   1       4.408  -1.506  -8.614  0.00  0.00     0.150 HD
BRANCH   4   7
ATOM      7  C   LIG d   1       3.821  -3.993  -7.995  0.00  0.00     0.053 C 
ATOM      8  H   LIG d   1       2.969  -3.387  -7.688  0.00  0.00     0.095 H 
BRANCH   7   9
ATOM      9  C   LIG d   1       3.865  -5.274  -7.159  0.00  0.00    -0.013 C 
ATOM     10  H   LIG d   1       2.849  -5.624  -6.978  0.00  0.00     0.029 H 
ATOM     11  H   LIG d   1       4.424  -6.040  -7.698  0.00  0.00     0.029 H 
ATOM     12  H   LIG d   1       4.354  -5.068  -6.207  0.00  0.00     0.029 H 
ENDBRANCH   7   9
BRANCH   7  13
ATOM     13  N   LIG d   1       3.688  -4.339  -9.416  0.00  0.00     0.242 N 
ATOM     14  H1  LIG d   1       4.415  -3.879  -9.944  0.00  0.00     0.203 HD
ATOM     15  H2  LIG d   1       3.771  -5.338  -9.528  0.00  0.00     0.203 HD
BRANCH  13  16
ATOM     16  CA  LIG d   1       2.376  -3.899  -9.906  0.00  0.00     0.019 C 
ATOM     17  HA  LIG d   1       1.684  -3.811  -9.067  0.00  0.00     0.091 H 
BRANCH  16  18
ATOM     18  C   LIG d   1       2.517  -2.540 -10.595  0.00  0.00    -0.000 C 
ATOM     19  H   LIG d   1       3.569  -2.253 -10.619  0.00  0.00     0.033 H 
ATOM     20  H   LIG d   1       2.134  -2.606 -11.612  0.00  0.00     0.033 H 
BRANCH  18  21
ATOM     21  C   LIG d   1       1.721  -1.489  -9.818  0.00  0.00    -0.022 C 
ATOM     22  H   LIG d   1       0.744  -1.357 -10.283  0.00  0.00     0.032 H 
ATOM     23  H   LIG d   1       1.590  -1.821  -8.787  0.00  0.00     0.032 H 
BRANCH  21  24
ATOM     24  C   LIG d   1       2.467  -0.180  -9.832  0.00  0.00    -0.047 A 
ATOM     25  C   LIG d   1       3.236   0.165 -10.928  0.00  0.00    -0.059 A 
ATOM     26  C   LIG d   1       3.917   1.367 -10.943  0.00  0.00    -0.061 A 
ATOM     27  H   LIG d   1       3.302  -0.503 -11.774  0.00  0.00     0.062 H 
ATOM     28  C   LIG d   1       3.837   2.221  -9.859  0.00  0.00    -0.062 A 
ATOM     29  H   LIG d   1       4.514   1.639 -11.801  0.00  0.00     0.062 H 
ATOM     30  C   LIG d   1       3.072   1.873  -8.761  0.00  0.00    -0.061 A 
ATOM     31  H   LIG d   1       4.371   3.159  -9.868  0.00  0.00     0.062 H 
ATOM     32  C   LIG d   1       2.387   0.673  -8.747  0.00  0.00    -0.059 A 
ATOM     33  H   LIG d   1       3.010   2.540  -7.913  0.00  0.00     0.062 H 
ATOM     34  H   LIG d   1       1.790   0.401  -7.889  0.00  0.00     0.062 H 
ENDBRANCH  21  24
ENDBRANCH  18  21
ENDBRANCH  16  18
BRANCH  16  35
ATOM     35  C   LIG d   1       1.843  -4.907 -10.892  0.00  0.00     0.089 C 
ATOM     36  O   LIG d   1       0.884  -4.628 -11.591  0.00  0.00    -0.544 OA
ATOM     37  OXT LIG d   1       2.374  -6.001 -10.992  0.00  0.00    -0.544 OA
ENDBRANCH  16  35
ENDBRANCH  13  16
ENDBRANCH   7  13
ENDBRANCH   4   7
ENDBRANCH   1   3
BRANCH   1  38
ATOM     38  C   LIG d   1       6.689  -0.310  -9.217  0.00  0.00    -0.038 C 
ATOM     39  H   LIG d   1       5.761  -0.140  -9.761  0.00  0.00     0.025 H 
ATOM     40  H   LIG d   1       7.108   0.647  -8.905  0.00  0.00     0.025 H 
ATOM     41  H   LIG d   1       7.400  -0.825  -9.862  0.00  0.00     0.025 H 
ENDBRANCH   1  38
BRANCH   1  42
ATOM     42  C   LIG d   1       6.257  -0.281  -6.775  0.00  0.00     0.234 C 
ATOM     43  O   LIG d   1       5.219   0.321  -6.590  0.00  0.00    -0.274 OA
ATOM     44  N   LIG d   1       7.275  -0.153  -5.900  0.00  0.00    -0.302 N 
ATOM     45  H   LIG d   1       8.104  -0.634  -6.047  0.00  0.00     0.149 HD
BRANCH  44  46
ATOM     46  C   LIG d   1       7.128   0.711  -4.727  0.00  0.00     0.104 C 
ATOM     47  H   LIG d   1       6.213   1.295  -4.818  0.00  0.00     0.060 H 
BRANCH  46  48
ATOM     48  C   LIG d   1       7.058  -0.150  -3.464  0.00  0.00    -0.001 C 
ATOM     49  H   LIG d   1       7.600  -1.081  -3.630  0.00  0.00     0.034 H 
ATOM     50  H   LIG d   1       7.509   0.389  -2.631  0.00  0.00     0.034 H 
BRANCH  48  51
ATOM     51  C   LIG d   1       5.618  -0.457  -3.143  0.00  0.00    -0.045 A 
ATOM     52  C   LIG d   1       5.194  -1.769  -3.050  0.00  0.00    -0.059 A 
ATOM     53  C   LIG d   1       3.875  -2.050  -2.751  0.00  0.00    -0.061 A 
ATOM     54  H   LIG d   1       5.897  -2.575  -3.206  0.00  0.00     0.062 H 
ATOM     55  C   LIG d   1       2.976  -1.018  -2.556  0.00  0.00    -0.062 A 
ATOM     56  H   LIG d   1       3.545  -3.075  -2.673  0.00  0.00     0.062 H 
ATOM     57  C   LIG d   1       3.398   0.295  -2.654  0.00  0.00    -0.061 A 
ATOM     58  H   LIG d   1       1.944  -1.238  -2.325  0.00  0.00     0.062 H 
ATOM     59  C   LIG d   1       4.718   0.575  -2.949  0.00  0.00    -0.059 A 
ATOM     60  H   LIG d   1       2.695   1.100  -2.502  0.00  0.00     0.062 H 
ATOM     61  H   LIG d   1       5.048   1.601  -3.026  0.00  0.00     0.062 H 
ENDBRANCH  48  51
ENDBRANCH  46  48
BRANCH  46  62
ATOM     62  C   LIG d   1       8.310   1.641  -4.636  0.00  0.00     0.238 C 
ATOM     63  O   LIG d   1       8.609   2.336  -5.585  0.00  0.00    -0.273 OA
ATOM     64  N   LIG d   1       9.036   1.699  -3.502  0.00  0.00    -0.284 N 
ATOM     65  H   LIG d   1       8.841   1.095  -2.769  0.00  0.00     0.155 HD
BRANCH  64  66
ATOM     66  C   LIG d   1      10.066   2.630  -3.382  0.00  0.00     0.034 A 
ATOM     67  C   LIG d   1      11.383   2.240  -3.606  0.00  0.00    -0.040 A 
ATOM     68  C   LIG d   1      12.399   3.154  -3.493  0.00  0.00    -0.051 A 
ATOM     69  H   LIG d   1      11.605   1.217  -3.872  0.00  0.00     0.064 H 
ATOM     70  C   LIG d   1      12.112   4.478  -3.143  0.00  0.00    -0.003 A 
ATOM     71  H   LIG d   1      13.420   2.851  -3.671  0.00  0.00     0.062 H 
ATOM     72  C   LIG d   1      10.787   4.865  -2.914  0.00  0.00    -0.051 A 
ATOM     73  C   LIG d   1       9.775   3.946  -3.033  0.00  0.00    -0.040 A 
ATOM     74  H   LIG d   1      10.560   5.886  -2.644  0.00  0.00     0.062 H 
ATOM     75  H   LIG d   1       8.753   4.244  -2.857  0.00  0.00     0.064 H 
BRANCH  70  76
ATOM     76  C   LIG d   1      13.200   5.461  -3.017  0.00  0.00     0.072 C 
ATOM     77  O   LIG d   1      12.945   6.621  -2.722  0.00  0.00    -0.545 OA
ATOM     78  O   LIG d   1      14.359   5.119  -3.206  0.00  0.00    -0.545 OA
ENDBRANCH  70  76
ENDBRANCH  64  66
ENDBRANCH  46  62
ENDBRANCH  44  46
ENDBRANCH   1  42
TORSDOF 17
ENDMDL
MODEL 9
REMARK VINA RESULT:      -6.3      4.984      9.192
REMARK  17 active torsions:
REMARK  status: ('A' for Active; 'I' for Inactive)
REMARK    1  A    between atoms: C_1  and  C_2 
REMARK    2  A    between atoms: C_2  and  C_4 
REMARK    3  A    between atoms: C_2  and  N_34 
REMARK       I    between atoms: C_4  and  N_6 
REMARK    4  A    between atoms: N_6  and  C_7 
REMARK    5  A    between atoms: C_7  and  C_9 
REMARK    6  A    between atoms: C_7  and  C_10 
REMARK       I    between atoms: C_10  and  N_12 
REMARK    7  A    between atoms: N_12  and  C_13 
REMARK    8  A    between atoms: C_13  and  C_15 
REMARK    9  A    between atoms: C_13  and  C_22 
REMARK   10  A    between atoms: C_15  and  C_16 
REMARK       I    between atoms: C_22  and  N_24 
REMARK   11  A    between atoms: N_24  and  C_25 
REMARK   12  A    between atoms: C_28  and  C_31 
REMARK   13  A    between atoms: N_34  and  CA_35 
REMARK   14  A    between atoms: CA_35  and  C_37 
REMARK   15  A    between atoms: CA_35  and  C_45 
REMARK   16  A    between atoms: C_37  and  C_38 
REMARK   17  A    between atoms: C_38  and  C_39 
ROOT
ATOM      1  C   LIG d   1       8.642   0.379  -4.776  0.00  0.00     0.097 C 
ATOM      2  H   LIG d   1       8.375  -0.217  -3.902  0.00  0.00     0.059 H 
ENDROOT
BRANCH   1   3
ATOM      3  N   LIG d   1       7.609   0.231  -5.803  0.00  0.00    -0.300 N 
ATOM      4  C   LIG d   1       6.578  -0.613  -5.605  0.00  0.00     0.262 C 
ATOM      5  O   LIG d   1       6.505  -1.252  -4.576  0.00  0.00    -0.270 OA
ATOM      6  H   LIG d   1       7.667   0.742  -6.626  0.00  0.00     0.150 HD
BRANCH   4   7
ATOM      7  C   LIG d   1       5.514  -0.765  -6.662  0.00  0.00     0.053 C 
ATOM      8  H   LIG d   1       4.931  -1.665  -6.463  0.00  0.00     0.095 H 
BRANCH   7   9
ATOM      9  C   LIG d   1       6.175  -0.879  -8.038  0.00  0.00    -0.013 C 
ATOM     10  H   LIG d   1       6.038  -1.889  -8.424  0.00  0.00     0.029 H 
ATOM     11  H   LIG d   1       5.717  -0.163  -8.721  0.00  0.00     0.029 H 
ATOM     12  H   LIG d   1       7.240  -0.666  -7.947  0.00  0.00     0.029 H 
ENDBRANCH   7   9
BRANCH   7  13
ATOM     13  N   LIG d   1       4.629   0.407  -6.640  0.00  0.00     0.242 N 
ATOM     14  H1  LIG d   1       4.529   0.734  -5.691  0.00  0.00     0.203 HD
ATOM     15  H2  LIG d   1       5.025   1.138  -7.209  0.00  0.00     0.203 HD
BRANCH  13  16
ATOM     16  CA  LIG d   1       3.310   0.034  -7.170  0.00  0.00     0.019 C 
ATOM     17  HA  LIG d   1       3.367  -0.955  -7.625  0.00  0.00     0.091 H 
BRANCH  16  18
ATOM     18  C   LIG d   1       2.290   0.012  -6.030  0.00  0.00    -0.000 C 
ATOM     19  H   LIG d   1       1.300   0.246  -6.423  0.00  0.00     0.033 H 
ATOM     20  H   LIG d   1       2.276  -0.977  -5.573  0.00  0.00     0.033 H 
BRANCH  18  21
ATOM     21  C   LIG d   1       2.679   1.053  -4.978  0.00  0.00    -0.022 C 
ATOM     22  H   LIG d   1       3.397   1.752  -5.406  0.00  0.00     0.032 H 
ATOM     23  H   LIG d   1       1.789   1.598  -4.658  0.00  0.00     0.032 H 
BRANCH  21  24
ATOM     24  C   LIG d   1       3.298   0.361  -3.790  0.00  0.00    -0.047 A 
ATOM     25  C   LIG d   1       4.078   1.078  -2.902  0.00  0.00    -0.059 A 
ATOM     26  C   LIG d   1       4.642   0.445  -1.811  0.00  0.00    -0.061 A 
ATOM     27  H   LIG d   1       4.243   2.134  -3.059  0.00  0.00     0.062 H 
ATOM     28  C   LIG d   1       4.435  -0.907  -1.613  0.00  0.00    -0.062 A 
ATOM     29  H   LIG d   1       5.248   1.006  -1.115  0.00  0.00     0.062 H 
ATOM     30  C   LIG d   1       3.659  -1.625  -2.504  0.00  0.00    -0.061 A 
ATOM     31  H   LIG d   1       4.878  -1.404  -0.763  0.00  0.00     0.062 H 
ATOM     32  C   LIG d   1       3.090  -0.991  -3.593  0.00  0.00    -0.059 A 
ATOM     33  H   LIG d   1       3.497  -2.682  -2.350  0.00  0.00     0.062 H 
ATOM     34  H   LIG d   1       2.484  -1.552  -4.289  0.00  0.00     0.062 H 
ENDBRANCH  21  24
ENDBRANCH  18  21
ENDBRANCH  16  18
BRANCH  16  35
ATOM     35  C   LIG d   1       2.883   1.041  -8.206  0.00  0.00     0.089 C 
ATOM     36  O   LIG d   1       2.289   0.673  -9.205  0.00  0.00    -0.544 OA
ATOM     37  OXT LIG d   1       3.128   2.225  -8.044  0.00  0.00    -0.544 OA
ENDBRANCH  16  35
ENDBRANCH  13  16
ENDBRANCH   7  13
ENDBRANCH   4   7
ENDBRANCH   1   3
BRANCH   1  38
ATOM     38  C   LIG d   1       9.985  -0.103  -5.329  0.00  0.00    -0.038 C 
ATOM     39  H   LIG d   1       9.946  -0.115  -6.419  0.00  0.00     0.025 H 
ATOM     40  H   LIG d   1      10.776   0.572  -5.003  0.00  0.00     0.025 H 
ATOM     41  H   LIG d   1      10.190  -1.108  -4.962  0.00  0.00     0.025 H 
ENDBRANCH   1  38
BRANCH   1  42
ATOM     42  C   LIG d   1       8.753   1.828  -4.379  0.00  0.00     0.234 C 
ATOM     43  O   LIG d   1       7.799   2.567  -4.504  0.00  0.00    -0.274 OA
ATOM     44  N   LIG d   1       9.914   2.306  -3.886  0.00  0.00    -0.302 N 
ATOM     45  H   LIG d   1      10.677   1.716  -3.785  0.00  0.00     0.149 HD
BRANCH  44  46
ATOM     46  C   LIG d   1      10.021   3.715  -3.500  0.00  0.00     0.104 C 
ATOM     47  H   LIG d   1       9.080   4.044  -3.061  0.00  0.00     0.060 H 
BRANCH  46  48
ATOM     48  C   LIG d   1      11.147   3.879  -2.477  0.00  0.00    -0.001 C 
ATOM     49  H   LIG d   1      11.180   3.003  -1.830  0.00  0.00     0.034 H 
ATOM     50  H   LIG d   1      12.099   3.983  -2.998  0.00  0.00     0.034 H 
BRANCH  48  51
ATOM     51  C   LIG d   1      10.893   5.109  -1.644  0.00  0.00    -0.045 A 
ATOM     52  C   LIG d   1      11.621   5.324  -0.489  0.00  0.00    -0.059 A 
ATOM     53  C   LIG d   1      11.392   6.454   0.272  0.00  0.00    -0.061 A 
ATOM     54  H   LIG d   1      12.372   4.610  -0.184  0.00  0.00     0.062 H 
ATOM     55  C   LIG d   1      10.428   7.365  -0.116  0.00  0.00    -0.062 A 
ATOM     56  H   LIG d   1      11.964   6.624   1.172  0.00  0.00     0.062 H 
ATOM     57  C   LIG d   1       9.696   7.148  -1.269  0.00  0.00    -0.061 A 
ATOM     58  H   LIG d   1      10.247   8.247   0.481  0.00  0.00     0.062 H 
ATOM     59  C   LIG d   1       9.928   6.020  -2.032  0.00  0.00    -0.059 A 
ATOM     60  H   LIG d   1       8.942   7.860  -1.572  0.00  0.00     0.062 H 
ATOM     61  H   LIG d   1       9.356   5.850  -2.934  0.00  0.00     0.062 H 
ENDBRANCH  48  51
ENDBRANCH  46  48
BRANCH  46  62
ATOM     62  C   LIG d   1      10.324   4.547  -4.720  0.00  0.00     0.238 C 
ATOM     63  O   LIG d   1      11.457   4.601  -5.150  0.00  0.00    -0.273 OA
ATOM     64  N   LIG d   1       9.337   5.231  -5.330  0.00  0.00    -0.284 N 
ATOM     65  H   LIG d   1       8.446   5.244  -4.947  0.00  0.00     0.155 HD
BRANCH  64  66
ATOM     66  C   LIG d   1       9.596   5.919  -6.515  0.00  0.00     0.034 A 
ATOM     67  C   LIG d   1       9.695   5.220  -7.715  0.00  0.00    -0.040 A 
ATOM     68  C   LIG d   1       9.945   5.894  -8.883  0.00  0.00    -0.051 A 
ATOM     69  H   LIG d   1       9.573   4.148  -7.726  0.00  0.00     0.064 H 
ATOM     70  C   LIG d   1      10.110   7.284  -8.866  0.00  0.00    -0.003 A 
ATOM     71  H   LIG d   1      10.018   5.352  -9.814  0.00  0.00     0.062 H 
ATOM     72  C   LIG d   1      10.013   7.981  -7.657  0.00  0.00    -0.051 A 
ATOM     73  C   LIG d   1       9.759   7.300  -6.493  0.00  0.00    -0.040 A 
ATOM     74  H   LIG d   1      10.139   9.053  -7.640  0.00  0.00     0.062 H 
ATOM     75  H   LIG d   1       9.684   7.838  -5.560  0.00  0.00     0.064 H 
BRANCH  70  76
ATOM     76  C   LIG d   1      10.382   8.010 -10.117  0.00  0.00     0.072 C 
ATOM     77  O   LIG d   1      10.222   7.453 -11.195  0.00  0.00    -0.545 OA
ATOM     78  O   LIG d   1      10.768   9.170 -10.080  0.00  0.00    -0.545 OA
ENDBRANCH  70  76
ENDBRANCH  64  66
ENDBRANCH  46  62
ENDBRANCH  44  46
ENDBRANCH   1  42
TORSDOF 17
ENDMDL
MODEL 10
REMARK VINA RESULT:      -6.3      3.257      7.444
REMARK  17 active torsions:
REMARK  status: ('A' for Active; 'I' for Inactive)
REMARK    1  A    between atoms: C_1  and  C_2 
REMARK    2  A    between atoms: C_2  and  C_4 
REMARK    3  A    between atoms: C_2  and  N_34 
REMARK       I    between atoms: C_4  and  N_6 
REMARK    4  A    between atoms: N_6  and  C_7 
REMARK    5  A    between atoms: C_7  and  C_9 
REMARK    6  A    between atoms: C_7  and  C_10 
REMARK       I    between atoms: C_10  and  N_12 
REMARK    7  A    between atoms: N_12  and  C_13 
REMARK    8  A    between atoms: C_13  and  C_15 
REMARK    9  A    between atoms: C_13  and  C_22 
REMARK   10  A    between atoms: C_15  and  C_16 
REMARK       I    between atoms: C_22  and  N_24 
REMARK   11  A    between atoms: N_24  and  C_25 
REMARK   12  A    between atoms: C_28  and  C_31 
REMARK   13  A    between atoms: N_34  and  CA_35 
REMARK   14  A    between atoms: CA_35  and  C_37 
REMARK   15  A    between atoms: CA_35  and  C_45 
REMARK   16  A    between atoms: C_37  and  C_38 
REMARK   17  A    between atoms: C_38  and  C_39 
ROOT
ATOM      1  C   LIG d   1       7.643   0.638  -6.851  0.00  0.00     0.097 C 
ATOM      2  H   LIG d   1       8.124  -0.026  -7.570  0.00  0.00     0.059 H 
ENDROOT
BRANCH   1   3
ATOM      3  N   LIG d   1       6.255   0.873  -7.255  0.00  0.00    -0.300 N 
ATOM      4  C   LIG d   1       5.952   1.042  -8.558  0.00  0.00     0.262 C 
ATOM      5  O   LIG d   1       6.829   1.000  -9.395  0.00  0.00    -0.270 OA
ATOM      6  H   LIG d   1       5.554   0.908  -6.586  0.00  0.00     0.150 HD
BRANCH   4   7
ATOM      7  C   LIG d   1       4.524   1.284  -8.974  0.00  0.00     0.053 C 
ATOM      8  H   LIG d   1       4.320   0.748  -9.901  0.00  0.00     0.095 H 
BRANCH   7   9
ATOM      9  C   LIG d   1       4.304   2.783  -9.193  0.00  0.00    -0.013 C 
ATOM     10  H   LIG d   1       4.939   3.128 -10.008  0.00  0.00     0.029 H 
ATOM     11  H   LIG d   1       3.258   2.963  -9.445  0.00  0.00     0.029 H 
ATOM     12  H   LIG d   1       4.557   3.323  -8.281  0.00  0.00     0.029 H 
ENDBRANCH   7   9
BRANCH   7  13
ATOM     13  N   LIG d   1       3.618   0.805  -7.923  0.00  0.00     0.242 N 
ATOM     14  H1  LIG d   1       4.149   0.595  -7.091  0.00  0.00     0.203 HD
ATOM     15  H2  LIG d   1       2.935   1.517  -7.716  0.00  0.00     0.203 HD
BRANCH  13  16
ATOM     16  CA  LIG d   1       2.933  -0.411  -8.384  0.00  0.00     0.019 C 
ATOM     17  HA  LIG d   1       1.912  -0.420  -8.003  0.00  0.00     0.091 H 
BRANCH  16  18
ATOM     18  C   LIG d   1       2.908  -0.433  -9.914  0.00  0.00    -0.000 C 
ATOM     19  H   LIG d   1       3.247   0.530 -10.297  0.00  0.00     0.033 H 
ATOM     20  H   LIG d   1       3.566  -1.222 -10.276  0.00  0.00     0.033 H 
BRANCH  18  21
ATOM     21  C   LIG d   1       1.480  -0.699 -10.396  0.00  0.00    -0.022 C 
ATOM     22  H   LIG d   1       0.992  -1.398  -9.717  0.00  0.00     0.032 H 
ATOM     23  H   LIG d   1       0.922   0.238 -10.414  0.00  0.00     0.032 H 
BRANCH  21  24
ATOM     24  C   LIG d   1       1.519  -1.288 -11.783  0.00  0.00    -0.047 A 
ATOM     25  C   LIG d   1       2.700  -1.287 -12.501  0.00  0.00    -0.059 A 
ATOM     26  C   LIG d   1       2.736  -1.830 -13.771  0.00  0.00    -0.061 A 
ATOM     27  H   LIG d   1       3.595  -0.864 -12.069  0.00  0.00     0.062 H 
ATOM     28  C   LIG d   1       1.590  -2.367 -14.327  0.00  0.00    -0.062 A 
ATOM     29  H   LIG d   1       3.660  -1.833 -14.331  0.00  0.00     0.062 H 
ATOM     30  C   LIG d   1       0.408  -2.363 -13.610  0.00  0.00    -0.061 A 
ATOM     31  H   LIG d   1       1.617  -2.789 -15.320  0.00  0.00     0.062 H 
ATOM     32  C   LIG d   1       0.372  -1.824 -12.338  0.00  0.00    -0.059 A 
ATOM     33  H   LIG d   1      -0.489  -2.782 -14.044  0.00  0.00     0.062 H 
ATOM     34  H   LIG d   1      -0.552  -1.821 -11.778  0.00  0.00     0.062 H 
ENDBRANCH  21  24
ENDBRANCH  18  21
ENDBRANCH  16  18
BRANCH  16  35
ATOM     35  C   LIG d   1       3.669  -1.625  -7.877  0.00  0.00     0.089 C 
ATOM     36  O   LIG d   1       4.380  -1.539  -6.890  0.00  0.00    -0.544 OA
ATOM     37  OXT LIG d   1       3.551  -2.693  -8.453  0.00  0.00    -0.544 OA
ENDBRANCH  16  35
ENDBRANCH  13  16
ENDBRANCH   7  13
ENDBRANCH   4   7
ENDBRANCH   1   3
BRANCH   1  38
ATOM     38  C   LIG d   1       8.394   1.971  -6.805  0.00  0.00    -0.038 C 
ATOM     39  H   LIG d   1       8.109   2.578  -7.665  0.00  0.00     0.025 H 
ATOM     40  H   LIG d   1       8.140   2.500  -5.887  0.00  0.00     0.025 H 
ATOM     41  H   LIG d   1       9.467   1.783  -6.833  0.00  0.00     0.025 H 
ENDBRANCH   1  38
BRANCH   1  42
ATOM     42  C   LIG d   1       7.667   0.001  -5.486  0.00  0.00     0.234 C 
ATOM     43  O   LIG d   1       8.146   0.599  -4.546  0.00  0.00    -0.274 OA
ATOM     44  N   LIG d   1       7.157  -1.235  -5.309  0.00  0.00    -0.302 N 
ATOM     45  H   LIG d   1       6.773  -1.714  -6.060  0.00  0.00     0.149 HD
BRANCH  44  46
ATOM     46  C   LIG d   1       7.181  -1.853  -3.981  0.00  0.00     0.104 C 
ATOM     47  H   LIG d   1       7.457  -1.107  -3.237  0.00  0.00     0.060 H 
BRANCH  46  48
ATOM     48  C   LIG d   1       5.794  -2.411  -3.654  0.00  0.00    -0.001 C 
ATOM     49  H   LIG d   1       5.372  -2.879  -4.543  0.00  0.00     0.034 H 
ATOM     50  H   LIG d   1       5.880  -3.153  -2.858  0.00  0.00     0.034 H 
BRANCH  48  51
ATOM     51  C   LIG d   1       4.896  -1.290  -3.200  0.00  0.00    -0.045 A 
ATOM     52  C   LIG d   1       5.410  -0.257  -2.439  0.00  0.00    -0.059 A 
ATOM     53  C   LIG d   1       4.587   0.774  -2.027  0.00  0.00    -0.061 A 
ATOM     54  H   LIG d   1       6.456  -0.253  -2.171  0.00  0.00     0.062 H 
ATOM     55  C   LIG d   1       3.247   0.766  -2.366  0.00  0.00    -0.062 A 
ATOM     56  H   LIG d   1       4.989   1.584  -1.437  0.00  0.00     0.062 H 
ATOM     57  C   LIG d   1       2.731  -0.270  -3.123  0.00  0.00    -0.061 A 
ATOM     58  H   LIG d   1       2.603   1.570  -2.041  0.00  0.00     0.062 H 
ATOM     59  C   LIG d   1       3.555  -1.298  -3.538  0.00  0.00    -0.059 A 
ATOM     60  H   LIG d   1       1.684  -0.276  -3.388  0.00  0.00     0.062 H 
ATOM     61  H   LIG d   1       3.153  -2.108  -4.130  0.00  0.00     0.062 H 
ENDBRANCH  48  51
ENDBRANCH  46  48
BRANCH  46  62
ATOM     62  C   LIG d   1       8.189  -2.973  -3.967  0.00  0.00     0.238 C 
ATOM     63  O   LIG d   1       8.337  -3.668  -4.951  0.00  0.00    -0.273 OA
ATOM     64  N   LIG d   1       8.926  -3.202  -2.862  0.00  0.00    -0.284 N 
ATOM     65  H   LIG d   1       8.760  -2.694  -2.054  0.00  0.00     0.155 HD
BRANCH  64  66
ATOM     66  C   LIG d   1       9.928  -4.170  -2.882  0.00  0.00     0.034 A 
ATOM     67  C   LIG d   1      11.159  -3.883  -3.464  0.00  0.00    -0.040 A 
ATOM     68  C   LIG d   1      12.150  -4.831  -3.481  0.00  0.00    -0.051 A 
ATOM     69  H   LIG d   1      11.335  -2.911  -3.901  0.00  0.00     0.064 H 
ATOM     70  C   LIG d   1      11.918  -6.093  -2.921  0.00  0.00    -0.003 A 
ATOM     71  H   LIG d   1      13.105  -4.606  -3.930  0.00  0.00     0.062 H 
ATOM     72  C   LIG d   1      10.678  -6.379  -2.341  0.00  0.00    -0.051 A 
ATOM     73  C   LIG d   1       9.693  -5.423  -2.324  0.00  0.00    -0.040 A 
ATOM     74  H   LIG d   1      10.495  -7.350  -1.906  0.00  0.00     0.062 H 
ATOM     75  H   LIG d   1       8.736  -5.644  -1.876  0.00  0.00     0.064 H 
BRANCH  70  76
ATOM     76  C   LIG d   1      12.977  -7.114  -2.941  0.00  0.00     0.072 C 
ATOM     77  O   LIG d   1      12.953  -8.005  -3.781  0.00  0.00    -0.545 OA
ATOM     78  O   LIG d   1      13.882  -7.075  -2.119  0.00  0.00    -0.545 OA
ENDBRANCH  70  76
ENDBRANCH  64  66
ENDBRANCH  46  62
ENDBRANCH  44  46
ENDBRANCH   1  42
TORSDOF 17
ENDMDL
