MODEL 1
REMARK VINA RESULT:      -6.7      0.000      0.000
REMARK  7 active torsions:
REMARK  status: ('A' for Active; 'I' for Inactive)
REMARK    1  A    between atoms: C_1  and  O_2 
REMARK    2  A    between atoms: O_2  and  C_3 
REMARK       I    between atoms: N_15  and  C_17 
REMARK    3  A    between atoms: C_17  and  C_19 
REMARK    4  A    between atoms: C_19  and  C_20 
REMARK    5  A    between atoms: C_20  and  C_21 
REMARK       I    between atoms: C_21  and  N_23 
REMARK    6  A    between atoms: N_23  and  C_24 
REMARK    7  A    between atoms: C_24  and  C_25 
ROOT
ATOM      1  C   LIG d   1      10.095   3.936  -4.007  0.00  0.00     0.121 A 
ATOM      2  C   LIG d   1      10.306   4.130  -5.370  0.00  0.00    -0.018 A 
ATOM      3  C   LIG d   1       9.647   3.355  -6.297  0.00  0.00    -0.034 A 
ATOM      4  C   LIG d   1       8.760   2.369  -5.877  0.00  0.00     0.047 A 
ATOM      5  C   LIG d   1       8.543   2.170  -4.500  0.00  0.00     0.008 A 
ATOM      6  C   LIG d   1       9.219   2.963  -3.569  0.00  0.00    -0.011 A 
ATOM      7  C   LIG d   1       7.576   1.085  -4.402  0.00  0.00    -0.002 A 
ATOM      8  C   LIG d   1       7.263   0.704  -5.655  0.00  0.00     0.023 A 
ATOM      9  N   LIG d   1       7.971   1.458  -6.549  0.00  0.00    -0.358 N 
ATOM     10  H   LIG d   1       7.984   1.425  -7.649  0.00  0.00     0.166 HD
ATOM     11  C   LIG d   1       6.286  -0.401  -5.985  0.00  0.00     0.004 C 
ATOM     12  C   LIG d   1       6.077  -1.271  -4.740  0.00  0.00     0.020 C 
ATOM     13  N   LIG d   1       5.880  -0.400  -3.570  0.00  0.00    -0.297 N 
ATOM     14  C   LIG d   1       6.997   0.466  -3.153  0.00  0.00     0.042 C 
ATOM     15  C   LIG d   1       4.711  -0.397  -2.900  0.00  0.00     0.216 C 
ATOM     16  O   LIG d   1       4.566   0.328  -1.938  0.00  0.00    -0.276 OA
ATOM     17  H   LIG d   1      10.993   4.893  -5.702  0.00  0.00     0.066 H 
ATOM     18  H   LIG d   1       9.818   3.512  -7.352  0.00  0.00     0.064 H 
ATOM     19  H   LIG d   1       9.057   2.815  -2.512  0.00  0.00     0.066 H 
ATOM     20  H   LIG d   1       5.327   0.039  -6.295  0.00  0.00     0.034 H 
ATOM     21  H   LIG d   1       6.689  -1.015  -6.804  0.00  0.00     0.034 H 
ATOM     22  H   LIG d   1       5.190  -1.906  -4.881  0.00  0.00     0.047 H 
ATOM     23  H   LIG d   1       6.962  -1.905  -4.584  0.00  0.00     0.047 H 
ATOM     24  H   LIG d   1       7.772  -0.122  -2.642  0.00  0.00     0.051 H 
ATOM     25  H   LIG d   1       6.638   1.262  -2.482  0.00  0.00     0.051 H 
ENDROOT
BRANCH  15  26
ATOM     26  C   LIG d   1       3.583  -1.292  -3.345  0.00  0.00     0.032 C 
ATOM     27  H   LIG d   1       3.881  -1.833  -4.254  0.00  0.00     0.036 H 
ATOM     28  H   LIG d   1       3.351  -2.013  -2.548  0.00  0.00     0.036 H 
BRANCH  26  29
ATOM     29  C   LIG d   1       2.345  -0.443  -3.640  0.00  0.00     0.032 C 
ATOM     30  H   LIG d   1       1.476  -1.101  -3.790  0.00  0.00     0.036 H 
ATOM     31  H   LIG d   1       2.152   0.231  -2.792  0.00  0.00     0.036 H 
BRANCH  29  32
ATOM     32  C   LIG d   1       2.579   0.372  -4.886  0.00  0.00     0.214 C 
ATOM     33  O   LIG d   1       2.666   1.580  -4.813  0.00  0.00    -0.276 OA
ATOM     34  N   LIG d   1       2.691  -0.240  -6.081  0.00  0.00    -0.313 N 
ATOM     35  H   LIG d   1       2.611  -1.336  -6.148  0.00  0.00     0.149 HD
BRANCH  34  36
ATOM     36  C   LIG d   1       2.917   0.553  -7.292  0.00  0.00     0.038 C 
ATOM     37  H   LIG d   1       2.027   1.164  -7.503  0.00  0.00     0.049 H 
ATOM     38  H   LIG d   1       3.786   1.210  -7.143  0.00  0.00     0.049 H 
BRANCH  36  39
ATOM     39  C   LIG d   1       3.184  -0.385  -8.473  0.00  0.00     0.074 C 
ATOM     40  H   LIG d   1       4.072  -0.017  -9.006  0.00  0.00     0.061 H 
ATOM     41  O   LIG d   1       3.435  -1.727  -8.002  0.00  0.00    -0.375 OA
ATOM     42  C   LIG d   1       3.178  -2.582  -9.138  0.00  0.00     0.048 C 
ATOM     43  C   LIG d   1       1.920  -1.984  -9.805  0.00  0.00    -0.027 C 
ATOM     44  H   LIG d   1       2.973  -3.617  -8.830  0.00  0.00     0.056 H 
ATOM     45  H   LIG d   1       4.014  -2.570  -9.854  0.00  0.00     0.056 H 
ATOM     46  C   LIG d   1       1.923  -0.505  -9.357  0.00  0.00    -0.023 C 
ATOM     47  H   LIG d   1       0.996  -2.470  -9.457  0.00  0.00     0.029 H 
ATOM     48  H   LIG d   1       1.970  -2.035 -10.903  0.00  0.00     0.029 H 
ATOM     49  H   LIG d   1       1.033  -0.250  -8.764  0.00  0.00     0.029 H 
ATOM     50  H   LIG d   1       2.007   0.186 -10.210  0.00  0.00     0.029 H 
ENDBRANCH  36  39
ENDBRANCH  34  36
ENDBRANCH  29  32
ENDBRANCH  26  29
ENDBRANCH  15  26
BRANCH   1  51
ATOM     51  O   LIG d   1      10.755   4.710  -3.103  0.00  0.00    -0.495 OA
BRANCH  51  52
ATOM     52  C   LIG d   1       9.967   5.619  -2.331  0.00  0.00     0.079 C 
ATOM     53  H   LIG d   1       8.952   5.670  -2.751  0.00  0.00     0.066 H 
ATOM     54  H   LIG d   1      10.427   6.617  -2.360  0.00  0.00     0.066 H 
ATOM     55  H   LIG d   1       9.916   5.267  -1.290  0.00  0.00     0.066 H 
ENDBRANCH  51  52
ENDBRANCH   1  51
TORSDOF 7
ENDMDL
MODEL 2
REMARK VINA RESULT:      -6.7      3.634      4.842
REMARK  7 active torsions:
REMARK  status: ('A' for Active; 'I' for Inactive)
REMARK    1  A    between atoms: C_1  and  O_2 
REMARK    2  A    between atoms: O_2  and  C_3 
REMARK       I    between atoms: N_15  and  C_17 
REMARK    3  A    between atoms: C_17  and  C_19 
REMARK    4  A    between atoms: C_19  and  C_20 
REMARK    5  A    between atoms: C_20  and  C_21 
REMARK       I    between atoms: C_21  and  N_23 
REMARK    6  A    between atoms: N_23  and  C_24 
REMARK    7  A    between atoms: C_24  and  C_25 
ROOT
ATOM      1  C   LIG d   1       9.825  -3.542  -5.871  0.00  0.00     0.121 A 
ATOM      2  C   LIG d   1       9.178  -4.568  -6.555  0.00  0.00    -0.018 A 
ATOM      3  C   LIG d   1       7.833  -4.794  -6.369  0.00  0.00    -0.034 A 
ATOM      4  C   LIG d   1       7.106  -3.995  -5.492  0.00  0.00     0.047 A 
ATOM      5  C   LIG d   1       7.756  -2.956  -4.799  0.00  0.00     0.008 A 
ATOM      6  C   LIG d   1       9.123  -2.737  -4.996  0.00  0.00    -0.011 A 
ATOM      7  C   LIG d   1       6.731  -2.321  -3.979  0.00  0.00    -0.002 A 
ATOM      8  C   LIG d   1       5.571  -2.966  -4.209  0.00  0.00     0.023 A 
ATOM      9  N   LIG d   1       5.782  -3.976  -5.106  0.00  0.00    -0.358 N 
ATOM     10  H   LIG d   1       5.077  -4.713  -5.520  0.00  0.00     0.166 HD
ATOM     11  C   LIG d   1       4.260  -2.608  -3.549  0.00  0.00     0.004 C 
ATOM     12  C   LIG d   1       4.542  -1.753  -2.308  0.00  0.00     0.020 C 
ATOM     13  N   LIG d   1       5.532  -0.720  -2.649  0.00  0.00    -0.297 N 
ATOM     14  C   LIG d   1       6.887  -1.156  -3.035  0.00  0.00     0.042 C 
ATOM     15  C   LIG d   1       5.209   0.588  -2.610  0.00  0.00     0.216 C 
ATOM     16  O   LIG d   1       6.038   1.426  -2.895  0.00  0.00    -0.276 OA
ATOM     17  H   LIG d   1       9.736  -5.192  -7.236  0.00  0.00     0.066 H 
ATOM     18  H   LIG d   1       7.341  -5.593  -6.903  0.00  0.00     0.064 H 
ATOM     19  H   LIG d   1       9.626  -1.942  -4.467  0.00  0.00     0.066 H 
ATOM     20  H   LIG d   1       3.636  -2.042  -4.255  0.00  0.00     0.034 H 
ATOM     21  H   LIG d   1       3.735  -3.529  -3.253  0.00  0.00     0.034 H 
ATOM     22  H   LIG d   1       3.611  -1.275  -1.972  0.00  0.00     0.047 H 
ATOM     23  H   LIG d   1       4.938  -2.392  -1.505  0.00  0.00     0.047 H 
ATOM     24  H   LIG d   1       7.457  -1.474  -2.150  0.00  0.00     0.051 H 
ATOM     25  H   LIG d   1       7.424  -0.340  -3.543  0.00  0.00     0.051 H 
ENDROOT
BRANCH  15  26
ATOM     26  C   LIG d   1       3.818   1.009  -2.213  0.00  0.00     0.032 C 
ATOM     27  H   LIG d   1       3.217   0.118  -1.983  0.00  0.00     0.036 H 
ATOM     28  H   LIG d   1       3.870   1.656  -1.325  0.00  0.00     0.036 H 
BRANCH  26  29
ATOM     29  C   LIG d   1       3.170   1.779  -3.365  0.00  0.00     0.032 C 
ATOM     30  H   LIG d   1       2.273   2.299  -3.001  0.00  0.00     0.036 H 
ATOM     31  H   LIG d   1       3.885   2.515  -3.762  0.00  0.00     0.036 H 
BRANCH  29  32
ATOM     32  C   LIG d   1       2.783   0.815  -4.458  0.00  0.00     0.214 C 
ATOM     33  O   LIG d   1       1.998  -0.080  -4.226  0.00  0.00    -0.276 OA
ATOM     34  N   LIG d   1       3.306   0.949  -5.692  0.00  0.00    -0.313 N 
ATOM     35  H   LIG d   1       4.018   1.762  -5.903  0.00  0.00     0.149 HD
BRANCH  34  36
ATOM     36  C   LIG d   1       2.930   0.012  -6.754  0.00  0.00     0.038 C 
ATOM     37  H   LIG d   1       3.497  -0.923  -6.636  0.00  0.00     0.049 H 
ATOM     38  H   LIG d   1       1.853  -0.202  -6.688  0.00  0.00     0.049 H 
BRANCH  36  39
ATOM     39  C   LIG d   1       3.245   0.632  -8.117  0.00  0.00     0.074 C 
ATOM     40  H   LIG d   1       2.552   0.202  -8.855  0.00  0.00     0.061 H 
ATOM     41  O   LIG d   1       3.061   2.064  -8.072  0.00  0.00    -0.375 OA
ATOM     42  C   LIG d   1       3.830   2.581  -9.180  0.00  0.00     0.048 C 
ATOM     43  C   LIG d   1       5.131   1.747  -9.180  0.00  0.00    -0.027 C 
ATOM     44  H   LIG d   1       4.077   3.644  -9.045  0.00  0.00     0.056 H 
ATOM     45  H   LIG d   1       3.307   2.444 -10.138  0.00  0.00     0.056 H 
ATOM     46  C   LIG d   1       4.737   0.435  -8.464  0.00  0.00    -0.023 C 
ATOM     47  H   LIG d   1       5.939   2.241  -8.621  0.00  0.00     0.029 H 
ATOM     48  H   LIG d   1       5.476   1.519 -10.200  0.00  0.00     0.029 H 
ATOM     49  H   LIG d   1       5.311   0.280  -7.539  0.00  0.00     0.029 H 
ATOM     50  H   LIG d   1       4.848  -0.443  -9.118  0.00  0.00     0.029 H 
ENDBRANCH  36  39
ENDBRANCH  34  36
ENDBRANCH  29  32
ENDBRANCH  26  29
ENDBRANCH  15  26
BRANCH   1  51
ATOM     51  O   LIG d   1      11.155  -3.331  -6.065  0.00  0.00    -0.495 OA
BRANCH  51  52
ATOM     52  C   LIG d   1      11.768  -2.303  -5.285  0.00  0.00     0.079 C 
ATOM     53  H   LIG d   1      12.703  -2.683  -4.848  0.00  0.00     0.066 H 
ATOM     54  H   LIG d   1      11.085  -1.997  -4.480  0.00  0.00     0.066 H 
ATOM     55  H   LIG d   1      11.989  -1.438  -5.927  0.00  0.00     0.066 H 
ENDBRANCH  51  52
ENDBRANCH   1  51
TORSDOF 7
ENDMDL
MODEL 3
REMARK VINA RESULT:      -6.6      2.798      6.015
REMARK  7 active torsions:
REMARK  status: ('A' for Active; 'I' for Inactive)
REMARK    1  A    between atoms: C_1  and  O_2 
REMARK    2  A    between atoms: O_2  and  C_3 
REMARK       I    between atoms: N_15  and  C_17 
REMARK    3  A    between atoms: C_17  and  C_19 
REMARK    4  A    between atoms: C_19  and  C_20 
REMARK    5  A    between atoms: C_20  and  C_21 
REMARK       I    between atoms: C_21  and  N_23 
REMARK    6  A    between atoms: N_23  and  C_24 
REMARK    7  A    between atoms: C_24  and  C_25 
ROOT
ATOM      1  C   LIG d   1      10.956   6.981   0.667  0.00  0.00     0.121 A 
ATOM      2  C   LIG d   1      10.635   8.300   0.356  0.00  0.00    -0.018 A 
ATOM      3  C   LIG d   1      10.186   8.633  -0.902  0.00  0.00    -0.034 A 
ATOM      4  C   LIG d   1      10.047   7.649  -1.876  0.00  0.00     0.047 A 
ATOM      5  C   LIG d   1      10.371   6.314  -1.565  0.00  0.00     0.008 A 
ATOM      6  C   LIG d   1      10.827   5.989  -0.284  0.00  0.00    -0.011 A 
ATOM      7  C   LIG d   1      10.119   5.550  -2.780  0.00  0.00    -0.002 A 
ATOM      8  C   LIG d   1       9.671   6.410  -3.715  0.00  0.00     0.023 A 
ATOM      9  N   LIG d   1       9.631   7.671  -3.191  0.00  0.00    -0.358 N 
ATOM     10  H   LIG d   1       9.332   8.622  -3.657  0.00  0.00     0.166 HD
ATOM     11  C   LIG d   1       9.293   6.008  -5.122  0.00  0.00     0.004 C 
ATOM     12  C   LIG d   1       9.904   4.637  -5.431  0.00  0.00     0.020 C 
ATOM     13  N   LIG d   1       9.672   3.736  -4.291  0.00  0.00    -0.297 N 
ATOM     14  C   LIG d   1      10.305   4.070  -3.002  0.00  0.00     0.042 C 
ATOM     15  C   LIG d   1       8.902   2.638  -4.423  0.00  0.00     0.216 C 
ATOM     16  O   LIG d   1       8.721   1.907  -3.472  0.00  0.00    -0.276 OA
ATOM     17  H   LIG d   1      10.740   9.068   1.107  0.00  0.00     0.066 H 
ATOM     18  H   LIG d   1       9.940   9.659  -1.133  0.00  0.00     0.064 H 
ATOM     19  H   LIG d   1      11.077   4.968  -0.041  0.00  0.00     0.066 H 
ATOM     20  H   LIG d   1       8.198   5.953  -5.205  0.00  0.00     0.034 H 
ATOM     21  H   LIG d   1       9.677   6.754  -5.833  0.00  0.00     0.034 H 
ATOM     22  H   LIG d   1       9.433   4.220  -6.333  0.00  0.00     0.047 H 
ATOM     23  H   LIG d   1      10.986   4.747  -5.600  0.00  0.00     0.047 H 
ATOM     24  H   LIG d   1      11.379   3.835  -3.027  0.00  0.00     0.051 H 
ATOM     25  H   LIG d   1       9.827   3.512  -2.182  0.00  0.00     0.051 H 
ENDROOT
BRANCH  15  26
ATOM     26  C   LIG d   1       8.265   2.318  -5.750  0.00  0.00     0.032 C 
ATOM     27  H   LIG d   1       7.213   2.636  -5.738  0.00  0.00     0.036 H 
ATOM     28  H   LIG d   1       8.800   2.849  -6.551  0.00  0.00     0.036 H 
BRANCH  26  29
ATOM     29  C   LIG d   1       8.340   0.811  -6.002  0.00  0.00     0.032 C 
ATOM     30  H   LIG d   1       8.778   0.625  -6.993  0.00  0.00     0.036 H 
ATOM     31  H   LIG d   1       8.968   0.341  -5.230  0.00  0.00     0.036 H 
BRANCH  29  32
ATOM     32  C   LIG d   1       6.953   0.222  -5.947  0.00  0.00     0.214 C 
ATOM     33  O   LIG d   1       6.227   0.293  -6.916  0.00  0.00    -0.276 OA
ATOM     34  N   LIG d   1       6.521  -0.381  -4.823  0.00  0.00    -0.313 N 
ATOM     35  H   LIG d   1       7.179  -0.445  -3.944  0.00  0.00     0.149 HD
BRANCH  34  36
ATOM     36  C   LIG d   1       5.172  -0.953  -4.771  0.00  0.00     0.038 C 
ATOM     37  H   LIG d   1       4.575  -0.560  -5.607  0.00  0.00     0.049 H 
ATOM     38  H   LIG d   1       5.235  -2.048  -4.848  0.00  0.00     0.049 H 
BRANCH  36  39
ATOM     39  C   LIG d   1       4.508  -0.572  -3.446  0.00  0.00     0.074 C 
ATOM     40  H   LIG d   1       4.138  -1.493  -2.972  0.00  0.00     0.061 H 
ATOM     41  O   LIG d   1       5.464   0.062  -2.568  0.00  0.00    -0.375 OA
ATOM     42  C   LIG d   1       4.672   0.801  -1.613  0.00  0.00     0.048 C 
ATOM     43  C   LIG d   1       3.528   1.421  -2.446  0.00  0.00    -0.027 C 
ATOM     44  H   LIG d   1       5.253   1.603  -1.135  0.00  0.00     0.056 H 
ATOM     45  H   LIG d   1       4.248   0.144  -0.839  0.00  0.00     0.056 H 
ATOM     46  C   LIG d   1       3.418   0.497  -3.680  0.00  0.00    -0.023 C 
ATOM     47  H   LIG d   1       3.763   2.445  -2.774  0.00  0.00     0.029 H 
ATOM     48  H   LIG d   1       2.572   1.421  -1.901  0.00  0.00     0.029 H 
ATOM     49  H   LIG d   1       3.625   1.033  -4.618  0.00  0.00     0.029 H 
ATOM     50  H   LIG d   1       2.434   0.009  -3.745  0.00  0.00     0.029 H 
ENDBRANCH  36  39
ENDBRANCH  34  36
ENDBRANCH  29  32
ENDBRANCH  26  29
ENDBRANCH  15  26
BRANCH   1  51
ATOM     51  O   LIG d   1      11.401   6.668   1.915  0.00  0.00    -0.495 OA
BRANCH  51  52
ATOM     52  C   LIG d   1      10.832   5.512   2.533  0.00  0.00     0.079 C 
ATOM     53  H   LIG d   1       9.771   5.701   2.755  0.00  0.00     0.066 H 
ATOM     54  H   LIG d   1      11.368   5.296   3.468  0.00  0.00     0.066 H 
ATOM     55  H   LIG d   1      10.918   4.653   1.853  0.00  0.00     0.066 H 
ENDBRANCH  51  52
ENDBRANCH   1  51
TORSDOF 7
ENDMDL
MODEL 4
REMARK VINA RESULT:      -6.5      3.279      6.506
REMARK  7 active torsions:
REMARK  status: ('A' for Active; 'I' for Inactive)
REMARK    1  A    between atoms: C_1  and  O_2 
REMARK    2  A    between atoms: O_2  and  C_3 
REMARK       I    between atoms: N_15  and  C_17 
REMARK    3  A    between atoms: C_17  and  C_19 
REMARK    4  A    between atoms: C_19  and  C_20 
REMARK    5  A    between atoms: C_20  and  C_21 
REMARK       I    between atoms: C_21  and  N_23 
REMARK    6  A    between atoms: N_23  and  C_24 
REMARK    7  A    between atoms: C_24  and  C_25 
ROOT
ATOM      1  C   LIG d   1      10.344   8.578  -0.505  0.00  0.00     0.121 A 
ATOM      2  C   LIG d   1      11.152   8.055   0.501  0.00  0.00    -0.018 A 
ATOM      3  C   LIG d   1      11.534   6.733   0.477  0.00  0.00    -0.034 A 
ATOM      4  C   LIG d   1      11.115   5.905  -0.560  0.00  0.00     0.047 A 
ATOM      5  C   LIG d   1      10.299   6.430  -1.579  0.00  0.00     0.008 A 
ATOM      6  C   LIG d   1       9.917   7.774  -1.543  0.00  0.00    -0.011 A 
ATOM      7  C   LIG d   1      10.044   5.323  -2.494  0.00  0.00    -0.002 A 
ATOM      8  C   LIG d   1      10.690   4.243  -2.014  0.00  0.00     0.023 A 
ATOM      9  N   LIG d   1      11.329   4.574  -0.852  0.00  0.00    -0.358 N 
ATOM     10  H   LIG d   1      11.941   3.954  -0.179  0.00  0.00     0.166 HD
ATOM     11  C   LIG d   1      10.678   2.886  -2.679  0.00  0.00     0.004 C 
ATOM     12  C   LIG d   1       9.508   2.825  -3.668  0.00  0.00     0.020 C 
ATOM     13  N   LIG d   1       9.480   4.064  -4.461  0.00  0.00    -0.297 N 
ATOM     14  C   LIG d   1       9.220   5.333  -3.757  0.00  0.00     0.042 C 
ATOM     15  C   LIG d   1       9.687   4.037  -5.792  0.00  0.00     0.216 C 
ATOM     16  O   LIG d   1       9.662   5.069  -6.430  0.00  0.00    -0.276 OA
ATOM     17  H   LIG d   1      11.480   8.693   1.309  0.00  0.00     0.066 H 
ATOM     18  H   LIG d   1      12.160   6.338   1.264  0.00  0.00     0.064 H 
ATOM     19  H   LIG d   1       9.291   8.181  -2.323  0.00  0.00     0.066 H 
ATOM     20  H   LIG d   1      11.625   2.732  -3.215  0.00  0.00     0.034 H 
ATOM     21  H   LIG d   1      10.558   2.104  -1.914  0.00  0.00     0.034 H 
ATOM     22  H   LIG d   1       9.637   1.961  -4.336  0.00  0.00     0.047 H 
ATOM     23  H   LIG d   1       8.564   2.721  -3.112  0.00  0.00     0.047 H 
ATOM     24  H   LIG d   1       8.155   5.420  -3.500  0.00  0.00     0.051 H 
ATOM     25  H   LIG d   1       9.518   6.188  -4.383  0.00  0.00     0.051 H 
ENDROOT
BRANCH  15  26
ATOM     26  C   LIG d   1       9.952   2.728  -6.488  0.00  0.00     0.032 C 
ATOM     27  H   LIG d   1      10.716   2.873  -7.265  0.00  0.00     0.036 H 
ATOM     28  H   LIG d   1      10.308   1.989  -5.756  0.00  0.00     0.036 H 
BRANCH  26  29
ATOM     29  C   LIG d   1       8.659   2.223  -7.133  0.00  0.00     0.032 C 
ATOM     30  H   LIG d   1       7.882   2.997  -7.051  0.00  0.00     0.036 H 
ATOM     31  H   LIG d   1       8.842   1.998  -8.195  0.00  0.00     0.036 H 
BRANCH  29  32
ATOM     32  C   LIG d   1       8.200   0.973  -6.426  0.00  0.00     0.214 C 
ATOM     33  O   LIG d   1       8.802  -0.068  -6.584  0.00  0.00    -0.276 OA
ATOM     34  N   LIG d   1       7.121   1.012  -5.620  0.00  0.00    -0.313 N 
ATOM     35  H   LIG d   1       6.574   1.956  -5.477  0.00  0.00     0.149 HD
BRANCH  34  36
ATOM     36  C   LIG d   1       6.675  -0.204  -4.934  0.00  0.00     0.038 C 
ATOM     37  H   LIG d   1       5.800  -0.619  -5.455  0.00  0.00     0.049 H 
ATOM     38  H   LIG d   1       7.487  -0.945  -4.936  0.00  0.00     0.049 H 
BRANCH  36  39
ATOM     39  C   LIG d   1       6.296   0.135  -3.490  0.00  0.00     0.074 C 
ATOM     40  H   LIG d   1       7.218   0.390  -2.947  0.00  0.00     0.061 H 
ATOM     41  O   LIG d   1       5.399   1.266  -3.459  0.00  0.00    -0.375 OA
ATOM     42  C   LIG d   1       4.735   1.189  -2.178  0.00  0.00     0.048 C 
ATOM     43  C   LIG d   1       4.443  -0.314  -1.976  0.00  0.00    -0.027 C 
ATOM     44  H   LIG d   1       3.789   1.749  -2.175  0.00  0.00     0.056 H 
ATOM     45  H   LIG d   1       5.378   1.550  -1.363  0.00  0.00     0.056 H 
ATOM     46  C   LIG d   1       5.494  -1.024  -2.860  0.00  0.00    -0.023 C 
ATOM     47  H   LIG d   1       3.433  -0.589  -2.316  0.00  0.00     0.029 H 
ATOM     48  H   LIG d   1       4.575  -0.624  -0.929  0.00  0.00     0.029 H 
ATOM     49  H   LIG d   1       5.029  -1.624  -3.656  0.00  0.00     0.029 H 
ATOM     50  H   LIG d   1       6.170  -1.659  -2.269  0.00  0.00     0.029 H 
ENDBRANCH  36  39
ENDBRANCH  34  36
ENDBRANCH  29  32
ENDBRANCH  26  29
ENDBRANCH  15  26
BRANCH   1  51
ATOM     51  O   LIG d   1       9.974   9.886  -0.467  0.00  0.00    -0.495 OA
BRANCH  51  52
ATOM     52  C   LIG d   1       9.257  10.390  -1.596  0.00  0.00     0.079 C 
ATOM     53  H   LIG d   1       9.140  11.479  -1.499  0.00  0.00     0.066 H 
ATOM     54  H   LIG d   1       8.265   9.917  -1.640  0.00  0.00     0.066 H 
ATOM     55  H   LIG d   1       9.814  10.161  -2.515  0.00  0.00     0.066 H 
ENDBRANCH  51  52
ENDBRANCH   1  51
TORSDOF 7
ENDMDL
MODEL 5
REMARK VINA RESULT:      -6.5      1.799      2.261
REMARK  7 active torsions:
REMARK  status: ('A' for Active; 'I' for Inactive)
REMARK    1  A    between atoms: C_1  and  O_2 
REMARK    2  A    between atoms: O_2  and  C_3 
REMARK       I    between atoms: N_15  and  C_17 
REMARK    3  A    between atoms: C_17  and  C_19 
REMARK    4  A    between atoms: C_19  and  C_20 
REMARK    5  A    between atoms: C_20  and  C_21 
REMARK       I    between atoms: C_21  and  N_23 
REMARK    6  A    between atoms: N_23  and  C_24 
REMARK    7  A    between atoms: C_24  and  C_25 
ROOT
ATOM      1  C   LIG d   1      10.079   5.352  -6.071  0.00  0.00     0.121 A 
ATOM      2  C   LIG d   1      10.253   5.080  -7.425  0.00  0.00    -0.018 A 
ATOM      3  C   LIG d   1       9.829   3.885  -7.960  0.00  0.00    -0.034 A 
ATOM      4  C   LIG d   1       9.218   2.936  -7.146  0.00  0.00     0.047 A 
ATOM      5  C   LIG d   1       9.039   3.207  -5.777  0.00  0.00     0.008 A 
ATOM      6  C   LIG d   1       9.475   4.424  -5.246  0.00  0.00    -0.011 A 
ATOM      7  C   LIG d   1       8.380   2.031  -5.220  0.00  0.00    -0.002 A 
ATOM      8  C   LIG d   1       8.195   1.156  -6.227  0.00  0.00     0.023 A 
ATOM      9  N   LIG d   1       8.699   1.680  -7.384  0.00  0.00    -0.358 N 
ATOM     10  H   LIG d   1       8.736   1.252  -8.398  0.00  0.00     0.166 HD
ATOM     11  C   LIG d   1       7.538  -0.195  -6.062  0.00  0.00     0.004 C 
ATOM     12  C   LIG d   1       7.540  -0.574  -4.577  0.00  0.00     0.020 C 
ATOM     13  N   LIG d   1       7.109   0.587  -3.782  0.00  0.00    -0.297 N 
ATOM     14  C   LIG d   1       7.960   1.790  -3.792  0.00  0.00     0.042 C 
ATOM     15  C   LIG d   1       5.968   0.549  -3.065  0.00  0.00     0.216 C 
ATOM     16  O   LIG d   1       5.628   1.516  -2.416  0.00  0.00    -0.276 OA
ATOM     17  H   LIG d   1      10.727   5.813  -8.061  0.00  0.00     0.066 H 
ATOM     18  H   LIG d   1       9.970   3.684  -9.011  0.00  0.00     0.064 H 
ATOM     19  H   LIG d   1       9.341   4.637  -4.196  0.00  0.00     0.066 H 
ATOM     20  H   LIG d   1       6.503  -0.147  -6.431  0.00  0.00     0.034 H 
ATOM     21  H   LIG d   1       8.097  -0.948  -6.638  0.00  0.00     0.034 H 
ATOM     22  H   LIG d   1       6.848  -1.412  -4.411  0.00  0.00     0.047 H 
ATOM     23  H   LIG d   1       8.556  -0.871  -4.276  0.00  0.00     0.047 H 
ATOM     24  H   LIG d   1       8.853   1.637  -3.168  0.00  0.00     0.051 H 
ATOM     25  H   LIG d   1       7.400   2.662  -3.422  0.00  0.00     0.051 H 
ENDROOT
BRANCH  15  26
ATOM     26  C   LIG d   1       5.115  -0.692  -3.071  0.00  0.00     0.032 C 
ATOM     27  H   LIG d   1       5.572  -1.449  -3.724  0.00  0.00     0.036 H 
ATOM     28  H   LIG d   1       5.037  -1.089  -2.048  0.00  0.00     0.036 H 
BRANCH  26  29
ATOM     29  C   LIG d   1       3.717  -0.347  -3.590  0.00  0.00     0.032 C 
ATOM     30  H   LIG d   1       2.971  -0.974  -3.079  0.00  0.00     0.036 H 
ATOM     31  H   LIG d   1       3.503   0.714  -3.389  0.00  0.00     0.036 H 
BRANCH  29  32
ATOM     32  C   LIG d   1       3.655  -0.600  -5.074  0.00  0.00     0.214 C 
ATOM     33  O   LIG d   1       4.354  -1.458  -5.572  0.00  0.00    -0.276 OA
ATOM     34  N   LIG d   1       2.824   0.125  -5.847  0.00  0.00    -0.313 N 
ATOM     35  H   LIG d   1       2.190   0.903  -5.396  0.00  0.00     0.149 HD
BRANCH  34  36
ATOM     36  C   LIG d   1       2.764  -0.122  -7.291  0.00  0.00     0.038 C 
ATOM     37  H   LIG d   1       3.457  -0.935  -7.553  0.00  0.00     0.049 H 
ATOM     38  H   LIG d   1       1.741  -0.409  -7.571  0.00  0.00     0.049 H 
BRANCH  36  39
ATOM     39  C   LIG d   1       3.162   1.151  -8.043  0.00  0.00     0.074 C 
ATOM     40  H   LIG d   1       2.748   2.012  -7.498  0.00  0.00     0.061 H 
ATOM     41  O   LIG d   1       4.600   1.272  -8.099  0.00  0.00    -0.375 OA
ATOM     42  C   LIG d   1       4.863   2.169  -9.200  0.00  0.00     0.048 C 
ATOM     43  C   LIG d   1       3.860   1.750 -10.297  0.00  0.00    -0.027 C 
ATOM     44  H   LIG d   1       5.889   2.057  -9.580  0.00  0.00     0.056 H 
ATOM     45  H   LIG d   1       4.687   3.218  -8.923  0.00  0.00     0.056 H 
ATOM     46  C   LIG d   1       2.715   1.064  -9.518  0.00  0.00    -0.023 C 
ATOM     47  H   LIG d   1       4.299   1.034 -11.009  0.00  0.00     0.029 H 
ATOM     48  H   LIG d   1       3.463   2.616 -10.847  0.00  0.00     0.029 H 
ATOM     49  H   LIG d   1       2.593   0.009  -9.804  0.00  0.00     0.029 H 
ATOM     50  H   LIG d   1       1.757   1.591  -9.642  0.00  0.00     0.029 H 
ENDBRANCH  36  39
ENDBRANCH  34  36
ENDBRANCH  29  32
ENDBRANCH  26  29
ENDBRANCH  15  26
BRANCH   1  51
ATOM     51  O   LIG d   1      10.505   6.538  -5.557  0.00  0.00    -0.495 OA
BRANCH  51  52
ATOM     52  C   LIG d   1       9.537   7.328  -4.863  0.00  0.00     0.079 C 
ATOM     53  H   LIG d   1       8.813   7.737  -5.584  0.00  0.00     0.066 H 
ATOM     54  H   LIG d   1      10.043   8.155  -4.344  0.00  0.00     0.066 H 
ATOM     55  H   LIG d   1       9.010   6.701  -4.130  0.00  0.00     0.066 H 
ENDBRANCH  51  52
ENDBRANCH   1  51
TORSDOF 7
ENDMDL
MODEL 6
REMARK VINA RESULT:      -6.0     10.111     11.781
REMARK  7 active torsions:
REMARK  status: ('A' for Active; 'I' for Inactive)
REMARK    1  A    between atoms: C_1  and  O_2 
REMARK    2  A    between atoms: O_2  and  C_3 
REMARK       I    between atoms: N_15  and  C_17 
REMARK    3  A    between atoms: C_17  and  C_19 
REMARK    4  A    between atoms: C_19  and  C_20 
REMARK    5  A    between atoms: C_20  and  C_21 
REMARK       I    between atoms: C_21  and  N_23 
REMARK    6  A    between atoms: N_23  and  C_24 
REMARK    7  A    between atoms: C_24  and  C_25 
ROOT
ATOM      1  C   LIG d   1      12.090  -9.938   3.745  0.00  0.00     0.121 A 
ATOM      2  C   LIG d   1      12.829  -8.760   3.679  0.00  0.00    -0.018 A 
ATOM      3  C   LIG d   1      12.743  -7.940   2.577  0.00  0.00    -0.034 A 
ATOM      4  C   LIG d   1      11.911  -8.285   1.516  0.00  0.00     0.047 A 
ATOM      5  C   LIG d   1      11.162  -9.475   1.579  0.00  0.00     0.008 A 
ATOM      6  C   LIG d   1      11.259 -10.299   2.704  0.00  0.00    -0.011 A 
ATOM      7  C   LIG d   1      10.409  -9.538   0.332  0.00  0.00    -0.002 A 
ATOM      8  C   LIG d   1      10.715  -8.439  -0.383  0.00  0.00     0.023 A 
ATOM      9  N   LIG d   1      11.620  -7.683   0.309  0.00  0.00    -0.358 N 
ATOM     10  H   LIG d   1      12.103  -6.732   0.037  0.00  0.00     0.166 HD
ATOM     11  C   LIG d   1      10.137  -8.127  -1.745  0.00  0.00     0.004 C 
ATOM     12  C   LIG d   1       9.546  -9.409  -2.341  0.00  0.00     0.020 C 
ATOM     13  N   LIG d   1       8.750 -10.098  -1.313  0.00  0.00    -0.297 N 
ATOM     14  C   LIG d   1       9.449 -10.610  -0.121  0.00  0.00     0.042 C 
ATOM     15  C   LIG d   1       7.420 -10.256  -1.459  0.00  0.00     0.216 C 
ATOM     16  O   LIG d   1       6.779 -10.826  -0.601  0.00  0.00    -0.276 OA
ATOM     17  H   LIG d   1      13.476  -8.488   4.499  0.00  0.00     0.066 H 
ATOM     18  H   LIG d   1      13.321  -7.029   2.535  0.00  0.00     0.064 H 
ATOM     19  H   LIG d   1      10.687 -11.213   2.757  0.00  0.00     0.066 H 
ATOM     20  H   LIG d   1       9.349  -7.368  -1.643  0.00  0.00     0.034 H 
ATOM     21  H   LIG d   1      10.932  -7.744  -2.402  0.00  0.00     0.034 H 
ATOM     22  H   LIG d   1       8.903  -9.154  -3.196  0.00  0.00     0.047 H 
ATOM     23  H   LIG d   1      10.361 -10.067  -2.678  0.00  0.00     0.047 H 
ATOM     24  H   LIG d   1      10.010 -11.524  -0.364  0.00  0.00     0.051 H 
ATOM     25  H   LIG d   1       8.731 -10.824   0.685  0.00  0.00     0.051 H 
ENDROOT
BRANCH  15  26
ATOM     26  C   LIG d   1       6.727  -9.724  -2.687  0.00  0.00     0.032 C 
ATOM     27  H   LIG d   1       6.752  -8.625  -2.674  0.00  0.00     0.036 H 
ATOM     28  H   LIG d   1       7.241 -10.093  -3.586  0.00  0.00     0.036 H 
BRANCH  26  29
ATOM     29  C   LIG d   1       5.274 -10.201  -2.699  0.00  0.00     0.032 C 
ATOM     30  H   LIG d   1       5.247 -11.298  -2.624  0.00  0.00     0.036 H 
ATOM     31  H   LIG d   1       4.736  -9.762  -1.845  0.00  0.00     0.036 H 
BRANCH  29  32
ATOM     32  C   LIG d   1       4.614  -9.770  -3.984  0.00  0.00     0.214 C 
ATOM     33  O   LIG d   1       3.412  -9.875  -4.113  0.00  0.00    -0.276 OA
ATOM     34  N   LIG d   1       5.358  -9.269  -4.989  0.00  0.00    -0.313 N 
ATOM     35  H   LIG d   1       6.448  -9.174  -4.872  0.00  0.00     0.149 HD
BRANCH  34  36
ATOM     36  C   LIG d   1       4.716  -8.850  -6.238  0.00  0.00     0.038 C 
ATOM     37  H   LIG d   1       5.128  -9.433  -7.075  0.00  0.00     0.049 H 
ATOM     38  H   LIG d   1       3.632  -9.024  -6.169  0.00  0.00     0.049 H 
BRANCH  36  39
ATOM     39  C   LIG d   1       4.981  -7.361  -6.474  0.00  0.00     0.074 C 
ATOM     40  H   LIG d   1       4.609  -7.104  -7.477  0.00  0.00     0.061 H 
ATOM     41  O   LIG d   1       4.283  -6.565  -5.491  0.00  0.00    -0.375 OA
ATOM     42  C   LIG d   1       4.966  -5.292  -5.480  0.00  0.00     0.048 C 
ATOM     43  C   LIG d   1       6.465  -5.647  -5.586  0.00  0.00    -0.027 C 
ATOM     44  H   LIG d   1       4.785  -4.741  -4.546  0.00  0.00     0.056 H 
ATOM     45  H   LIG d   1       4.676  -4.667  -6.337  0.00  0.00     0.056 H 
ATOM     46  C   LIG d   1       6.475  -7.041  -6.255  0.00  0.00    -0.023 C 
ATOM     47  H   LIG d   1       6.946  -5.712  -4.598  0.00  0.00     0.029 H 
ATOM     48  H   LIG d   1       7.016  -4.934  -6.216  0.00  0.00     0.029 H 
ATOM     49  H   LIG d   1       6.924  -7.808  -5.606  0.00  0.00     0.029 H 
ATOM     50  H   LIG d   1       6.994  -7.030  -7.225  0.00  0.00     0.029 H 
ENDBRANCH  36  39
ENDBRANCH  34  36
ENDBRANCH  29  32
ENDBRANCH  26  29
ENDBRANCH  15  26
BRANCH   1  51
ATOM     51  O   LIG d   1      12.187 -10.739   4.841  0.00  0.00    -0.495 OA
BRANCH  51  52
ATOM     52  C   LIG d   1      11.616 -12.045   4.742  0.00  0.00     0.079 C 
ATOM     53  H   LIG d   1      12.276 -12.772   5.238  0.00  0.00     0.066 H 
ATOM     54  H   LIG d   1      11.504 -12.316   3.682  0.00  0.00     0.066 H 
ATOM     55  H   LIG d   1      10.630 -12.052   5.229  0.00  0.00     0.066 H 
ENDBRANCH  51  52
ENDBRANCH   1  51
TORSDOF 7
ENDMDL
MODEL 7
REMARK VINA RESULT:      -6.0      3.756      5.767
REMARK  7 active torsions:
REMARK  status: ('A' for Active; 'I' for Inactive)
REMARK    1  A    between atoms: C_1  and  O_2 
REMARK    2  A    between atoms: O_2  and  C_3 
REMARK       I    between atoms: N_15  and  C_17 
REMARK    3  A    between atoms: C_17  and  C_19 
REMARK    4  A    between atoms: C_19  and  C_20 
REMARK    5  A    between atoms: C_20  and  C_21 
REMARK       I    between atoms: C_21  and  N_23 
REMARK    6  A    between atoms: N_23  and  C_24 
REMARK    7  A    between atoms: C_24  and  C_25 
ROOT
ATOM      1  C   LIG d   1       9.530  -6.570  -4.611  0.00  0.00     0.121 A 
ATOM      2  C   LIG d   1      10.779  -5.963  -4.503  0.00  0.00    -0.018 A 
ATOM      3  C   LIG d   1      10.886  -4.595  -4.400  0.00  0.00    -0.034 A 
ATOM      4  C   LIG d   1       9.742  -3.804  -4.401  0.00  0.00     0.047 A 
ATOM      5  C   LIG d   1       8.477  -4.413  -4.510  0.00  0.00     0.008 A 
ATOM      6  C   LIG d   1       8.382  -5.803  -4.615  0.00  0.00    -0.011 A 
ATOM      7  C   LIG d   1       7.508  -3.325  -4.480  0.00  0.00    -0.002 A 
ATOM      8  C   LIG d   1       8.194  -2.173  -4.353  0.00  0.00     0.023 A 
ATOM      9  N   LIG d   1       9.533  -2.443  -4.314  0.00  0.00    -0.358 N 
ATOM     10  H   LIG d   1      10.391  -1.759  -4.228  0.00  0.00     0.166 HD
ATOM     11  C   LIG d   1       7.549  -0.808  -4.282  0.00  0.00     0.004 C 
ATOM     12  C   LIG d   1       6.114  -0.904  -4.813  0.00  0.00     0.020 C 
ATOM     13  N   LIG d   1       5.463  -2.088  -4.230  0.00  0.00    -0.297 N 
ATOM     14  C   LIG d   1       6.005  -3.417  -4.568  0.00  0.00     0.042 C 
ATOM     15  C   LIG d   1       4.401  -1.960  -3.410  0.00  0.00     0.216 C 
ATOM     16  O   LIG d   1       3.877  -2.947  -2.938  0.00  0.00    -0.276 OA
ATOM     17  H   LIG d   1      11.671  -6.572  -4.502  0.00  0.00     0.066 H 
ATOM     18  H   LIG d   1      11.860  -4.135  -4.317  0.00  0.00     0.064 H 
ATOM     19  H   LIG d   1       7.414  -6.275  -4.699  0.00  0.00     0.066 H 
ATOM     20  H   LIG d   1       7.536  -0.463  -3.238  0.00  0.00     0.034 H 
ATOM     21  H   LIG d   1       8.124  -0.098  -4.895  0.00  0.00     0.034 H 
ATOM     22  H   LIG d   1       5.557   0.000  -4.530  0.00  0.00     0.047 H 
ATOM     23  H   LIG d   1       6.134  -0.997  -5.909  0.00  0.00     0.047 H 
ATOM     24  H   LIG d   1       5.714  -3.703  -5.589  0.00  0.00     0.051 H 
ATOM     25  H   LIG d   1       5.641  -4.174  -3.857  0.00  0.00     0.051 H 
ENDROOT
BRANCH  15  26
ATOM     26  C   LIG d   1       3.866  -0.591  -3.078  0.00  0.00     0.032 C 
ATOM     27  H   LIG d   1       3.771  -0.489  -1.988  0.00  0.00     0.036 H 
ATOM     28  H   LIG d   1       4.556   0.175  -3.460  0.00  0.00     0.036 H 
BRANCH  26  29
ATOM     29  C   LIG d   1       2.493  -0.409  -3.729  0.00  0.00     0.032 C 
ATOM     30  H   LIG d   1       2.065  -1.395  -3.964  0.00  0.00     0.036 H 
ATOM     31  H   LIG d   1       1.825   0.123  -3.034  0.00  0.00     0.036 H 
BRANCH  29  32
ATOM     32  C   LIG d   1       2.640   0.391  -4.998  0.00  0.00     0.214 C 
ATOM     33  O   LIG d   1       2.604   1.602  -4.957  0.00  0.00    -0.276 OA
ATOM     34  N   LIG d   1       2.811  -0.240  -6.176  0.00  0.00    -0.313 N 
ATOM     35  H   LIG d   1       2.843  -1.339  -6.213  0.00  0.00     0.149 HD
BRANCH  34  36
ATOM     36  C   LIG d   1       2.953   0.539  -7.409  0.00  0.00     0.038 C 
ATOM     37  H   LIG d   1       2.113   1.242  -7.498  0.00  0.00     0.049 H 
ATOM     38  H   LIG d   1       3.898   1.100  -7.381  0.00  0.00     0.049 H 
BRANCH  36  39
ATOM     39  C   LIG d   1       2.956  -0.408  -8.612  0.00  0.00     0.074 C 
ATOM     40  H   LIG d   1       3.382  -1.369  -8.288  0.00  0.00     0.061 H 
ATOM     41  O   LIG d   1       1.609  -0.622  -9.086  0.00  0.00    -0.375 OA
ATOM     42  C   LIG d   1       1.754  -1.082 -10.448  0.00  0.00     0.048 C 
ATOM     43  C   LIG d   1       2.888  -0.215 -11.039  0.00  0.00    -0.027 C 
ATOM     44  H   LIG d   1       0.834  -0.929 -11.030  0.00  0.00     0.056 H 
ATOM     45  H   LIG d   1       2.043  -2.143 -10.491  0.00  0.00     0.056 H 
ATOM     46  C   LIG d   1       3.697   0.240  -9.803  0.00  0.00    -0.023 C 
ATOM     47  H   LIG d   1       2.500   0.669 -11.568  0.00  0.00     0.029 H 
ATOM     48  H   LIG d   1       3.540  -0.789 -11.713  0.00  0.00     0.029 H 
ATOM     49  H   LIG d   1       3.694   1.334  -9.685  0.00  0.00     0.029 H 
ATOM     50  H   LIG d   1       4.735  -0.125  -9.831  0.00  0.00     0.029 H 
ENDBRANCH  36  39
ENDBRANCH  34  36
ENDBRANCH  29  32
ENDBRANCH  26  29
ENDBRANCH  15  26
BRANCH   1  51
ATOM     51  O   LIG d   1       9.440  -7.923  -4.714  0.00  0.00    -0.495 OA
BRANCH  51  52
ATOM     52  C   LIG d   1       8.701  -8.602  -3.696  0.00  0.00     0.079 C 
ATOM     53  H   LIG d   1       8.606  -7.949  -2.816  0.00  0.00     0.066 H 
ATOM     54  H   LIG d   1       9.229  -9.524  -3.414  0.00  0.00     0.066 H 
ATOM     55  H   LIG d   1       7.700  -8.853  -4.076  0.00  0.00     0.066 H 
ENDBRANCH  51  52
ENDBRANCH   1  51
TORSDOF 7
ENDMDL
MODEL 8
REMARK VINA RESULT:      -5.9      4.805      8.881
REMARK  7 active torsions:
REMARK  status: ('A' for Active; 'I' for Inactive)
REMARK    1  A    between atoms: C_1  and  O_2 
REMARK    2  A    between atoms: O_2  and  C_3 
REMARK       I    between atoms: N_15  and  C_17 
REMARK    3  A    between atoms: C_17  and  C_19 
REMARK    4  A    between atoms: C_19  and  C_20 
REMARK    5  A    between atoms: C_20  and  C_21 
REMARK       I    between atoms: C_21  and  N_23 
REMARK    6  A    between atoms: N_23  and  C_24 
REMARK    7  A    between atoms: C_24  and  C_25 
ROOT
ATOM      1  C   LIG d   1       5.461  -9.150  -5.076  0.00  0.00     0.121 A 
ATOM      2  C   LIG d   1       5.798 -10.010  -6.117  0.00  0.00    -0.018 A 
ATOM      3  C   LIG d   1       5.663  -9.610  -7.427  0.00  0.00    -0.034 A 
ATOM      4  C   LIG d   1       5.189  -8.335  -7.721  0.00  0.00     0.047 A 
ATOM      5  C   LIG d   1       4.848  -7.462  -6.671  0.00  0.00     0.008 A 
ATOM      6  C   LIG d   1       4.989  -7.881  -5.345  0.00  0.00    -0.011 A 
ATOM      7  C   LIG d   1       4.396  -6.231  -7.307  0.00  0.00    -0.002 A 
ATOM      8  C   LIG d   1       4.488  -6.405  -8.640  0.00  0.00     0.023 A 
ATOM      9  N   LIG d   1       4.953  -7.663  -8.903  0.00  0.00    -0.358 N 
ATOM     10  H   LIG d   1       5.144  -8.160  -9.866  0.00  0.00     0.166 HD
ATOM     11  C   LIG d   1       4.113  -5.353  -9.658  0.00  0.00     0.004 C 
ATOM     12  C   LIG d   1       3.229  -4.298  -8.984  0.00  0.00     0.020 C 
ATOM     13  N   LIG d   1       3.821  -3.929  -7.688  0.00  0.00    -0.297 N 
ATOM     14  C   LIG d   1       3.909  -4.967  -6.644  0.00  0.00     0.042 C 
ATOM     15  C   LIG d   1       4.269  -2.679  -7.463  0.00  0.00     0.216 C 
ATOM     16  O   LIG d   1       4.755  -2.393  -6.388  0.00  0.00    -0.276 OA
ATOM     17  H   LIG d   1       6.166 -11.001  -5.895  0.00  0.00     0.066 H 
ATOM     18  H   LIG d   1       5.927 -10.285  -8.228  0.00  0.00     0.064 H 
ATOM     19  H   LIG d   1       4.728  -7.216  -4.536  0.00  0.00     0.066 H 
ATOM     20  H   LIG d   1       5.025  -4.879 -10.048  0.00  0.00     0.034 H 
ATOM     21  H   LIG d   1       3.562  -5.824 -10.486  0.00  0.00     0.034 H 
ATOM     22  H   LIG d   1       3.165  -3.408  -9.627  0.00  0.00     0.047 H 
ATOM     23  H   LIG d   1       2.222  -4.710  -8.826  0.00  0.00     0.047 H 
ATOM     24  H   LIG d   1       2.922  -5.146  -6.194  0.00  0.00     0.051 H 
ATOM     25  H   LIG d   1       4.620  -4.666  -5.860  0.00  0.00     0.051 H 
ENDROOT
BRANCH  15  26
ATOM     26  C   LIG d   1       4.169  -1.636  -8.545  0.00  0.00     0.032 C 
ATOM     27  H   LIG d   1       5.016  -0.939  -8.463  0.00  0.00     0.036 H 
ATOM     28  H   LIG d   1       4.192  -2.126  -9.530  0.00  0.00     0.036 H 
BRANCH  26  29
ATOM     29  C   LIG d   1       2.857  -0.864  -8.390  0.00  0.00     0.032 C 
ATOM     30  H   LIG d   1       2.650  -0.304  -9.314  0.00  0.00     0.036 H 
ATOM     31  H   LIG d   1       2.036  -1.572  -8.198  0.00  0.00     0.036 H 
BRANCH  29  32
ATOM     32  C   LIG d   1       2.973   0.097  -7.235  0.00  0.00     0.214 C 
ATOM     33  O   LIG d   1       3.477   1.188  -7.403  0.00  0.00    -0.276 OA
ATOM     34  N   LIG d   1       2.516  -0.254  -6.018  0.00  0.00    -0.313 N 
ATOM     35  H   LIG d   1       2.058  -1.244  -5.865  0.00  0.00     0.149 HD
BRANCH  34  36
ATOM     36  C   LIG d   1       2.628   0.681  -4.895  0.00  0.00     0.038 C 
ATOM     37  H   LIG d   1       2.979   1.656  -5.263  0.00  0.00     0.049 H 
ATOM     38  H   LIG d   1       1.644   0.802  -4.419  0.00  0.00     0.049 H 
BRANCH  36  39
ATOM     39  C   LIG d   1       3.626   0.133  -3.872  0.00  0.00     0.074 C 
ATOM     40  H   LIG d   1       3.600  -0.966  -3.926  0.00  0.00     0.061 H 
ATOM     41  O   LIG d   1       4.962   0.591  -4.178  0.00  0.00    -0.375 OA
ATOM     42  C   LIG d   1       5.702   0.455  -2.945  0.00  0.00     0.048 C 
ATOM     43  C   LIG d   1       4.722   0.919  -1.844  0.00  0.00    -0.027 C 
ATOM     44  H   LIG d   1       6.595   1.096  -2.934  0.00  0.00     0.056 H 
ATOM     45  H   LIG d   1       5.996  -0.588  -2.758  0.00  0.00     0.056 H 
ATOM     46  C   LIG d   1       3.324   0.702  -2.469  0.00  0.00    -0.023 C 
ATOM     47  H   LIG d   1       4.851   1.984  -1.597  0.00  0.00     0.029 H 
ATOM     48  H   LIG d   1       4.812   0.316  -0.929  0.00  0.00     0.029 H 
ATOM     49  H   LIG d   1       2.764   1.644  -2.568  0.00  0.00     0.029 H 
ATOM     50  H   LIG d   1       2.725  -0.024  -1.900  0.00  0.00     0.029 H 
ENDBRANCH  36  39
ENDBRANCH  34  36
ENDBRANCH  29  32
ENDBRANCH  26  29
ENDBRANCH  15  26
BRANCH   1  51
ATOM     51  O   LIG d   1       5.598  -9.561  -3.786  0.00  0.00    -0.495 OA
BRANCH  51  52
ATOM     52  C   LIG d   1       6.931  -9.732  -3.299  0.00  0.00     0.079 C 
ATOM     53  H   LIG d   1       7.476 -10.423  -3.958  0.00  0.00     0.066 H 
ATOM     54  H   LIG d   1       6.898 -10.145  -2.281  0.00  0.00     0.066 H 
ATOM     55  H   LIG d   1       7.443  -8.759  -3.284  0.00  0.00     0.066 H 
ENDBRANCH  51  52
ENDBRANCH   1  51
TORSDOF 7
ENDMDL
MODEL 9
REMARK VINA RESULT:      -5.9      3.979      5.774
REMARK  7 active torsions:
REMARK  status: ('A' for Active; 'I' for Inactive)
REMARK    1  A    between atoms: C_1  and  O_2 
REMARK    2  A    between atoms: O_2  and  C_3 
REMARK       I    between atoms: N_15  and  C_17 
REMARK    3  A    between atoms: C_17  and  C_19 
REMARK    4  A    between atoms: C_19  and  C_20 
REMARK    5  A    between atoms: C_20  and  C_21 
REMARK       I    between atoms: C_21  and  N_23 
REMARK    6  A    between atoms: N_23  and  C_24 
REMARK    7  A    between atoms: C_24  and  C_25 
ROOT
ATOM      1  C   LIG d   1      12.781  -3.190  -5.109  0.00  0.00     0.121 A 
ATOM      2  C   LIG d   1      12.743  -3.904  -3.914  0.00  0.00    -0.018 A 
ATOM      3  C   LIG d   1      11.556  -4.077  -3.239  0.00  0.00    -0.034 A 
ATOM      4  C   LIG d   1      10.379  -3.537  -3.749  0.00  0.00     0.047 A 
ATOM      5  C   LIG d   1      10.413  -2.815  -4.957  0.00  0.00     0.008 A 
ATOM      6  C   LIG d   1      11.625  -2.646  -5.632  0.00  0.00    -0.011 A 
ATOM      7  C   LIG d   1       9.040  -2.395  -5.208  0.00  0.00    -0.002 A 
ATOM      8  C   LIG d   1       8.281  -2.864  -4.200  0.00  0.00     0.023 A 
ATOM      9  N   LIG d   1       9.070  -3.543  -3.314  0.00  0.00    -0.358 N 
ATOM     10  H   LIG d   1       8.805  -4.049  -2.373  0.00  0.00     0.166 HD
ATOM     11  C   LIG d   1       6.789  -2.644  -4.091  0.00  0.00     0.004 C 
ATOM     12  C   LIG d   1       6.388  -1.482  -5.006  0.00  0.00     0.020 C 
ATOM     13  N   LIG d   1       7.041  -1.649  -6.314  0.00  0.00    -0.297 N 
ATOM     14  C   LIG d   1       8.513  -1.587  -6.368  0.00  0.00     0.042 C 
ATOM     15  C   LIG d   1       6.314  -1.854  -7.429  0.00  0.00     0.216 C 
ATOM     16  O   LIG d   1       6.870  -1.991  -8.499  0.00  0.00    -0.276 OA
ATOM     17  H   LIG d   1      13.653  -4.324  -3.512  0.00  0.00     0.066 H 
ATOM     18  H   LIG d   1      11.538  -4.631  -2.312  0.00  0.00     0.064 H 
ATOM     19  H   LIG d   1      11.657  -2.093  -6.559  0.00  0.00     0.066 H 
ATOM     20  H   LIG d   1       6.261  -3.558  -4.398  0.00  0.00     0.034 H 
ATOM     21  H   LIG d   1       6.529  -2.403  -3.049  0.00  0.00     0.034 H 
ATOM     22  H   LIG d   1       5.296  -1.478  -5.136  0.00  0.00     0.047 H 
ATOM     23  H   LIG d   1       6.707  -0.532  -4.553  0.00  0.00     0.047 H 
ATOM     24  H   LIG d   1       8.859  -0.547  -6.277  0.00  0.00     0.051 H 
ATOM     25  H   LIG d   1       8.883  -2.015  -7.312  0.00  0.00     0.051 H 
ENDROOT
BRANCH  15  26
ATOM     26  C   LIG d   1       4.810  -1.914  -7.349  0.00  0.00     0.032 C 
ATOM     27  H   LIG d   1       4.449  -2.795  -7.898  0.00  0.00     0.036 H 
ATOM     28  H   LIG d   1       4.502  -1.986  -6.295  0.00  0.00     0.036 H 
BRANCH  26  29
ATOM     29  C   LIG d   1       4.215  -0.648  -7.968  0.00  0.00     0.032 C 
ATOM     30  H   LIG d   1       5.026  -0.012  -8.353  0.00  0.00     0.036 H 
ATOM     31  H   LIG d   1       3.542  -0.925  -8.794  0.00  0.00     0.036 H 
BRANCH  29  32
ATOM     32  C   LIG d   1       3.440   0.108  -6.919  0.00  0.00     0.214 C 
ATOM     33  O   LIG d   1       3.102   1.254  -7.125  0.00  0.00    -0.276 OA
ATOM     34  N   LIG d   1       3.122  -0.490  -5.754  0.00  0.00    -0.313 N 
ATOM     35  H   LIG d   1       3.429  -1.530  -5.567  0.00  0.00     0.149 HD
BRANCH  34  36
ATOM     36  C   LIG d   1       2.369   0.246  -4.735  0.00  0.00     0.038 C 
ATOM     37  H   LIG d   1       2.722   1.287  -4.698  0.00  0.00     0.049 H 
ATOM     38  H   LIG d   1       1.299   0.231  -4.989  0.00  0.00     0.049 H 
BRANCH  36  39
ATOM     39  C   LIG d   1       2.579  -0.414  -3.370  0.00  0.00     0.074 C 
ATOM     40  H   LIG d   1       1.596  -0.526  -2.890  0.00  0.00     0.061 H 
ATOM     41  O   LIG d   1       3.181  -1.717  -3.529  0.00  0.00    -0.375 OA
ATOM     42  C   LIG d   1       3.776  -2.019  -2.248  0.00  0.00     0.048 C 
ATOM     43  C   LIG d   1       4.403  -0.688  -1.780  0.00  0.00    -0.027 C 
ATOM     44  H   LIG d   1       4.561  -2.784  -2.334  0.00  0.00     0.056 H 
ATOM     45  H   LIG d   1       3.023  -2.347  -1.516  0.00  0.00     0.056 H 
ATOM     46  C   LIG d   1       3.598   0.394  -2.536  0.00  0.00    -0.023 C 
ATOM     47  H   LIG d   1       5.466  -0.612  -2.055  0.00  0.00     0.029 H 
ATOM     48  H   LIG d   1       4.293  -0.536  -0.696  0.00  0.00     0.029 H 
ATOM     49  H   LIG d   1       4.233   0.989  -3.208  0.00  0.00     0.029 H 
ATOM     50  H   LIG d   1       3.060   1.064  -1.849  0.00  0.00     0.029 H 
ENDBRANCH  36  39
ENDBRANCH  34  36
ENDBRANCH  29  32
ENDBRANCH  26  29
ENDBRANCH  15  26
BRANCH   1  51
ATOM     51  O   LIG d   1      13.962  -3.026  -5.763  0.00  0.00    -0.495 OA
BRANCH  51  52
ATOM     52  C   LIG d   1      14.510  -1.706  -5.792  0.00  0.00     0.079 C 
ATOM     53  H   LIG d   1      13.970  -1.103  -6.537  0.00  0.00     0.066 H 
ATOM     54  H   LIG d   1      15.574  -1.757  -6.064  0.00  0.00     0.066 H 
ATOM     55  H   LIG d   1      14.405  -1.245  -4.800  0.00  0.00     0.066 H 
ENDBRANCH  51  52
ENDBRANCH   1  51
TORSDOF 7
ENDMDL
MODEL 10
REMARK VINA RESULT:      -5.8      3.251      6.010
REMARK  7 active torsions:
REMARK  status: ('A' for Active; 'I' for Inactive)
REMARK    1  A    between atoms: C_1  and  O_2 
REMARK    2  A    between atoms: O_2  and  C_3 
REMARK       I    between atoms: N_15  and  C_17 
REMARK    3  A    between atoms: C_17  and  C_19 
REMARK    4  A    between atoms: C_19  and  C_20 
REMARK    5  A    between atoms: C_20  and  C_21 
REMARK       I    between atoms: C_21  and  N_23 
REMARK    6  A    between atoms: N_23  and  C_24 
REMARK    7  A    between atoms: C_24  and  C_25 
ROOT
ATOM      1  C   LIG d   1      10.343   8.533  -0.345  0.00  0.00     0.121 A 
ATOM      2  C   LIG d   1      11.165   7.996   0.643  0.00  0.00    -0.018 A 
ATOM      3  C   LIG d   1      11.569   6.682   0.578  0.00  0.00    -0.034 A 
ATOM      4  C   LIG d   1      11.158   5.877  -0.480  0.00  0.00     0.047 A 
ATOM      5  C   LIG d   1      10.327   6.416  -1.480  0.00  0.00     0.008 A 
ATOM      6  C   LIG d   1       9.924   7.752  -1.403  0.00  0.00    -0.011 A 
ATOM      7  C   LIG d   1      10.087   5.333  -2.425  0.00  0.00    -0.002 A 
ATOM      8  C   LIG d   1      10.753   4.250  -1.979  0.00  0.00     0.023 A 
ATOM      9  N   LIG d   1      11.392   4.558  -0.811  0.00  0.00    -0.358 N 
ATOM     10  H   LIG d   1      12.018   3.930  -0.160  0.00  0.00     0.166 HD
ATOM     11  C   LIG d   1      10.760   2.913  -2.683  0.00  0.00     0.004 C 
ATOM     12  C   LIG d   1       9.586   2.860  -3.667  0.00  0.00     0.020 C 
ATOM     13  N   LIG d   1       9.533   4.120  -4.424  0.00  0.00    -0.297 N 
ATOM     14  C   LIG d   1       9.256   5.364  -3.683  0.00  0.00     0.042 C 
ATOM     15  C   LIG d   1       9.733   4.136  -5.757  0.00  0.00     0.216 C 
ATOM     16  O   LIG d   1       9.687   5.185  -6.364  0.00  0.00    -0.276 OA
ATOM     17  H   LIG d   1      11.487   8.616   1.466  0.00  0.00     0.066 H 
ATOM     18  H   LIG d   1      12.206   6.275   1.350  0.00  0.00     0.064 H 
ATOM     19  H   LIG d   1       9.286   8.171  -2.167  0.00  0.00     0.066 H 
ATOM     20  H   LIG d   1      11.707   2.790  -3.228  0.00  0.00     0.034 H 
ATOM     21  H   LIG d   1      10.658   2.107  -1.940  0.00  0.00     0.034 H 
ATOM     22  H   LIG d   1       9.726   2.018  -4.361  0.00  0.00     0.047 H 
ATOM     23  H   LIG d   1       8.647   2.724  -3.110  0.00  0.00     0.047 H 
ATOM     24  H   LIG d   1       8.190   5.427  -3.418  0.00  0.00     0.051 H 
ATOM     25  H   LIG d   1       9.535   6.242  -4.286  0.00  0.00     0.051 H 
ENDROOT
BRANCH  15  26
ATOM     26  C   LIG d   1      10.016   2.852  -6.492  0.00  0.00     0.032 C 
ATOM     27  H   LIG d   1      10.301   3.078  -7.529  0.00  0.00     0.036 H 
ATOM     28  H   LIG d   1      10.837   2.317  -5.993  0.00  0.00     0.036 H 
BRANCH  26  29
ATOM     29  C   LIG d   1       8.762   1.975  -6.487  0.00  0.00     0.032 C 
ATOM     30  H   LIG d   1       9.042   0.934  -6.271  0.00  0.00     0.036 H 
ATOM     31  H   LIG d   1       8.066   2.335  -5.714  0.00  0.00     0.036 H 
BRANCH  29  32
ATOM     32  C   LIG d   1       8.094   2.046  -7.836  0.00  0.00     0.214 C 
ATOM     33  O   LIG d   1       8.656   2.592  -8.763  0.00  0.00    -0.276 OA
ATOM     34  N   LIG d   1       6.874   1.503  -8.014  0.00  0.00    -0.313 N 
ATOM     35  H   LIG d   1       6.363   1.008  -7.173  0.00  0.00     0.149 HD
BRANCH  34  36
ATOM     36  C   LIG d   1       6.224   1.572  -9.326  0.00  0.00     0.038 C 
ATOM     37  H   LIG d   1       6.302   2.596  -9.720  0.00  0.00     0.049 H 
ATOM     38  H   LIG d   1       6.720   0.876 -10.017  0.00  0.00     0.049 H 
BRANCH  36  39
ATOM     39  C   LIG d   1       4.749   1.191  -9.185  0.00  0.00     0.074 C 
ATOM     40  H   LIG d   1       4.539   0.376  -9.893  0.00  0.00     0.061 H 
ATOM     41  O   LIG d   1       4.473   0.736  -7.843  0.00  0.00    -0.375 OA
ATOM     42  C   LIG d   1       3.045   0.883  -7.678  0.00  0.00     0.048 C 
ATOM     43  C   LIG d   1       2.705   2.227  -8.359  0.00  0.00    -0.027 C 
ATOM     44  H   LIG d   1       2.760   0.928  -6.617  0.00  0.00     0.056 H 
ATOM     45  H   LIG d   1       2.492   0.071  -8.172  0.00  0.00     0.056 H 
ATOM     46  C   LIG d   1       3.853   2.435  -9.374  0.00  0.00    -0.023 C 
ATOM     47  H   LIG d   1       2.694   3.063  -7.643  0.00  0.00     0.029 H 
ATOM     48  H   LIG d   1       1.745   2.189  -8.894  0.00  0.00     0.029 H 
ATOM     49  H   LIG d   1       4.436   3.343  -9.160  0.00  0.00     0.029 H 
ATOM     50  H   LIG d   1       3.487   2.469 -10.411  0.00  0.00     0.029 H 
ENDBRANCH  36  39
ENDBRANCH  34  36
ENDBRANCH  29  32
ENDBRANCH  26  29
ENDBRANCH  15  26
BRANCH   1  51
ATOM     51  O   LIG d   1       9.951   9.834  -0.267  0.00  0.00    -0.495 OA
BRANCH  51  52
ATOM     52  C   LIG d   1       9.287  10.380  -1.408  0.00  0.00     0.079 C 
ATOM     53  H   LIG d   1      10.035  10.696  -2.150  0.00  0.00     0.066 H 
ATOM     54  H   LIG d   1       8.685  11.247  -1.102  0.00  0.00     0.066 H 
ATOM     55  H   LIG d   1       8.632   9.616  -1.851  0.00  0.00     0.066 H 
ENDBRANCH  51  52
ENDBRANCH   1  51
TORSDOF 7
ENDMDL
