MODEL 1
REMARK VINA RESULT:      -6.6      0.000      0.000
REMARK  6 active torsions:
REMARK  status: ('A' for Active; 'I' for Inactive)
REMARK    1  A    between atoms: C_1  and  C_2 
REMARK       I    between atoms: C_2  and  N_4 
REMARK    2  A    between atoms: N_4  and  C_5 
REMARK    3  A    between atoms: C_7  and  O_35 
REMARK    4  A    between atoms: C_15  and  C_18 
REMARK    5  A    between atoms: C_25  and  O_27 
REMARK    6  A    between atoms: O_27  and  C_28 
ROOT
ATOM      1  C   LIG d   1       5.303  -6.044  -6.571  0.00  0.00     0.114 C 
ATOM      2  H   LIG d   1       5.137  -6.753  -5.760  0.00  0.00     0.059 H 
ATOM      3  C   LIG d   1       4.583  -4.728  -6.255  0.00  0.00     0.108 C 
ATOM      4  H   LIG d   1       4.697  -4.037  -7.090  0.00  0.00     0.064 H 
ATOM      5  C   LIG d   1       5.211  -4.123  -4.998  0.00  0.00     0.118 C 
ATOM      6  H   LIG d   1       5.082  -4.808  -4.161  0.00  0.00     0.065 H 
ATOM      7  C   LIG d   1       6.707  -3.905  -5.255  0.00  0.00     0.115 C 
ATOM      8  H   LIG d   1       6.835  -3.239  -6.109  0.00  0.00     0.065 H 
ATOM      9  C   LIG d   1       7.320  -3.262  -4.010  0.00  0.00     0.080 C 
ATOM     10  O   LIG d   1       6.598  -2.058  -3.723  0.00  0.00    -0.344 OA
ATOM     11  C   LIG d   1       5.197  -2.247  -3.526  0.00  0.00     0.186 C 
ATOM     12  H   LIG d   1       5.036  -2.883  -2.656  0.00  0.00     0.096 H 
ATOM     13  O   LIG d   1       4.616  -2.865  -4.679  0.00  0.00    -0.339 OA
ATOM     14  O   LIG d   1       7.315  -5.163  -5.540  0.00  0.00    -0.332 OA
ATOM     15  C   LIG d   1       6.804  -5.786  -6.723  0.00  0.00     0.223 C 
ATOM     16  H   LIG d   1       6.974  -5.131  -7.577  0.00  0.00     0.108 H 
ATOM     17  H   LIG d   1       7.245  -3.949  -3.167  0.00  0.00     0.059 H 
ATOM     18  H   LIG d   1       8.368  -3.025  -4.198  0.00  0.00     0.059 H 
ENDROOT
BRANCH  15  19
ATOM     19  O   LIG d   1       7.479  -7.027  -6.935  0.00  0.00    -0.462 OA
BRANCH  19  20
ATOM     20  C   LIG d   1       8.021  -7.629  -5.843  0.00  0.00     0.124 A 
ATOM     21  C   LIG d   1       7.222  -8.385  -4.998  0.00  0.00    -0.018 A 
ATOM     22  C   LIG d   1       7.775  -8.996  -3.889  0.00  0.00    -0.040 A 
ATOM     23  H   LIG d   1       6.167  -8.495  -5.206  0.00  0.00     0.065 H 
ATOM     24  C   LIG d   1       9.124  -8.854  -3.621  0.00  0.00     0.041 A 
ATOM     25  H   LIG d   1       7.152  -9.584  -3.231  0.00  0.00     0.063 H 
ATOM     26  C   LIG d   1       9.923  -8.102  -4.463  0.00  0.00    -0.040 A 
ATOM     27 CL   LIG d   1       9.816  -9.623  -2.227  0.00  0.00    -0.084 Cl
ATOM     28  C   LIG d   1       9.375  -7.493  -5.576  0.00  0.00    -0.018 A 
ATOM     29  H   LIG d   1      10.977  -7.993  -4.253  0.00  0.00     0.063 H 
ATOM     30  H   LIG d   1      10.000  -6.909  -6.235  0.00  0.00     0.065 H 
ENDBRANCH  19  20
ENDBRANCH  15  19
BRANCH   1  31
ATOM     31  N   LIG d   1       4.776  -6.599  -7.820  0.00  0.00    -0.304 N 
ATOM     32  C   LIG d   1       4.255  -7.842  -7.838  0.00  0.00     0.210 C 
ATOM     33  O   LIG d   1       4.225  -8.502  -6.821  0.00  0.00    -0.276 OA
ATOM     34  H   LIG d   1       4.799  -6.072  -8.634  0.00  0.00     0.149 HD
BRANCH  32  35
ATOM     35  C   LIG d   1       3.706  -8.411  -9.121  0.00  0.00     0.012 C 
ATOM     36  H   LIG d   1       4.142  -9.395  -9.298  0.00  0.00     0.032 H 
ATOM     37  H   LIG d   1       2.623  -8.504  -9.043  0.00  0.00     0.032 H 
ATOM     38  H   LIG d   1       3.955  -7.749  -9.949  0.00  0.00     0.032 H 
ENDBRANCH  32  35
ENDBRANCH   1  31
BRANCH   3  39
ATOM     39  O   LIG d   1       3.196  -4.982  -6.023  0.00  0.00    -0.387 OA
ATOM     40  H   LIG d   1       2.884  -4.696  -5.153  0.00  0.00     0.210 HD
ENDBRANCH   3  39
BRANCH  11  41
ATOM     41  C   LIG d   1       4.541  -0.910  -3.292  0.00  0.00     0.008 A 
ATOM     42  C   LIG d   1       3.644  -0.409  -4.218  0.00  0.00    -0.054 A 
ATOM     43  C   LIG d   1       3.043   0.817  -4.004  0.00  0.00    -0.061 A 
ATOM     44  H   LIG d   1       3.414  -0.977  -5.107  0.00  0.00     0.062 H 
ATOM     45  C   LIG d   1       3.338   1.542  -2.865  0.00  0.00    -0.062 A 
ATOM     46  H   LIG d   1       2.341   1.208  -4.727  0.00  0.00     0.062 H 
ATOM     47  C   LIG d   1       4.236   1.042  -1.941  0.00  0.00    -0.061 A 
ATOM     48  H   LIG d   1       2.868   2.500  -2.698  0.00  0.00     0.062 H 
ATOM     49  C   LIG d   1       4.833  -0.187  -2.152  0.00  0.00    -0.054 A 
ATOM     50  H   LIG d   1       4.467   1.609  -1.051  0.00  0.00     0.062 H 
ATOM     51  H   LIG d   1       5.531  -0.578  -1.426  0.00  0.00     0.062 H 
ENDBRANCH  11  41
TORSDOF 6
ENDMDL
MODEL 2
REMARK VINA RESULT:      -6.6      4.415      8.483
REMARK  6 active torsions:
REMARK  status: ('A' for Active; 'I' for Inactive)
REMARK    1  A    between atoms: C_1  and  C_2 
REMARK       I    between atoms: C_2  and  N_4 
REMARK    2  A    between atoms: N_4  and  C_5 
REMARK    3  A    between atoms: C_7  and  O_35 
REMARK    4  A    between atoms: C_15  and  C_18 
REMARK    5  A    between atoms: C_25  and  O_27 
REMARK    6  A    between atoms: O_27  and  C_28 
ROOT
ATOM      1  C   LIG d   1       4.361  -1.202  -5.407  0.00  0.00     0.114 C 
ATOM      2  H   LIG d   1       3.305  -1.341  -5.639  0.00  0.00     0.059 H 
ATOM      3  C   LIG d   1       4.904  -2.462  -4.723  0.00  0.00     0.108 C 
ATOM      4  H   LIG d   1       5.944  -2.304  -4.436  0.00  0.00     0.064 H 
ATOM      5  C   LIG d   1       4.815  -3.625  -5.711  0.00  0.00     0.118 C 
ATOM      6  H   LIG d   1       3.773  -3.792  -5.985  0.00  0.00     0.065 H 
ATOM      7  C   LIG d   1       5.622  -3.265  -6.965  0.00  0.00     0.115 C 
ATOM      8  H   LIG d   1       6.659  -3.075  -6.686  0.00  0.00     0.065 H 
ATOM      9  C   LIG d   1       5.564  -4.449  -7.931  0.00  0.00     0.080 C 
ATOM     10  O   LIG d   1       6.041  -5.614  -7.247  0.00  0.00    -0.344 OA
ATOM     11  C   LIG d   1       5.322  -5.930  -6.055  0.00  0.00     0.186 C 
ATOM     12  H   LIG d   1       4.287  -6.160  -6.306  0.00  0.00     0.096 H 
ATOM     13  O   LIG d   1       5.356  -4.821  -5.150  0.00  0.00    -0.339 OA
ATOM     14  O   LIG d   1       5.065  -2.091  -7.552  0.00  0.00    -0.332 OA
ATOM     15  C   LIG d   1       5.137  -0.942  -6.700  0.00  0.00     0.223 C 
ATOM     16  H   LIG d   1       6.179  -0.736  -6.461  0.00  0.00     0.108 H 
ATOM     17  H   LIG d   1       4.535  -4.607  -8.257  0.00  0.00     0.059 H 
ATOM     18  H   LIG d   1       6.195  -4.248  -8.797  0.00  0.00     0.059 H 
ENDROOT
BRANCH  15  19
ATOM     19  O   LIG d   1       4.571   0.183  -7.374  0.00  0.00    -0.462 OA
BRANCH  19  20
ATOM     20  C   LIG d   1       3.792  -0.074  -8.458  0.00  0.00     0.124 A 
ATOM     21  C   LIG d   1       2.457  -0.410  -8.290  0.00  0.00    -0.018 A 
ATOM     22  C   LIG d   1       1.667  -0.671  -9.393  0.00  0.00    -0.040 A 
ATOM     23  H   LIG d   1       2.035  -0.469  -7.298  0.00  0.00     0.065 H 
ATOM     24  C   LIG d   1       2.207  -0.597 -10.665  0.00  0.00     0.041 A 
ATOM     25  H   LIG d   1       0.628  -0.933  -9.262  0.00  0.00     0.063 H 
ATOM     26  C   LIG d   1       3.538  -0.261 -10.834  0.00  0.00    -0.040 A 
ATOM     27 CL   LIG d   1       1.212  -0.925 -12.049  0.00  0.00    -0.084 Cl
ATOM     28  C   LIG d   1       4.330   0.005  -9.734  0.00  0.00    -0.018 A 
ATOM     29  H   LIG d   1       3.958  -0.203 -11.828  0.00  0.00     0.063 H 
ATOM     30  H   LIG d   1       5.368   0.271  -9.868  0.00  0.00     0.065 H 
ENDBRANCH  19  20
ENDBRANCH  15  19
BRANCH   1  31
ATOM     31  N   LIG d   1       4.515  -0.055  -4.509  0.00  0.00    -0.304 N 
ATOM     32  C   LIG d   1       3.473   0.360  -3.761  0.00  0.00     0.210 C 
ATOM     33  O   LIG d   1       2.406  -0.213  -3.835  0.00  0.00    -0.276 OA
ATOM     34  H   LIG d   1       5.367   0.404  -4.449  0.00  0.00     0.149 HD
BRANCH  32  35
ATOM     35  C   LIG d   1       3.633   1.536  -2.832  0.00  0.00     0.012 C 
ATOM     36  H   LIG d   1       4.674   1.611  -2.517  0.00  0.00     0.032 H 
ATOM     37  H   LIG d   1       3.345   2.450  -3.349  0.00  0.00     0.032 H 
ATOM     38  H   LIG d   1       2.998   1.398  -1.958  0.00  0.00     0.032 H 
ENDBRANCH  32  35
ENDBRANCH   1  31
BRANCH   3  39
ATOM     39  O   LIG d   1       4.121  -2.756  -3.564  0.00  0.00    -0.387 OA
ATOM     40  H   LIG d   1       4.240  -3.654  -3.228  0.00  0.00     0.210 HD
ENDBRANCH   3  39
BRANCH  11  41
ATOM     41  C   LIG d   1       5.952  -7.131  -5.396  0.00  0.00     0.008 A 
ATOM     42  C   LIG d   1       7.308  -7.140  -5.128  0.00  0.00    -0.054 A 
ATOM     43  C   LIG d   1       7.885  -8.241  -4.524  0.00  0.00    -0.061 A 
ATOM     44  H   LIG d   1       7.916  -6.287  -5.390  0.00  0.00     0.062 H 
ATOM     45  C   LIG d   1       7.107  -9.333  -4.188  0.00  0.00    -0.062 A 
ATOM     46  H   LIG d   1       8.945  -8.248  -4.313  0.00  0.00     0.062 H 
ATOM     47  C   LIG d   1       5.751  -9.324  -4.458  0.00  0.00    -0.061 A 
ATOM     48  H   LIG d   1       7.558 -10.193  -3.716  0.00  0.00     0.062 H 
ATOM     49  C   LIG d   1       5.173  -8.221  -5.057  0.00  0.00    -0.054 A 
ATOM     50  H   LIG d   1       5.144 -10.178  -4.196  0.00  0.00     0.062 H 
ATOM     51  H   LIG d   1       4.113  -8.213  -5.262  0.00  0.00     0.062 H 
ENDBRANCH  11  41
TORSDOF 6
ENDMDL
MODEL 3
REMARK VINA RESULT:      -6.4      4.235      8.254
REMARK  6 active torsions:
REMARK  status: ('A' for Active; 'I' for Inactive)
REMARK    1  A    between atoms: C_1  and  C_2 
REMARK       I    between atoms: C_2  and  N_4 
REMARK    2  A    between atoms: N_4  and  C_5 
REMARK    3  A    between atoms: C_7  and  O_35 
REMARK    4  A    between atoms: C_15  and  C_18 
REMARK    5  A    between atoms: C_25  and  O_27 
REMARK    6  A    between atoms: O_27  and  C_28 
ROOT
ATOM      1  C   LIG d   1       5.326  -0.855  -4.751  0.00  0.00     0.114 C 
ATOM      2  H   LIG d   1       4.636  -0.685  -5.577  0.00  0.00     0.059 H 
ATOM      3  C   LIG d   1       5.226  -2.315  -4.295  0.00  0.00     0.108 C 
ATOM      4  H   LIG d   1       5.871  -2.475  -3.431  0.00  0.00     0.064 H 
ATOM      5  C   LIG d   1       5.678  -3.214  -5.446  0.00  0.00     0.118 C 
ATOM      6  H   LIG d   1       5.022  -3.065  -6.304  0.00  0.00     0.065 H 
ATOM      7  C   LIG d   1       7.114  -2.835  -5.829  0.00  0.00     0.115 C 
ATOM      8  H   LIG d   1       7.765  -2.961  -4.963  0.00  0.00     0.065 H 
ATOM      9  C   LIG d   1       7.575  -3.764  -6.952  0.00  0.00     0.080 C 
ATOM     10  O   LIG d   1       7.431  -5.118  -6.505  0.00  0.00    -0.344 OA
ATOM     11  C   LIG d   1       6.105  -5.466  -6.106  0.00  0.00     0.186 C 
ATOM     12  H   LIG d   1       5.435  -5.382  -6.962  0.00  0.00     0.096 H 
ATOM     13  O   LIG d   1       5.657  -4.590  -5.066  0.00  0.00    -0.339 OA
ATOM     14  O   LIG d   1       7.137  -1.471  -6.244  0.00  0.00    -0.332 OA
ATOM     15  C   LIG d   1       6.755  -0.556  -5.211  0.00  0.00     0.223 C 
ATOM     16  H   LIG d   1       7.436  -0.661  -4.368  0.00  0.00     0.108 H 
ATOM     17  H   LIG d   1       6.962  -3.601  -7.839  0.00  0.00     0.059 H 
ATOM     18  H   LIG d   1       8.621  -3.566  -7.188  0.00  0.00     0.059 H 
ENDROOT
BRANCH  15  19
ATOM     19  O   LIG d   1       6.821   0.780  -5.713  0.00  0.00    -0.462 OA
BRANCH  19  20
ATOM     20  C   LIG d   1       7.876   1.537  -5.312  0.00  0.00     0.124 A 
ATOM     21  C   LIG d   1       8.153   1.683  -3.961  0.00  0.00    -0.018 A 
ATOM     22  C   LIG d   1       9.226   2.453  -3.555  0.00  0.00    -0.040 A 
ATOM     23  H   LIG d   1       7.530   1.196  -3.225  0.00  0.00     0.065 H 
ATOM     24  C   LIG d   1      10.024   3.079  -4.496  0.00  0.00     0.041 A 
ATOM     25  H   LIG d   1       9.441   2.567  -2.503  0.00  0.00     0.063 H 
ATOM     26  C   LIG d   1       9.750   2.934  -5.844  0.00  0.00    -0.040 A 
ATOM     27 CL   LIG d   1      11.372   4.047  -3.984  0.00  0.00    -0.084 Cl
ATOM     28  C   LIG d   1       8.681   2.161  -6.254  0.00  0.00    -0.018 A 
ATOM     29  H   LIG d   1      10.374   3.423  -6.578  0.00  0.00     0.063 H 
ATOM     30  H   LIG d   1       8.470   2.045  -7.306  0.00  0.00     0.065 H 
ENDBRANCH  19  20
ENDBRANCH  15  19
BRANCH   1  31
ATOM     31  N   LIG d   1       4.980   0.029  -3.635  0.00  0.00    -0.304 N 
ATOM     32  C   LIG d   1       3.755   0.589  -3.575  0.00  0.00     0.210 C 
ATOM     33  O   LIG d   1       2.941   0.364  -4.445  0.00  0.00    -0.276 OA
ATOM     34  H   LIG d   1       5.630   0.209  -2.938  0.00  0.00     0.149 HD
BRANCH  32  35
ATOM     35  C   LIG d   1       3.396   1.492  -2.423  0.00  0.00     0.012 C 
ATOM     36  H   LIG d   1       2.751   0.954  -1.727  0.00  0.00     0.032 H 
ATOM     37  H   LIG d   1       4.304   1.804  -1.908  0.00  0.00     0.032 H 
ATOM     38  H   LIG d   1       2.873   2.370  -2.799  0.00  0.00     0.032 H 
ENDBRANCH  32  35
ENDBRANCH   1  31
BRANCH   3  39
ATOM     39  O   LIG d   1       3.873  -2.620  -3.951  0.00  0.00    -0.387 OA
ATOM     40  H   LIG d   1       3.226  -2.002  -4.318  0.00  0.00     0.210 HD
ENDBRANCH   3  39
BRANCH  11  41
ATOM     41  C   LIG d   1       6.092  -6.886  -5.602  0.00  0.00     0.008 A 
ATOM     42  C   LIG d   1       4.908  -7.600  -5.576  0.00  0.00    -0.054 A 
ATOM     43  C   LIG d   1       4.896  -8.902  -5.113  0.00  0.00    -0.061 A 
ATOM     44  H   LIG d   1       3.993  -7.139  -5.917  0.00  0.00     0.062 H 
ATOM     45  C   LIG d   1       6.068  -9.492  -4.677  0.00  0.00    -0.062 A 
ATOM     46  H   LIG d   1       3.971  -9.460  -5.094  0.00  0.00     0.062 H 
ATOM     47  C   LIG d   1       7.251  -8.778  -4.702  0.00  0.00    -0.061 A 
ATOM     48  H   LIG d   1       6.059 -10.510  -4.316  0.00  0.00     0.062 H 
ATOM     49  C   LIG d   1       7.264  -7.477  -5.170  0.00  0.00    -0.054 A 
ATOM     50  H   LIG d   1       8.166  -9.239  -4.361  0.00  0.00     0.062 H 
ATOM     51  H   LIG d   1       8.190  -6.922  -5.193  0.00  0.00     0.062 H 
ENDBRANCH  11  41
TORSDOF 6
ENDMDL
MODEL 4
REMARK VINA RESULT:      -6.4      4.740      7.125
REMARK  6 active torsions:
REMARK  status: ('A' for Active; 'I' for Inactive)
REMARK    1  A    between atoms: C_1  and  C_2 
REMARK       I    between atoms: C_2  and  N_4 
REMARK    2  A    between atoms: N_4  and  C_5 
REMARK    3  A    between atoms: C_7  and  O_35 
REMARK    4  A    between atoms: C_15  and  C_18 
REMARK    5  A    between atoms: C_25  and  O_27 
REMARK    6  A    between atoms: O_27  and  C_28 
ROOT
ATOM      1  C   LIG d   1       4.955  -4.777  -6.753  0.00  0.00     0.114 C 
ATOM      2  H   LIG d   1       3.961  -5.092  -6.437  0.00  0.00     0.059 H 
ATOM      3  C   LIG d   1       4.961  -4.553  -8.270  0.00  0.00     0.108 C 
ATOM      4  H   LIG d   1       5.968  -4.296  -8.599  0.00  0.00     0.064 H 
ATOM      5  C   LIG d   1       4.006  -3.405  -8.594  0.00  0.00     0.118 C 
ATOM      6  H   LIG d   1       2.996  -3.671  -8.279  0.00  0.00     0.065 H 
ATOM      7  C   LIG d   1       4.466  -2.155  -7.833  0.00  0.00     0.115 C 
ATOM      8  H   LIG d   1       5.485  -1.905  -8.131  0.00  0.00     0.065 H 
ATOM      9  C   LIG d   1       3.531  -1.000  -8.194  0.00  0.00     0.080 C 
ATOM     10  O   LIG d   1       3.533  -0.847  -9.618  0.00  0.00    -0.344 OA
ATOM     11  C   LIG d   1       3.147  -2.019 -10.336  0.00  0.00     0.186 C 
ATOM     12  H   LIG d   1       2.118  -2.276 -10.084  0.00  0.00     0.096 H 
ATOM     13  O   LIG d   1       4.006  -3.112  -9.992  0.00  0.00    -0.339 OA
ATOM     14  O   LIG d   1       4.435  -2.429  -6.434  0.00  0.00    -0.332 OA
ATOM     15  C   LIG d   1       5.328  -3.476  -6.040  0.00  0.00     0.223 C 
ATOM     16  H   LIG d   1       6.347  -3.198  -6.304  0.00  0.00     0.108 H 
ATOM     17  H   LIG d   1       2.522  -1.223  -7.847  0.00  0.00     0.059 H 
ATOM     18  H   LIG d   1       3.886  -0.081  -7.726  0.00  0.00     0.059 H 
ENDROOT
BRANCH  15  19
ATOM     19  O   LIG d   1       5.239  -3.668  -4.627  0.00  0.00    -0.462 OA
BRANCH  19  20
ATOM     20  C   LIG d   1       5.104  -2.553  -3.860  0.00  0.00     0.124 A 
ATOM     21  C   LIG d   1       3.978  -2.387  -3.069  0.00  0.00    -0.018 A 
ATOM     22  C   LIG d   1       3.844  -1.253  -2.290  0.00  0.00    -0.040 A 
ATOM     23  H   LIG d   1       3.205  -3.141  -3.061  0.00  0.00     0.065 H 
ATOM     24  C   LIG d   1       4.832  -0.285  -2.299  0.00  0.00     0.041 A 
ATOM     25  H   LIG d   1       2.966  -1.123  -1.674  0.00  0.00     0.063 H 
ATOM     26  C   LIG d   1       5.957  -0.450  -3.087  0.00  0.00    -0.040 A 
ATOM     27 CL   LIG d   1       4.661   1.138  -1.319  0.00  0.00    -0.084 Cl
ATOM     28  C   LIG d   1       6.097  -1.584  -3.864  0.00  0.00    -0.018 A 
ATOM     29  H   LIG d   1       6.728   0.306  -3.093  0.00  0.00     0.063 H 
ATOM     30  H   LIG d   1       6.977  -1.715  -4.475  0.00  0.00     0.065 H 
ENDBRANCH  19  20
ENDBRANCH  15  19
BRANCH   1  31
ATOM     31  N   LIG d   1       5.928  -5.817  -6.410  0.00  0.00    -0.304 N 
ATOM     32  C   LIG d   1       5.555  -6.863  -5.647  0.00  0.00     0.210 C 
ATOM     33  O   LIG d   1       4.415  -6.943  -5.241  0.00  0.00    -0.276 OA
ATOM     34  H   LIG d   1       6.840  -5.754  -6.734  0.00  0.00     0.149 HD
BRANCH  32  35
ATOM     35  C   LIG d   1       6.554  -7.936  -5.299  0.00  0.00     0.012 C 
ATOM     36  H   LIG d   1       7.538  -7.651  -5.671  0.00  0.00     0.032 H 
ATOM     37  H   LIG d   1       6.597  -8.056  -4.217  0.00  0.00     0.032 H 
ATOM     38  H   LIG d   1       6.252  -8.877  -5.756  0.00  0.00     0.032 H 
ENDBRANCH  32  35
ENDBRANCH   1  31
BRANCH   3  39
ATOM     39  O   LIG d   1       4.525  -5.742  -8.933  0.00  0.00    -0.387 OA
ATOM     40  H   LIG d   1       3.831  -5.593  -9.589  0.00  0.00     0.210 HD
ENDBRANCH   3  39
BRANCH  11  41
ATOM     41  C   LIG d   1       3.245  -1.754 -11.816  0.00  0.00     0.008 A 
ATOM     42  C   LIG d   1       2.428  -2.439 -12.697  0.00  0.00    -0.054 A 
ATOM     43  C   LIG d   1       2.519  -2.196 -14.054  0.00  0.00    -0.061 A 
ATOM     44  H   LIG d   1       1.720  -3.163 -12.323  0.00  0.00     0.062 H 
ATOM     45  C   LIG d   1       3.425  -1.269 -14.532  0.00  0.00    -0.062 A 
ATOM     46  H   LIG d   1       1.880  -2.731 -14.742  0.00  0.00     0.062 H 
ATOM     47  C   LIG d   1       4.243  -0.585 -13.651  0.00  0.00    -0.061 A 
ATOM     48  H   LIG d   1       3.496  -1.078 -15.592  0.00  0.00     0.062 H 
ATOM     49  C   LIG d   1       4.149  -0.824 -12.293  0.00  0.00    -0.054 A 
ATOM     50  H   LIG d   1       4.951   0.139 -14.025  0.00  0.00     0.062 H 
ATOM     51  H   LIG d   1       4.785  -0.286 -11.606  0.00  0.00     0.062 H 
ENDBRANCH  11  41
TORSDOF 6
ENDMDL
MODEL 5
REMARK VINA RESULT:      -6.3      6.139      8.197
REMARK  6 active torsions:
REMARK  status: ('A' for Active; 'I' for Inactive)
REMARK    1  A    between atoms: C_1  and  C_2 
REMARK       I    between atoms: C_2  and  N_4 
REMARK    2  A    between atoms: N_4  and  C_5 
REMARK    3  A    between atoms: C_7  and  O_35 
REMARK    4  A    between atoms: C_15  and  C_18 
REMARK    5  A    between atoms: C_25  and  O_27 
REMARK    6  A    between atoms: O_27  and  C_28 
ROOT
ATOM      1  C   LIG d   1       4.119  -2.345 -10.297  0.00  0.00     0.114 C 
ATOM      2  H   LIG d   1       5.031  -1.842 -10.618  0.00  0.00     0.059 H 
ATOM      3  C   LIG d   1       4.206  -2.651  -8.797  0.00  0.00     0.108 C 
ATOM      4  H   LIG d   1       3.322  -3.207  -8.484  0.00  0.00     0.064 H 
ATOM      5  C   LIG d   1       4.276  -1.327  -8.036  0.00  0.00     0.118 C 
ATOM      6  H   LIG d   1       5.169  -0.779  -8.339  0.00  0.00     0.065 H 
ATOM      7  C   LIG d   1       3.030  -0.500  -8.377  0.00  0.00     0.115 C 
ATOM      8  H   LIG d   1       2.137  -1.059  -8.096  0.00  0.00     0.065 H 
ATOM      9  C   LIG d   1       3.086   0.805  -7.581  0.00  0.00     0.080 C 
ATOM     10  O   LIG d   1       3.206   0.481  -6.191  0.00  0.00    -0.344 OA
ATOM     11  C   LIG d   1       4.340  -0.326  -5.872  0.00  0.00     0.186 C 
ATOM     12  H   LIG d   1       5.252   0.222  -6.111  0.00  0.00     0.096 H 
ATOM     13  O   LIG d   1       4.307  -1.543  -6.625  0.00  0.00    -0.339 OA
ATOM     14  O   LIG d   1       3.011  -0.249  -9.781  0.00  0.00    -0.332 OA
ATOM     15  C   LIG d   1       2.915  -1.440 -10.568  0.00  0.00     0.223 C 
ATOM     16  H   LIG d   1       1.999  -1.970 -10.310  0.00  0.00     0.108 H 
ATOM     17  H   LIG d   1       3.947   1.393  -7.899  0.00  0.00     0.059 H 
ATOM     18  H   LIG d   1       2.171   1.375  -7.747  0.00  0.00     0.059 H 
ENDROOT
BRANCH  15  19
ATOM     19  O   LIG d   1       2.888  -1.091 -11.953  0.00  0.00    -0.462 OA
BRANCH  19  20
ATOM     20  C   LIG d   1       1.891  -1.628 -12.705  0.00  0.00     0.124 A 
ATOM     21  C   LIG d   1       0.582  -1.596 -12.248  0.00  0.00    -0.018 A 
ATOM     22  C   LIG d   1      -0.430  -2.142 -13.015  0.00  0.00    -0.040 A 
ATOM     23  H   LIG d   1       0.353  -1.145 -11.294  0.00  0.00     0.065 H 
ATOM     24  C   LIG d   1      -0.139  -2.721 -14.237  0.00  0.00     0.041 A 
ATOM     25  H   LIG d   1      -1.450  -2.117 -12.658  0.00  0.00     0.063 H 
ATOM     26  C   LIG d   1       1.166  -2.753 -14.695  0.00  0.00    -0.040 A 
ATOM     27 CL   LIG d   1      -1.412  -3.406 -15.197  0.00  0.00    -0.084 Cl
ATOM     28  C   LIG d   1       2.180  -2.204 -13.934  0.00  0.00    -0.018 A 
ATOM     29  H   LIG d   1       1.393  -3.204 -15.649  0.00  0.00     0.063 H 
ATOM     30  H   LIG d   1       3.198  -2.226 -14.293  0.00  0.00     0.065 H 
ENDBRANCH  19  20
ENDBRANCH  15  19
BRANCH   1  31
ATOM     31  N   LIG d   1       3.965  -3.598 -11.041  0.00  0.00    -0.304 N 
ATOM     32  C   LIG d   1       4.865  -3.935 -11.986  0.00  0.00     0.210 C 
ATOM     33  O   LIG d   1       5.801  -3.201 -12.222  0.00  0.00    -0.276 OA
ATOM     34  H   LIG d   1       3.216  -4.185 -10.852  0.00  0.00     0.149 HD
BRANCH  32  35
ATOM     35  C   LIG d   1       4.710  -5.227 -12.747  0.00  0.00     0.012 C 
ATOM     36  H   LIG d   1       5.178  -6.037 -12.186  0.00  0.00     0.032 H 
ATOM     37  H   LIG d   1       3.651  -5.445 -12.881  0.00  0.00     0.032 H 
ATOM     38  H   LIG d   1       5.188  -5.135 -13.721  0.00  0.00     0.032 H 
ENDBRANCH  32  35
ENDBRANCH   1  31
BRANCH   3  39
ATOM     39  O   LIG d   1       5.381  -3.420  -8.530  0.00  0.00    -0.387 OA
ATOM     40  H   LIG d   1       5.420  -4.257  -9.013  0.00  0.00     0.210 HD
ENDBRANCH   3  39
BRANCH  11  41
ATOM     41  C   LIG d   1       4.326  -0.649  -4.400  0.00  0.00     0.008 A 
ATOM     42  C   LIG d   1       4.599   0.340  -3.473  0.00  0.00    -0.054 A 
ATOM     43  C   LIG d   1       4.585   0.043  -2.123  0.00  0.00    -0.061 A 
ATOM     44  H   LIG d   1       4.822   1.343  -3.803  0.00  0.00     0.062 H 
ATOM     45  C   LIG d   1       4.298  -1.241  -1.700  0.00  0.00    -0.062 A 
ATOM     46  H   LIG d   1       4.797   0.816  -1.398  0.00  0.00     0.062 H 
ATOM     47  C   LIG d   1       4.027  -2.230  -2.627  0.00  0.00    -0.061 A 
ATOM     48  H   LIG d   1       4.287  -1.473  -0.645  0.00  0.00     0.062 H 
ATOM     49  C   LIG d   1       4.035  -1.932  -3.977  0.00  0.00    -0.054 A 
ATOM     50  H   LIG d   1       3.804  -3.233  -2.297  0.00  0.00     0.062 H 
ATOM     51  H   LIG d   1       3.818  -2.704  -4.701  0.00  0.00     0.062 H 
ENDBRANCH  11  41
TORSDOF 6
ENDMDL
MODEL 6
REMARK VINA RESULT:      -6.3      2.947      3.485
REMARK  6 active torsions:
REMARK  status: ('A' for Active; 'I' for Inactive)
REMARK    1  A    between atoms: C_1  and  C_2 
REMARK       I    between atoms: C_2  and  N_4 
REMARK    2  A    between atoms: N_4  and  C_5 
REMARK    3  A    between atoms: C_7  and  O_35 
REMARK    4  A    between atoms: C_15  and  C_18 
REMARK    5  A    between atoms: C_25  and  O_27 
REMARK    6  A    between atoms: O_27  and  C_28 
ROOT
ATOM      1  C   LIG d   1       5.156  -6.029  -7.112  0.00  0.00     0.114 C 
ATOM      2  H   LIG d   1       5.092  -6.828  -6.374  0.00  0.00     0.059 H 
ATOM      3  C   LIG d   1       4.487  -4.766  -6.559  0.00  0.00     0.108 C 
ATOM      4  H   LIG d   1       4.496  -3.983  -7.318  0.00  0.00     0.064 H 
ATOM      5  C   LIG d   1       5.270  -4.302  -5.331  0.00  0.00     0.118 C 
ATOM      6  H   LIG d   1       5.246  -5.079  -4.568  0.00  0.00     0.065 H 
ATOM      7  C   LIG d   1       6.723  -4.039  -5.747  0.00  0.00     0.115 C 
ATOM      8  H   LIG d   1       6.744  -3.279  -6.529  0.00  0.00     0.065 H 
ATOM      9  C   LIG d   1       7.491  -3.535  -4.525  0.00  0.00     0.080 C 
ATOM     10  O   LIG d   1       6.815  -2.380  -4.013  0.00  0.00    -0.344 OA
ATOM     11  C   LIG d   1       5.449  -2.605  -3.663  0.00  0.00     0.186 C 
ATOM     12  H   LIG d   1       5.397  -3.339  -2.858  0.00  0.00     0.096 H 
ATOM     13  O   LIG d   1       4.725  -3.095  -4.797  0.00  0.00    -0.339 OA
ATOM     14  O   LIG d   1       7.285  -5.250  -6.249  0.00  0.00    -0.332 OA
ATOM     15  C   LIG d   1       6.627  -5.739  -7.421  0.00  0.00     0.223 C 
ATOM     16  H   LIG d   1       6.690  -4.989  -8.209  0.00  0.00     0.108 H 
ATOM     17  H   LIG d   1       7.520  -4.315  -3.762  0.00  0.00     0.059 H 
ATOM     18  H   LIG d   1       8.507  -3.267  -4.814  0.00  0.00     0.059 H 
ENDROOT
BRANCH  15  19
ATOM     19  O   LIG d   1       7.265  -6.940  -7.857  0.00  0.00    -0.462 OA
BRANCH  19  20
ATOM     20  C   LIG d   1       7.926  -6.892  -9.044  0.00  0.00     0.124 A 
ATOM     21  C   LIG d   1       7.397  -7.524 -10.160  0.00  0.00    -0.018 A 
ATOM     22  C   LIG d   1       8.070  -7.474 -11.366  0.00  0.00    -0.040 A 
ATOM     23  H   LIG d   1       6.460  -8.057 -10.086  0.00  0.00     0.065 H 
ATOM     24  C   LIG d   1       9.270  -6.793 -11.461  0.00  0.00     0.041 A 
ATOM     25  H   LIG d   1       7.658  -7.967 -12.234  0.00  0.00     0.063 H 
ATOM     26  C   LIG d   1       9.799  -6.162 -10.349  0.00  0.00    -0.040 A 
ATOM     27 CL   LIG d   1      10.114  -6.732 -12.977  0.00  0.00    -0.084 Cl
ATOM     28  C   LIG d   1       9.127  -6.206  -9.143  0.00  0.00    -0.018 A 
ATOM     29  H   LIG d   1      10.736  -5.630 -10.425  0.00  0.00     0.063 H 
ATOM     30  H   LIG d   1       9.538  -5.709  -8.277  0.00  0.00     0.065 H 
ENDBRANCH  19  20
ENDBRANCH  15  19
BRANCH   1  31
ATOM     31  N   LIG d   1       4.473  -6.445  -8.340  0.00  0.00    -0.304 N 
ATOM     32  C   LIG d   1       3.880  -7.653  -8.406  0.00  0.00     0.210 C 
ATOM     33  O   LIG d   1       3.915  -8.399  -7.449  0.00  0.00    -0.276 OA
ATOM     34  H   LIG d   1       4.446  -5.849  -9.105  0.00  0.00     0.149 HD
BRANCH  32  35
ATOM     35  C   LIG d   1       3.172  -8.078  -9.666  0.00  0.00     0.012 C 
ATOM     36  H   LIG d   1       3.904  -8.432 -10.392  0.00  0.00     0.032 H 
ATOM     37  H   LIG d   1       2.472  -8.881  -9.436  0.00  0.00     0.032 H 
ATOM     38  H   LIG d   1       2.628  -7.230 -10.081  0.00  0.00     0.032 H 
ENDBRANCH  32  35
ENDBRANCH   1  31
BRANCH   3  39
ATOM     39  O   LIG d   1       3.139  -5.061  -6.185  0.00  0.00    -0.387 OA
ATOM     40  H   LIG d   1       2.479  -4.518  -6.637  0.00  0.00     0.210 HD
ENDBRANCH   3  39
BRANCH  11  41
ATOM     41  C   LIG d   1       4.833  -1.311  -3.198  0.00  0.00     0.008 A 
ATOM     42  C   LIG d   1       3.458  -1.193  -3.110  0.00  0.00    -0.054 A 
ATOM     43  C   LIG d   1       2.893  -0.006  -2.683  0.00  0.00    -0.061 A 
ATOM     44  H   LIG d   1       2.827  -2.028  -3.374  0.00  0.00     0.062 H 
ATOM     45  C   LIG d   1       3.702   1.063  -2.344  0.00  0.00    -0.062 A 
ATOM     46  H   LIG d   1       1.819   0.086  -2.613  0.00  0.00     0.062 H 
ATOM     47  C   LIG d   1       5.076   0.944  -2.433  0.00  0.00    -0.061 A 
ATOM     48  H   LIG d   1       3.260   1.990  -2.010  0.00  0.00     0.062 H 
ATOM     49  C   LIG d   1       5.642  -0.245  -2.855  0.00  0.00    -0.054 A 
ATOM     50  H   LIG d   1       5.708   1.779  -2.169  0.00  0.00     0.062 H 
ATOM     51  H   LIG d   1       6.716  -0.337  -2.920  0.00  0.00     0.062 H 
ENDBRANCH  11  41
TORSDOF 6
ENDMDL
MODEL 7
REMARK VINA RESULT:      -6.3      4.315      8.649
REMARK  6 active torsions:
REMARK  status: ('A' for Active; 'I' for Inactive)
REMARK    1  A    between atoms: C_1  and  C_2 
REMARK       I    between atoms: C_2  and  N_4 
REMARK    2  A    between atoms: N_4  and  C_5 
REMARK    3  A    between atoms: C_7  and  O_35 
REMARK    4  A    between atoms: C_15  and  C_18 
REMARK    5  A    between atoms: C_25  and  O_27 
REMARK    6  A    between atoms: O_27  and  C_28 
ROOT
ATOM      1  C   LIG d   1       3.923  -1.545  -8.824  0.00  0.00     0.114 C 
ATOM      2  H   LIG d   1       4.825  -1.578  -9.435  0.00  0.00     0.059 H 
ATOM      3  C   LIG d   1       2.884  -2.517  -9.395  0.00  0.00     0.108 C 
ATOM      4  H   LIG d   1       1.960  -2.444  -8.822  0.00  0.00     0.064 H 
ATOM      5  C   LIG d   1       3.442  -3.937  -9.292  0.00  0.00     0.118 C 
ATOM      6  H   LIG d   1       4.358  -4.012  -9.878  0.00  0.00     0.065 H 
ATOM      7  C   LIG d   1       3.751  -4.236  -7.820  0.00  0.00     0.115 C 
ATOM      8  H   LIG d   1       2.840  -4.136  -7.230  0.00  0.00     0.065 H 
ATOM      9  C   LIG d   1       4.269  -5.671  -7.718  0.00  0.00     0.080 C 
ATOM     10  O   LIG d   1       3.292  -6.545  -8.296  0.00  0.00    -0.344 OA
ATOM     11  C   LIG d   1       2.966  -6.246  -9.653  0.00  0.00     0.186 C 
ATOM     12  H   LIG d   1       3.853  -6.371 -10.274  0.00  0.00     0.096 H 
ATOM     13  O   LIG d   1       2.496  -4.898  -9.762  0.00  0.00    -0.339 OA
ATOM     14  O   LIG d   1       4.722  -3.301  -7.353  0.00  0.00    -0.332 OA
ATOM     15  C   LIG d   1       4.267  -1.944  -7.388  0.00  0.00     0.223 C 
ATOM     16  H   LIG d   1       3.380  -1.846  -6.763  0.00  0.00     0.108 H 
ATOM     17  H   LIG d   1       5.211  -5.761  -8.260  0.00  0.00     0.059 H 
ATOM     18  H   LIG d   1       4.422  -5.933  -6.670  0.00  0.00     0.059 H 
ENDROOT
BRANCH  15  19
ATOM     19  O   LIG d   1       5.296  -1.087  -6.891  0.00  0.00    -0.462 OA
BRANCH  19  20
ATOM     20  C   LIG d   1       5.136  -0.597  -5.633  0.00  0.00     0.124 A 
ATOM     21  C   LIG d   1       6.247  -0.309  -4.853  0.00  0.00    -0.018 A 
ATOM     22  C   LIG d   1       6.082   0.189  -3.575  0.00  0.00    -0.040 A 
ATOM     23  H   LIG d   1       7.240  -0.476  -5.244  0.00  0.00     0.065 H 
ATOM     24  C   LIG d   1       4.811   0.401  -3.072  0.00  0.00     0.041 A 
ATOM     25  H   LIG d   1       6.947   0.412  -2.968  0.00  0.00     0.063 H 
ATOM     26  C   LIG d   1       3.702   0.116  -3.849  0.00  0.00    -0.040 A 
ATOM     27 CL   LIG d   1       4.607   1.027  -1.466  0.00  0.00    -0.084 Cl
ATOM     28  C   LIG d   1       3.862  -0.378  -5.129  0.00  0.00    -0.018 A 
ATOM     29  H   LIG d   1       2.710   0.283  -3.456  0.00  0.00     0.063 H 
ATOM     30  H   LIG d   1       2.997  -0.596  -5.736  0.00  0.00     0.065 H 
ENDBRANCH  19  20
ENDBRANCH  15  19
BRANCH   1  31
ATOM     31  N   LIG d   1       3.376  -0.186  -8.834  0.00  0.00    -0.304 N 
ATOM     32  C   LIG d   1       4.023   0.796  -9.492  0.00  0.00     0.210 C 
ATOM     33  O   LIG d   1       5.061   0.556 -10.073  0.00  0.00    -0.276 OA
ATOM     34  H   LIG d   1       2.547   0.007  -8.370  0.00  0.00     0.149 HD
BRANCH  32  35
ATOM     35  C   LIG d   1       3.457   2.193  -9.508  0.00  0.00     0.012 C 
ATOM     36  H   LIG d   1       4.269   2.913  -9.614  0.00  0.00     0.032 H 
ATOM     37  H   LIG d   1       2.770   2.296 -10.347  0.00  0.00     0.032 H 
ATOM     38  H   LIG d   1       2.924   2.380  -8.577  0.00  0.00     0.032 H 
ENDBRANCH  32  35
ENDBRANCH   1  31
BRANCH   3  39
ATOM     39  O   LIG d   1       2.631  -2.200 -10.765  0.00  0.00    -0.387 OA
ATOM     40  H   LIG d   1       3.185  -2.687 -11.390  0.00  0.00     0.210 HD
ENDBRANCH   3  39
BRANCH  11  41
ATOM     41  C   LIG d   1       1.890  -7.189 -10.127  0.00  0.00     0.008 A 
ATOM     42  C   LIG d   1       0.596  -6.731 -10.300  0.00  0.00    -0.054 A 
ATOM     43  C   LIG d   1      -0.390  -7.596 -10.734  0.00  0.00    -0.061 A 
ATOM     44  H   LIG d   1       0.358  -5.698 -10.095  0.00  0.00     0.062 H 
ATOM     45  C   LIG d   1      -0.084  -8.918 -10.998  0.00  0.00    -0.062 A 
ATOM     46  H   LIG d   1      -1.400  -7.239 -10.870  0.00  0.00     0.062 H 
ATOM     47  C   LIG d   1       1.209  -9.376 -10.824  0.00  0.00    -0.061 A 
ATOM     48  H   LIG d   1      -0.854  -9.594 -11.338  0.00  0.00     0.062 H 
ATOM     49  C   LIG d   1       2.197  -8.510 -10.394  0.00  0.00    -0.054 A 
ATOM     50  H   LIG d   1       1.448 -10.409 -11.029  0.00  0.00     0.062 H 
ATOM     51  H   LIG d   1       3.208  -8.867 -10.264  0.00  0.00     0.062 H 
ENDBRANCH  11  41
TORSDOF 6
ENDMDL
MODEL 8
REMARK VINA RESULT:      -6.3      7.650     10.270
REMARK  6 active torsions:
REMARK  status: ('A' for Active; 'I' for Inactive)
REMARK    1  A    between atoms: C_1  and  C_2 
REMARK       I    between atoms: C_2  and  N_4 
REMARK    2  A    between atoms: N_4  and  C_5 
REMARK    3  A    between atoms: C_7  and  O_35 
REMARK    4  A    between atoms: C_15  and  C_18 
REMARK    5  A    between atoms: C_25  and  O_27 
REMARK    6  A    between atoms: O_27  and  C_28 
ROOT
ATOM      1  C   LIG d   1      11.679   3.389  -3.679  0.00  0.00     0.114 C 
ATOM      2  H   LIG d   1      11.381   4.158  -4.391  0.00  0.00     0.059 H 
ATOM      3  C   LIG d   1      10.446   2.891  -2.917  0.00  0.00     0.108 C 
ATOM      4  H   LIG d   1      10.749   2.165  -2.162  0.00  0.00     0.064 H 
ATOM      5  C   LIG d   1       9.495   2.229  -3.914  0.00  0.00     0.118 C 
ATOM      6  H   LIG d   1       9.181   2.961  -4.658  0.00  0.00     0.065 H 
ATOM      7  C   LIG d   1      10.236   1.080  -4.609  0.00  0.00     0.115 C 
ATOM      8  H   LIG d   1      10.572   0.361  -3.861  0.00  0.00     0.065 H 
ATOM      9  C   LIG d   1       9.268   0.396  -5.574  0.00  0.00     0.080 C 
ATOM     10  O   LIG d   1       8.113  -0.020  -4.836  0.00  0.00    -0.344 OA
ATOM     11  C   LIG d   1       7.442   1.038  -4.150  0.00  0.00     0.186 C 
ATOM     12  H   LIG d   1       7.064   1.758  -4.877  0.00  0.00     0.096 H 
ATOM     13  O   LIG d   1       8.346   1.697  -3.256  0.00  0.00    -0.339 OA
ATOM     14  O   LIG d   1      11.367   1.610  -5.298  0.00  0.00    -0.332 OA
ATOM     15  C   LIG d   1      12.326   2.223  -4.430  0.00  0.00     0.223 C 
ATOM     16  H   LIG d   1      12.686   1.486  -3.713  0.00  0.00     0.108 H 
ATOM     17  H   LIG d   1       8.974   1.096  -6.357  0.00  0.00     0.059 H 
ATOM     18  H   LIG d   1       9.749  -0.474  -6.023  0.00  0.00     0.059 H 
ENDROOT
BRANCH  15  19
ATOM     19  O   LIG d   1      13.424   2.708  -5.204  0.00  0.00    -0.462 OA
BRANCH  19  20
ATOM     20  C   LIG d   1      14.614   2.070  -5.054  0.00  0.00     0.124 A 
ATOM     21  C   LIG d   1      14.815   1.217  -3.979  0.00  0.00    -0.018 A 
ATOM     22  C   LIG d   1      16.026   0.569  -3.829  0.00  0.00    -0.040 A 
ATOM     23  H   LIG d   1      14.026   1.061  -3.258  0.00  0.00     0.065 H 
ATOM     24  C   LIG d   1      17.038   0.769  -4.750  0.00  0.00     0.041 A 
ATOM     25  H   LIG d   1      16.182  -0.094  -2.990  0.00  0.00     0.063 H 
ATOM     26  C   LIG d   1      16.839   1.618  -5.824  0.00  0.00    -0.040 A 
ATOM     27 CL   LIG d   1      18.558  -0.047  -4.559  0.00  0.00    -0.084 Cl
ATOM     28  C   LIG d   1      15.628   2.265  -5.981  0.00  0.00    -0.018 A 
ATOM     29  H   LIG d   1      17.630   1.773  -6.543  0.00  0.00     0.063 H 
ATOM     30  H   LIG d   1      15.472   2.924  -6.821  0.00  0.00     0.065 H 
ENDBRANCH  19  20
ENDBRANCH  15  19
BRANCH   1  31
ATOM     31  N   LIG d   1      12.645   3.951  -2.730  0.00  0.00    -0.304 N 
ATOM     32  C   LIG d   1      12.737   5.287  -2.575  0.00  0.00     0.210 C 
ATOM     33  O   LIG d   1      12.023   6.024  -3.223  0.00  0.00    -0.276 OA
ATOM     34  H   LIG d   1      13.215   3.362  -2.212  0.00  0.00     0.149 HD
BRANCH  32  35
ATOM     35  C   LIG d   1      13.724   5.865  -1.595  0.00  0.00     0.012 C 
ATOM     36  H   LIG d   1      13.433   5.589  -0.581  0.00  0.00     0.032 H 
ATOM     37  H   LIG d   1      14.718   5.472  -1.806  0.00  0.00     0.032 H 
ATOM     38  H   LIG d   1      13.735   6.950  -1.687  0.00  0.00     0.032 H 
ENDBRANCH  32  35
ENDBRANCH   1  31
BRANCH   3  39
ATOM     39  O   LIG d   1       9.791   3.995  -2.289  0.00  0.00    -0.387 OA
ATOM     40  H   LIG d   1       8.825   3.949  -2.322  0.00  0.00     0.210 HD
ENDBRANCH   3  39
BRANCH  11  41
ATOM     41  C   LIG d   1       6.287   0.471  -3.365  0.00  0.00     0.008 A 
ATOM     42  C   LIG d   1       6.080  -0.896  -3.331  0.00  0.00    -0.054 A 
ATOM     43  C   LIG d   1       5.021  -1.415  -2.612  0.00  0.00    -0.061 A 
ATOM     44  H   LIG d   1       6.745  -1.556  -3.867  0.00  0.00     0.062 H 
ATOM     45  C   LIG d   1       4.169  -0.570  -1.925  0.00  0.00    -0.062 A 
ATOM     46  H   LIG d   1       4.859  -2.483  -2.584  0.00  0.00     0.062 H 
ATOM     47  C   LIG d   1       4.377   0.797  -1.961  0.00  0.00    -0.061 A 
ATOM     48  H   LIG d   1       3.342  -0.976  -1.363  0.00  0.00     0.062 H 
ATOM     49  C   LIG d   1       5.439   1.317  -2.676  0.00  0.00    -0.054 A 
ATOM     50  H   LIG d   1       3.711   1.457  -1.425  0.00  0.00     0.062 H 
ATOM     51  H   LIG d   1       5.602   2.384  -2.699  0.00  0.00     0.062 H 
ENDBRANCH  11  41
TORSDOF 6
ENDMDL
MODEL 9
REMARK VINA RESULT:      -6.2      8.243     11.377
REMARK  6 active torsions:
REMARK  status: ('A' for Active; 'I' for Inactive)
REMARK    1  A    between atoms: C_1  and  C_2 
REMARK       I    between atoms: C_2  and  N_4 
REMARK    2  A    between atoms: N_4  and  C_5 
REMARK    3  A    between atoms: C_7  and  O_35 
REMARK    4  A    between atoms: C_15  and  C_18 
REMARK    5  A    between atoms: C_25  and  O_27 
REMARK    6  A    between atoms: O_27  and  C_28 
ROOT
ATOM      1  C   LIG d   1      11.324   3.837  -4.122  0.00  0.00     0.114 C 
ATOM      2  H   LIG d   1      10.873   4.811  -4.312  0.00  0.00     0.059 H 
ATOM      3  C   LIG d   1      10.365   2.986  -3.281  0.00  0.00     0.108 C 
ATOM      4  H   LIG d   1      10.837   2.033  -3.038  0.00  0.00     0.064 H 
ATOM      5  C   LIG d   1       9.096   2.738  -4.097  0.00  0.00     0.118 C 
ATOM      6  H   LIG d   1       8.618   3.690  -4.325  0.00  0.00     0.065 H 
ATOM      7  C   LIG d   1       9.484   2.034  -5.404  0.00  0.00     0.115 C 
ATOM      8  H   LIG d   1       9.985   1.093  -5.174  0.00  0.00     0.065 H 
ATOM      9  C   LIG d   1       8.207   1.752  -6.196  0.00  0.00     0.080 C 
ATOM     10  O   LIG d   1       7.321   0.990  -5.367  0.00  0.00    -0.344 OA
ATOM     11  C   LIG d   1       6.990   1.619  -4.129  0.00  0.00     0.186 C 
ATOM     12  H   LIG d   1       6.456   2.549  -4.326  0.00  0.00     0.096 H 
ATOM     13  O   LIG d   1       8.181   1.904  -3.386  0.00  0.00    -0.339 OA
ATOM     14  O   LIG d   1      10.371   2.877  -6.136  0.00  0.00    -0.332 OA
ATOM     15  C   LIG d   1      11.602   3.135  -5.453  0.00  0.00     0.223 C 
ATOM     16  H   LIG d   1      12.115   2.193  -5.265  0.00  0.00     0.108 H 
ATOM     17  H   LIG d   1       7.733   2.693  -6.477  0.00  0.00     0.059 H 
ATOM     18  H   LIG d   1       8.450   1.181  -7.094  0.00  0.00     0.059 H 
ENDROOT
BRANCH  15  19
ATOM     19  O   LIG d   1      12.428   3.971  -6.265  0.00  0.00    -0.462 OA
BRANCH  19  20
ATOM     20  C   LIG d   1      11.808   4.952  -6.972  0.00  0.00     0.124 A 
ATOM     21  C   LIG d   1      11.434   6.131  -6.344  0.00  0.00    -0.018 A 
ATOM     22  C   LIG d   1      10.804   7.127  -7.065  0.00  0.00    -0.040 A 
ATOM     23  H   LIG d   1      11.635   6.271  -5.292  0.00  0.00     0.065 H 
ATOM     24  C   LIG d   1      10.545   6.949  -8.413  0.00  0.00     0.041 A 
ATOM     25  H   LIG d   1      10.512   8.045  -6.576  0.00  0.00     0.063 H 
ATOM     26  C   LIG d   1      10.918   5.774  -9.041  0.00  0.00    -0.040 A 
ATOM     27 CL   LIG d   1       9.753   8.202  -9.316  0.00  0.00    -0.084 Cl
ATOM     28  C   LIG d   1      11.552   4.778  -8.325  0.00  0.00    -0.018 A 
ATOM     29  H   LIG d   1      10.716   5.637 -10.093  0.00  0.00     0.063 H 
ATOM     30  H   LIG d   1      11.847   3.863  -8.816  0.00  0.00     0.065 H 
ENDBRANCH  19  20
ENDBRANCH  15  19
BRANCH   1  31
ATOM     31  N   LIG d   1      12.582   4.016  -3.393  0.00  0.00    -0.304 N 
ATOM     32  C   LIG d   1      12.833   5.177  -2.757  0.00  0.00     0.210 C 
ATOM     33  O   LIG d   1      12.018   6.076  -2.790  0.00  0.00    -0.276 OA
ATOM     34  H   LIG d   1      13.234   3.298  -3.367  0.00  0.00     0.149 HD
BRANCH  32  35
ATOM     35  C   LIG d   1      14.124   5.360  -2.002  0.00  0.00     0.012 C 
ATOM     36  H   LIG d   1      14.541   6.341  -2.227  0.00  0.00     0.032 H 
ATOM     37  H   LIG d   1      13.933   5.285  -0.931  0.00  0.00     0.032 H 
ATOM     38  H   LIG d   1      14.832   4.587  -2.299  0.00  0.00     0.032 H 
ENDBRANCH  32  35
ENDBRANCH   1  31
BRANCH   3  39
ATOM     39  O   LIG d   1      10.033   3.682  -2.078  0.00  0.00    -0.387 OA
ATOM     40  H   LIG d   1      10.592   3.451  -1.324  0.00  0.00     0.210 HD
ENDBRANCH   3  39
BRANCH  11  41
ATOM     41  C   LIG d   1       6.107   0.701  -3.323  0.00  0.00     0.008 A 
ATOM     42  C   LIG d   1       5.139   1.229  -2.488  0.00  0.00    -0.054 A 
ATOM     43  C   LIG d   1       4.330   0.387  -1.749  0.00  0.00    -0.061 A 
ATOM     44  H   LIG d   1       5.016   2.300  -2.415  0.00  0.00     0.062 H 
ATOM     45  C   LIG d   1       4.487  -0.983  -1.844  0.00  0.00    -0.062 A 
ATOM     46  H   LIG d   1       3.573   0.800  -1.098  0.00  0.00     0.062 H 
ATOM     47  C   LIG d   1       5.456  -1.511  -2.678  0.00  0.00    -0.061 A 
ATOM     48  H   LIG d   1       3.855  -1.641  -1.267  0.00  0.00     0.062 H 
ATOM     49  C   LIG d   1       6.262  -0.669  -3.421  0.00  0.00    -0.054 A 
ATOM     50  H   LIG d   1       5.579  -2.581  -2.751  0.00  0.00     0.062 H 
ATOM     51  H   LIG d   1       7.015  -1.083  -4.075  0.00  0.00     0.062 H 
ENDBRANCH  11  41
TORSDOF 6
ENDMDL
MODEL 10
REMARK VINA RESULT:      -6.2      4.752      7.222
REMARK  6 active torsions:
REMARK  status: ('A' for Active; 'I' for Inactive)
REMARK    1  A    between atoms: C_1  and  C_2 
REMARK       I    between atoms: C_2  and  N_4 
REMARK    2  A    between atoms: N_4  and  C_5 
REMARK    3  A    between atoms: C_7  and  O_35 
REMARK    4  A    between atoms: C_15  and  C_18 
REMARK    5  A    between atoms: C_25  and  O_27 
REMARK    6  A    between atoms: O_27  and  C_28 
ROOT
ATOM      1  C   LIG d   1       5.110  -0.456  -5.579  0.00  0.00     0.114 C 
ATOM      2  H   LIG d   1       5.275   0.621  -5.597  0.00  0.00     0.059 H 
ATOM      3  C   LIG d   1       3.985  -0.817  -6.556  0.00  0.00     0.108 C 
ATOM      4  H   LIG d   1       3.777  -1.885  -6.496  0.00  0.00     0.064 H 
ATOM      5  C   LIG d   1       4.440  -0.460  -7.971  0.00  0.00     0.118 C 
ATOM      6  H   LIG d   1       4.633   0.611  -8.032  0.00  0.00     0.065 H 
ATOM      7  C   LIG d   1       5.730  -1.230  -8.280  0.00  0.00     0.115 C 
ATOM      8  H   LIG d   1       5.543  -2.300  -8.194  0.00  0.00     0.065 H 
ATOM      9  C   LIG d   1       6.157  -0.900  -9.710  0.00  0.00     0.080 C 
ATOM     10  O   LIG d   1       5.069  -1.213 -10.589  0.00  0.00    -0.344 OA
ATOM     11  C   LIG d   1       3.852  -0.533 -10.281  0.00  0.00     0.186 C 
ATOM     12  H   LIG d   1       3.999   0.541 -10.392  0.00  0.00     0.096 H 
ATOM     13  O   LIG d   1       3.453  -0.821  -8.937  0.00  0.00    -0.339 OA
ATOM     14  O   LIG d   1       6.733  -0.847  -7.340  0.00  0.00    -0.332 OA
ATOM     15  C   LIG d   1       6.398  -1.175  -5.988  0.00  0.00     0.223 C 
ATOM     16  H   LIG d   1       6.253  -2.252  -5.903  0.00  0.00     0.108 H 
ATOM     17  H   LIG d   1       6.400   0.160  -9.787  0.00  0.00     0.059 H 
ATOM     18  H   LIG d   1       7.029  -1.497  -9.980  0.00  0.00     0.059 H 
ENDROOT
BRANCH  15  19
ATOM     19  O   LIG d   1       7.461  -0.770  -5.124  0.00  0.00    -0.462 OA
BRANCH  19  20
ATOM     20  C   LIG d   1       8.330  -1.735  -4.721  0.00  0.00     0.124 A 
ATOM     21  C   LIG d   1       9.634  -1.737  -5.193  0.00  0.00    -0.018 A 
ATOM     22  C   LIG d   1      10.515  -2.718  -4.781  0.00  0.00    -0.040 A 
ATOM     23  H   LIG d   1       9.961  -0.972  -5.882  0.00  0.00     0.065 H 
ATOM     24  C   LIG d   1      10.098  -3.699  -3.899  0.00  0.00     0.041 A 
ATOM     25  H   LIG d   1      11.531  -2.720  -5.149  0.00  0.00     0.063 H 
ATOM     26  C   LIG d   1       8.797  -3.698  -3.427  0.00  0.00    -0.040 A 
ATOM     27 CL   LIG d   1      11.207  -4.930  -3.383  0.00  0.00    -0.084 Cl
ATOM     28  C   LIG d   1       7.915  -2.716  -3.832  0.00  0.00    -0.018 A 
ATOM     29  H   LIG d   1       8.473  -4.463  -2.738  0.00  0.00     0.063 H 
ATOM     30  H   LIG d   1       6.901  -2.713  -3.460  0.00  0.00     0.065 H 
ENDBRANCH  19  20
ENDBRANCH  15  19
BRANCH   1  31
ATOM     31  N   LIG d   1       4.731  -0.868  -4.225  0.00  0.00    -0.304 N 
ATOM     32  C   LIG d   1       4.699   0.039  -3.229  0.00  0.00     0.210 C 
ATOM     33  O   LIG d   1       4.987   1.196  -3.452  0.00  0.00    -0.276 OA
ATOM     34  H   LIG d   1       4.501  -1.793  -4.046  0.00  0.00     0.149 HD
BRANCH  32  35
ATOM     35  C   LIG d   1       4.302  -0.384  -1.837  0.00  0.00     0.012 C 
ATOM     36  H   LIG d   1       4.460  -1.456  -1.725  0.00  0.00     0.032 H 
ATOM     37  H   LIG d   1       4.910   0.151  -1.108  0.00  0.00     0.032 H 
ATOM     38  H   LIG d   1       3.250  -0.152  -1.673  0.00  0.00     0.032 H 
ENDBRANCH  32  35
ENDBRANCH   1  31
BRANCH   3  39
ATOM     39  O   LIG d   1       2.808  -0.075  -6.229  0.00  0.00    -0.387 OA
ATOM     40  H   LIG d   1       2.037  -0.307  -6.764  0.00  0.00     0.210 HD
ENDBRANCH   3  39
BRANCH  11  41
ATOM     41  C   LIG d   1       2.773  -0.987 -11.230  0.00  0.00     0.008 A 
ATOM     42  C   LIG d   1       1.442  -0.835 -10.887  0.00  0.00    -0.054 A 
ATOM     43  C   LIG d   1       0.452  -1.252 -11.757  0.00  0.00    -0.061 A 
ATOM     44  H   LIG d   1       1.176  -0.391  -9.939  0.00  0.00     0.062 H 
ATOM     45  C   LIG d   1       0.792  -1.820 -12.971  0.00  0.00    -0.062 A 
ATOM     46  H   LIG d   1      -0.588  -1.132 -11.490  0.00  0.00     0.062 H 
ATOM     47  C   LIG d   1       2.123  -1.972 -13.313  0.00  0.00    -0.061 A 
ATOM     48  H   LIG d   1       0.019  -2.145 -13.651  0.00  0.00     0.062 H 
ATOM     49  C   LIG d   1       3.113  -1.551 -12.445  0.00  0.00    -0.054 A 
ATOM     50  H   LIG d   1       2.388  -2.417 -14.261  0.00  0.00     0.062 H 
ATOM     51  H   LIG d   1       4.152  -1.666 -12.716  0.00  0.00     0.062 H 
ENDBRANCH  11  41
TORSDOF 6
ENDMDL
