MODEL 1
REMARK VINA RESULT:      -7.0      0.000      0.000
REMARK  7 active torsions:
REMARK  status: ('A' for Active; 'I' for Inactive)
REMARK    1  A    between atoms: C_1  and  C_2 
REMARK    2  A    between atoms: C_2  and  C_4 
REMARK    3  A    between atoms: C_2  and  C_17 
REMARK    4  A    between atoms: C_17  and  C_27 
REMARK    5  A    between atoms: C_20  and  O_26 
REMARK    6  A    between atoms: C_22  and  C_24 
REMARK    7  A    between atoms: C_22  and  C_25 
ROOT
ATOM      1  C   LIG d   1       5.636  -1.163  -4.148  0.00  0.00     0.074 C 
ATOM      2  C   LIG d   1       4.522  -2.209  -4.188  0.00  0.00    -0.021 C 
ATOM      3  C   LIG d   1       3.586  -2.024  -2.994  0.00  0.00    -0.021 C 
ATOM      4  C   LIG d   1       2.989  -0.618  -3.049  0.00  0.00     0.084 C 
ATOM      5  H   LIG d   1       2.333  -0.471  -2.187  0.00  0.00     0.062 H 
ATOM      6  C   LIG d   1       4.101   0.430  -3.019  0.00  0.00     0.090 C 
ATOM      7  O   LIG d   1       5.153   0.137  -3.909  0.00  0.00    -0.365 OA
ATOM      8  H   LIG d   1       3.957  -2.106  -5.116  0.00  0.00     0.029 H 
ATOM      9  H   LIG d   1       4.961  -3.208  -4.153  0.00  0.00     0.029 H 
ATOM     10  H   LIG d   1       2.777  -2.759  -3.054  0.00  0.00     0.029 H 
ATOM     11  H   LIG d   1       4.124  -2.173  -2.062  0.00  0.00     0.029 H 
ENDROOT
BRANCH   1  12
ATOM     12  C   LIG d   1       6.339  -1.176  -5.523  0.00  0.00     0.015 C 
ATOM     13  H   LIG d   1       7.173  -1.877  -5.499  0.00  0.00     0.037 H 
BRANCH  12  14
ATOM     14  C   LIG d   1       6.863   0.227  -5.841  0.00  0.00    -0.056 C 
ATOM     15  H   LIG d   1       7.732   0.439  -5.220  0.00  0.00     0.024 H 
ATOM     16  H   LIG d   1       7.146   0.279  -6.892  0.00  0.00     0.024 H 
ATOM     17  H   LIG d   1       6.083   0.960  -5.638  0.00  0.00     0.024 H 
ENDBRANCH  12  14
BRANCH  12  18
ATOM     18  C   LIG d   1       5.357  -1.598  -6.584  0.00  0.00     0.014 A 
ATOM     19  C   LIG d   1       5.423  -2.853  -7.111  0.00  0.00    -0.032 A 
ATOM     20  N   LIG d   1       4.556  -3.285  -8.064  0.00  0.00    -0.367 N 
ATOM     21  O   LIG d   1       6.378  -3.697  -6.667  0.00  0.00    -0.861 OA
ATOM     22  C   LIG d   1       3.564  -2.466  -8.561  0.00  0.00     0.050 A 
ATOM     23  H   LIG d   1       4.641  -4.188  -8.406  0.00  0.00     0.165 HD
ATOM     24  C   LIG d   1       3.436  -1.156  -8.071  0.00  0.00     0.045 A 
ATOM     25  C   LIG d   1       2.687  -2.917  -9.542  0.00  0.00    -0.038 A 
ATOM     26  C   LIG d   1       4.375  -0.696  -7.032  0.00  0.00     0.192 A 
ATOM     27  C   LIG d   1       2.436  -0.320  -8.567  0.00  0.00    -0.049 A 
ATOM     28  O   LIG d   1       4.304   0.434  -6.574  0.00  0.00    -0.287 OA
ATOM     29  C   LIG d   1       1.578  -0.786  -9.537  0.00  0.00    -0.061 A 
ATOM     30  H   LIG d   1       2.335   0.688  -8.190  0.00  0.00     0.062 H 
ATOM     31  C   LIG d   1       1.703  -2.080 -10.023  0.00  0.00    -0.060 A 
ATOM     32  H   LIG d   1       0.802  -0.141  -9.923  0.00  0.00     0.062 H 
ATOM     33  H   LIG d   1       1.024  -2.434 -10.784  0.00  0.00     0.062 H 
ATOM     34  H   LIG d   1       2.776  -3.923  -9.927  0.00  0.00     0.064 H 
ENDBRANCH  12  18
ENDBRANCH   1  12
BRANCH   1  35
ATOM     35  C   LIG d   1       6.677  -1.569  -3.097  0.00  0.00    -0.035 C 
ATOM     36  H   LIG d   1       7.108  -2.532  -3.367  0.00  0.00     0.026 H 
ATOM     37  H   LIG d   1       7.463  -0.817  -3.055  0.00  0.00     0.026 H 
ATOM     38  H   LIG d   1       6.197  -1.646  -2.121  0.00  0.00     0.026 H 
ENDBRANCH   1  35
BRANCH   6  39
ATOM     39  C   LIG d   1       3.482   1.783  -3.427  0.00  0.00    -0.034 C 
ATOM     40  H   LIG d   1       4.262   2.438  -3.814  0.00  0.00     0.026 H 
ATOM     41  H   LIG d   1       2.728   1.620  -4.198  0.00  0.00     0.026 H 
ATOM     42  H   LIG d   1       3.017   2.247  -2.556  0.00  0.00     0.026 H 
ENDBRANCH   6  39
BRANCH   6  43
ATOM     43  C   LIG d   1       4.621   0.578  -1.583  0.00  0.00    -0.034 C 
ATOM     44  H   LIG d   1       5.695   0.763  -1.603  0.00  0.00     0.026 H 
ATOM     45  H   LIG d   1       4.118   1.414  -1.099  0.00  0.00     0.026 H 
ATOM     46  H   LIG d   1       4.421  -0.339  -1.028  0.00  0.00     0.026 H 
ENDBRANCH   6  43
BRANCH   4  47
ATOM     47  O   LIG d   1       2.222  -0.468  -4.246  0.00  0.00    -0.389 OA
ATOM     48  H   LIG d   1       2.756  -0.349  -5.042  0.00  0.00     0.210 HD
ENDBRANCH   4  47
TORSDOF 7
ENDMDL
MODEL 2
REMARK VINA RESULT:      -6.8      2.035      2.617
REMARK  7 active torsions:
REMARK  status: ('A' for Active; 'I' for Inactive)
REMARK    1  A    between atoms: C_1  and  C_2 
REMARK    2  A    between atoms: C_2  and  C_4 
REMARK    3  A    between atoms: C_2  and  C_17 
REMARK    4  A    between atoms: C_17  and  C_27 
REMARK    5  A    between atoms: C_20  and  O_26 
REMARK    6  A    between atoms: C_22  and  C_24 
REMARK    7  A    between atoms: C_22  and  C_25 
ROOT
ATOM      1  C   LIG d   1       6.012  -0.398  -4.136  0.00  0.00     0.074 C 
ATOM      2  C   LIG d   1       5.704  -1.642  -3.302  0.00  0.00    -0.021 C 
ATOM      3  C   LIG d   1       4.642  -1.321  -2.251  0.00  0.00    -0.021 C 
ATOM      4  C   LIG d   1       3.377  -0.838  -2.961  0.00  0.00     0.084 C 
ATOM      5  H   LIG d   1       2.618  -0.587  -2.215  0.00  0.00     0.062 H 
ATOM      6  C   LIG d   1       3.683   0.400  -3.803  0.00  0.00     0.090 C 
ATOM      7  O   LIG d   1       4.848   0.259  -4.581  0.00  0.00    -0.365 OA
ATOM      8  H   LIG d   1       5.344  -2.440  -3.954  0.00  0.00     0.029 H 
ATOM      9  H   LIG d   1       6.616  -1.979  -2.804  0.00  0.00     0.029 H 
ATOM     10  H   LIG d   1       4.411  -2.228  -1.683  0.00  0.00     0.029 H 
ATOM     11  H   LIG d   1       5.005  -0.562  -1.562  0.00  0.00     0.029 H 
ENDROOT
BRANCH   1  12
ATOM     12  C   LIG d   1       6.819  -0.851  -5.372  0.00  0.00     0.015 C 
ATOM     13  H   LIG d   1       6.798  -1.938  -5.441  0.00  0.00     0.037 H 
BRANCH  12  14
ATOM     14  C   LIG d   1       8.267  -0.376  -5.238  0.00  0.00    -0.056 C 
ATOM     15  H   LIG d   1       8.417   0.510  -5.855  0.00  0.00     0.024 H 
ATOM     16  H   LIG d   1       8.474  -0.132  -4.196  0.00  0.00     0.024 H 
ATOM     17  H   LIG d   1       8.940  -1.166  -5.567  0.00  0.00     0.024 H 
ENDBRANCH  12  14
BRANCH  12  18
ATOM     18  C   LIG d   1       6.207  -0.256  -6.614  0.00  0.00     0.014 A 
ATOM     19  C   LIG d   1       6.635   0.955  -7.069  0.00  0.00    -0.032 A 
ATOM     20  N   LIG d   1       6.122   1.531  -8.187  0.00  0.00    -0.367 N 
ATOM     21  O   LIG d   1       7.606   1.601  -6.389  0.00  0.00    -0.861 OA
ATOM     22  C   LIG d   1       5.125   0.922  -8.919  0.00  0.00     0.050 A 
ATOM     23  H   LIG d   1       6.461   2.393  -8.474  0.00  0.00     0.165 HD
ATOM     24  C   LIG d   1       4.627  -0.326  -8.510  0.00  0.00     0.045 A 
ATOM     25  C   LIG d   1       4.602   1.525 -10.059  0.00  0.00    -0.038 A 
ATOM     26  C   LIG d   1       5.194  -0.949  -7.299  0.00  0.00     0.192 A 
ATOM     27  C   LIG d   1       3.619  -0.950  -9.243  0.00  0.00    -0.049 A 
ATOM     28  O   LIG d   1       4.795  -2.033  -6.903  0.00  0.00    -0.287 OA
ATOM     29  C   LIG d   1       3.115  -0.337 -10.368  0.00  0.00    -0.061 A 
ATOM     30  H   LIG d   1       3.235  -1.911  -8.930  0.00  0.00     0.062 H 
ATOM     31  C   LIG d   1       3.606   0.897 -10.774  0.00  0.00    -0.060 A 
ATOM     32  H   LIG d   1       2.334  -0.818 -10.938  0.00  0.00     0.062 H 
ATOM     33  H   LIG d   1       3.203   1.367 -11.658  0.00  0.00     0.062 H 
ATOM     34  H   LIG d   1       4.977   2.485 -10.384  0.00  0.00     0.064 H 
ENDBRANCH  12  18
ENDBRANCH   1  12
BRANCH   1  35
ATOM     35  C   LIG d   1       6.905   0.549  -3.325  0.00  0.00    -0.035 C 
ATOM     36  H   LIG d   1       7.477   1.180  -4.007  0.00  0.00     0.026 H 
ATOM     37  H   LIG d   1       6.285   1.175  -2.685  0.00  0.00     0.026 H 
ATOM     38  H   LIG d   1       7.590  -0.034  -2.710  0.00  0.00     0.026 H 
ENDBRANCH   1  35
BRANCH   6  39
ATOM     39  C   LIG d   1       2.489   0.628  -4.754  0.00  0.00    -0.034 C 
ATOM     40  H   LIG d   1       2.640   0.057  -5.669  0.00  0.00     0.026 H 
ATOM     41  H   LIG d   1       1.570   0.300  -4.267  0.00  0.00     0.026 H 
ATOM     42  H   LIG d   1       2.414   1.689  -4.995  0.00  0.00     0.026 H 
ENDBRANCH   6  39
BRANCH   6  43
ATOM     43  C   LIG d   1       3.780   1.627  -2.887  0.00  0.00    -0.034 C 
ATOM     44  H   LIG d   1       2.818   2.139  -2.863  0.00  0.00     0.026 H 
ATOM     45  H   LIG d   1       4.047   1.309  -1.880  0.00  0.00     0.026 H 
ATOM     46  H   LIG d   1       4.544   2.305  -3.269  0.00  0.00     0.026 H 
ENDBRANCH   6  43
BRANCH   4  47
ATOM     47  O   LIG d   1       2.873  -1.877  -3.803  0.00  0.00    -0.389 OA
ATOM     48  H   LIG d   1       3.465  -2.118  -4.527  0.00  0.00     0.210 HD
ENDBRANCH   4  47
TORSDOF 7
ENDMDL
MODEL 3
REMARK VINA RESULT:      -6.6      2.690      3.776
REMARK  7 active torsions:
REMARK  status: ('A' for Active; 'I' for Inactive)
REMARK    1  A    between atoms: C_1  and  C_2 
REMARK    2  A    between atoms: C_2  and  C_4 
REMARK    3  A    between atoms: C_2  and  C_17 
REMARK    4  A    between atoms: C_17  and  C_27 
REMARK    5  A    between atoms: C_20  and  O_26 
REMARK    6  A    between atoms: C_22  and  C_24 
REMARK    7  A    between atoms: C_22  and  C_25 
ROOT
ATOM      1  C   LIG d   1       5.980  -0.228  -4.123  0.00  0.00     0.074 C 
ATOM      2  C   LIG d   1       5.814  -1.415  -3.173  0.00  0.00    -0.021 C 
ATOM      3  C   LIG d   1       4.756  -1.098  -2.116  0.00  0.00    -0.021 C 
ATOM      4  C   LIG d   1       3.432  -0.798  -2.819  0.00  0.00     0.084 C 
ATOM      5  H   LIG d   1       2.674  -0.551  -2.071  0.00  0.00     0.062 H 
ATOM      6  C   LIG d   1       3.596   0.382  -3.776  0.00  0.00     0.090 C 
ATOM      7  O   LIG d   1       4.748   0.277  -4.581  0.00  0.00    -0.365 OA
ATOM      8  H   LIG d   1       5.512  -2.297  -3.740  0.00  0.00     0.029 H 
ATOM      9  H   LIG d   1       6.767  -1.621  -2.681  0.00  0.00     0.029 H 
ATOM     10  H   LIG d   1       4.627  -1.967  -1.464  0.00  0.00     0.029 H 
ATOM     11  H   LIG d   1       5.066  -0.250  -1.510  0.00  0.00     0.029 H 
ENDROOT
BRANCH   1  12
ATOM     12  C   LIG d   1       6.790  -0.715  -5.343  0.00  0.00     0.015 C 
ATOM     13  H   LIG d   1       7.813  -0.345  -5.272  0.00  0.00     0.037 H 
BRANCH  12  14
ATOM     14  C   LIG d   1       6.146  -0.188  -6.627  0.00  0.00    -0.056 C 
ATOM     15  H   LIG d   1       6.771  -0.449  -7.481  0.00  0.00     0.024 H 
ATOM     16  H   LIG d   1       5.160  -0.636  -6.750  0.00  0.00     0.024 H 
ATOM     17  H   LIG d   1       6.048   0.895  -6.566  0.00  0.00     0.024 H 
ENDBRANCH  12  14
BRANCH  12  18
ATOM     18  C   LIG d   1       6.801  -2.222  -5.368  0.00  0.00     0.014 A 
ATOM     19  C   LIG d   1       7.934  -2.899  -5.033  0.00  0.00    -0.032 A 
ATOM     20  N   LIG d   1       7.993  -4.257  -5.033  0.00  0.00    -0.367 N 
ATOM     21  O   LIG d   1       9.033  -2.198  -4.683  0.00  0.00    -0.861 OA
ATOM     22  C   LIG d   1       6.905  -5.026  -5.387  0.00  0.00     0.050 A 
ATOM     23  H   LIG d   1       8.822  -4.694  -4.783  0.00  0.00     0.165 HD
ATOM     24  C   LIG d   1       5.702  -4.400  -5.751  0.00  0.00     0.045 A 
ATOM     25  C   LIG d   1       6.980  -6.416  -5.389  0.00  0.00    -0.038 A 
ATOM     26  C   LIG d   1       5.642  -2.926  -5.742  0.00  0.00     0.192 A 
ATOM     27  C   LIG d   1       4.596  -5.168  -6.110  0.00  0.00    -0.049 A 
ATOM     28  O   LIG d   1       4.619  -2.335  -6.051  0.00  0.00    -0.287 OA
ATOM     29  C   LIG d   1       4.690  -6.542  -6.107  0.00  0.00    -0.061 A 
ATOM     30  H   LIG d   1       3.669  -4.688  -6.390  0.00  0.00     0.062 H 
ATOM     31  C   LIG d   1       5.879  -7.162  -5.747  0.00  0.00    -0.060 A 
ATOM     32  H   LIG d   1       3.835  -7.140  -6.384  0.00  0.00     0.062 H 
ATOM     33  H   LIG d   1       5.940  -8.240  -5.747  0.00  0.00     0.062 H 
ATOM     34  H   LIG d   1       7.900  -6.908  -5.111  0.00  0.00     0.064 H 
ENDBRANCH  12  18
ENDBRANCH   1  12
BRANCH   1  35
ATOM     35  C   LIG d   1       6.803   0.865  -3.431  0.00  0.00    -0.035 C 
ATOM     36  H   LIG d   1       7.130   0.509  -2.455  0.00  0.00     0.026 H 
ATOM     37  H   LIG d   1       7.672   1.106  -4.041  0.00  0.00     0.026 H 
ATOM     38  H   LIG d   1       6.189   1.758  -3.305  0.00  0.00     0.026 H 
ENDBRANCH   1  35
BRANCH   6  39
ATOM     39  C   LIG d   1       2.360   0.413  -4.699  0.00  0.00    -0.034 C 
ATOM     40  H   LIG d   1       2.170   1.438  -5.017  0.00  0.00     0.026 H 
ATOM     41  H   LIG d   1       2.544  -0.211  -5.574  0.00  0.00     0.026 H 
ATOM     42  H   LIG d   1       1.493   0.033  -4.158  0.00  0.00     0.026 H 
ENDBRANCH   6  39
BRANCH   6  43
ATOM     43  C   LIG d   1       3.603   1.690  -2.975  0.00  0.00    -0.034 C 
ATOM     44  H   LIG d   1       2.784   1.681  -2.257  0.00  0.00     0.026 H 
ATOM     45  H   LIG d   1       4.550   1.786  -2.444  0.00  0.00     0.026 H 
ATOM     46  H   LIG d   1       3.481   2.533  -3.656  0.00  0.00     0.026 H 
ENDBRANCH   6  43
BRANCH   4  47
ATOM     47  O   LIG d   1       3.003  -1.950  -3.548  0.00  0.00    -0.389 OA
ATOM     48  H   LIG d   1       2.837  -1.783  -4.485  0.00  0.00     0.210 HD
ENDBRANCH   4  47
TORSDOF 7
ENDMDL
MODEL 4
REMARK VINA RESULT:      -6.4      2.163      5.750
REMARK  7 active torsions:
REMARK  status: ('A' for Active; 'I' for Inactive)
REMARK    1  A    between atoms: C_1  and  C_2 
REMARK    2  A    between atoms: C_2  and  C_4 
REMARK    3  A    between atoms: C_2  and  C_17 
REMARK    4  A    between atoms: C_17  and  C_27 
REMARK    5  A    between atoms: C_20  and  O_26 
REMARK    6  A    between atoms: C_22  and  C_24 
REMARK    7  A    between atoms: C_22  and  C_25 
ROOT
ATOM      1  C   LIG d   1       5.222  -0.974  -9.070  0.00  0.00     0.074 C 
ATOM      2  C   LIG d   1       5.807  -0.194 -10.248  0.00  0.00    -0.021 C 
ATOM      3  C   LIG d   1       4.687   0.478 -11.042  0.00  0.00    -0.021 C 
ATOM      4  C   LIG d   1       3.923   1.422 -10.113  0.00  0.00     0.084 C 
ATOM      5  H   LIG d   1       3.107   1.892 -10.669  0.00  0.00     0.062 H 
ATOM      6  C   LIG d   1       3.345   0.647  -8.930  0.00  0.00     0.090 C 
ATOM      7  O   LIG d   1       4.277  -0.227  -8.339  0.00  0.00    -0.365 OA
ATOM      8  H   LIG d   1       6.498   0.565  -9.876  0.00  0.00     0.029 H 
ATOM      9  H   LIG d   1       6.353  -0.879 -10.900  0.00  0.00     0.029 H 
ATOM     10  H   LIG d   1       5.124   1.057 -11.861  0.00  0.00     0.029 H 
ATOM     11  H   LIG d   1       4.017  -0.269 -11.460  0.00  0.00     0.029 H 
ENDROOT
BRANCH   1  12
ATOM     12  C   LIG d   1       6.387  -1.342  -8.127  0.00  0.00     0.015 C 
ATOM     13  H   LIG d   1       7.272  -0.768  -8.401  0.00  0.00     0.037 H 
BRANCH  12  14
ATOM     14  C   LIG d   1       6.691  -2.836  -8.249  0.00  0.00    -0.056 C 
ATOM     15  H   LIG d   1       6.139  -3.383  -7.484  0.00  0.00     0.024 H 
ATOM     16  H   LIG d   1       6.389  -3.189  -9.236  0.00  0.00     0.024 H 
ATOM     17  H   LIG d   1       7.759  -3.002  -8.115  0.00  0.00     0.024 H 
ENDBRANCH  12  14
BRANCH  12  18
ATOM     18  C   LIG d   1       6.000  -1.022  -6.705  0.00  0.00     0.014 A 
ATOM     19  C   LIG d   1       6.333   0.182  -6.165  0.00  0.00    -0.032 A 
ATOM     20  N   LIG d   1       6.002   0.522  -4.892  0.00  0.00    -0.367 N 
ATOM     21  O   LIG d   1       7.010   1.072  -6.922  0.00  0.00    -0.861 OA
ATOM     22  C   LIG d   1       5.317  -0.347  -4.069  0.00  0.00     0.050 A 
ATOM     23  H   LIG d   1       6.259   1.393  -4.552  0.00  0.00     0.165 HD
ATOM     24  C   LIG d   1       4.943  -1.612  -4.553  0.00  0.00     0.045 A 
ATOM     25  C   LIG d   1       4.989   0.009  -2.764  0.00  0.00    -0.038 A 
ATOM     26  C   LIG d   1       5.299  -1.970  -5.938  0.00  0.00     0.192 A 
ATOM     27  C   LIG d   1       4.250  -2.498  -3.730  0.00  0.00    -0.049 A 
ATOM     28  O   LIG d   1       4.997  -3.057  -6.406  0.00  0.00    -0.287 OA
ATOM     29  C   LIG d   1       3.935  -2.126  -2.442  0.00  0.00    -0.061 A 
ATOM     30  H   LIG d   1       3.961  -3.471  -4.101  0.00  0.00     0.062 H 
ATOM     31  C   LIG d   1       4.303  -0.877  -1.962  0.00  0.00    -0.060 A 
ATOM     32  H   LIG d   1       3.398  -2.810  -1.802  0.00  0.00     0.062 H 
ATOM     33  H   LIG d   1       4.050  -0.598  -0.950  0.00  0.00     0.062 H 
ATOM     34  H   LIG d   1       5.271   0.978  -2.381  0.00  0.00     0.064 H 
ENDBRANCH  12  18
ENDBRANCH   1  12
BRANCH   1  35
ATOM     35  C   LIG d   1       4.613  -2.285  -9.581  0.00  0.00    -0.035 C 
ATOM     36  H   LIG d   1       3.598  -2.388  -9.196  0.00  0.00     0.026 H 
ATOM     37  H   LIG d   1       4.589  -2.275 -10.670  0.00  0.00     0.026 H 
ATOM     38  H   LIG d   1       5.218  -3.125  -9.239  0.00  0.00     0.026 H 
ENDBRANCH   1  35
BRANCH   6  39
ATOM     39  C   LIG d   1       2.902   1.675  -7.867  0.00  0.00    -0.034 C 
ATOM     40  H   LIG d   1       2.923   1.210  -6.882  0.00  0.00     0.026 H 
ATOM     41  H   LIG d   1       3.580   2.528  -7.883  0.00  0.00     0.026 H 
ATOM     42  H   LIG d   1       1.888   2.012  -8.088  0.00  0.00     0.026 H 
ENDBRANCH   6  39
BRANCH   6  43
ATOM     43  C   LIG d   1       2.091  -0.112  -9.383  0.00  0.00    -0.034 C 
ATOM     44  H   LIG d   1       1.459  -0.319  -8.520  0.00  0.00     0.026 H 
ATOM     45  H   LIG d   1       1.538   0.494 -10.101  0.00  0.00     0.026 H 
ATOM     46  H   LIG d   1       2.386  -1.052  -9.851  0.00  0.00     0.026 H 
ENDBRANCH   6  43
BRANCH   4  47
ATOM     47  O   LIG d   1       4.803   2.441  -9.634  0.00  0.00    -0.389 OA
ATOM     48  H   LIG d   1       5.741   2.222  -9.718  0.00  0.00     0.210 HD
ENDBRANCH   4  47
TORSDOF 7
ENDMDL
MODEL 5
REMARK VINA RESULT:      -6.2      1.867      5.481
REMARK  7 active torsions:
REMARK  status: ('A' for Active; 'I' for Inactive)
REMARK    1  A    between atoms: C_1  and  C_2 
REMARK    2  A    between atoms: C_2  and  C_4 
REMARK    3  A    between atoms: C_2  and  C_17 
REMARK    4  A    between atoms: C_17  and  C_27 
REMARK    5  A    between atoms: C_20  and  O_26 
REMARK    6  A    between atoms: C_22  and  C_24 
REMARK    7  A    between atoms: C_22  and  C_25 
ROOT
ATOM      1  C   LIG d   1       5.090  -1.302  -8.817  0.00  0.00     0.074 C 
ATOM      2  C   LIG d   1       5.889  -0.367  -9.725  0.00  0.00    -0.021 C 
ATOM      3  C   LIG d   1       4.940   0.519 -10.531  0.00  0.00    -0.021 C 
ATOM      4  C   LIG d   1       4.083   1.334  -9.562  0.00  0.00     0.084 C 
ATOM      5  H   LIG d   1       3.387   1.956 -10.131  0.00  0.00     0.062 H 
ATOM      6  C   LIG d   1       3.290   0.402  -8.646  0.00  0.00     0.090 C 
ATOM      7  O   LIG d   1       4.077  -0.632  -8.103  0.00  0.00    -0.365 OA
ATOM      8  H   LIG d   1       6.546   0.258  -9.118  0.00  0.00     0.029 H 
ATOM      9  H   LIG d   1       6.499  -0.960 -10.409  0.00  0.00     0.029 H 
ATOM     10  H   LIG d   1       5.526   1.204 -11.152  0.00  0.00     0.029 H 
ATOM     11  H   LIG d   1       4.311  -0.086 -11.179  0.00  0.00     0.029 H 
ENDROOT
BRANCH   1  12
ATOM     12  C   LIG d   1       6.073  -1.921  -7.800  0.00  0.00     0.015 C 
ATOM     13  H   LIG d   1       7.036  -1.414  -7.871  0.00  0.00     0.037 H 
BRANCH  12  14
ATOM     14  C   LIG d   1       6.257  -3.408  -8.109  0.00  0.00    -0.056 C 
ATOM     15  H   LIG d   1       6.735  -3.521  -9.082  0.00  0.00     0.024 H 
ATOM     16  H   LIG d   1       6.883  -3.864  -7.342  0.00  0.00     0.024 H 
ATOM     17  H   LIG d   1       5.284  -3.899  -8.123  0.00  0.00     0.024 H 
ENDBRANCH  12  14
BRANCH  12  18
ATOM     18  C   LIG d   1       5.521  -1.760  -6.407  0.00  0.00     0.014 A 
ATOM     19  C   LIG d   1       4.688  -2.707  -5.893  0.00  0.00    -0.032 A 
ATOM     20  N   LIG d   1       4.169  -2.613  -4.641  0.00  0.00    -0.367 N 
ATOM     21  O   LIG d   1       4.372  -3.778  -6.652  0.00  0.00    -0.861 OA
ATOM     22  C   LIG d   1       4.451  -1.540  -3.823  0.00  0.00     0.050 A 
ATOM     23  H   LIG d   1       3.583  -3.315  -4.318  0.00  0.00     0.165 HD
ATOM     24  C   LIG d   1       5.298  -0.519  -4.284  0.00  0.00     0.045 A 
ATOM     25  C   LIG d   1       3.908  -1.451  -2.545  0.00  0.00    -0.038 A 
ATOM     26  C   LIG d   1       5.864  -0.631  -5.642  0.00  0.00     0.192 A 
ATOM     27  C   LIG d   1       5.590   0.570  -3.465  0.00  0.00    -0.049 A 
ATOM     28  O   LIG d   1       6.605   0.229  -6.089  0.00  0.00    -0.287 OA
ATOM     29  C   LIG d   1       5.043   0.639  -2.204  0.00  0.00    -0.061 A 
ATOM     30  H   LIG d   1       6.243   1.356  -3.818  0.00  0.00     0.062 H 
ATOM     31  C   LIG d   1       4.205  -0.368  -1.746  0.00  0.00    -0.060 A 
ATOM     32  H   LIG d   1       5.267   1.482  -1.566  0.00  0.00     0.062 H 
ATOM     33  H   LIG d   1       3.783  -0.303  -0.754  0.00  0.00     0.062 H 
ATOM     34  H   LIG d   1       3.255  -2.230  -2.179  0.00  0.00     0.064 H 
ENDBRANCH  12  18
ENDBRANCH   1  12
BRANCH   1  35
ATOM     35  C   LIG d   1       4.510  -2.449  -9.652  0.00  0.00    -0.035 C 
ATOM     36  H   LIG d   1       3.576  -2.788  -9.204  0.00  0.00     0.026 H 
ATOM     37  H   LIG d   1       4.321  -2.101 -10.667  0.00  0.00     0.026 H 
ATOM     38  H   LIG d   1       5.220  -3.276  -9.679  0.00  0.00     0.026 H 
ENDBRANCH   1  35
BRANCH   6  39
ATOM     39  C   LIG d   1       2.733   1.250  -7.483  0.00  0.00    -0.034 C 
ATOM     40  H   LIG d   1       1.767   0.851  -7.173  0.00  0.00     0.026 H 
ATOM     41  H   LIG d   1       3.427   1.216  -6.643  0.00  0.00     0.026 H 
ATOM     42  H   LIG d   1       2.611   2.283  -7.812  0.00  0.00     0.026 H 
ENDBRANCH   6  39
BRANCH   6  43
ATOM     43  C   LIG d   1       2.090  -0.167  -9.415  0.00  0.00    -0.034 C 
ATOM     44  H   LIG d   1       2.190  -1.248  -9.496  0.00  0.00     0.026 H 
ATOM     45  H   LIG d   1       1.170   0.074  -8.882  0.00  0.00     0.026 H 
ATOM     46  H   LIG d   1       2.058   0.272 -10.413  0.00  0.00     0.026 H 
ENDBRANCH   6  43
BRANCH   4  47
ATOM     47  O   LIG d   1       4.922   2.180  -8.773  0.00  0.00    -0.389 OA
ATOM     48  H   LIG d   1       5.267   2.947  -9.250  0.00  0.00     0.210 HD
ENDBRANCH   4  47
TORSDOF 7
ENDMDL
MODEL 6
REMARK VINA RESULT:      -6.1      2.162      5.633
REMARK  7 active torsions:
REMARK  status: ('A' for Active; 'I' for Inactive)
REMARK    1  A    between atoms: C_1  and  C_2 
REMARK    2  A    between atoms: C_2  and  C_4 
REMARK    3  A    between atoms: C_2  and  C_17 
REMARK    4  A    between atoms: C_17  and  C_27 
REMARK    5  A    between atoms: C_20  and  O_26 
REMARK    6  A    between atoms: C_22  and  C_24 
REMARK    7  A    between atoms: C_22  and  C_25 
ROOT
ATOM      1  C   LIG d   1       4.804  -0.106  -9.027  0.00  0.00     0.074 C 
ATOM      2  C   LIG d   1       5.497  -0.995 -10.059  0.00  0.00    -0.021 C 
ATOM      3  C   LIG d   1       6.810  -0.354 -10.509  0.00  0.00    -0.021 C 
ATOM      4  C   LIG d   1       7.710  -0.167  -9.287  0.00  0.00     0.084 C 
ATOM      5  H   LIG d   1       8.644   0.309  -9.597  0.00  0.00     0.062 H 
ATOM      6  C   LIG d   1       7.017   0.714  -8.249  0.00  0.00     0.090 C 
ATOM      7  O   LIG d   1       5.679   0.337  -8.016  0.00  0.00    -0.365 OA
ATOM      8  H   LIG d   1       5.699  -1.974  -9.621  0.00  0.00     0.029 H 
ATOM      9  H   LIG d   1       4.842  -1.124 -10.924  0.00  0.00     0.029 H 
ATOM     10  H   LIG d   1       7.308  -1.017 -11.223  0.00  0.00     0.029 H 
ATOM     11  H   LIG d   1       6.621   0.601 -10.992  0.00  0.00     0.029 H 
ENDROOT
BRANCH   1  12
ATOM     12  C   LIG d   1       3.683  -0.938  -8.369  0.00  0.00     0.015 C 
ATOM     13  H   LIG d   1       3.662  -1.934  -8.810  0.00  0.00     0.037 H 
BRANCH  12  14
ATOM     14  C   LIG d   1       2.335  -0.251  -8.598  0.00  0.00    -0.056 C 
ATOM     15  H   LIG d   1       1.539  -0.994  -8.570  0.00  0.00     0.024 H 
ATOM     16  H   LIG d   1       2.167   0.491  -7.817  0.00  0.00     0.024 H 
ATOM     17  H   LIG d   1       2.339   0.240  -9.571  0.00  0.00     0.024 H 
ENDBRANCH  12  14
BRANCH  12  18
ATOM     18  C   LIG d   1       3.945  -1.049  -6.889  0.00  0.00     0.014 A 
ATOM     19  C   LIG d   1       4.610  -2.130  -6.396  0.00  0.00    -0.032 A 
ATOM     20  N   LIG d   1       4.877  -2.275  -5.071  0.00  0.00    -0.367 N 
ATOM     21  O   LIG d   1       5.022  -3.088  -7.252  0.00  0.00    -0.861 OA
ATOM     22  C   LIG d   1       4.475  -1.333  -4.148  0.00  0.00     0.050 A 
ATOM     23  H   LIG d   1       5.357  -3.061  -4.768  0.00  0.00     0.165 HD
ATOM     24  C   LIG d   1       3.779  -0.192  -4.579  0.00  0.00     0.045 A 
ATOM     25  C   LIG d   1       4.749  -1.494  -2.793  0.00  0.00    -0.038 A 
ATOM     26  C   LIG d   1       3.498  -0.038  -6.019  0.00  0.00     0.192 A 
ATOM     27  C   LIG d   1       3.368   0.767  -3.654  0.00  0.00    -0.049 A 
ATOM     28  O   LIG d   1       2.896   0.936  -6.443  0.00  0.00    -0.287 OA
ATOM     29  C   LIG d   1       3.649   0.588  -2.318  0.00  0.00    -0.061 A 
ATOM     30  H   LIG d   1       2.833   1.646  -3.984  0.00  0.00     0.062 H 
ATOM     31  C   LIG d   1       4.337  -0.539  -1.890  0.00  0.00    -0.060 A 
ATOM     32  H   LIG d   1       3.332   1.329  -1.599  0.00  0.00     0.062 H 
ATOM     33  H   LIG d   1       4.551  -0.667  -0.840  0.00  0.00     0.062 H 
ATOM     34  H   LIG d   1       5.284  -2.368  -2.450  0.00  0.00     0.064 H 
ENDBRANCH  12  18
ENDBRANCH   1  12
BRANCH   1  35
ATOM     35  C   LIG d   1       4.139   1.078  -9.740  0.00  0.00    -0.035 C 
ATOM     36  H   LIG d   1       4.606   1.223 -10.715  0.00  0.00     0.026 H 
ATOM     37  H   LIG d   1       3.078   0.873  -9.872  0.00  0.00     0.026 H 
ATOM     38  H   LIG d   1       4.264   1.980  -9.141  0.00  0.00     0.026 H 
ENDBRANCH   1  35
BRANCH   6  39
ATOM     39  C   LIG d   1       7.796   0.581  -6.924  0.00  0.00    -0.034 C 
ATOM     40  H   LIG d   1       8.804   0.976  -7.054  0.00  0.00     0.026 H 
ATOM     41  H   LIG d   1       7.283   1.141  -6.143  0.00  0.00     0.026 H 
ATOM     42  H   LIG d   1       7.852  -0.471  -6.640  0.00  0.00     0.026 H 
ENDBRANCH   6  39
BRANCH   6  43
ATOM     43  C   LIG d   1       7.105   2.182  -8.687  0.00  0.00    -0.034 C 
ATOM     44  H   LIG d   1       6.214   2.714  -8.356  0.00  0.00     0.026 H 
ATOM     45  H   LIG d   1       7.988   2.641  -8.244  0.00  0.00     0.026 H 
ATOM     46  H   LIG d   1       7.176   2.232  -9.774  0.00  0.00     0.026 H 
ENDBRANCH   6  43
BRANCH   4  47
ATOM     47  O   LIG d   1       8.009  -1.440  -8.711  0.00  0.00    -0.389 OA
ATOM     48  H   LIG d   1       8.329  -2.094  -9.347  0.00  0.00     0.210 HD
ENDBRANCH   4  47
TORSDOF 7
ENDMDL
MODEL 7
REMARK VINA RESULT:      -6.0      1.084      2.381
REMARK  7 active torsions:
REMARK  status: ('A' for Active; 'I' for Inactive)
REMARK    1  A    between atoms: C_1  and  C_2 
REMARK    2  A    between atoms: C_2  and  C_4 
REMARK    3  A    between atoms: C_2  and  C_17 
REMARK    4  A    between atoms: C_17  and  C_27 
REMARK    5  A    between atoms: C_20  and  O_26 
REMARK    6  A    between atoms: C_22  and  C_24 
REMARK    7  A    between atoms: C_22  and  C_25 
ROOT
ATOM      1  C   LIG d   1       5.729  -1.208  -4.088  0.00  0.00     0.074 C 
ATOM      2  C   LIG d   1       4.677  -2.317  -4.077  0.00  0.00    -0.021 C 
ATOM      3  C   LIG d   1       3.747  -2.147  -2.876  0.00  0.00    -0.021 C 
ATOM      4  C   LIG d   1       3.068  -0.780  -2.968  0.00  0.00     0.084 C 
ATOM      5  H   LIG d   1       2.416  -0.642  -2.102  0.00  0.00     0.062 H 
ATOM      6  C   LIG d   1       4.117   0.331  -2.990  0.00  0.00     0.090 C 
ATOM      7  O   LIG d   1       5.173   0.070  -3.885  0.00  0.00    -0.365 OA
ATOM      8  H   LIG d   1       4.095  -2.279  -4.999  0.00  0.00     0.029 H 
ATOM      9  H   LIG d   1       5.175  -3.287  -4.014  0.00  0.00     0.029 H 
ATOM     10  H   LIG d   1       2.982  -2.929  -2.899  0.00  0.00     0.029 H 
ATOM     11  H   LIG d   1       4.305  -2.232  -1.947  0.00  0.00     0.029 H 
ENDROOT
BRANCH   1  12
ATOM     12  C   LIG d   1       6.413  -1.226  -5.472  0.00  0.00     0.015 C 
ATOM     13  H   LIG d   1       7.342  -1.794  -5.411  0.00  0.00     0.037 H 
BRANCH  12  14
ATOM     14  C   LIG d   1       6.722   0.208  -5.908  0.00  0.00    -0.056 C 
ATOM     15  H   LIG d   1       7.593   0.209  -6.564  0.00  0.00     0.024 H 
ATOM     16  H   LIG d   1       5.865   0.617  -6.443  0.00  0.00     0.024 H 
ATOM     17  H   LIG d   1       6.928   0.819  -5.030  0.00  0.00     0.024 H 
ENDBRANCH  12  14
BRANCH  12  18
ATOM     18  C   LIG d   1       5.494  -1.870  -6.477  0.00  0.00     0.014 A 
ATOM     19  C   LIG d   1       4.426  -1.178  -6.963  0.00  0.00    -0.032 A 
ATOM     20  N   LIG d   1       3.572  -1.711  -7.875  0.00  0.00    -0.367 N 
ATOM     21  O   LIG d   1       4.213   0.082  -6.528  0.00  0.00    -0.861 OA
ATOM     22  C   LIG d   1       3.735  -2.994  -8.352  0.00  0.00     0.050 A 
ATOM     23  H   LIG d   1       2.827  -1.178  -8.194  0.00  0.00     0.165 HD
ATOM     24  C   LIG d   1       4.810  -3.773  -7.894  0.00  0.00     0.045 A 
ATOM     25  C   LIG d   1       2.849  -3.532  -9.281  0.00  0.00    -0.038 A 
ATOM     26  C   LIG d   1       5.737  -3.186  -6.909  0.00  0.00     0.192 A 
ATOM     27  C   LIG d   1       4.984  -5.072  -8.370  0.00  0.00    -0.049 A 
ATOM     28  O   LIG d   1       6.687  -3.823  -6.481  0.00  0.00    -0.287 OA
ATOM     29  C   LIG d   1       4.096  -5.585  -9.289  0.00  0.00    -0.061 A 
ATOM     30  H   LIG d   1       5.811  -5.673  -8.019  0.00  0.00     0.062 H 
ATOM     31  C   LIG d   1       3.033  -4.817  -9.743  0.00  0.00    -0.060 A 
ATOM     32  H   LIG d   1       4.228  -6.591  -9.660  0.00  0.00     0.062 H 
ATOM     33  H   LIG d   1       2.345  -5.230 -10.464  0.00  0.00     0.062 H 
ATOM     34  H   LIG d   1       2.018  -2.942  -9.641  0.00  0.00     0.064 H 
ENDBRANCH  12  18
ENDBRANCH   1  12
BRANCH   1  35
ATOM     35  C   LIG d   1       6.804  -1.515  -3.040  0.00  0.00    -0.035 C 
ATOM     36  H   LIG d   1       6.569  -2.457  -2.544  0.00  0.00     0.026 H 
ATOM     37  H   LIG d   1       7.775  -1.594  -3.527  0.00  0.00     0.026 H 
ATOM     38  H   LIG d   1       6.833  -0.714  -2.301  0.00  0.00     0.026 H 
ENDBRANCH   1  35
BRANCH   6  39
ATOM     39  C   LIG d   1       3.414   1.631  -3.434  0.00  0.00    -0.034 C 
ATOM     40  H   LIG d   1       3.655   2.432  -2.734  0.00  0.00     0.026 H 
ATOM     41  H   LIG d   1       3.755   1.906  -4.433  0.00  0.00     0.026 H 
ATOM     42  H   LIG d   1       2.335   1.474  -3.449  0.00  0.00     0.026 H 
ENDBRANCH   6  39
BRANCH   6  43
ATOM     43  C   LIG d   1       4.646   0.559  -1.568  0.00  0.00    -0.034 C 
ATOM     44  H   LIG d   1       4.746  -0.400  -1.060  0.00  0.00     0.026 H 
ATOM     45  H   LIG d   1       5.619   1.047  -1.616  0.00  0.00     0.026 H 
ATOM     46  H   LIG d   1       3.949   1.192  -1.019  0.00  0.00     0.026 H 
ENDBRANCH   6  43
BRANCH   4  47
ATOM     47  O   LIG d   1       2.278  -0.716  -4.158  0.00  0.00    -0.389 OA
ATOM     48  H   LIG d   1       1.558  -0.072  -4.118  0.00  0.00     0.210 HD
ENDBRANCH   4  47
TORSDOF 7
ENDMDL
MODEL 8
REMARK VINA RESULT:      -6.0      2.224      6.153
REMARK  7 active torsions:
REMARK  status: ('A' for Active; 'I' for Inactive)
REMARK    1  A    between atoms: C_1  and  C_2 
REMARK    2  A    between atoms: C_2  and  C_4 
REMARK    3  A    between atoms: C_2  and  C_17 
REMARK    4  A    between atoms: C_17  and  C_27 
REMARK    5  A    between atoms: C_20  and  O_26 
REMARK    6  A    between atoms: C_22  and  C_24 
REMARK    7  A    between atoms: C_22  and  C_25 
ROOT
ATOM      1  C   LIG d   1       3.792  -0.665  -9.745  0.00  0.00     0.074 C 
ATOM      2  C   LIG d   1       2.487  -1.070  -9.059  0.00  0.00    -0.021 C 
ATOM      3  C   LIG d   1       1.892  -2.300  -9.744  0.00  0.00    -0.021 C 
ATOM      4  C   LIG d   1       2.903  -3.444  -9.667  0.00  0.00     0.084 C 
ATOM      5  H   LIG d   1       2.493  -4.322 -10.172  0.00  0.00     0.062 H 
ATOM      6  C   LIG d   1       4.212  -3.039 -10.343  0.00  0.00     0.090 C 
ATOM      7  O   LIG d   1       4.654  -1.758  -9.960  0.00  0.00    -0.365 OA
ATOM      8  H   LIG d   1       2.680  -1.294  -8.008  0.00  0.00     0.029 H 
ATOM      9  H   LIG d   1       1.775  -0.243  -9.117  0.00  0.00     0.029 H 
ATOM     10  H   LIG d   1       0.976  -2.595  -9.222  0.00  0.00     0.029 H 
ATOM     11  H   LIG d   1       1.647  -2.077 -10.780  0.00  0.00     0.029 H 
ENDROOT
BRANCH   1  12
ATOM     12  C   LIG d   1       4.510   0.347  -8.827  0.00  0.00     0.015 C 
ATOM     13  H   LIG d   1       4.244   1.361  -9.126  0.00  0.00     0.037 H 
BRANCH  12  14
ATOM     14  C   LIG d   1       6.024   0.161  -8.947  0.00  0.00    -0.056 C 
ATOM     15  H   LIG d   1       6.514   0.602  -8.079  0.00  0.00     0.024 H 
ATOM     16  H   LIG d   1       6.256  -0.903  -8.993  0.00  0.00     0.024 H 
ATOM     17  H   LIG d   1       6.379   0.651  -9.852  0.00  0.00     0.024 H 
ENDBRANCH  12  14
BRANCH  12  18
ATOM     18  C   LIG d   1       4.086   0.116  -7.399  0.00  0.00     0.014 A 
ATOM     19  C   LIG d   1       3.209   0.971  -6.803  0.00  0.00    -0.032 A 
ATOM     20  N   LIG d   1       2.791   0.803  -5.521  0.00  0.00    -0.367 N 
ATOM     21  O   LIG d   1       2.736   2.017  -7.512  0.00  0.00    -0.861 OA
ATOM     22  C   LIG d   1       3.245  -0.243  -4.746  0.00  0.00     0.050 A 
ATOM     23  H   LIG d   1       2.163   1.436  -5.142  0.00  0.00     0.165 HD
ATOM     24  C   LIG d   1       4.156  -1.164  -5.289  0.00  0.00     0.045 A 
ATOM     25  C   LIG d   1       2.815  -0.402  -3.432  0.00  0.00    -0.038 A 
ATOM     26  C   LIG d   1       4.600  -0.980  -6.683  0.00  0.00     0.192 A 
ATOM     27  C   LIG d   1       4.621  -2.226  -4.514  0.00  0.00    -0.049 A 
ATOM     28  O   LIG d   1       5.391  -1.754  -7.200  0.00  0.00    -0.287 OA
ATOM     29  C   LIG d   1       4.183  -2.365  -3.216  0.00  0.00    -0.061 A 
ATOM     30  H   LIG d   1       5.322  -2.936  -4.930  0.00  0.00     0.062 H 
ATOM     31  C   LIG d   1       3.283  -1.456  -2.678  0.00  0.00    -0.060 A 
ATOM     32  H   LIG d   1       4.541  -3.186  -2.613  0.00  0.00     0.062 H 
ATOM     33  H   LIG d   1       2.946  -1.576  -1.659  0.00  0.00     0.062 H 
ATOM     34  H   LIG d   1       2.114   0.301  -3.004  0.00  0.00     0.064 H 
ENDBRANCH  12  18
ENDBRANCH   1  12
BRANCH   1  35
ATOM     35  C   LIG d   1       3.472   0.054 -11.061  0.00  0.00    -0.035 C 
ATOM     36  H   LIG d   1       2.752   0.850 -10.873  0.00  0.00     0.026 H 
ATOM     37  H   LIG d   1       4.386   0.480 -11.473  0.00  0.00     0.026 H 
ATOM     38  H   LIG d   1       3.050  -0.657 -11.771  0.00  0.00     0.026 H 
ENDBRANCH   1  35
BRANCH   6  39
ATOM     39  C   LIG d   1       5.289  -4.067  -9.934  0.00  0.00    -0.034 C 
ATOM     40  H   LIG d   1       5.183  -4.965 -10.541  0.00  0.00     0.026 H 
ATOM     41  H   LIG d   1       6.279  -3.637 -10.090  0.00  0.00     0.026 H 
ATOM     42  H   LIG d   1       5.165  -4.322  -8.881  0.00  0.00     0.026 H 
ENDBRANCH   6  39
BRANCH   6  43
ATOM     43  C   LIG d   1       4.047  -3.131 -11.866  0.00  0.00    -0.034 C 
ATOM     44  H   LIG d   1       3.518  -2.250 -12.228  0.00  0.00     0.026 H 
ATOM     45  H   LIG d   1       5.029  -3.184 -12.335  0.00  0.00     0.026 H 
ATOM     46  H   LIG d   1       3.476  -4.026 -12.116  0.00  0.00     0.026 H 
ENDBRANCH   6  43
BRANCH   4  47
ATOM     47  O   LIG d   1       3.153  -3.772  -8.298  0.00  0.00    -0.389 OA
ATOM     48  H   LIG d   1       3.957  -3.373  -7.939  0.00  0.00     0.210 HD
ENDBRANCH   4  47
TORSDOF 7
ENDMDL
MODEL 9
REMARK VINA RESULT:      -5.8      2.372      5.992
REMARK  7 active torsions:
REMARK  status: ('A' for Active; 'I' for Inactive)
REMARK    1  A    between atoms: C_1  and  C_2 
REMARK    2  A    between atoms: C_2  and  C_4 
REMARK    3  A    between atoms: C_2  and  C_17 
REMARK    4  A    between atoms: C_17  and  C_27 
REMARK    5  A    between atoms: C_20  and  O_26 
REMARK    6  A    between atoms: C_22  and  C_24 
REMARK    7  A    between atoms: C_22  and  C_25 
ROOT
ATOM      1  C   LIG d   1       5.797  -1.548  -8.376  0.00  0.00     0.074 C 
ATOM      2  C   LIG d   1       6.466  -0.450  -7.549  0.00  0.00    -0.021 C 
ATOM      3  C   LIG d   1       7.216   0.516  -8.466  0.00  0.00    -0.021 C 
ATOM      4  C   LIG d   1       6.221   1.131  -9.451  0.00  0.00     0.084 C 
ATOM      5  H   LIG d   1       6.753   1.809 -10.124  0.00  0.00     0.062 H 
ATOM      6  C   LIG d   1       5.544   0.036 -10.273  0.00  0.00     0.090 C 
ATOM      7  O   LIG d   1       5.092  -1.041  -9.484  0.00  0.00    -0.365 OA
ATOM      8  H   LIG d   1       5.708   0.095  -6.984  0.00  0.00     0.029 H 
ATOM      9  H   LIG d   1       7.170  -0.903  -6.847  0.00  0.00     0.029 H 
ATOM     10  H   LIG d   1       7.662   1.312  -7.863  0.00  0.00     0.029 H 
ATOM     11  H   LIG d   1       8.008  -0.003  -9.000  0.00  0.00     0.029 H 
ENDROOT
BRANCH   1  12
ATOM     12  C   LIG d   1       4.796  -2.282  -7.457  0.00  0.00     0.015 C 
ATOM     13  H   LIG d   1       5.257  -3.191  -7.070  0.00  0.00     0.037 H 
BRANCH  12  14
ATOM     14  C   LIG d   1       3.543  -2.646  -8.256  0.00  0.00    -0.056 C 
ATOM     15  H   LIG d   1       3.577  -3.702  -8.523  0.00  0.00     0.024 H 
ATOM     16  H   LIG d   1       2.657  -2.454  -7.650  0.00  0.00     0.024 H 
ATOM     17  H   LIG d   1       3.502  -2.043  -9.162  0.00  0.00     0.024 H 
ENDBRANCH  12  14
BRANCH  12  18
ATOM     18  C   LIG d   1       4.417  -1.382  -6.309  0.00  0.00     0.014 A 
ATOM     19  C   LIG d   1       3.546  -0.355  -6.510  0.00  0.00    -0.032 A 
ATOM     20  N   LIG d   1       3.167   0.480  -5.507  0.00  0.00    -0.367 N 
ATOM     21  O   LIG d   1       3.038  -0.164  -7.746  0.00  0.00    -0.861 OA
ATOM     22  C   LIG d   1       3.658   0.337  -4.227  0.00  0.00     0.050 A 
ATOM     23  H   LIG d   1       2.541   1.195  -5.699  0.00  0.00     0.165 HD
ATOM     24  C   LIG d   1       4.565  -0.696  -3.942  0.00  0.00     0.045 A 
ATOM     25  C   LIG d   1       3.267   1.203  -3.209  0.00  0.00    -0.038 A 
ATOM     26  C   LIG d   1       4.967  -1.603  -5.033  0.00  0.00     0.192 A 
ATOM     27  C   LIG d   1       5.067  -0.849  -2.650  0.00  0.00    -0.049 A 
ATOM     28  O   LIG d   1       5.753  -2.516  -4.837  0.00  0.00    -0.287 OA
ATOM     29  C   LIG d   1       4.668   0.018  -1.658  0.00  0.00    -0.061 A 
ATOM     30  H   LIG d   1       5.765  -1.644  -2.429  0.00  0.00     0.062 H 
ATOM     31  C   LIG d   1       3.771   1.040  -1.937  0.00  0.00    -0.060 A 
ATOM     32  H   LIG d   1       5.055  -0.098  -0.656  0.00  0.00     0.062 H 
ATOM     33  H   LIG d   1       3.465   1.713  -1.150  0.00  0.00     0.062 H 
ATOM     34  H   LIG d   1       2.569   2.002  -3.416  0.00  0.00     0.064 H 
ENDBRANCH  12  18
ENDBRANCH   1  12
BRANCH   1  35
ATOM     35  C   LIG d   1       6.854  -2.570  -8.813  0.00  0.00    -0.035 C 
ATOM     36  H   LIG d   1       6.845  -2.657  -9.900  0.00  0.00     0.026 H 
ATOM     37  H   LIG d   1       7.837  -2.240  -8.483  0.00  0.00     0.026 H 
ATOM     38  H   LIG d   1       6.628  -3.540  -8.370  0.00  0.00     0.026 H 
ENDBRANCH   1  35
BRANCH   6  39
ATOM     39  C   LIG d   1       4.325   0.665 -10.979  0.00  0.00    -0.034 C 
ATOM     40  H   LIG d   1       3.523   0.815 -10.256  0.00  0.00     0.026 H 
ATOM     41  H   LIG d   1       4.610   1.624 -11.411  0.00  0.00     0.026 H 
ATOM     42  H   LIG d   1       3.980  -0.002 -11.771  0.00  0.00     0.026 H 
ENDBRANCH   6  39
BRANCH   6  43
ATOM     43  C   LIG d   1       6.506  -0.450 -11.365  0.00  0.00    -0.034 C 
ATOM     44  H   LIG d   1       7.533  -0.262 -11.054  0.00  0.00     0.026 H 
ATOM     45  H   LIG d   1       6.365  -1.518 -11.525  0.00  0.00     0.026 H 
ATOM     46  H   LIG d   1       6.302   0.087 -12.292  0.00  0.00     0.026 H 
ENDBRANCH   6  43
BRANCH   4  47
ATOM     47  O   LIG d   1       5.232   1.873  -8.734  0.00  0.00    -0.389 OA
ATOM     48  H   LIG d   1       4.354   1.849  -9.138  0.00  0.00     0.210 HD
ENDBRANCH   4  47
TORSDOF 7
ENDMDL
MODEL 10
REMARK VINA RESULT:      -5.7      2.422      5.842
REMARK  7 active torsions:
REMARK  status: ('A' for Active; 'I' for Inactive)
REMARK    1  A    between atoms: C_1  and  C_2 
REMARK    2  A    between atoms: C_2  and  C_4 
REMARK    3  A    between atoms: C_2  and  C_17 
REMARK    4  A    between atoms: C_17  and  C_27 
REMARK    5  A    between atoms: C_20  and  O_26 
REMARK    6  A    between atoms: C_22  and  C_24 
REMARK    7  A    between atoms: C_22  and  C_25 
ROOT
ATOM      1  C   LIG d   1       5.935  -3.865  -8.132  0.00  0.00     0.074 C 
ATOM      2  C   LIG d   1       4.519  -3.291  -8.167  0.00  0.00    -0.021 C 
ATOM      3  C   LIG d   1       3.527  -4.364  -8.616  0.00  0.00    -0.021 C 
ATOM      4  C   LIG d   1       3.595  -5.537  -7.638  0.00  0.00     0.084 C 
ATOM      5  H   LIG d   1       2.903  -6.318  -7.963  0.00  0.00     0.062 H 
ATOM      6  C   LIG d   1       5.012  -6.108  -7.594  0.00  0.00     0.090 C 
ATOM      7  O   LIG d   1       6.000  -5.111  -7.479  0.00  0.00    -0.365 OA
ATOM      8  H   LIG d   1       4.245  -2.932  -7.173  0.00  0.00     0.029 H 
ATOM      9  H   LIG d   1       4.485  -2.452  -8.865  0.00  0.00     0.029 H 
ATOM     10  H   LIG d   1       2.515  -3.947  -8.605  0.00  0.00     0.029 H 
ATOM     11  H   LIG d   1       3.757  -4.696  -9.625  0.00  0.00     0.029 H 
ENDROOT
BRANCH   1  12
ATOM     12  C   LIG d   1       6.827  -2.866  -7.364  0.00  0.00     0.015 C 
ATOM     13  H   LIG d   1       7.320  -2.200  -8.073  0.00  0.00     0.037 H 
BRANCH  12  14
ATOM     14  C   LIG d   1       7.883  -3.633  -6.566  0.00  0.00    -0.056 C 
ATOM     15  H   LIG d   1       8.818  -3.653  -7.127  0.00  0.00     0.024 H 
ATOM     16  H   LIG d   1       8.045  -3.139  -5.608  0.00  0.00     0.024 H 
ATOM     17  H   LIG d   1       7.540  -4.653  -6.396  0.00  0.00     0.024 H 
ENDBRANCH  12  14
BRANCH  12  18
ATOM     18  C   LIG d   1       5.975  -2.056  -6.422  0.00  0.00     0.014 A 
ATOM     19  C   LIG d   1       5.673  -0.762  -6.720  0.00  0.00    -0.032 A 
ATOM     20  N   LIG d   1       4.904   0.009  -5.908  0.00  0.00    -0.367 N 
ATOM     21  O   LIG d   1       6.151  -0.228  -7.865  0.00  0.00    -0.861 OA
ATOM     22  C   LIG d   1       4.393  -0.479  -4.723  0.00  0.00     0.050 A 
ATOM     23  H   LIG d   1       4.713   0.924  -6.165  0.00  0.00     0.165 HD
ATOM     24  C   LIG d   1       4.665  -1.803  -4.344  0.00  0.00     0.045 A 
ATOM     25  C   LIG d   1       3.612   0.322  -3.896  0.00  0.00    -0.038 A 
ATOM     26  C   LIG d   1       5.495  -2.636  -5.234  0.00  0.00     0.192 A 
ATOM     27  C   LIG d   1       4.154  -2.306  -3.148  0.00  0.00    -0.049 A 
ATOM     28  O   LIG d   1       5.760  -3.793  -4.948  0.00  0.00    -0.287 OA
ATOM     29  C   LIG d   1       3.383  -1.498  -2.344  0.00  0.00    -0.061 A 
ATOM     30  H   LIG d   1       4.362  -3.326  -2.855  0.00  0.00     0.062 H 
ATOM     31  C   LIG d   1       3.113  -0.189  -2.717  0.00  0.00    -0.060 A 
ATOM     32  H   LIG d   1       2.985  -1.885  -1.417  0.00  0.00     0.062 H 
ATOM     33  H   LIG d   1       2.506   0.435  -2.078  0.00  0.00     0.062 H 
ATOM     34  H   LIG d   1       3.396   1.342  -4.177  0.00  0.00     0.064 H 
ENDBRANCH  12  18
ENDBRANCH   1  12
BRANCH   1  35
ATOM     35  C   LIG d   1       6.479  -3.962  -9.562  0.00  0.00    -0.035 C 
ATOM     36  H   LIG d   1       5.698  -4.340 -10.223  0.00  0.00     0.026 H 
ATOM     37  H   LIG d   1       6.795  -2.976  -9.899  0.00  0.00     0.026 H 
ATOM     38  H   LIG d   1       7.331  -4.642  -9.582  0.00  0.00     0.026 H 
ENDBRANCH   1  35
BRANCH   6  39
ATOM     39  C   LIG d   1       5.107  -7.031  -6.361  0.00  0.00    -0.034 C 
ATOM     40  H   LIG d   1       6.109  -7.456  -6.302  0.00  0.00     0.026 H 
ATOM     41  H   LIG d   1       4.903  -6.454  -5.458  0.00  0.00     0.026 H 
ATOM     42  H   LIG d   1       4.376  -7.835  -6.452  0.00  0.00     0.026 H 
ENDBRANCH   6  39
BRANCH   6  43
ATOM     43  C   LIG d   1       5.249  -6.976  -8.836  0.00  0.00    -0.034 C 
ATOM     44  H   LIG d   1       4.689  -7.906  -8.742  0.00  0.00     0.026 H 
ATOM     45  H   LIG d   1       4.916  -6.439  -9.724  0.00  0.00     0.026 H 
ATOM     46  H   LIG d   1       6.313  -7.199  -8.924  0.00  0.00     0.026 H 
ENDBRANCH   6  43
BRANCH   4  47
ATOM     47  O   LIG d   1       3.215  -5.096  -6.332  0.00  0.00    -0.389 OA
ATOM     48  H   LIG d   1       3.874  -4.538  -5.899  0.00  0.00     0.210 HD
ENDBRANCH   4  47
TORSDOF 7
ENDMDL
