MODEL 1
REMARK VINA RESULT:      -6.9      0.000      0.000
REMARK  2 active torsions:
REMARK  status: ('A' for Active; 'I' for Inactive)
REMARK    1  A    between atoms: C_7  and  C_18 
REMARK    2  A    between atoms: C_9  and  C_11 
ROOT
ATOM      1  C   LIG d   1       4.878   0.717  -1.813  0.00  0.00    -0.061 A 
ATOM      2  C   LIG d   1       3.685   1.321  -2.204  0.00  0.00    -0.060 A 
ATOM      3  C   LIG d   1       3.166   1.116  -3.445  0.00  0.00    -0.036 A 
ATOM      4  C   LIG d   1       3.841   0.281  -4.354  0.00  0.00     0.072 A 
ATOM      5  C   LIG d   1       5.055  -0.332  -3.950  0.00  0.00     0.009 A 
ATOM      6  C   LIG d   1       5.560  -0.098  -2.667  0.00  0.00    -0.052 A 
ATOM      7  C   LIG d   1       5.753  -1.200  -4.899  0.00  0.00     0.009 A 
ATOM      8  C   LIG d   1       5.177  -1.367  -6.152  0.00  0.00    -0.026 A 
ATOM      9  C   LIG d   1       3.968  -0.718  -6.446  0.00  0.00     0.072 A 
ATOM     10  N   LIG d   1       3.357   0.059  -5.576  0.00  0.00    -0.247 NA
ATOM     11  H   LIG d   1       5.268   0.897  -0.822  0.00  0.00     0.062 H 
ATOM     12  H   LIG d   1       3.163   1.964  -1.510  0.00  0.00     0.062 H 
ATOM     13  H   LIG d   1       2.240   1.593  -3.732  0.00  0.00     0.064 H 
ATOM     14  H   LIG d   1       6.483  -0.562  -2.353  0.00  0.00     0.062 H 
ATOM     15  H   LIG d   1       5.653  -1.993  -6.891  0.00  0.00     0.065 H 
ENDROOT
BRANCH   9  16
ATOM     16  C   LIG d   1       3.360  -0.911  -7.784  0.00  0.00     0.000 A 
ATOM     17  C   LIG d   1       3.578  -2.096  -8.486  0.00  0.00    -0.051 A 
ATOM     18  C   LIG d   1       3.010  -2.271  -9.732  0.00  0.00    -0.047 A 
ATOM     19  H   LIG d   1       4.191  -2.875  -8.057  0.00  0.00     0.062 H 
ATOM     20  C   LIG d   1       2.226  -1.274 -10.284  0.00  0.00     0.018 A 
ATOM     21  H   LIG d   1       3.179  -3.188 -10.277  0.00  0.00     0.063 H 
ATOM     22  C   LIG d   1       2.005  -0.096  -9.591  0.00  0.00    -0.047 A 
ATOM     23 BR   LIG d   1       1.450  -1.520 -11.991  0.00  0.00    -0.050 Br
ATOM     24  C   LIG d   1       2.564   0.087  -8.343  0.00  0.00    -0.051 A 
ATOM     25  H   LIG d   1       1.392   0.679 -10.025  0.00  0.00     0.063 H 
ATOM     26  H   LIG d   1       2.388   1.005  -7.800  0.00  0.00     0.062 H 
ENDBRANCH   9  16
BRANCH   7  27
ATOM     27  C   LIG d   1       7.021  -1.868  -4.541  0.00  0.00     0.072 C 
ATOM     28  O   LIG d   1       7.010  -3.006  -4.118  0.00  0.00    -0.545 OA
ATOM     29  O   LIG d   1       8.190  -1.214  -4.685  0.00  0.00    -0.545 OA
ENDBRANCH   7  27
TORSDOF 2
ENDMDL
MODEL 2
REMARK VINA RESULT:      -6.7      5.145      6.340
REMARK  2 active torsions:
REMARK  status: ('A' for Active; 'I' for Inactive)
REMARK    1  A    between atoms: C_7  and  C_18 
REMARK    2  A    between atoms: C_9  and  C_11 
ROOT
ATOM      1  C   LIG d   1       4.136  -1.282  -2.167  0.00  0.00    -0.061 A 
ATOM      2  C   LIG d   1       3.879   0.054  -1.870  0.00  0.00    -0.060 A 
ATOM      3  C   LIG d   1       4.724   1.040  -2.279  0.00  0.00    -0.036 A 
ATOM      4  C   LIG d   1       5.877   0.711  -3.015  0.00  0.00     0.072 A 
ATOM      5  C   LIG d   1       6.132  -0.652  -3.315  0.00  0.00     0.009 A 
ATOM      6  C   LIG d   1       5.243  -1.640  -2.877  0.00  0.00    -0.052 A 
ATOM      7  C   LIG d   1       7.333  -0.989  -4.081  0.00  0.00     0.009 A 
ATOM      8  C   LIG d   1       8.158   0.060  -4.466  0.00  0.00    -0.026 A 
ATOM      9  C   LIG d   1       7.806   1.374  -4.121  0.00  0.00     0.072 A 
ATOM     10  N   LIG d   1       6.721   1.655  -3.431  0.00  0.00    -0.247 NA
ATOM     11  H   LIG d   1       3.450  -2.045  -1.830  0.00  0.00     0.062 H 
ATOM     12  H   LIG d   1       2.996   0.313  -1.304  0.00  0.00     0.062 H 
ATOM     13  H   LIG d   1       4.509   2.071  -2.040  0.00  0.00     0.064 H 
ATOM     14  H   LIG d   1       5.432  -2.679  -3.103  0.00  0.00     0.062 H 
ATOM     15  H   LIG d   1       9.058  -0.134  -5.029  0.00  0.00     0.065 H 
ENDROOT
BRANCH   9  16
ATOM     16  C   LIG d   1       8.693   2.485  -4.545  0.00  0.00     0.000 A 
ATOM     17  C   LIG d   1       8.930   2.711  -5.901  0.00  0.00    -0.051 A 
ATOM     18  C   LIG d   1       9.754   3.746  -6.291  0.00  0.00    -0.047 A 
ATOM     19  H   LIG d   1       8.470   2.076  -6.644  0.00  0.00     0.062 H 
ATOM     20  C   LIG d   1      10.346   4.559  -5.340  0.00  0.00     0.018 A 
ATOM     21  H   LIG d   1       9.940   3.922  -7.340  0.00  0.00     0.063 H 
ATOM     22  C   LIG d   1      10.113   4.340  -3.993  0.00  0.00    -0.047 A 
ATOM     23 BR   LIG d   1      11.475   5.976  -5.881  0.00  0.00    -0.050 Br
ATOM     24  C   LIG d   1       9.285   3.311  -3.592  0.00  0.00    -0.051 A 
ATOM     25  H   LIG d   1      10.575   4.977  -3.254  0.00  0.00     0.063 H 
ATOM     26  H   LIG d   1       9.100   3.143  -2.542  0.00  0.00     0.062 H 
ENDBRANCH   9  16
BRANCH   7  27
ATOM     27  C   LIG d   1       7.657  -2.389  -4.426  0.00  0.00     0.072 C 
ATOM     28  O   LIG d   1       7.308  -2.847  -5.495  0.00  0.00    -0.545 OA
ATOM     29  O   LIG d   1       8.339  -3.157  -3.554  0.00  0.00    -0.545 OA
ENDBRANCH   7  27
TORSDOF 2
ENDMDL
MODEL 3
REMARK VINA RESULT:      -6.4      3.996      5.206
REMARK  2 active torsions:
REMARK  status: ('A' for Active; 'I' for Inactive)
REMARK    1  A    between atoms: C_7  and  C_18 
REMARK    2  A    between atoms: C_9  and  C_11 
ROOT
ATOM      1  C   LIG d   1       3.834   1.058  -2.607  0.00  0.00    -0.061 A 
ATOM      2  C   LIG d   1       4.238   0.148  -1.633  0.00  0.00    -0.060 A 
ATOM      3  C   LIG d   1       4.640  -1.109  -1.968  0.00  0.00    -0.036 A 
ATOM      4  C   LIG d   1       4.649  -1.502  -3.319  0.00  0.00     0.072 A 
ATOM      5  C   LIG d   1       4.236  -0.571  -4.306  0.00  0.00     0.009 A 
ATOM      6  C   LIG d   1       3.829   0.712  -3.926  0.00  0.00    -0.052 A 
ATOM      7  C   LIG d   1       4.247  -0.985  -5.710  0.00  0.00     0.009 A 
ATOM      8  C   LIG d   1       4.662  -2.281  -5.989  0.00  0.00    -0.026 A 
ATOM      9  C   LIG d   1       5.056  -3.119  -4.934  0.00  0.00     0.072 A 
ATOM     10  N   LIG d   1       5.038  -2.726  -3.678  0.00  0.00    -0.247 NA
ATOM     11  H   LIG d   1       3.519   2.048  -2.315  0.00  0.00     0.062 H 
ATOM     12  H   LIG d   1       4.233   0.444  -0.595  0.00  0.00     0.062 H 
ATOM     13  H   LIG d   1       4.950  -1.802  -1.200  0.00  0.00     0.064 H 
ATOM     14  H   LIG d   1       3.514   1.425  -4.674  0.00  0.00     0.062 H 
ATOM     15  H   LIG d   1       4.685  -2.638  -7.007  0.00  0.00     0.065 H 
ENDROOT
BRANCH   9  16
ATOM     16  C   LIG d   1       5.504  -4.497  -5.246  0.00  0.00     0.000 A 
ATOM     17  C   LIG d   1       4.564  -5.500  -5.485  0.00  0.00    -0.051 A 
ATOM     18  C   LIG d   1       4.986  -6.781  -5.776  0.00  0.00    -0.047 A 
ATOM     19  H   LIG d   1       3.509  -5.275  -5.441  0.00  0.00     0.062 H 
ATOM     20  C   LIG d   1       6.338  -7.072  -5.832  0.00  0.00     0.018 A 
ATOM     21  H   LIG d   1       4.260  -7.559  -5.960  0.00  0.00     0.063 H 
ATOM     22  C   LIG d   1       7.275  -6.080  -5.598  0.00  0.00    -0.047 A 
ATOM     23 BR   LIG d   1       6.909  -8.831  -6.231  0.00  0.00    -0.050 Br
ATOM     24  C   LIG d   1       6.864  -4.794  -5.311  0.00  0.00    -0.051 A 
ATOM     25  H   LIG d   1       8.328  -6.311  -5.643  0.00  0.00     0.063 H 
ATOM     26  H   LIG d   1       7.595  -4.020  -5.132  0.00  0.00     0.062 H 
ENDBRANCH   9  16
BRANCH   7  27
ATOM     27  C   LIG d   1       3.829  -0.064  -6.787  0.00  0.00     0.072 C 
ATOM     28  O   LIG d   1       4.650   0.646  -7.332  0.00  0.00    -0.545 OA
ATOM     29  O   LIG d   1       2.537  -0.010  -7.163  0.00  0.00    -0.545 OA
ENDBRANCH   7  27
TORSDOF 2
ENDMDL
MODEL 4
REMARK VINA RESULT:      -6.2      4.199      4.809
REMARK  2 active torsions:
REMARK  status: ('A' for Active; 'I' for Inactive)
REMARK    1  A    between atoms: C_7  and  C_18 
REMARK    2  A    between atoms: C_9  and  C_11 
ROOT
ATOM      1  C   LIG d   1       5.059   1.151  -2.184  0.00  0.00    -0.061 A 
ATOM      2  C   LIG d   1       4.279   0.145  -1.620  0.00  0.00    -0.060 A 
ATOM      3  C   LIG d   1       4.313  -1.126  -2.106  0.00  0.00    -0.036 A 
ATOM      4  C   LIG d   1       5.147  -1.435  -3.196  0.00  0.00     0.072 A 
ATOM      5  C   LIG d   1       5.940  -0.406  -3.765  0.00  0.00     0.009 A 
ATOM      6  C   LIG d   1       5.880   0.890  -3.241  0.00  0.00    -0.052 A 
ATOM      7  C   LIG d   1       6.807  -0.733  -4.898  0.00  0.00     0.009 A 
ATOM      8  C   LIG d   1       6.794  -2.045  -5.352  0.00  0.00    -0.026 A 
ATOM      9  C   LIG d   1       5.975  -2.987  -4.710  0.00  0.00     0.072 A 
ATOM     10  N   LIG d   1       5.203  -2.671  -3.692  0.00  0.00    -0.247 NA
ATOM     11  H   LIG d   1       5.014   2.152  -1.779  0.00  0.00     0.062 H 
ATOM     12  H   LIG d   1       3.635   0.376  -0.784  0.00  0.00     0.062 H 
ATOM     13  H   LIG d   1       3.700  -1.895  -1.657  0.00  0.00     0.064 H 
ATOM     14  H   LIG d   1       6.481   1.677  -3.670  0.00  0.00     0.062 H 
ATOM     15  H   LIG d   1       7.411  -2.338  -6.188  0.00  0.00     0.065 H 
ENDROOT
BRANCH   9  16
ATOM     16  C   LIG d   1       5.977  -4.386  -5.201  0.00  0.00     0.000 A 
ATOM     17  C   LIG d   1       4.770  -5.043  -5.443  0.00  0.00    -0.051 A 
ATOM     18  C   LIG d   1       4.777  -6.345  -5.900  0.00  0.00    -0.047 A 
ATOM     19  H   LIG d   1       3.833  -4.535  -5.273  0.00  0.00     0.062 H 
ATOM     20  C   LIG d   1       5.977  -6.999  -6.118  0.00  0.00     0.018 A 
ATOM     21  H   LIG d   1       3.844  -6.855  -6.088  0.00  0.00     0.063 H 
ATOM     22  C   LIG d   1       7.178  -6.351  -5.880  0.00  0.00    -0.047 A 
ATOM     23 BR   LIG d   1       5.979  -8.784  -6.744  0.00  0.00    -0.050 Br
ATOM     24  C   LIG d   1       7.182  -5.047  -5.428  0.00  0.00    -0.051 A 
ATOM     25  H   LIG d   1       8.111  -6.865  -6.052  0.00  0.00     0.063 H 
ATOM     26  H   LIG d   1       8.119  -4.541  -5.247  0.00  0.00     0.062 H 
ENDBRANCH   9  16
BRANCH   7  27
ATOM     27  C   LIG d   1       7.657   0.293  -5.536  0.00  0.00     0.072 C 
ATOM     28  O   LIG d   1       8.819   0.411  -5.205  0.00  0.00    -0.545 OA
ATOM     29  O   LIG d   1       7.142   1.099  -6.486  0.00  0.00    -0.545 OA
ENDBRANCH   7  27
TORSDOF 2
ENDMDL
MODEL 5
REMARK VINA RESULT:      -6.1      5.078      5.833
REMARK  2 active torsions:
REMARK  status: ('A' for Active; 'I' for Inactive)
REMARK    1  A    between atoms: C_7  and  C_18 
REMARK    2  A    between atoms: C_9  and  C_11 
ROOT
ATOM      1  C   LIG d   1       4.418   0.910  -2.024  0.00  0.00    -0.061 A 
ATOM      2  C   LIG d   1       3.988  -0.400  -1.830  0.00  0.00    -0.060 A 
ATOM      3  C   LIG d   1       4.676  -1.451  -2.354  0.00  0.00    -0.036 A 
ATOM      4  C   LIG d   1       5.842  -1.217  -3.106  0.00  0.00     0.072 A 
ATOM      5  C   LIG d   1       6.275   0.119  -3.300  0.00  0.00     0.009 A 
ATOM      6  C   LIG d   1       5.543   1.176  -2.747  0.00  0.00    -0.052 A 
ATOM      7  C   LIG d   1       7.489   0.357  -4.082  0.00  0.00     0.009 A 
ATOM      8  C   LIG d   1       8.145  -0.755  -4.595  0.00  0.00    -0.026 A 
ATOM      9  C   LIG d   1       7.632  -2.035  -4.337  0.00  0.00     0.072 A 
ATOM     10  N   LIG d   1       6.538  -2.226  -3.630  0.00  0.00    -0.247 NA
ATOM     11  H   LIG d   1       3.854   1.726  -1.598  0.00  0.00     0.062 H 
ATOM     12  H   LIG d   1       3.093  -0.586  -1.255  0.00  0.00     0.062 H 
ATOM     13  H   LIG d   1       4.328  -2.461  -2.194  0.00  0.00     0.064 H 
ATOM     14  H   LIG d   1       5.869   2.195  -2.891  0.00  0.00     0.062 H 
ATOM     15  H   LIG d   1       9.041  -0.635  -5.183  0.00  0.00     0.065 H 
ENDROOT
BRANCH   9  16
ATOM     16  C   LIG d   1       8.345  -3.214  -4.884  0.00  0.00     0.000 A 
ATOM     17  C   LIG d   1       8.820  -3.196  -6.196  0.00  0.00    -0.051 A 
ATOM     18  C   LIG d   1       9.485  -4.295  -6.700  0.00  0.00    -0.047 A 
ATOM     19  H   LIG d   1       8.668  -2.325  -6.815  0.00  0.00     0.062 H 
ATOM     20  C   LIG d   1       9.680  -5.414  -5.909  0.00  0.00     0.018 A 
ATOM     21  H   LIG d   1       9.853  -4.283  -7.716  0.00  0.00     0.063 H 
ATOM     22  C   LIG d   1       9.212  -5.436  -4.606  0.00  0.00    -0.047 A 
ATOM     23 BR   LIG d   1      10.591  -6.916  -6.607  0.00  0.00    -0.050 Br
ATOM     24  C   LIG d   1       8.551  -4.340  -4.090  0.00  0.00    -0.051 A 
ATOM     25  H   LIG d   1       9.367  -6.310  -3.991  0.00  0.00     0.063 H 
ATOM     26  H   LIG d   1       8.189  -4.356  -3.072  0.00  0.00     0.062 H 
ENDBRANCH   9  16
BRANCH   7  27
ATOM     27  C   LIG d   1       7.994   1.725  -4.321  0.00  0.00     0.072 C 
ATOM     28  O   LIG d   1       7.801   2.265  -5.391  0.00  0.00    -0.545 OA
ATOM     29  O   LIG d   1       8.669   2.373  -3.352  0.00  0.00    -0.545 OA
ENDBRANCH   7  27
TORSDOF 2
ENDMDL
MODEL 6
REMARK VINA RESULT:      -6.0      1.998      3.224
REMARK  2 active torsions:
REMARK  status: ('A' for Active; 'I' for Inactive)
REMARK    1  A    between atoms: C_7  and  C_18 
REMARK    2  A    between atoms: C_9  and  C_11 
ROOT
ATOM      1  C   LIG d   1       7.182  -1.713  -3.066  0.00  0.00    -0.061 A 
ATOM      2  C   LIG d   1       7.614  -2.507  -4.126  0.00  0.00    -0.060 A 
ATOM      3  C   LIG d   1       6.924  -2.551  -5.299  0.00  0.00    -0.036 A 
ATOM      4  C   LIG d   1       5.754  -1.784  -5.449  0.00  0.00     0.072 A 
ATOM      5  C   LIG d   1       5.320  -0.977  -4.367  0.00  0.00     0.009 A 
ATOM      6  C   LIG d   1       6.053  -0.957  -3.175  0.00  0.00    -0.052 A 
ATOM      7  C   LIG d   1       4.102  -0.182  -4.529  0.00  0.00     0.009 A 
ATOM      8  C   LIG d   1       3.439  -0.272  -5.746  0.00  0.00    -0.026 A 
ATOM      9  C   LIG d   1       3.961  -1.098  -6.754  0.00  0.00     0.072 A 
ATOM     10  N   LIG d   1       5.058  -1.805  -6.586  0.00  0.00    -0.247 NA
ATOM     11  H   LIG d   1       7.748  -1.697  -2.147  0.00  0.00     0.062 H 
ATOM     12  H   LIG d   1       8.511  -3.099  -4.016  0.00  0.00     0.062 H 
ATOM     13  H   LIG d   1       7.273  -3.173  -6.110  0.00  0.00     0.064 H 
ATOM     14  H   LIG d   1       5.727  -0.344  -2.348  0.00  0.00     0.062 H 
ATOM     15  H   LIG d   1       2.534   0.291  -5.916  0.00  0.00     0.065 H 
ENDROOT
BRANCH   9  16
ATOM     16  C   LIG d   1       3.247  -1.179  -8.051  0.00  0.00     0.000 A 
ATOM     17  C   LIG d   1       2.486  -0.100  -8.498  0.00  0.00    -0.051 A 
ATOM     18  C   LIG d   1       1.824  -0.180  -9.707  0.00  0.00    -0.047 A 
ATOM     19  H   LIG d   1       2.413   0.796  -7.900  0.00  0.00     0.062 H 
ATOM     20  C   LIG d   1       1.915  -1.329 -10.474  0.00  0.00     0.018 A 
ATOM     21  H   LIG d   1       1.233   0.654 -10.054  0.00  0.00     0.063 H 
ATOM     22  C   LIG d   1       2.671  -2.402 -10.035  0.00  0.00    -0.047 A 
ATOM     23 BR   LIG d   1       1.006  -1.432 -12.129  0.00  0.00    -0.050 Br
ATOM     24  C   LIG d   1       3.341  -2.330  -8.831  0.00  0.00    -0.051 A 
ATOM     25  H   LIG d   1       2.740  -3.296 -10.637  0.00  0.00     0.063 H 
ATOM     26  H   LIG d   1       3.934  -3.166  -8.491  0.00  0.00     0.062 H 
ENDBRANCH   9  16
BRANCH   7  27
ATOM     27  C   LIG d   1       3.596   0.679  -3.440  0.00  0.00     0.072 C 
ATOM     28  O   LIG d   1       2.912   0.202  -2.557  0.00  0.00    -0.545 OA
ATOM     29  O   LIG d   1       3.891   1.994  -3.428  0.00  0.00    -0.545 OA
ENDBRANCH   7  27
TORSDOF 2
ENDMDL
MODEL 7
REMARK VINA RESULT:      -6.0      3.206      3.894
REMARK  2 active torsions:
REMARK  status: ('A' for Active; 'I' for Inactive)
REMARK    1  A    between atoms: C_7  and  C_18 
REMARK    2  A    between atoms: C_9  and  C_11 
ROOT
ATOM      1  C   LIG d   1       5.080   1.081  -2.124  0.00  0.00    -0.061 A 
ATOM      2  C   LIG d   1       4.170   0.133  -1.661  0.00  0.00    -0.060 A 
ATOM      3  C   LIG d   1       3.961  -1.029  -2.338  0.00  0.00    -0.036 A 
ATOM      4  C   LIG d   1       4.670  -1.283  -3.527  0.00  0.00     0.072 A 
ATOM      5  C   LIG d   1       5.595  -0.314  -3.992  0.00  0.00     0.009 A 
ATOM      6  C   LIG d   1       5.786   0.870  -3.271  0.00  0.00    -0.052 A 
ATOM      7  C   LIG d   1       6.332  -0.583  -5.228  0.00  0.00     0.009 A 
ATOM      8  C   LIG d   1       6.071  -1.783  -5.877  0.00  0.00    -0.026 A 
ATOM      9  C   LIG d   1       5.139  -2.675  -5.324  0.00  0.00     0.072 A 
ATOM     10  N   LIG d   1       4.487  -2.412  -4.211  0.00  0.00    -0.247 NA
ATOM     11  H   LIG d   1       5.228   1.995  -1.568  0.00  0.00     0.062 H 
ATOM     12  H   LIG d   1       3.622   0.323  -0.751  0.00  0.00     0.062 H 
ATOM     13  H   LIG d   1       3.251  -1.753  -1.966  0.00  0.00     0.064 H 
ATOM     14  H   LIG d   1       6.489   1.611  -3.620  0.00  0.00     0.062 H 
ATOM     15  H   LIG d   1       6.583  -2.028  -6.794  0.00  0.00     0.065 H 
ENDROOT
BRANCH   9  16
ATOM     16  C   LIG d   1       4.875  -3.956  -6.023  0.00  0.00     0.000 A 
ATOM     17  C   LIG d   1       4.296  -3.953  -7.292  0.00  0.00    -0.051 A 
ATOM     18  C   LIG d   1       4.053  -5.148  -7.938  0.00  0.00    -0.047 A 
ATOM     19  H   LIG d   1       4.037  -3.018  -7.767  0.00  0.00     0.062 H 
ATOM     20  C   LIG d   1       4.383  -6.347  -7.331  0.00  0.00     0.018 A 
ATOM     21  H   LIG d   1       3.604  -5.147  -8.921  0.00  0.00     0.063 H 
ATOM     22  C   LIG d   1       4.960  -6.355  -6.072  0.00  0.00    -0.047 A 
ATOM     23 BR   LIG d   1       4.048  -7.980  -8.223  0.00  0.00    -0.050 Br
ATOM     24  C   LIG d   1       5.211  -5.165  -5.419  0.00  0.00    -0.051 A 
ATOM     25  H   LIG d   1       5.216  -7.292  -5.602  0.00  0.00     0.063 H 
ATOM     26  H   LIG d   1       5.665  -5.172  -4.438  0.00  0.00     0.062 H 
ENDBRANCH   9  16
BRANCH   7  27
ATOM     27  C   LIG d   1       7.309   0.385  -5.767  0.00  0.00     0.072 C 
ATOM     28  O   LIG d   1       6.949   1.240  -6.550  0.00  0.00    -0.545 OA
ATOM     29  O   LIG d   1       8.601   0.319  -5.390  0.00  0.00    -0.545 OA
ENDBRANCH   7  27
TORSDOF 2
ENDMDL
MODEL 8
REMARK VINA RESULT:      -5.7      5.565      7.178
REMARK  2 active torsions:
REMARK  status: ('A' for Active; 'I' for Inactive)
REMARK    1  A    between atoms: C_7  and  C_18 
REMARK    2  A    between atoms: C_9  and  C_11 
ROOT
ATOM      1  C   LIG d   1      10.845   4.670  -7.274  0.00  0.00    -0.061 A 
ATOM      2  C   LIG d   1      10.028   3.917  -8.114  0.00  0.00    -0.060 A 
ATOM      3  C   LIG d   1       9.124   3.034  -7.609  0.00  0.00    -0.036 A 
ATOM      4  C   LIG d   1       9.007   2.874  -6.216  0.00  0.00     0.072 A 
ATOM      5  C   LIG d   1       9.841   3.644  -5.366  0.00  0.00     0.009 A 
ATOM      6  C   LIG d   1      10.760   4.542  -5.919  0.00  0.00    -0.052 A 
ATOM      7  C   LIG d   1       9.714   3.474  -3.918  0.00  0.00     0.009 A 
ATOM      8  C   LIG d   1       8.778   2.554  -3.463  0.00  0.00    -0.026 A 
ATOM      9  C   LIG d   1       7.999   1.849  -4.394  0.00  0.00     0.072 A 
ATOM     10  N   LIG d   1       8.129   2.018  -5.693  0.00  0.00    -0.247 NA
ATOM     11  H   LIG d   1      11.554   5.364  -7.700  0.00  0.00     0.062 H 
ATOM     12  H   LIG d   1      10.114   4.035  -9.184  0.00  0.00     0.062 H 
ATOM     13  H   LIG d   1       8.498   2.458  -8.276  0.00  0.00     0.064 H 
ATOM     14  H   LIG d   1      11.397   5.131  -5.276  0.00  0.00     0.062 H 
ATOM     15  H   LIG d   1       8.648   2.387  -2.405  0.00  0.00     0.065 H 
ENDROOT
BRANCH   9  16
ATOM     16  C   LIG d   1       6.998   0.876  -3.895  0.00  0.00     0.000 A 
ATOM     17  C   LIG d   1       7.106  -0.473  -4.232  0.00  0.00    -0.051 A 
ATOM     18  C   LIG d   1       6.172  -1.375  -3.764  0.00  0.00    -0.047 A 
ATOM     19  H   LIG d   1       7.918  -0.811  -4.858  0.00  0.00     0.062 H 
ATOM     20  C   LIG d   1       5.130  -0.944  -2.963  0.00  0.00     0.018 A 
ATOM     21  H   LIG d   1       6.255  -2.420  -4.025  0.00  0.00     0.063 H 
ATOM     22  C   LIG d   1       5.018   0.394  -2.624  0.00  0.00    -0.047 A 
ATOM     23 BR   LIG d   1       3.853  -2.185  -2.326  0.00  0.00    -0.050 Br
ATOM     24  C   LIG d   1       5.950   1.303  -3.082  0.00  0.00    -0.051 A 
ATOM     25  H   LIG d   1       4.204   0.726  -1.998  0.00  0.00     0.063 H 
ATOM     26  H   LIG d   1       5.865   2.347  -2.814  0.00  0.00     0.062 H 
ENDBRANCH   9  16
BRANCH   7  27
ATOM     27  C   LIG d   1      10.554   4.245  -2.977  0.00  0.00     0.072 C 
ATOM     28  O   LIG d   1      11.656   3.838  -2.674  0.00  0.00    -0.545 OA
ATOM     29  O   LIG d   1      10.094   5.399  -2.455  0.00  0.00    -0.545 OA
ENDBRANCH   7  27
TORSDOF 2
ENDMDL
MODEL 9
REMARK VINA RESULT:      -5.7      4.421      7.021
REMARK  2 active torsions:
REMARK  status: ('A' for Active; 'I' for Inactive)
REMARK    1  A    between atoms: C_7  and  C_18 
REMARK    2  A    between atoms: C_9  and  C_11 
ROOT
ATOM      1  C   LIG d   1       3.992  -6.819  -9.477  0.00  0.00    -0.061 A 
ATOM      2  C   LIG d   1       3.646  -5.531  -9.881  0.00  0.00    -0.060 A 
ATOM      3  C   LIG d   1       3.688  -4.487  -9.010  0.00  0.00    -0.036 A 
ATOM      4  C   LIG d   1       4.085  -4.703  -7.678  0.00  0.00     0.072 A 
ATOM      5  C   LIG d   1       4.437  -6.016  -7.273  0.00  0.00     0.009 A 
ATOM      6  C   LIG d   1       4.382  -7.068  -8.195  0.00  0.00    -0.052 A 
ATOM      7  C   LIG d   1       4.851  -6.236  -5.886  0.00  0.00     0.009 A 
ATOM      8  C   LIG d   1       4.868  -5.132  -5.044  0.00  0.00    -0.026 A 
ATOM      9  C   LIG d   1       4.506  -3.875  -5.551  0.00  0.00     0.072 A 
ATOM     10  N   LIG d   1       4.137  -3.699  -6.802  0.00  0.00    -0.247 NA
ATOM     11  H   LIG d   1       3.951  -7.631 -10.188  0.00  0.00     0.062 H 
ATOM     12  H   LIG d   1       3.339  -5.360 -10.902  0.00  0.00     0.062 H 
ATOM     13  H   LIG d   1       3.415  -3.495  -9.340  0.00  0.00     0.064 H 
ATOM     14  H   LIG d   1       4.649  -8.069  -7.892  0.00  0.00     0.062 H 
ATOM     15  H   LIG d   1       5.160  -5.240  -4.011  0.00  0.00     0.065 H 
ENDROOT
BRANCH   9  16
ATOM     16  C   LIG d   1       4.536  -2.703  -4.643  0.00  0.00     0.000 A 
ATOM     17  C   LIG d   1       4.863  -1.441  -5.140  0.00  0.00    -0.051 A 
ATOM     18  C   LIG d   1       4.888  -0.354  -4.290  0.00  0.00    -0.047 A 
ATOM     19  H   LIG d   1       5.095  -1.316  -6.187  0.00  0.00     0.062 H 
ATOM     20  C   LIG d   1       4.591  -0.513  -2.948  0.00  0.00     0.018 A 
ATOM     21  H   LIG d   1       5.142   0.623  -4.674  0.00  0.00     0.063 H 
ATOM     22  C   LIG d   1       4.265  -1.763  -2.450  0.00  0.00    -0.047 A 
ATOM     23 BR   LIG d   1       4.629   0.981  -1.790  0.00  0.00    -0.050 Br
ATOM     24  C   LIG d   1       4.231  -2.856  -3.292  0.00  0.00    -0.051 A 
ATOM     25  H   LIG d   1       4.033  -1.883  -1.402  0.00  0.00     0.063 H 
ATOM     26  H   LIG d   1       3.972  -3.830  -2.903  0.00  0.00     0.062 H 
ENDBRANCH   9  16
BRANCH   7  27
ATOM     27  C   LIG d   1       5.229  -7.579  -5.401  0.00  0.00     0.072 C 
ATOM     28  O   LIG d   1       6.399  -7.898  -5.347  0.00  0.00    -0.545 OA
ATOM     29  O   LIG d   1       4.275  -8.451  -5.018  0.00  0.00    -0.545 OA
ENDBRANCH   7  27
TORSDOF 2
ENDMDL
MODEL 10
REMARK VINA RESULT:      -5.6      3.569      6.637
REMARK  2 active torsions:
REMARK  status: ('A' for Active; 'I' for Inactive)
REMARK    1  A    between atoms: C_7  and  C_18 
REMARK    2  A    between atoms: C_9  and  C_11 
ROOT
ATOM      1  C   LIG d   1       2.084  -1.456 -12.424  0.00  0.00    -0.061 A 
ATOM      2  C   LIG d   1       0.986  -1.167 -11.617  0.00  0.00    -0.060 A 
ATOM      3  C   LIG d   1       1.139  -0.891 -10.293  0.00  0.00    -0.036 A 
ATOM      4  C   LIG d   1       2.426  -0.896  -9.723  0.00  0.00     0.072 A 
ATOM      5  C   LIG d   1       3.540  -1.192 -10.550  0.00  0.00     0.009 A 
ATOM      6  C   LIG d   1       3.345  -1.471 -11.907  0.00  0.00    -0.052 A 
ATOM      7  C   LIG d   1       4.876  -1.195  -9.952  0.00  0.00     0.009 A 
ATOM      8  C   LIG d   1       4.968  -0.911  -8.596  0.00  0.00    -0.026 A 
ATOM      9  C   LIG d   1       3.800  -0.626  -7.872  0.00  0.00     0.072 A 
ATOM     10  N   LIG d   1       2.608  -0.628  -8.430  0.00  0.00    -0.247 NA
ATOM     11  H   LIG d   1       1.934  -1.672 -13.471  0.00  0.00     0.062 H 
ATOM     12  H   LIG d   1      -0.004  -1.162 -12.049  0.00  0.00     0.062 H 
ATOM     13  H   LIG d   1       0.277  -0.668  -9.682  0.00  0.00     0.064 H 
ATOM     14  H   LIG d   1       4.190  -1.697 -12.541  0.00  0.00     0.062 H 
ATOM     15  H   LIG d   1       5.929  -0.906  -8.105  0.00  0.00     0.065 H 
ENDROOT
BRANCH   9  16
ATOM     16  C   LIG d   1       3.913  -0.317  -6.426  0.00  0.00     0.000 A 
ATOM     17  C   LIG d   1       5.118  -0.536  -5.758  0.00  0.00    -0.051 A 
ATOM     18  C   LIG d   1       5.219  -0.246  -4.412  0.00  0.00    -0.047 A 
ATOM     19  H   LIG d   1       5.969  -0.932  -6.291  0.00  0.00     0.062 H 
ATOM     20  C   LIG d   1       4.128   0.261  -3.727  0.00  0.00     0.018 A 
ATOM     21  H   LIG d   1       6.150  -0.416  -3.893  0.00  0.00     0.063 H 
ATOM     22  C   LIG d   1       2.931   0.481  -4.386  0.00  0.00    -0.047 A 
ATOM     23 BR   LIG d   1       4.274   0.656  -1.883  0.00  0.00    -0.050 Br
ATOM     24  C   LIG d   1       2.821   0.200  -5.733  0.00  0.00    -0.051 A 
ATOM     25  H   LIG d   1       2.083   0.877  -3.848  0.00  0.00     0.063 H 
ATOM     26  H   LIG d   1       1.888   0.376  -6.248  0.00  0.00     0.062 H 
ENDBRANCH   9  16
BRANCH   7  27
ATOM     27  C   LIG d   1       6.077  -1.495 -10.758  0.00  0.00     0.072 C 
ATOM     28  O   LIG d   1       6.488  -2.635 -10.835  0.00  0.00    -0.545 OA
ATOM     29  O   LIG d   1       6.718  -0.503 -11.407  0.00  0.00    -0.545 OA
ENDBRANCH   7  27
TORSDOF 2
ENDMDL
