MODEL 1
REMARK VINA RESULT:      -5.9      0.000      0.000
REMARK  10 active torsions:
REMARK  status: ('A' for Active; 'I' for Inactive)
REMARK    1  A    between atoms: C_1  and  C_2 
REMARK    2  A    between atoms: C_3  and  C_24 
REMARK    3  A    between atoms: C_9  and  O_23 
REMARK    4  A    between atoms: C_10  and  C_13 
REMARK    5  A    between atoms: C_13  and  N_14 
REMARK    6  A    between atoms: N_17  and  C_20 
REMARK    7  A    between atoms: C_20  and  C_21 
REMARK    8  A    between atoms: C_21  and  O_22 
REMARK    9  A    between atoms: C_27  and  O_30 
REMARK   10  A    between atoms: O_30  and  C_31 
ROOT
ATOM      1  C   LIG d   1       6.816  -4.527  -4.977  0.00  0.00     0.114 A 
ATOM      2  C   LIG d   1       5.497  -4.287  -5.193  0.00  0.00     0.067 A 
ATOM      3  C   LIG d   1       4.653  -5.382  -5.700  0.00  0.00     0.200 A 
ATOM      4  O   LIG d   1       3.463  -5.225  -5.913  0.00  0.00    -0.286 OA
ATOM      5  C   LIG d   1       5.316  -6.676  -5.939  0.00  0.00     0.065 A 
ATOM      6  C   LIG d   1       4.605  -7.777  -6.420  0.00  0.00    -0.044 A 
ATOM      7  C   LIG d   1       5.252  -8.961  -6.631  0.00  0.00    -0.019 A 
ATOM      8  C   LIG d   1       6.614  -9.075  -6.367  0.00  0.00     0.125 A 
ATOM      9  C   LIG d   1       7.333  -7.993  -5.890  0.00  0.00     0.051 A 
ATOM     10  C   LIG d   1       6.692  -6.783  -5.666  0.00  0.00     0.147 A 
ATOM     11  O   LIG d   1       7.378  -5.716  -5.207  0.00  0.00    -0.459 OA
ATOM     12  H   LIG d   1       3.548  -7.691  -6.624  0.00  0.00     0.063 H 
ATOM     13  H   LIG d   1       4.702  -9.814  -7.002  0.00  0.00     0.065 H 
ENDROOT
BRANCH   9  14
ATOM     14  C   LIG d   1       8.808  -8.130  -5.609  0.00  0.00     0.031 C 
ATOM     15  H   LIG d   1       9.211  -8.983  -6.175  0.00  0.00     0.048 H 
ATOM     16  H   LIG d   1       9.327  -7.209  -5.914  0.00  0.00     0.048 H 
BRANCH  14  17
ATOM     17  N   LIG d   1       9.015  -8.355  -4.173  0.00  0.00    -0.295 N 
ATOM     18  C   LIG d   1       9.475  -9.727  -3.915  0.00  0.00     0.012 C 
ATOM     19  C   LIG d   1       9.602  -9.943  -2.405  0.00  0.00     0.012 C 
ATOM     20  H   LIG d   1       8.748 -10.441  -4.328  0.00  0.00     0.044 H 
ATOM     21  H   LIG d   1      10.454  -9.881  -4.392  0.00  0.00     0.044 H 
ATOM     22  N   LIG d   1      10.544  -8.962  -1.849  0.00  0.00    -0.298 N 
ATOM     23  H   LIG d   1       9.974 -10.960  -2.210  0.00  0.00     0.044 H 
ATOM     24  H   LIG d   1       8.618  -9.816  -1.930  0.00  0.00     0.044 H 
ATOM     25  C   LIG d   1      10.084  -7.590  -2.107  0.00  0.00     0.012 C 
ATOM     26  C   LIG d   1       9.956  -7.373  -3.616  0.00  0.00     0.012 C 
ATOM     27  H   LIG d   1      10.810  -6.875  -1.694  0.00  0.00     0.044 H 
ATOM     28  H   LIG d   1       9.105  -7.435  -1.631  0.00  0.00     0.044 H 
ATOM     29  H   LIG d   1      10.941  -7.501  -4.091  0.00  0.00     0.044 H 
ATOM     30  H   LIG d   1       9.584  -6.356  -3.812  0.00  0.00     0.044 H 
BRANCH  22  31
ATOM     31  C   LIG d   1      10.751  -9.186  -0.412  0.00  0.00     0.022 C 
ATOM     32  H   LIG d   1       9.777  -9.279   0.089  0.00  0.00     0.045 H 
ATOM     33  H   LIG d   1      11.329 -10.111  -0.265  0.00  0.00     0.045 H 
BRANCH  31  34
ATOM     34  C   LIG d   1      11.519  -8.004   0.182  0.00  0.00     0.057 C 
ATOM     35  H   LIG d   1      12.575  -8.283   0.315  0.00  0.00     0.057 H 
ATOM     36  H   LIG d   1      11.451  -7.143  -0.499  0.00  0.00     0.057 H 
BRANCH  34  37
ATOM     37  O   LIG d   1      10.955  -7.657   1.448  0.00  0.00    -0.394 OA
ATOM     38  H   LIG d   1      10.183  -8.296   1.901  0.00  0.00     0.209 HD
ENDBRANCH  34  37
ENDBRANCH  31  34
ENDBRANCH  22  31
ENDBRANCH  14  17
ENDBRANCH   9  14
BRANCH   8  39
ATOM     39  O   LIG d   1       7.245 -10.259  -6.581  0.00  0.00    -0.506 OA
ATOM     40  H   LIG d   1       6.682 -11.201  -6.518  0.00  0.00     0.292 HD
ENDBRANCH   8  39
BRANCH   1  41
ATOM     41  C   LIG d   1       7.681  -3.407  -4.458  0.00  0.00    -0.006 C 
ATOM     42  H   LIG d   1       8.567  -3.829  -3.960  0.00  0.00     0.031 H 
ATOM     43  H   LIG d   1       7.108  -2.805  -3.737  0.00  0.00     0.031 H 
ATOM     44  H   LIG d   1       7.999  -2.771  -5.297  0.00  0.00     0.031 H 
ENDBRANCH   1  41
BRANCH   2  45
ATOM     45  C   LIG d   1       4.918  -2.949  -4.922  0.00  0.00    -0.011 A 
ATOM     46  C   LIG d   1       4.853  -1.997  -5.938  0.00  0.00    -0.050 A 
ATOM     47  C   LIG d   1       4.313  -0.754  -5.683  0.00  0.00    -0.019 A 
ATOM     48  H   LIG d   1       5.225  -2.233  -6.924  0.00  0.00     0.062 H 
ATOM     49  C   LIG d   1       3.834  -0.450  -4.416  0.00  0.00     0.120 A 
ATOM     50  H   LIG d   1       4.263  -0.016  -6.470  0.00  0.00     0.065 H 
ATOM     51  C   LIG d   1       3.897  -1.396  -3.402  0.00  0.00    -0.019 A 
ATOM     52  C   LIG d   1       4.432  -2.643  -3.652  0.00  0.00    -0.050 A 
ATOM     53  H   LIG d   1       3.523  -1.156  -2.417  0.00  0.00     0.065 H 
ATOM     54  H   LIG d   1       4.476  -3.379  -2.863  0.00  0.00     0.062 H 
BRANCH  49  55
ATOM     55  O   LIG d   1       3.303   0.776  -4.168  0.00  0.00    -0.495 OA
BRANCH  55  56
ATOM     56  C   LIG d   1       3.578   1.356  -2.891  0.00  0.00     0.079 C 
ATOM     57  H   LIG d   1       2.816   2.115  -2.661  0.00  0.00     0.066 H 
ATOM     58  H   LIG d   1       4.572   1.828  -2.908  0.00  0.00     0.066 H 
ATOM     59  H   LIG d   1       3.558   0.571  -2.120  0.00  0.00     0.066 H 
ENDBRANCH  55  56
ENDBRANCH  49  55
ENDBRANCH   2  45
TORSDOF 10
ENDMDL
MODEL 2
REMARK VINA RESULT:      -5.7     11.493     17.004
REMARK  10 active torsions:
REMARK  status: ('A' for Active; 'I' for Inactive)
REMARK    1  A    between atoms: C_1  and  C_2 
REMARK    2  A    between atoms: C_3  and  C_24 
REMARK    3  A    between atoms: C_9  and  O_23 
REMARK    4  A    between atoms: C_10  and  C_13 
REMARK    5  A    between atoms: C_13  and  N_14 
REMARK    6  A    between atoms: N_17  and  C_20 
REMARK    7  A    between atoms: C_20  and  C_21 
REMARK    8  A    between atoms: C_21  and  O_22 
REMARK    9  A    between atoms: C_27  and  O_30 
REMARK   10  A    between atoms: O_30  and  C_31 
ROOT
ATOM      1  C   LIG d   1       9.962   6.833  -3.045  0.00  0.00     0.114 A 
ATOM      2  C   LIG d   1      10.812   6.052  -2.329  0.00  0.00     0.067 A 
ATOM      3  C   LIG d   1      11.365   6.580  -1.070  0.00  0.00     0.200 A 
ATOM      4  O   LIG d   1      12.132   5.925  -0.385  0.00  0.00    -0.286 OA
ATOM      5  C   LIG d   1      10.947   7.938  -0.678  0.00  0.00     0.065 A 
ATOM      6  C   LIG d   1      11.414   8.530   0.496  0.00  0.00    -0.044 A 
ATOM      7  C   LIG d   1      11.007   9.791   0.828  0.00  0.00    -0.019 A 
ATOM      8  C   LIG d   1      10.128  10.486   0.002  0.00  0.00     0.125 A 
ATOM      9  C   LIG d   1       9.655   9.913  -1.166  0.00  0.00     0.051 A 
ATOM     10  C   LIG d   1      10.055   8.631  -1.517  0.00  0.00     0.147 A 
ATOM     11  O   LIG d   1       9.609   8.060  -2.654  0.00  0.00    -0.459 OA
ATOM     12  H   LIG d   1      12.096   7.992   1.139  0.00  0.00     0.063 H 
ATOM     13  H   LIG d   1      11.368  10.249   1.738  0.00  0.00     0.065 H 
ENDROOT
BRANCH   9  14
ATOM     14  C   LIG d   1       8.705  10.677  -2.051  0.00  0.00     0.031 C 
ATOM     15  H   LIG d   1       8.000   9.976  -2.523  0.00  0.00     0.048 H 
ATOM     16  H   LIG d   1       8.146  11.407  -1.447  0.00  0.00     0.048 H 
BRANCH  14  17
ATOM     17  N   LIG d   1       9.463  11.383  -3.093  0.00  0.00    -0.295 N 
ATOM     18  C   LIG d   1       9.191  10.815  -4.420  0.00  0.00     0.012 C 
ATOM     19  C   LIG d   1      10.057  11.524  -5.463  0.00  0.00     0.012 C 
ATOM     20  H   LIG d   1       9.427   9.741  -4.415  0.00  0.00     0.044 H 
ATOM     21  H   LIG d   1       8.128  10.956  -4.669  0.00  0.00     0.044 H 
ATOM     22  N   LIG d   1       9.768  12.965  -5.440  0.00  0.00    -0.298 N 
ATOM     23  H   LIG d   1       9.834  11.122  -6.462  0.00  0.00     0.044 H 
ATOM     24  H   LIG d   1      11.121  11.361  -5.231  0.00  0.00     0.044 H 
ATOM     25  C   LIG d   1      10.040  13.533  -4.112  0.00  0.00     0.012 C 
ATOM     26  C   LIG d   1       9.174  12.824  -3.069  0.00  0.00     0.012 C 
ATOM     27  H   LIG d   1       9.804  14.607  -4.117  0.00  0.00     0.044 H 
ATOM     28  H   LIG d   1      11.102  13.392  -3.863  0.00  0.00     0.044 H 
ATOM     29  H   LIG d   1       8.111  12.987  -3.302  0.00  0.00     0.044 H 
ATOM     30  H   LIG d   1       9.397  13.227  -2.070  0.00  0.00     0.044 H 
BRANCH  22  31
ATOM     31  C   LIG d   1      10.526  13.671  -6.480  0.00  0.00     0.022 C 
ATOM     32  H   LIG d   1      10.225  14.729  -6.500  0.00  0.00     0.045 H 
ATOM     33  H   LIG d   1      11.602  13.601  -6.262  0.00  0.00     0.045 H 
BRANCH  31  34
ATOM     34  C   LIG d   1      10.240  13.034  -7.842  0.00  0.00     0.057 C 
ATOM     35  H   LIG d   1      10.771  13.593  -8.627  0.00  0.00     0.057 H 
ATOM     36  H   LIG d   1      10.586  11.990  -7.838  0.00  0.00     0.057 H 
BRANCH  34  37
ATOM     37  O   LIG d   1       8.835  13.071  -8.099  0.00  0.00    -0.394 OA
ATOM     38  H   LIG d   1       8.160  12.387  -7.564  0.00  0.00     0.209 HD
ENDBRANCH  34  37
ENDBRANCH  31  34
ENDBRANCH  22  31
ENDBRANCH  14  17
ENDBRANCH   9  14
BRANCH   8  39
ATOM     39  O   LIG d   1       9.731  11.739   0.344  0.00  0.00    -0.506 OA
ATOM     40  H   LIG d   1       9.331  12.418  -0.422  0.00  0.00     0.292 HD
ENDBRANCH   8  39
BRANCH   1  41
ATOM     41  C   LIG d   1       9.396   6.294  -4.334  0.00  0.00    -0.006 C 
ATOM     42  H   LIG d   1       8.379   5.912  -4.156  0.00  0.00     0.031 H 
ATOM     43  H   LIG d   1      10.034   5.477  -4.702  0.00  0.00     0.031 H 
ATOM     44  H   LIG d   1       9.360   7.098  -5.083  0.00  0.00     0.031 H 
ENDBRANCH   1  41
BRANCH   2  45
ATOM     45  C   LIG d   1      11.174   4.695  -2.803  0.00  0.00    -0.011 A 
ATOM     46  C   LIG d   1      12.413   4.472  -3.401  0.00  0.00    -0.050 A 
ATOM     47  C   LIG d   1      12.748   3.209  -3.841  0.00  0.00    -0.019 A 
ATOM     48  H   LIG d   1      13.111   5.288  -3.519  0.00  0.00     0.062 H 
ATOM     49  C   LIG d   1      11.852   2.159  -3.689  0.00  0.00     0.120 A 
ATOM     50  H   LIG d   1      13.708   3.035  -4.305  0.00  0.00     0.065 H 
ATOM     51  C   LIG d   1      10.618   2.378  -3.094  0.00  0.00    -0.019 A 
ATOM     52  C   LIG d   1      10.279   3.638  -2.647  0.00  0.00    -0.050 A 
ATOM     53  H   LIG d   1       9.923   1.559  -2.976  0.00  0.00     0.065 H 
ATOM     54  H   LIG d   1       9.320   3.806  -2.181  0.00  0.00     0.062 H 
BRANCH  49  55
ATOM     55  O   LIG d   1      12.185   0.915  -4.124  0.00  0.00    -0.495 OA
BRANCH  55  56
ATOM     56  C   LIG d   1      13.439   0.388  -3.684  0.00  0.00     0.079 C 
ATOM     57  H   LIG d   1      13.277  -0.583  -3.193  0.00  0.00     0.066 H 
ATOM     58  H   LIG d   1      13.901   1.087  -2.970  0.00  0.00     0.066 H 
ATOM     59  H   LIG d   1      14.105   0.255  -4.549  0.00  0.00     0.066 H 
ENDBRANCH  55  56
ENDBRANCH  49  55
ENDBRANCH   2  45
TORSDOF 10
ENDMDL
MODEL 3
REMARK VINA RESULT:      -5.6      2.681      4.503
REMARK  10 active torsions:
REMARK  status: ('A' for Active; 'I' for Inactive)
REMARK    1  A    between atoms: C_1  and  C_2 
REMARK    2  A    between atoms: C_3  and  C_24 
REMARK    3  A    between atoms: C_9  and  O_23 
REMARK    4  A    between atoms: C_10  and  C_13 
REMARK    5  A    between atoms: C_13  and  N_14 
REMARK    6  A    between atoms: N_17  and  C_20 
REMARK    7  A    between atoms: C_20  and  C_21 
REMARK    8  A    between atoms: C_21  and  O_22 
REMARK    9  A    between atoms: C_27  and  O_30 
REMARK   10  A    between atoms: O_30  and  C_31 
ROOT
ATOM      1  C   LIG d   1       5.852  -4.764  -5.551  0.00  0.00     0.114 A 
ATOM      2  C   LIG d   1       6.303  -3.720  -4.807  0.00  0.00     0.067 A 
ATOM      3  C   LIG d   1       7.693  -3.748  -4.320  0.00  0.00     0.200 A 
ATOM      4  O   LIG d   1       8.153  -2.841  -3.649  0.00  0.00    -0.286 OA
ATOM      5  C   LIG d   1       8.500  -4.926  -4.684  0.00  0.00     0.065 A 
ATOM      6  C   LIG d   1       9.829  -5.049  -4.273  0.00  0.00    -0.044 A 
ATOM      7  C   LIG d   1      10.548  -6.155  -4.628  0.00  0.00    -0.019 A 
ATOM      8  C   LIG d   1       9.963  -7.157  -5.398  0.00  0.00     0.125 A 
ATOM      9  C   LIG d   1       8.647  -7.049  -5.814  0.00  0.00     0.051 A 
ATOM     10  C   LIG d   1       7.903  -5.931  -5.466  0.00  0.00     0.147 A 
ATOM     11  O   LIG d   1       6.618  -5.813  -5.857  0.00  0.00    -0.459 OA
ATOM     12  H   LIG d   1      10.285  -4.273  -3.677  0.00  0.00     0.063 H 
ATOM     13  H   LIG d   1      11.576  -6.251  -4.311  0.00  0.00     0.065 H 
ENDROOT
BRANCH   9  14
ATOM     14  C   LIG d   1       8.027  -8.142  -6.646  0.00  0.00     0.031 C 
ATOM     15  H   LIG d   1       7.751  -7.739  -7.632  0.00  0.00     0.048 H 
ATOM     16  H   LIG d   1       8.749  -8.962  -6.774  0.00  0.00     0.048 H 
BRANCH  14  17
ATOM     17  N   LIG d   1       6.824  -8.650  -5.972  0.00  0.00    -0.295 N 
ATOM     18  C   LIG d   1       5.936  -9.333  -6.922  0.00  0.00     0.012 C 
ATOM     19  C   LIG d   1       4.663  -9.776  -6.198  0.00  0.00     0.012 C 
ATOM     20  H   LIG d   1       5.673  -8.645  -7.739  0.00  0.00     0.044 H 
ATOM     21  H   LIG d   1       6.449 -10.214  -7.336  0.00  0.00     0.044 H 
ATOM     22  N   LIG d   1       5.020 -10.665  -5.083  0.00  0.00    -0.298 N 
ATOM     23  H   LIG d   1       4.009 -10.314  -6.900  0.00  0.00     0.044 H 
ATOM     24  H   LIG d   1       4.135  -8.893  -5.808  0.00  0.00     0.044 H 
ATOM     25  C   LIG d   1       5.909  -9.982  -4.133  0.00  0.00     0.012 C 
ATOM     26  C   LIG d   1       7.182  -9.538  -4.857  0.00  0.00     0.012 C 
ATOM     27  H   LIG d   1       6.172 -10.669  -3.316  0.00  0.00     0.044 H 
ATOM     28  H   LIG d   1       5.397  -9.100  -3.719  0.00  0.00     0.044 H 
ATOM     29  H   LIG d   1       7.710 -10.421  -5.248  0.00  0.00     0.044 H 
ATOM     30  H   LIG d   1       7.836  -9.000  -4.155  0.00  0.00     0.044 H 
BRANCH  22  31
ATOM     31  C   LIG d   1       3.819 -11.173  -4.408  0.00  0.00     0.022 C 
ATOM     32  H   LIG d   1       2.956 -11.094  -5.087  0.00  0.00     0.045 H 
ATOM     33  H   LIG d   1       3.972 -12.226  -4.130  0.00  0.00     0.045 H 
BRANCH  31  34
ATOM     34  C   LIG d   1       3.553 -10.345  -3.149  0.00  0.00     0.057 C 
ATOM     35  H   LIG d   1       3.810 -10.939  -2.260  0.00  0.00     0.057 H 
ATOM     36  H   LIG d   1       4.169  -9.435  -3.172  0.00  0.00     0.057 H 
BRANCH  34  37
ATOM     37  O   LIG d   1       2.171  -9.985  -3.098  0.00  0.00    -0.394 OA
ATOM     38  H   LIG d   1       1.396 -10.756  -3.217  0.00  0.00     0.209 HD
ENDBRANCH  34  37
ENDBRANCH  31  34
ENDBRANCH  22  31
ENDBRANCH  14  17
ENDBRANCH   9  14
BRANCH   8  39
ATOM     39  O   LIG d   1      10.690  -8.251  -5.743  0.00  0.00    -0.506 OA
ATOM     40  H   LIG d   1      11.772  -8.276  -5.550  0.00  0.00     0.292 HD
ENDBRANCH   8  39
BRANCH   1  41
ATOM     41  C   LIG d   1       4.429  -4.736  -6.048  0.00  0.00    -0.006 C 
ATOM     42  H   LIG d   1       3.990  -3.747  -5.847  0.00  0.00     0.031 H 
ATOM     43  H   LIG d   1       3.844  -5.509  -5.529  0.00  0.00     0.031 H 
ATOM     44  H   LIG d   1       4.416  -4.929  -7.131  0.00  0.00     0.031 H 
ENDBRANCH   1  41
BRANCH   2  45
ATOM     45  C   LIG d   1       5.414  -2.575  -4.491  0.00  0.00    -0.011 A 
ATOM     46  C   LIG d   1       4.623  -2.602  -3.345  0.00  0.00    -0.050 A 
ATOM     47  C   LIG d   1       3.798  -1.535  -3.054  0.00  0.00    -0.019 A 
ATOM     48  H   LIG d   1       4.655  -3.455  -2.684  0.00  0.00     0.062 H 
ATOM     49  C   LIG d   1       3.756  -0.436  -3.901  0.00  0.00     0.120 A 
ATOM     50  H   LIG d   1       3.183  -1.555  -2.166  0.00  0.00     0.065 H 
ATOM     51  C   LIG d   1       4.544  -0.408  -5.044  0.00  0.00    -0.019 A 
ATOM     52  C   LIG d   1       5.374  -1.469  -5.338  0.00  0.00    -0.050 A 
ATOM     53  H   LIG d   1       4.509   0.449  -5.701  0.00  0.00     0.065 H 
ATOM     54  H   LIG d   1       5.989  -1.444  -6.225  0.00  0.00     0.062 H 
BRANCH  49  55
ATOM     55  O   LIG d   1       2.942   0.613  -3.612  0.00  0.00    -0.495 OA
BRANCH  55  56
ATOM     56  C   LIG d   1       3.494   1.660  -2.812  0.00  0.00     0.079 C 
ATOM     57  H   LIG d   1       2.770   2.484  -2.735  0.00  0.00     0.066 H 
ATOM     58  H   LIG d   1       4.420   2.028  -3.277  0.00  0.00     0.066 H 
ATOM     59  H   LIG d   1       3.718   1.274  -1.806  0.00  0.00     0.066 H 
ENDBRANCH  55  56
ENDBRANCH  49  55
ENDBRANCH   2  45
TORSDOF 10
ENDMDL
MODEL 4
REMARK VINA RESULT:      -5.4     10.474     14.125
REMARK  10 active torsions:
REMARK  status: ('A' for Active; 'I' for Inactive)
REMARK    1  A    between atoms: C_1  and  C_2 
REMARK    2  A    between atoms: C_3  and  C_24 
REMARK    3  A    between atoms: C_9  and  O_23 
REMARK    4  A    between atoms: C_10  and  C_13 
REMARK    5  A    between atoms: C_13  and  N_14 
REMARK    6  A    between atoms: N_17  and  C_20 
REMARK    7  A    between atoms: C_20  and  C_21 
REMARK    8  A    between atoms: C_21  and  O_22 
REMARK    9  A    between atoms: C_27  and  O_30 
REMARK   10  A    between atoms: O_30  and  C_31 
ROOT
ATOM      1  C   LIG d   1      10.902   6.019  -6.863  0.00  0.00     0.114 A 
ATOM      2  C   LIG d   1      10.213   5.046  -7.513  0.00  0.00     0.067 A 
ATOM      3  C   LIG d   1       9.751   3.875  -6.748  0.00  0.00     0.200 A 
ATOM      4  O   LIG d   1       9.128   2.971  -7.278  0.00  0.00    -0.286 OA
ATOM      5  C   LIG d   1      10.078   3.849  -5.312  0.00  0.00     0.065 A 
ATOM      6  C   LIG d   1       9.687   2.784  -4.498  0.00  0.00    -0.044 A 
ATOM      7  C   LIG d   1      10.008   2.792  -3.171  0.00  0.00    -0.019 A 
ATOM      8  C   LIG d   1      10.722   3.856  -2.626  0.00  0.00     0.125 A 
ATOM      9  C   LIG d   1      11.117   4.919  -3.420  0.00  0.00     0.051 A 
ATOM     10  C   LIG d   1      10.796   4.930  -4.770  0.00  0.00     0.147 A 
ATOM     11  O   LIG d   1      11.179   5.955  -5.558  0.00  0.00    -0.459 OA
ATOM     12  H   LIG d   1       9.132   1.958  -4.918  0.00  0.00     0.063 H 
ATOM     13  H   LIG d   1       9.704   1.968  -2.540  0.00  0.00     0.065 H 
ENDROOT
BRANCH   9  14
ATOM     14  C   LIG d   1      11.890   6.064  -2.817  0.00  0.00     0.031 C 
ATOM     15  H   LIG d   1      12.271   5.770  -1.828  0.00  0.00     0.048 H 
ATOM     16  H   LIG d   1      12.734   6.323  -3.473  0.00  0.00     0.048 H 
BRANCH  14  17
ATOM     17  N   LIG d   1      11.007   7.230  -2.673  0.00  0.00    -0.295 N 
ATOM     18  C   LIG d   1      10.590   7.407  -1.276  0.00  0.00     0.012 C 
ATOM     19  C   LIG d   1       9.612   8.580  -1.183  0.00  0.00     0.012 C 
ATOM     20  H   LIG d   1      10.098   6.489  -0.922  0.00  0.00     0.044 H 
ATOM     21  H   LIG d   1      11.472   7.613  -0.652  0.00  0.00     0.044 H 
ATOM     22  N   LIG d   1      10.259   9.796  -1.693  0.00  0.00    -0.298 N 
ATOM     23  H   LIG d   1       9.320   8.733  -0.133  0.00  0.00     0.044 H 
ATOM     24  H   LIG d   1       8.716   8.362  -1.784  0.00  0.00     0.044 H 
ATOM     25  C   LIG d   1      10.677   9.620  -3.091  0.00  0.00     0.012 C 
ATOM     26  C   LIG d   1      11.655   8.447  -3.185  0.00  0.00     0.012 C 
ATOM     27  H   LIG d   1      11.169  10.537  -3.446  0.00  0.00     0.044 H 
ATOM     28  H   LIG d   1       9.795   9.412  -3.715  0.00  0.00     0.044 H 
ATOM     29  H   LIG d   1      12.550   8.665  -2.583  0.00  0.00     0.044 H 
ATOM     30  H   LIG d   1      11.947   8.293  -4.235  0.00  0.00     0.044 H 
BRANCH  22  31
ATOM     31  C   LIG d   1       9.377  10.962  -1.551  0.00  0.00     0.022 C 
ATOM     32  H   LIG d   1       8.472  10.672  -0.997  0.00  0.00     0.045 H 
ATOM     33  H   LIG d   1       9.905  11.756  -1.001  0.00  0.00     0.045 H 
BRANCH  31  34
ATOM     34  C   LIG d   1       8.984  11.476  -2.937  0.00  0.00     0.057 C 
ATOM     35  H   LIG d   1       9.434  12.466  -3.102  0.00  0.00     0.057 H 
ATOM     36  H   LIG d   1       9.347  10.776  -3.704  0.00  0.00     0.057 H 
BRANCH  34  37
ATOM     37  O   LIG d   1       7.561  11.580  -3.021  0.00  0.00    -0.394 OA
ATOM     38  H   LIG d   1       7.086  11.871  -3.969  0.00  0.00     0.209 HD
ENDBRANCH  34  37
ENDBRANCH  31  34
ENDBRANCH  22  31
ENDBRANCH  14  17
ENDBRANCH   9  14
BRANCH   8  39
ATOM     39  O   LIG d   1      11.034   3.851  -1.304  0.00  0.00    -0.506 OA
ATOM     40  H   LIG d   1      11.658   4.652  -0.884  0.00  0.00     0.292 HD
ENDBRANCH   8  39
BRANCH   1  41
ATOM     41  C   LIG d   1      11.376   7.217  -7.645  0.00  0.00    -0.006 C 
ATOM     42  H   LIG d   1      11.104   8.137  -7.107  0.00  0.00     0.031 H 
ATOM     43  H   LIG d   1      10.900   7.219  -8.637  0.00  0.00     0.031 H 
ATOM     44  H   LIG d   1      12.468   7.170  -7.762  0.00  0.00     0.031 H 
ENDBRANCH   1  41
BRANCH   2  45
ATOM     45  C   LIG d   1       9.929   5.160  -8.965  0.00  0.00    -0.011 A 
ATOM     46  C   LIG d   1       8.857   5.932  -9.407  0.00  0.00    -0.050 A 
ATOM     47  C   LIG d   1       8.597   6.038 -10.758  0.00  0.00    -0.019 A 
ATOM     48  H   LIG d   1       8.231   6.449  -8.695  0.00  0.00     0.062 H 
ATOM     49  C   LIG d   1       9.402   5.376 -11.676  0.00  0.00     0.120 A 
ATOM     50  H   LIG d   1       7.766   6.636 -11.102  0.00  0.00     0.065 H 
ATOM     51  C   LIG d   1      10.470   4.606 -11.237  0.00  0.00    -0.019 A 
ATOM     52  C   LIG d   1      10.739   4.501  -9.888  0.00  0.00    -0.050 A 
ATOM     53  H   LIG d   1      11.095   4.093 -11.953  0.00  0.00     0.065 H 
ATOM     54  H   LIG d   1      11.573   3.905  -9.548  0.00  0.00     0.062 H 
BRANCH  49  55
ATOM     55  O   LIG d   1       9.142   5.482 -13.005  0.00  0.00    -0.495 OA
BRANCH  55  56
ATOM     56  C   LIG d   1      10.030   4.802 -13.895  0.00  0.00     0.079 C 
ATOM     57  H   LIG d   1      11.063   5.119 -13.696  0.00  0.00     0.066 H 
ATOM     58  H   LIG d   1       9.765   5.046 -14.935  0.00  0.00     0.066 H 
ATOM     59  H   LIG d   1       9.943   3.716 -13.741  0.00  0.00     0.066 H 
ENDBRANCH  55  56
ENDBRANCH  49  55
ENDBRANCH   2  45
TORSDOF 10
ENDMDL
MODEL 5
REMARK VINA RESULT:      -5.4      4.299      6.100
REMARK  10 active torsions:
REMARK  status: ('A' for Active; 'I' for Inactive)
REMARK    1  A    between atoms: C_1  and  C_2 
REMARK    2  A    between atoms: C_3  and  C_24 
REMARK    3  A    between atoms: C_9  and  O_23 
REMARK    4  A    between atoms: C_10  and  C_13 
REMARK    5  A    between atoms: C_13  and  N_14 
REMARK    6  A    between atoms: N_17  and  C_20 
REMARK    7  A    between atoms: C_20  and  C_21 
REMARK    8  A    between atoms: C_21  and  O_22 
REMARK    9  A    between atoms: C_27  and  O_30 
REMARK   10  A    between atoms: O_30  and  C_31 
ROOT
ATOM      1  C   LIG d   1       8.721   0.016  -5.034  0.00  0.00     0.114 A 
ATOM      2  C   LIG d   1       8.161   1.022  -4.313  0.00  0.00     0.067 A 
ATOM      3  C   LIG d   1       6.842   0.800  -3.697  0.00  0.00     0.200 A 
ATOM      4  O   LIG d   1       6.290   1.665  -3.039  0.00  0.00    -0.286 OA
ATOM      5  C   LIG d   1       6.221  -0.519  -3.913  0.00  0.00     0.065 A 
ATOM      6  C   LIG d   1       4.972  -0.830  -3.372  0.00  0.00    -0.044 A 
ATOM      7  C   LIG d   1       4.425  -2.062  -3.594  0.00  0.00    -0.019 A 
ATOM      8  C   LIG d   1       5.108  -3.007  -4.355  0.00  0.00     0.125 A 
ATOM      9  C   LIG d   1       6.347  -2.714  -4.898  0.00  0.00     0.051 A 
ATOM     10  C   LIG d   1       6.919  -1.469  -4.680  0.00  0.00     0.147 A 
ATOM     11  O   LIG d   1       8.123  -1.165  -5.206  0.00  0.00    -0.459 OA
ATOM     12  H   LIG d   1       4.441  -0.099  -2.780  0.00  0.00     0.063 H 
ATOM     13  H   LIG d   1       3.459  -2.304  -3.175  0.00  0.00     0.065 H 
ENDROOT
BRANCH   9  14
ATOM     14  C   LIG d   1       7.074  -3.747  -5.720  0.00  0.00     0.031 C 
ATOM     15  H   LIG d   1       6.357  -4.272  -6.368  0.00  0.00     0.048 H 
ATOM     16  H   LIG d   1       7.835  -3.253  -6.342  0.00  0.00     0.048 H 
BRANCH  14  17
ATOM     17  N   LIG d   1       7.725  -4.715  -4.827  0.00  0.00    -0.295 N 
ATOM     18  C   LIG d   1       7.664  -6.073  -5.386  0.00  0.00     0.012 C 
ATOM     19  C   LIG d   1       8.281  -7.059  -4.392  0.00  0.00     0.012 C 
ATOM     20  H   LIG d   1       6.615  -6.345  -5.571  0.00  0.00     0.044 H 
ATOM     21  H   LIG d   1       8.223  -6.106  -6.332  0.00  0.00     0.044 H 
ATOM     22  N   LIG d   1       9.670  -6.669  -4.117  0.00  0.00    -0.298 N 
ATOM     23  H   LIG d   1       8.262  -8.072  -4.820  0.00  0.00     0.044 H 
ATOM     24  H   LIG d   1       7.704  -7.047  -3.455  0.00  0.00     0.044 H 
ATOM     25  C   LIG d   1       9.733  -5.311  -3.558  0.00  0.00     0.012 C 
ATOM     26  C   LIG d   1       9.115  -4.324  -4.551  0.00  0.00     0.012 C 
ATOM     27  H   LIG d   1      10.781  -5.038  -3.373  0.00  0.00     0.044 H 
ATOM     28  H   LIG d   1       9.172  -5.277  -2.612  0.00  0.00     0.044 H 
ATOM     29  H   LIG d   1       9.691  -4.338  -5.489  0.00  0.00     0.044 H 
ATOM     30  H   LIG d   1       9.134  -3.311  -4.124  0.00  0.00     0.044 H 
BRANCH  22  31
ATOM     31  C   LIG d   1      10.322  -7.636  -3.224  0.00  0.00     0.022 C 
ATOM     32  H   LIG d   1       9.619  -8.448  -2.986  0.00  0.00     0.045 H 
ATOM     33  H   LIG d   1      11.210  -8.054  -3.721  0.00  0.00     0.045 H 
BRANCH  31  34
ATOM     34  C   LIG d   1      10.744  -6.933  -1.932  0.00  0.00     0.057 C 
ATOM     35  H   LIG d   1      11.835  -7.007  -1.814  0.00  0.00     0.057 H 
ATOM     36  H   LIG d   1      10.452  -5.874  -1.980  0.00  0.00     0.057 H 
BRANCH  34  37
ATOM     37  O   LIG d   1      10.100  -7.555  -0.818  0.00  0.00    -0.394 OA
ATOM     38  H   LIG d   1      10.577  -8.407  -0.312  0.00  0.00     0.209 HD
ENDBRANCH  34  37
ENDBRANCH  31  34
ENDBRANCH  22  31
ENDBRANCH  14  17
ENDBRANCH   9  14
BRANCH   8  39
ATOM     39  O   LIG d   1       4.552  -4.229  -4.567  0.00  0.00    -0.506 OA
ATOM     40  H   LIG d   1       5.100  -5.139  -4.285  0.00  0.00     0.292 HD
ENDBRANCH   8  39
BRANCH   1  41
ATOM     41  C   LIG d   1      10.071   0.243  -5.665  0.00  0.00    -0.006 C 
ATOM     42  H   LIG d   1       9.937   0.590  -6.701  0.00  0.00     0.031 H 
ATOM     43  H   LIG d   1      10.639  -0.699  -5.665  0.00  0.00     0.031 H 
ATOM     44  H   LIG d   1      10.620   1.004  -5.092  0.00  0.00     0.031 H 
ENDBRANCH   1  41
BRANCH   2  45
ATOM     45  C   LIG d   1       8.864   2.317  -4.148  0.00  0.00    -0.011 A 
ATOM     46  C   LIG d   1       9.745   2.503  -3.085  0.00  0.00    -0.050 A 
ATOM     47  C   LIG d   1      10.398   3.709  -2.936  0.00  0.00    -0.019 A 
ATOM     48  H   LIG d   1       9.918   1.704  -2.380  0.00  0.00     0.062 H 
ATOM     49  C   LIG d   1      10.178   4.737  -3.843  0.00  0.00     0.120 A 
ATOM     50  H   LIG d   1      11.081   3.854  -2.112  0.00  0.00     0.065 H 
ATOM     51  C   LIG d   1       9.301   4.554  -4.902  0.00  0.00    -0.019 A 
ATOM     52  C   LIG d   1       8.648   3.349  -5.060  0.00  0.00    -0.050 A 
ATOM     53  H   LIG d   1       9.132   5.356  -5.607  0.00  0.00     0.065 H 
ATOM     54  H   LIG d   1       7.969   3.207  -5.887  0.00  0.00     0.062 H 
BRANCH  49  55
ATOM     55  O   LIG d   1      10.823   5.923  -3.692  0.00  0.00    -0.495 OA
BRANCH  55  56
ATOM     56  C   LIG d   1      10.072   7.109  -3.964  0.00  0.00     0.079 C 
ATOM     57  H   LIG d   1      10.721   7.852  -4.448  0.00  0.00     0.066 H 
ATOM     58  H   LIG d   1       9.682   7.521  -3.021  0.00  0.00     0.066 H 
ATOM     59  H   LIG d   1       9.232   6.865  -4.631  0.00  0.00     0.066 H 
ENDBRANCH  55  56
ENDBRANCH  49  55
ENDBRANCH   2  45
TORSDOF 10
ENDMDL
MODEL 6
REMARK VINA RESULT:      -5.4      6.540      9.419
REMARK  10 active torsions:
REMARK  status: ('A' for Active; 'I' for Inactive)
REMARK    1  A    between atoms: C_1  and  C_2 
REMARK    2  A    between atoms: C_3  and  C_24 
REMARK    3  A    between atoms: C_9  and  O_23 
REMARK    4  A    between atoms: C_10  and  C_13 
REMARK    5  A    between atoms: C_13  and  N_14 
REMARK    6  A    between atoms: N_17  and  C_20 
REMARK    7  A    between atoms: C_20  and  C_21 
REMARK    8  A    between atoms: C_21  and  O_22 
REMARK    9  A    between atoms: C_27  and  O_30 
REMARK   10  A    between atoms: O_30  and  C_31 
ROOT
ATOM      1  C   LIG d   1       4.274  -2.260  -8.068  0.00  0.00     0.114 A 
ATOM      2  C   LIG d   1       4.479  -0.978  -7.665  0.00  0.00     0.067 A 
ATOM      3  C   LIG d   1       4.434   0.094  -8.673  0.00  0.00     0.200 A 
ATOM      4  O   LIG d   1       4.610   1.262  -8.371  0.00  0.00    -0.286 OA
ATOM      5  C   LIG d   1       4.166  -0.312 -10.064  0.00  0.00     0.065 A 
ATOM      6  C   LIG d   1       4.103   0.628 -11.095  0.00  0.00    -0.044 A 
ATOM      7  C   LIG d   1       3.853   0.217 -12.373  0.00  0.00    -0.019 A 
ATOM      8  C   LIG d   1       3.660  -1.134 -12.652  0.00  0.00     0.125 A 
ATOM      9  C   LIG d   1       3.720  -2.078 -11.641  0.00  0.00     0.051 A 
ATOM     10  C   LIG d   1       3.968  -1.678 -10.336  0.00  0.00     0.147 A 
ATOM     11  O   LIG d   1       4.035  -2.585  -9.340  0.00  0.00    -0.459 OA
ATOM     12  H   LIG d   1       4.251   1.677 -10.881  0.00  0.00     0.063 H 
ATOM     13  H   LIG d   1       3.804   0.943 -13.171  0.00  0.00     0.065 H 
ENDROOT
BRANCH   9  14
ATOM     14  C   LIG d   1       3.509  -3.537 -11.957  0.00  0.00     0.031 C 
ATOM     15  H   LIG d   1       3.484  -3.675 -13.048  0.00  0.00     0.048 H 
ATOM     16  H   LIG d   1       4.334  -4.128 -11.532  0.00  0.00     0.048 H 
BRANCH  14  17
ATOM     17  N   LIG d   1       2.236  -3.986 -11.378  0.00  0.00    -0.295 N 
ATOM     18  C   LIG d   1       1.118  -3.726 -12.295  0.00  0.00     0.012 C 
ATOM     19  C   LIG d   1      -0.194  -4.135 -11.623  0.00  0.00     0.012 C 
ATOM     20  H   LIG d   1       1.087  -2.655 -12.541  0.00  0.00     0.044 H 
ATOM     21  H   LIG d   1       1.257  -4.310 -13.217  0.00  0.00     0.044 H 
ATOM     22  N   LIG d   1      -0.135  -5.557 -11.261  0.00  0.00    -0.298 N 
ATOM     23  H   LIG d   1      -1.030  -3.969 -12.319  0.00  0.00     0.044 H 
ATOM     24  H   LIG d   1      -0.348  -3.531 -10.716  0.00  0.00     0.044 H 
ATOM     25  C   LIG d   1       0.984  -5.818 -10.343  0.00  0.00     0.012 C 
ATOM     26  C   LIG d   1       2.297  -5.409 -11.014  0.00  0.00     0.012 C 
ATOM     27  H   LIG d   1       1.015  -6.889 -10.097  0.00  0.00     0.044 H 
ATOM     28  H   LIG d   1       0.846  -5.234  -9.421  0.00  0.00     0.044 H 
ATOM     29  H   LIG d   1       2.449  -6.012 -11.922  0.00  0.00     0.044 H 
ATOM     30  H   LIG d   1       3.133  -5.575 -10.319  0.00  0.00     0.044 H 
BRANCH  22  31
ATOM     31  C   LIG d   1      -1.407  -6.007 -10.681  0.00  0.00     0.022 C 
ATOM     32  H   LIG d   1      -1.991  -5.134 -10.355  0.00  0.00     0.045 H 
ATOM     33  H   LIG d   1      -1.976  -6.569 -11.436  0.00  0.00     0.045 H 
BRANCH  31  34
ATOM     34  C   LIG d   1      -1.128  -6.910  -9.477  0.00  0.00     0.057 C 
ATOM     35  H   LIG d   1      -1.603  -7.890  -9.636  0.00  0.00     0.057 H 
ATOM     36  H   LIG d   1      -0.042  -7.045  -9.365  0.00  0.00     0.057 H 
BRANCH  34  37
ATOM     37  O   LIG d   1      -1.659  -6.309  -8.296  0.00  0.00    -0.394 OA
ATOM     38  H   LIG d   1      -1.514  -5.234  -8.112  0.00  0.00     0.209 HD
ENDBRANCH  34  37
ENDBRANCH  31  34
ENDBRANCH  22  31
ENDBRANCH  14  17
ENDBRANCH   9  14
BRANCH   8  39
ATOM     39  O   LIG d   1       3.413  -1.529 -13.927  0.00  0.00    -0.506 OA
ATOM     40  H   LIG d   1       3.702  -2.538 -14.256  0.00  0.00     0.292 HD
ENDBRANCH   8  39
BRANCH   1  41
ATOM     41  C   LIG d   1       4.321  -3.358  -7.037  0.00  0.00    -0.006 C 
ATOM     42  H   LIG d   1       3.469  -3.251  -6.348  0.00  0.00     0.031 H 
ATOM     43  H   LIG d   1       5.261  -3.290  -6.470  0.00  0.00     0.031 H 
ATOM     44  H   LIG d   1       4.265  -4.335  -7.539  0.00  0.00     0.031 H 
ENDBRANCH   1  41
BRANCH   2  45
ATOM     45  C   LIG d   1       4.741  -0.666  -6.239  0.00  0.00    -0.011 A 
ATOM     46  C   LIG d   1       3.681  -0.390  -5.379  0.00  0.00    -0.050 A 
ATOM     47  C   LIG d   1       3.928  -0.100  -4.053  0.00  0.00    -0.019 A 
ATOM     48  H   LIG d   1       2.666  -0.403  -5.749  0.00  0.00     0.062 H 
ATOM     49  C   LIG d   1       5.232  -0.084  -3.576  0.00  0.00     0.120 A 
ATOM     50  H   LIG d   1       3.107   0.115  -3.385  0.00  0.00     0.065 H 
ATOM     51  C   LIG d   1       6.290  -0.359  -4.431  0.00  0.00    -0.019 A 
ATOM     52  C   LIG d   1       6.049  -0.653  -5.757  0.00  0.00    -0.050 A 
ATOM     53  H   LIG d   1       7.303  -0.345  -4.056  0.00  0.00     0.065 H 
ATOM     54  H   LIG d   1       6.872  -0.871  -6.420  0.00  0.00     0.062 H 
BRANCH  49  55
ATOM     55  O   LIG d   1       5.472   0.202  -2.269  0.00  0.00    -0.495 OA
BRANCH  55  56
ATOM     56  C   LIG d   1       4.530   1.049  -1.607  0.00  0.00     0.079 C 
ATOM     57  H   LIG d   1       4.973   1.436  -0.678  0.00  0.00     0.066 H 
ATOM     58  H   LIG d   1       3.623   0.473  -1.368  0.00  0.00     0.066 H 
ATOM     59  H   LIG d   1       4.266   1.890  -2.266  0.00  0.00     0.066 H 
ENDBRANCH  55  56
ENDBRANCH  49  55
ENDBRANCH   2  45
TORSDOF 10
ENDMDL
MODEL 7
REMARK VINA RESULT:      -5.4      2.727      4.937
REMARK  10 active torsions:
REMARK  status: ('A' for Active; 'I' for Inactive)
REMARK    1  A    between atoms: C_1  and  C_2 
REMARK    2  A    between atoms: C_3  and  C_24 
REMARK    3  A    between atoms: C_9  and  O_23 
REMARK    4  A    between atoms: C_10  and  C_13 
REMARK    5  A    between atoms: C_13  and  N_14 
REMARK    6  A    between atoms: N_17  and  C_20 
REMARK    7  A    between atoms: C_20  and  C_21 
REMARK    8  A    between atoms: C_21  and  O_22 
REMARK    9  A    between atoms: C_27  and  O_30 
REMARK   10  A    between atoms: O_30  and  C_31 
ROOT
ATOM      1  C   LIG d   1       6.692  -4.100  -6.474  0.00  0.00     0.114 A 
ATOM      2  C   LIG d   1       6.759  -2.859  -5.925  0.00  0.00     0.067 A 
ATOM      3  C   LIG d   1       7.569  -2.667  -4.710  0.00  0.00     0.200 A 
ATOM      4  O   LIG d   1       7.667  -1.577  -4.174  0.00  0.00    -0.286 OA
ATOM      5  C   LIG d   1       8.256  -3.856  -4.174  0.00  0.00     0.065 A 
ATOM      6  C   LIG d   1       9.048  -3.781  -3.027  0.00  0.00    -0.044 A 
ATOM      7  C   LIG d   1       9.669  -4.902  -2.558  0.00  0.00    -0.019 A 
ATOM      8  C   LIG d   1       9.517  -6.119  -3.218  0.00  0.00     0.125 A 
ATOM      9  C   LIG d   1       8.735  -6.210  -4.357  0.00  0.00     0.051 A 
ATOM     10  C   LIG d   1       8.100  -5.080  -4.851  0.00  0.00     0.147 A 
ATOM     11  O   LIG d   1       7.330  -5.152  -5.955  0.00  0.00    -0.459 OA
ATOM     12  H   LIG d   1       9.168  -2.837  -2.514  0.00  0.00     0.063 H 
ATOM     13  H   LIG d   1      10.283  -4.844  -1.670  0.00  0.00     0.065 H 
ENDROOT
BRANCH   9  14
ATOM     14  C   LIG d   1       8.579  -7.533  -5.061  0.00  0.00     0.031 C 
ATOM     15  H   LIG d   1       8.524  -7.366  -6.147  0.00  0.00     0.048 H 
ATOM     16  H   LIG d   1       9.443  -8.175  -4.833  0.00  0.00     0.048 H 
BRANCH  14  17
ATOM     17  N   LIG d   1       7.347  -8.190  -4.605  0.00  0.00    -0.295 N 
ATOM     18  C   LIG d   1       6.431  -8.433  -5.728  0.00  0.00     0.012 C 
ATOM     19  C   LIG d   1       5.132  -9.044  -5.201  0.00  0.00     0.012 C 
ATOM     20  H   LIG d   1       6.211  -7.481  -6.233  0.00  0.00     0.044 H 
ATOM     21  H   LIG d   1       6.901  -9.126  -6.441  0.00  0.00     0.044 H 
ATOM     22  N   LIG d   1       5.434 -10.295  -4.492  0.00  0.00    -0.298 N 
ATOM     23  H   LIG d   1       4.456  -9.254  -6.042  0.00  0.00     0.044 H 
ATOM     24  H   LIG d   1       4.647  -8.339  -4.508  0.00  0.00     0.044 H 
ATOM     25  C   LIG d   1       6.350 -10.053  -3.368  0.00  0.00     0.012 C 
ATOM     26  C   LIG d   1       7.650  -9.442  -3.895  0.00  0.00     0.012 C 
ATOM     27  H   LIG d   1       6.570 -11.005  -2.863  0.00  0.00     0.044 H 
ATOM     28  H   LIG d   1       5.881  -9.359  -2.655  0.00  0.00     0.044 H 
ATOM     29  H   LIG d   1       8.133 -10.147  -4.588  0.00  0.00     0.044 H 
ATOM     30  H   LIG d   1       8.326  -9.232  -3.054  0.00  0.00     0.044 H 
BRANCH  22  31
ATOM     31  C   LIG d   1       4.202 -10.952  -4.035  0.00  0.00     0.022 C 
ATOM     32  H   LIG d   1       3.571 -11.193  -4.903  0.00  0.00     0.045 H 
ATOM     33  H   LIG d   1       4.458 -11.879  -3.499  0.00  0.00     0.045 H 
BRANCH  31  34
ATOM     34  C   LIG d   1       3.442 -10.014  -3.096  0.00  0.00     0.057 C 
ATOM     35  H   LIG d   1       3.710 -10.241  -2.054  0.00  0.00     0.057 H 
ATOM     36  H   LIG d   1       3.710  -8.972  -3.324  0.00  0.00     0.057 H 
BRANCH  34  37
ATOM     37  O   LIG d   1       2.036 -10.195  -3.277  0.00  0.00    -0.394 OA
ATOM     38  H   LIG d   1       1.325  -9.531  -2.763  0.00  0.00     0.209 HD
ENDBRANCH  34  37
ENDBRANCH  31  34
ENDBRANCH  22  31
ENDBRANCH  14  17
ENDBRANCH   9  14
BRANCH   8  39
ATOM     39  O   LIG d   1      10.141  -7.227  -2.740  0.00  0.00    -0.506 OA
ATOM     40  H   LIG d   1      10.242  -7.376  -1.656  0.00  0.00     0.292 HD
ENDBRANCH   8  39
BRANCH   1  41
ATOM     41  C   LIG d   1       5.863  -4.298  -7.717  0.00  0.00    -0.006 C 
ATOM     42  H   LIG d   1       4.795  -4.256  -7.455  0.00  0.00     0.031 H 
ATOM     43  H   LIG d   1       6.093  -5.278  -8.160  0.00  0.00     0.031 H 
ATOM     44  H   LIG d   1       6.094  -3.504  -8.442  0.00  0.00     0.031 H 
ENDBRANCH   1  41
BRANCH   2  45
ATOM     45  C   LIG d   1       6.033  -1.721  -6.538  0.00  0.00    -0.011 A 
ATOM     46  C   LIG d   1       4.710  -1.465  -6.182  0.00  0.00    -0.050 A 
ATOM     47  C   LIG d   1       4.037  -0.405  -6.753  0.00  0.00    -0.019 A 
ATOM     48  H   LIG d   1       4.212  -2.095  -5.460  0.00  0.00     0.062 H 
ATOM     49  C   LIG d   1       4.676   0.407  -7.681  0.00  0.00     0.120 A 
ATOM     50  H   LIG d   1       3.012  -0.205  -6.479  0.00  0.00     0.065 H 
ATOM     51  C   LIG d   1       5.994   0.154  -8.036  0.00  0.00    -0.019 A 
ATOM     52  C   LIG d   1       6.673  -0.902  -7.466  0.00  0.00    -0.050 A 
ATOM     53  H   LIG d   1       6.488   0.788  -8.758  0.00  0.00     0.065 H 
ATOM     54  H   LIG d   1       7.700  -1.095  -7.740  0.00  0.00     0.062 H 
BRANCH  49  55
ATOM     55  O   LIG d   1       4.010   1.450  -8.241  0.00  0.00    -0.495 OA
BRANCH  55  56
ATOM     56  C   LIG d   1       4.675   2.155  -9.292  0.00  0.00     0.079 C 
ATOM     57  H   LIG d   1       5.366   1.475  -9.810  0.00  0.00     0.066 H 
ATOM     58  H   LIG d   1       5.239   2.999  -8.868  0.00  0.00     0.066 H 
ATOM     59  H   LIG d   1       3.930   2.535 -10.007  0.00  0.00     0.066 H 
ENDBRANCH  55  56
ENDBRANCH  49  55
ENDBRANCH   2  45
TORSDOF 10
ENDMDL
MODEL 8
REMARK VINA RESULT:      -5.3      8.708     12.637
REMARK  10 active torsions:
REMARK  status: ('A' for Active; 'I' for Inactive)
REMARK    1  A    between atoms: C_1  and  C_2 
REMARK    2  A    between atoms: C_3  and  C_24 
REMARK    3  A    between atoms: C_9  and  O_23 
REMARK    4  A    between atoms: C_10  and  C_13 
REMARK    5  A    between atoms: C_13  and  N_14 
REMARK    6  A    between atoms: N_17  and  C_20 
REMARK    7  A    between atoms: C_20  and  C_21 
REMARK    8  A    between atoms: C_21  and  O_22 
REMARK    9  A    between atoms: C_27  and  O_30 
REMARK   10  A    between atoms: O_30  and  C_31 
ROOT
ATOM      1  C   LIG d   1      10.324   6.068  -2.766  0.00  0.00     0.114 A 
ATOM      2  C   LIG d   1      10.186   7.386  -3.068  0.00  0.00     0.067 A 
ATOM      3  C   LIG d   1       9.976   7.771  -4.474  0.00  0.00     0.200 A 
ATOM      4  O   LIG d   1       9.846   8.937  -4.804  0.00  0.00    -0.286 OA
ATOM      5  C   LIG d   1       9.931   6.679  -5.462  0.00  0.00     0.065 A 
ATOM      6  C   LIG d   1       9.737   6.937  -6.820  0.00  0.00    -0.044 A 
ATOM      7  C   LIG d   1       9.702   5.901  -7.709  0.00  0.00    -0.019 A 
ATOM      8  C   LIG d   1       9.857   4.590  -7.267  0.00  0.00     0.125 A 
ATOM      9  C   LIG d   1      10.050   4.317  -5.923  0.00  0.00     0.051 A 
ATOM     10  C   LIG d   1      10.084   5.357  -5.006  0.00  0.00     0.147 A 
ATOM     11  O   LIG d   1      10.277   5.110  -3.694  0.00  0.00    -0.459 OA
ATOM     12  H   LIG d   1       9.616   7.954  -7.165  0.00  0.00     0.063 H 
ATOM     13  H   LIG d   1       9.551   6.101  -8.760  0.00  0.00     0.065 H 
ENDROOT
BRANCH   9  14
ATOM     14  C   LIG d   1      10.216   2.893  -5.459  0.00  0.00     0.031 C 
ATOM     15  H   LIG d   1      10.774   2.323  -6.216  0.00  0.00     0.048 H 
ATOM     16  H   LIG d   1      10.770   2.879  -4.508  0.00  0.00     0.048 H 
BRANCH  14  17
ATOM     17  N   LIG d   1       8.894   2.283  -5.264  0.00  0.00    -0.295 N 
ATOM     18  C   LIG d   1       8.751   1.064  -6.072  0.00  0.00     0.012 C 
ATOM     19  C   LIG d   1       7.338   0.505  -5.902  0.00  0.00     0.012 C 
ATOM     20  H   LIG d   1       8.926   1.304  -7.131  0.00  0.00     0.044 H 
ATOM     21  H   LIG d   1       9.485   0.315  -5.740  0.00  0.00     0.044 H 
ATOM     22  N   LIG d   1       7.092   0.222  -4.481  0.00  0.00    -0.298 N 
ATOM     23  H   LIG d   1       7.237  -0.424  -6.483  0.00  0.00     0.044 H 
ATOM     24  H   LIG d   1       6.604   1.243  -6.260  0.00  0.00     0.044 H 
ATOM     25  C   LIG d   1       7.236   1.440  -3.672  0.00  0.00     0.012 C 
ATOM     26  C   LIG d   1       8.649   2.000  -3.842  0.00  0.00     0.012 C 
ATOM     27  H   LIG d   1       7.061   1.201  -2.613  0.00  0.00     0.044 H 
ATOM     28  H   LIG d   1       6.503   2.190  -4.004  0.00  0.00     0.044 H 
ATOM     29  H   LIG d   1       9.383   1.262  -3.485  0.00  0.00     0.044 H 
ATOM     30  H   LIG d   1       8.750   2.929  -3.261  0.00  0.00     0.044 H 
BRANCH  22  31
ATOM     31  C   LIG d   1       5.771  -0.388  -4.285  0.00  0.00     0.022 C 
ATOM     32  H   LIG d   1       5.262  -0.482  -5.256  0.00  0.00     0.045 H 
ATOM     33  H   LIG d   1       5.890  -1.384  -3.835  0.00  0.00     0.045 H 
BRANCH  31  34
ATOM     34  C   LIG d   1       4.935   0.495  -3.356  0.00  0.00     0.057 C 
ATOM     35  H   LIG d   1       4.676  -0.071  -2.448  0.00  0.00     0.057 H 
ATOM     36  H   LIG d   1       5.516   1.387  -3.077  0.00  0.00     0.057 H 
BRANCH  34  37
ATOM     37  O   LIG d   1       3.738   0.895  -4.026  0.00  0.00    -0.394 OA
ATOM     38  H   LIG d   1       3.796   1.387  -5.008  0.00  0.00     0.209 HD
ENDBRANCH  34  37
ENDBRANCH  31  34
ENDBRANCH  22  31
ENDBRANCH  14  17
ENDBRANCH   9  14
BRANCH   8  39
ATOM     39  O   LIG d   1       9.819   3.569  -8.162  0.00  0.00    -0.506 OA
ATOM     40  H   LIG d   1       8.935   2.919  -8.217  0.00  0.00     0.292 HD
ENDBRANCH   8  39
BRANCH   1  41
ATOM     41  C   LIG d   1      10.539   5.674  -1.328  0.00  0.00    -0.006 C 
ATOM     42  H   LIG d   1       9.764   6.140  -0.700  0.00  0.00     0.031 H 
ATOM     43  H   LIG d   1      11.531   6.015  -0.998  0.00  0.00     0.031 H 
ATOM     44  H   LIG d   1      10.477   4.579  -1.235  0.00  0.00     0.031 H 
ENDBRANCH   1  41
BRANCH   2  45
ATOM     45  C   LIG d   1      10.244   8.416  -2.002  0.00  0.00    -0.011 A 
ATOM     46  C   LIG d   1      11.463   9.001  -1.663  0.00  0.00    -0.050 A 
ATOM     47  C   LIG d   1      11.514   9.959  -0.672  0.00  0.00    -0.019 A 
ATOM     48  H   LIG d   1      12.366   8.706  -2.176  0.00  0.00     0.062 H 
ATOM     49  C   LIG d   1      10.353  10.341  -0.013  0.00  0.00     0.120 A 
ATOM     50  H   LIG d   1      12.458  10.413  -0.409  0.00  0.00     0.065 H 
ATOM     51  C   LIG d   1       9.139   9.760  -0.349  0.00  0.00    -0.019 A 
ATOM     52  C   LIG d   1       9.080   8.804  -1.342  0.00  0.00    -0.050 A 
ATOM     53  H   LIG d   1       8.237  10.059   0.166  0.00  0.00     0.065 H 
ATOM     54  H   LIG d   1       8.134   8.356  -1.605  0.00  0.00     0.062 H 
BRANCH  49  55
ATOM     55  O   LIG d   1      10.408  11.285   0.963  0.00  0.00    -0.495 OA
BRANCH  55  56
ATOM     56  C   LIG d   1      10.458  12.650   0.543  0.00  0.00     0.079 C 
ATOM     57  H   LIG d   1      10.004  13.288   1.314  0.00  0.00     0.066 H 
ATOM     58  H   LIG d   1       9.903  12.764  -0.401  0.00  0.00     0.066 H 
ATOM     59  H   LIG d   1      11.506  12.948   0.390  0.00  0.00     0.066 H 
ENDBRANCH  55  56
ENDBRANCH  49  55
ENDBRANCH   2  45
TORSDOF 10
ENDMDL
MODEL 9
REMARK VINA RESULT:      -5.3      3.070      4.515
REMARK  10 active torsions:
REMARK  status: ('A' for Active; 'I' for Inactive)
REMARK    1  A    between atoms: C_1  and  C_2 
REMARK    2  A    between atoms: C_3  and  C_24 
REMARK    3  A    between atoms: C_9  and  O_23 
REMARK    4  A    between atoms: C_10  and  C_13 
REMARK    5  A    between atoms: C_13  and  N_14 
REMARK    6  A    between atoms: N_17  and  C_20 
REMARK    7  A    between atoms: C_20  and  C_21 
REMARK    8  A    between atoms: C_21  and  O_22 
REMARK    9  A    between atoms: C_27  and  O_30 
REMARK   10  A    between atoms: O_30  and  C_31 
ROOT
ATOM      1  C   LIG d   1       7.182  -8.145  -4.928  0.00  0.00     0.114 A 
ATOM      2  C   LIG d   1       5.831  -8.161  -5.064  0.00  0.00     0.067 A 
ATOM      3  C   LIG d   1       5.053  -9.137  -4.282  0.00  0.00     0.200 A 
ATOM      4  O   LIG d   1       3.838  -9.199  -4.363  0.00  0.00    -0.286 OA
ATOM      5  C   LIG d   1       5.814 -10.036  -3.395  0.00  0.00     0.065 A 
ATOM      6  C   LIG d   1       5.172 -10.996  -2.611  0.00  0.00    -0.044 A 
ATOM      7  C   LIG d   1       5.909 -11.812  -1.802  0.00  0.00    -0.019 A 
ATOM      8  C   LIG d   1       7.295 -11.691  -1.754  0.00  0.00     0.125 A 
ATOM      9  C   LIG d   1       7.947 -10.743  -2.525  0.00  0.00     0.051 A 
ATOM     10  C   LIG d   1       7.214  -9.902  -3.350  0.00  0.00     0.147 A 
ATOM     11  O   LIG d   1       7.833  -8.978  -4.113  0.00  0.00    -0.459 OA
ATOM     12  H   LIG d   1       4.097 -11.091  -2.646  0.00  0.00     0.063 H 
ATOM     13  H   LIG d   1       5.412 -12.555  -1.194  0.00  0.00     0.065 H 
ENDROOT
BRANCH   9  14
ATOM     14  C   LIG d   1       9.448 -10.623  -2.464  0.00  0.00     0.031 C 
ATOM     15  H   LIG d   1       9.895 -11.627  -2.423  0.00  0.00     0.048 H 
ATOM     16  H   LIG d   1       9.811 -10.096  -3.359  0.00  0.00     0.048 H 
BRANCH  14  17
ATOM     17  N   LIG d   1       9.831  -9.868  -1.263  0.00  0.00    -0.295 N 
ATOM     18  C   LIG d   1      10.537 -10.727  -0.303  0.00  0.00     0.012 C 
ATOM     19  C   LIG d   1      10.848  -9.925   0.963  0.00  0.00     0.012 C 
ATOM     20  H   LIG d   1       9.904 -11.588  -0.046  0.00  0.00     0.044 H 
ATOM     21  H   LIG d   1      11.476 -11.084  -0.751  0.00  0.00     0.044 H 
ATOM     22  N   LIG d   1      11.662  -8.754   0.611  0.00  0.00    -0.298 N 
ATOM     23  H   LIG d   1      11.402 -10.557   1.672  0.00  0.00     0.044 H 
ATOM     24  H   LIG d   1       9.908  -9.592   1.428  0.00  0.00     0.044 H 
ATOM     25  C   LIG d   1      10.956  -7.894  -0.349  0.00  0.00     0.012 C 
ATOM     26  C   LIG d   1      10.645  -8.696  -1.615  0.00  0.00     0.012 C 
ATOM     27  H   LIG d   1      11.589  -7.033  -0.607  0.00  0.00     0.044 H 
ATOM     28  H   LIG d   1      10.016  -7.538   0.098  0.00  0.00     0.044 H 
ATOM     29  H   LIG d   1      11.585  -9.030  -2.079  0.00  0.00     0.044 H 
ATOM     30  H   LIG d   1      10.090  -8.063  -2.324  0.00  0.00     0.044 H 
BRANCH  22  31
ATOM     31  C   LIG d   1      12.045  -7.998   1.811  0.00  0.00     0.022 C 
ATOM     32  H   LIG d   1      13.098  -8.204   2.053  0.00  0.00     0.045 H 
ATOM     33  H   LIG d   1      11.914  -6.922   1.624  0.00  0.00     0.045 H 
BRANCH  31  34
ATOM     34  C   LIG d   1      11.160  -8.423   2.985  0.00  0.00     0.057 C 
ATOM     35  H   LIG d   1      10.177  -7.937   2.898  0.00  0.00     0.057 H 
ATOM     36  H   LIG d   1      11.031  -9.515   2.969  0.00  0.00     0.057 H 
BRANCH  34  37
ATOM     37  O   LIG d   1      11.777  -8.033   4.213  0.00  0.00    -0.394 OA
ATOM     38  H   LIG d   1      12.742  -7.505   4.201  0.00  0.00     0.209 HD
ENDBRANCH  34  37
ENDBRANCH  31  34
ENDBRANCH  22  31
ENDBRANCH  14  17
ENDBRANCH   9  14
BRANCH   8  39
ATOM     39  O   LIG d   1       8.015 -12.509  -0.944  0.00  0.00    -0.506 OA
ATOM     40  H   LIG d   1       7.500 -13.177  -0.239  0.00  0.00     0.292 HD
ENDBRANCH   8  39
BRANCH   1  41
ATOM     41  C   LIG d   1       7.978  -7.147  -5.729  0.00  0.00    -0.006 C 
ATOM     42  H   LIG d   1       7.523  -7.030  -6.724  0.00  0.00     0.031 H 
ATOM     43  H   LIG d   1       9.012  -7.506  -5.839  0.00  0.00     0.031 H 
ATOM     44  H   LIG d   1       7.979  -6.177  -5.209  0.00  0.00     0.031 H 
ENDBRANCH   1  41
BRANCH   2  45
ATOM     45  C   LIG d   1       5.151  -7.216  -5.983  0.00  0.00    -0.011 A 
ATOM     46  C   LIG d   1       4.898  -7.585  -7.302  0.00  0.00    -0.050 A 
ATOM     47  C   LIG d   1       4.266  -6.703  -8.154  0.00  0.00    -0.019 A 
ATOM     48  H   LIG d   1       5.196  -8.560  -7.658  0.00  0.00     0.062 H 
ATOM     49  C   LIG d   1       3.881  -5.449  -7.698  0.00  0.00     0.120 A 
ATOM     50  H   LIG d   1       4.069  -6.988  -9.177  0.00  0.00     0.065 H 
ATOM     51  C   LIG d   1       4.132  -5.080  -6.384  0.00  0.00    -0.019 A 
ATOM     52  C   LIG d   1       4.760  -5.959  -5.526  0.00  0.00    -0.050 A 
ATOM     53  H   LIG d   1       3.831  -4.104  -6.032  0.00  0.00     0.065 H 
ATOM     54  H   LIG d   1       4.951  -5.671  -4.503  0.00  0.00     0.062 H 
BRANCH  49  55
ATOM     55  O   LIG d   1       3.258  -4.583  -8.540  0.00  0.00    -0.495 OA
BRANCH  55  56
ATOM     56  C   LIG d   1       3.697  -3.223  -8.512  0.00  0.00     0.079 C 
ATOM     57  H   LIG d   1       3.232  -2.705  -7.662  0.00  0.00     0.066 H 
ATOM     58  H   LIG d   1       3.407  -2.725  -9.449  0.00  0.00     0.066 H 
ATOM     59  H   LIG d   1       4.792  -3.194  -8.406  0.00  0.00     0.066 H 
ENDBRANCH  55  56
ENDBRANCH  49  55
ENDBRANCH   2  45
TORSDOF 10
ENDMDL
MODEL 10
REMARK VINA RESULT:      -5.2     12.743     15.725
REMARK  10 active torsions:
REMARK  status: ('A' for Active; 'I' for Inactive)
REMARK    1  A    between atoms: C_1  and  C_2 
REMARK    2  A    between atoms: C_3  and  C_24 
REMARK    3  A    between atoms: C_9  and  O_23 
REMARK    4  A    between atoms: C_10  and  C_13 
REMARK    5  A    between atoms: C_13  and  N_14 
REMARK    6  A    between atoms: N_17  and  C_20 
REMARK    7  A    between atoms: C_20  and  C_21 
REMARK    8  A    between atoms: C_21  and  O_22 
REMARK    9  A    between atoms: C_27  and  O_30 
REMARK   10  A    between atoms: O_30  and  C_31 
ROOT
ATOM      1  C   LIG d   1       9.784   7.587  -5.334  0.00  0.00     0.114 A 
ATOM      2  C   LIG d   1      10.501   6.639  -5.991  0.00  0.00     0.067 A 
ATOM      3  C   LIG d   1      11.150   5.575  -5.208  0.00  0.00     0.200 A 
ATOM      4  O   LIG d   1      11.806   4.697  -5.743  0.00  0.00    -0.286 OA
ATOM      5  C   LIG d   1      10.968   5.621  -3.746  0.00  0.00     0.065 A 
ATOM      6  C   LIG d   1      11.542   4.659  -2.913  0.00  0.00    -0.044 A 
ATOM      7  C   LIG d   1      11.355   4.732  -1.563  0.00  0.00    -0.019 A 
ATOM      8  C   LIG d   1      10.593   5.761  -1.014  0.00  0.00     0.125 A 
ATOM      9  C   LIG d   1      10.017   6.723  -1.826  0.00  0.00     0.051 A 
ATOM     10  C   LIG d   1      10.194   6.661  -3.201  0.00  0.00     0.147 A 
ATOM     11  O   LIG d   1       9.645   7.593  -4.006  0.00  0.00    -0.459 OA
ATOM     12  H   LIG d   1      12.133   3.859  -3.337  0.00  0.00     0.063 H 
ATOM     13  H   LIG d   1      11.798   3.988  -0.917  0.00  0.00     0.065 H 
ENDROOT
BRANCH   9  14
ATOM     14  C   LIG d   1       9.195   7.830  -1.219  0.00  0.00     0.031 C 
ATOM     15  H   LIG d   1       8.304   8.008  -1.839  0.00  0.00     0.048 H 
ATOM     16  H   LIG d   1       8.883   7.542  -0.204  0.00  0.00     0.048 H 
BRANCH  14  17
ATOM     17  N   LIG d   1       9.998   9.058  -1.154  0.00  0.00    -0.295 N 
ATOM     18  C   LIG d   1       9.227  10.218  -1.622  0.00  0.00     0.012 C 
ATOM     19  C   LIG d   1      10.122  11.459  -1.613  0.00  0.00     0.012 C 
ATOM     20  H   LIG d   1       8.870  10.031  -2.645  0.00  0.00     0.044 H 
ATOM     21  H   LIG d   1       8.367  10.381  -0.957  0.00  0.00     0.044 H 
ATOM     22  N   LIG d   1      10.631  11.684  -0.253  0.00  0.00    -0.298 N 
ATOM     23  H   LIG d   1       9.540  12.335  -1.936  0.00  0.00     0.044 H 
ATOM     24  H   LIG d   1      10.969  11.308  -2.301  0.00  0.00     0.044 H 
ATOM     25  C   LIG d   1      11.402  10.524   0.216  0.00  0.00     0.012 C 
ATOM     26  C   LIG d   1      10.507   9.282   0.207  0.00  0.00     0.012 C 
ATOM     27  H   LIG d   1      11.760  10.710   1.239  0.00  0.00     0.044 H 
ATOM     28  H   LIG d   1      12.262  10.360  -0.449  0.00  0.00     0.044 H 
ATOM     29  H   LIG d   1       9.661   9.434   0.894  0.00  0.00     0.044 H 
ATOM     30  H   LIG d   1      11.089   8.407   0.530  0.00  0.00     0.044 H 
BRANCH  22  31
ATOM     31  C   LIG d   1      11.435  12.911  -0.187  0.00  0.00     0.022 C 
ATOM     32  H   LIG d   1      12.421  12.682   0.242  0.00  0.00     0.045 H 
ATOM     33  H   LIG d   1      11.562  13.321  -1.200  0.00  0.00     0.045 H 
BRANCH  31  34
ATOM     34  C   LIG d   1      10.723  13.940   0.694  0.00  0.00     0.057 C 
ATOM     35  H   LIG d   1      11.391  14.246   1.512  0.00  0.00     0.057 H 
ATOM     36  H   LIG d   1      10.459  14.820   0.089  0.00  0.00     0.057 H 
BRANCH  34  37
ATOM     37  O   LIG d   1       9.536  13.362   1.238  0.00  0.00    -0.394 OA
ATOM     38  H   LIG d   1       8.608  13.950   1.284  0.00  0.00     0.209 HD
ENDBRANCH  34  37
ENDBRANCH  31  34
ENDBRANCH  22  31
ENDBRANCH  14  17
ENDBRANCH   9  14
BRANCH   8  39
ATOM     39  O   LIG d   1      10.414   5.822   0.331  0.00  0.00    -0.506 OA
ATOM     40  H   LIG d   1       9.510   6.291   0.745  0.00  0.00     0.292 HD
ENDBRANCH   8  39
BRANCH   1  41
ATOM     41  C   LIG d   1       9.120   8.677  -6.136  0.00  0.00    -0.006 C 
ATOM     42  H   LIG d   1       9.320   9.652  -5.665  0.00  0.00     0.031 H 
ATOM     43  H   LIG d   1       8.034   8.502  -6.166  0.00  0.00     0.031 H 
ATOM     44  H   LIG d   1       9.521   8.675  -7.160  0.00  0.00     0.031 H 
ENDBRANCH   1  41
BRANCH   2  45
ATOM     45  C   LIG d   1      10.627   6.675  -7.469  0.00  0.00    -0.011 A 
ATOM     46  C   LIG d   1      11.692   7.349  -8.062  0.00  0.00    -0.050 A 
ATOM     47  C   LIG d   1      11.807   7.379  -9.436  0.00  0.00    -0.019 A 
ATOM     48  H   LIG d   1      12.428   7.846  -7.447  0.00  0.00     0.062 H 
ATOM     49  C   LIG d   1      10.863   6.739 -10.228  0.00  0.00     0.120 A 
ATOM     50  H   LIG d   1      12.633   7.902  -9.897  0.00  0.00     0.065 H 
ATOM     51  C   LIG d   1       9.801   6.067  -9.639  0.00  0.00    -0.019 A 
ATOM     52  C   LIG d   1       9.683   6.029  -8.266  0.00  0.00    -0.050 A 
ATOM     53  H   LIG d   1       9.068   5.570 -10.258  0.00  0.00     0.065 H 
ATOM     54  H   LIG d   1       8.858   5.503  -7.809  0.00  0.00     0.062 H 
BRANCH  49  55
ATOM     55  O   LIG d   1      10.980   6.772 -11.582  0.00  0.00    -0.495 OA
BRANCH  55  56
ATOM     56  C   LIG d   1       9.791   7.042 -12.328  0.00  0.00     0.079 C 
ATOM     57  H   LIG d   1       8.982   7.325 -11.641  0.00  0.00     0.066 H 
ATOM     58  H   LIG d   1       9.498   6.142 -12.890  0.00  0.00     0.066 H 
ATOM     59  H   LIG d   1       9.980   7.867 -13.032  0.00  0.00     0.066 H 
ENDBRANCH  55  56
ENDBRANCH  49  55
ENDBRANCH   2  45
TORSDOF 10
ENDMDL
