MODEL 1
REMARK VINA RESULT:      -7.6      0.000      0.000
REMARK  8 active torsions:
REMARK  status: ('A' for Active; 'I' for Inactive)
REMARK    1  A    between atoms: C_4  and  C_7 
REMARK    2  A    between atoms: C_7  and  N_8 
REMARK    3  A    between atoms: N_8  and  C_9 
REMARK    4  A    between atoms: N_11  and  N_12 
REMARK       I    between atoms: N_12  and  C_13 
REMARK    5  A    between atoms: C_13  and  C_15 
REMARK    6  A    between atoms: C_15  and  O_16 
REMARK    7  A    between atoms: O_16  and  C_17 
REMARK    8  A    between atoms: N_20  and  C_22 
ROOT
ATOM      1  N   LIG d   1       6.267   0.523  -5.903  0.00  0.00    -0.232 N 
ATOM      2  C   LIG d   1       6.852   0.066  -4.778  0.00  0.00     0.267 C 
ATOM      3  O   LIG d   1       6.836  -1.120  -4.525  0.00  0.00    -0.271 OA
ATOM      4  H   LIG d   1       6.280   1.471  -6.105  0.00  0.00     0.173 HD
ENDROOT
BRANCH   2   5
ATOM      5  C   LIG d   1       7.526   1.028  -3.834  0.00  0.00     0.170 C 
ATOM      6  H   LIG d   1       6.855   1.860  -3.623  0.00  0.00     0.080 H 
ATOM      7  H   LIG d   1       7.770   0.513  -2.905  0.00  0.00     0.080 H 
BRANCH   5   8
ATOM      8  O   LIG d   1       8.726   1.522  -4.433  0.00  0.00    -0.452 OA
BRANCH   8   9
ATOM      9  C   LIG d   1       9.085   2.798  -4.135  0.00  0.00     0.337 A 
ATOM     10  N   LIG d   1       9.407   3.239  -2.944  0.00  0.00    -0.108 NA
ATOM     11  N   LIG d   1       9.711   4.603  -3.086  0.00  0.00    -0.217 N 
ATOM     12  C   LIG d   1       9.537   4.898  -4.388  0.00  0.00     0.124 A 
ATOM     13  N   LIG d   1       9.162   3.807  -5.005  0.00  0.00    -0.182 NA
ATOM     14  H   LIG d   1       9.683   5.866  -4.843  0.00  0.00     0.105 H 
BRANCH  11  15
ATOM     15  C   LIG d   1      10.112   5.484  -2.071  0.00  0.00     0.067 A 
ATOM     16  C   LIG d   1      11.073   5.093  -1.150  0.00  0.00    -0.035 A 
ATOM     17  C   LIG d   1      11.469   5.965  -0.155  0.00  0.00    -0.041 A 
ATOM     18  H   LIG d   1      11.513   4.108  -1.213  0.00  0.00     0.064 H 
ATOM     19  C   LIG d   1      10.902   7.223  -0.070  0.00  0.00     0.041 A 
ATOM     20  H   LIG d   1      12.221   5.662   0.560  0.00  0.00     0.063 H 
ATOM     21  C   LIG d   1       9.939   7.614  -0.984  0.00  0.00    -0.041 A 
ATOM     22 CL   LIG d   1      11.398   8.316   1.185  0.00  0.00    -0.084 Cl
ATOM     23  C   LIG d   1       9.543   6.748  -1.984  0.00  0.00    -0.035 A 
ATOM     24  H   LIG d   1       9.497   8.598  -0.915  0.00  0.00     0.063 H 
ATOM     25  H   LIG d   1       8.793   7.054  -2.698  0.00  0.00     0.064 H 
ENDBRANCH  11  15
ENDBRANCH   8   9
ENDBRANCH   5   8
ENDBRANCH   2   5
BRANCH   1  26
ATOM     26  N   LIG d   1       5.641  -0.372  -6.781  0.00  0.00    -0.246 N 
ATOM     27  C   LIG d   1       4.310  -0.303  -6.976  0.00  0.00     0.147 C 
ATOM     28  S   LIG d   1       3.545  -1.396  -8.049  0.00  0.00    -0.017 SA
ATOM     29  H   LIG d   1       6.166  -1.040  -7.248  0.00  0.00     0.172 HD
BRANCH  27  30
ATOM     30  N   LIG d   1       3.581   0.627  -6.328  0.00  0.00    -0.321 N 
ATOM     31  H   LIG d   1       3.723   1.568  -6.511  0.00  0.00     0.148 HD
BRANCH  30  32
ATOM     32  C   LIG d   1       2.574   0.215  -5.346  0.00  0.00     0.036 C 
ATOM     33  H   LIG d   1       2.106  -0.714  -5.672  0.00  0.00     0.051 H 
ATOM     34  H   LIG d   1       1.816   0.993  -5.256  0.00  0.00     0.051 H 
BRANCH  32  35
ATOM     35  C   LIG d   1       3.235   0.002  -4.008  0.00  0.00    -0.030 A 
ATOM     36  C   LIG d   1       3.443  -1.280  -3.536  0.00  0.00    -0.057 A 
ATOM     37  C   LIG d   1       4.051  -1.476  -2.310  0.00  0.00    -0.061 A 
ATOM     38  H   LIG d   1       3.130  -2.129  -4.125  0.00  0.00     0.062 H 
ATOM     39  C   LIG d   1       4.452  -0.388  -1.556  0.00  0.00    -0.062 A 
ATOM     40  H   LIG d   1       4.212  -2.477  -1.941  0.00  0.00     0.062 H 
ATOM     41  C   LIG d   1       4.245   0.895  -2.029  0.00  0.00    -0.061 A 
ATOM     42  H   LIG d   1       4.923  -0.540  -0.597  0.00  0.00     0.062 H 
ATOM     43  C   LIG d   1       3.636   1.090  -3.255  0.00  0.00    -0.057 A 
ATOM     44  H   LIG d   1       4.559   1.744  -1.441  0.00  0.00     0.062 H 
ATOM     45  H   LIG d   1       3.475   2.092  -3.624  0.00  0.00     0.062 H 
ENDBRANCH  32  35
ENDBRANCH  30  32
ENDBRANCH  27  30
ENDBRANCH   1  26
TORSDOF 8
ENDMDL
MODEL 2
REMARK VINA RESULT:      -7.5      2.481      3.226
REMARK  8 active torsions:
REMARK  status: ('A' for Active; 'I' for Inactive)
REMARK    1  A    between atoms: C_4  and  C_7 
REMARK    2  A    between atoms: C_7  and  N_8 
REMARK    3  A    between atoms: N_8  and  C_9 
REMARK    4  A    between atoms: N_11  and  N_12 
REMARK       I    between atoms: N_12  and  C_13 
REMARK    5  A    between atoms: C_13  and  C_15 
REMARK    6  A    between atoms: C_15  and  O_16 
REMARK    7  A    between atoms: O_16  and  C_17 
REMARK    8  A    between atoms: N_20  and  C_22 
ROOT
ATOM      1  N   LIG d   1       5.829   0.354  -6.003  0.00  0.00    -0.232 N 
ATOM      2  C   LIG d   1       6.460  -0.459  -5.132  0.00  0.00     0.267 C 
ATOM      3  O   LIG d   1       6.342  -1.662  -5.230  0.00  0.00    -0.271 OA
ATOM      4  H   LIG d   1       5.923   1.316  -5.924  0.00  0.00     0.173 HD
ENDROOT
BRANCH   2   5
ATOM      5  C   LIG d   1       7.314   0.127  -4.037  0.00  0.00     0.170 C 
ATOM      6  H   LIG d   1       6.805   0.985  -3.599  0.00  0.00     0.080 H 
ATOM      7  H   LIG d   1       7.485  -0.627  -3.268  0.00  0.00     0.080 H 
BRANCH   5   8
ATOM      8  O   LIG d   1       8.568   0.543  -4.582  0.00  0.00    -0.452 OA
BRANCH   8   9
ATOM      9  C   LIG d   1       8.910   1.847  -4.414  0.00  0.00     0.337 A 
ATOM     10  N   LIG d   1       8.881   2.769  -5.346  0.00  0.00    -0.108 NA
ATOM     11  N   LIG d   1       9.306   3.965  -4.747  0.00  0.00    -0.217 N 
ATOM     12  C   LIG d   1       9.579   3.672  -3.461  0.00  0.00     0.124 A 
ATOM     13  N   LIG d   1       9.337   2.398  -3.275  0.00  0.00    -0.182 NA
ATOM     14  H   LIG d   1       9.934   4.365  -2.714  0.00  0.00     0.105 H 
BRANCH  11  15
ATOM     15  C   LIG d   1       9.428   5.217  -5.366  0.00  0.00     0.067 A 
ATOM     16  C   LIG d   1       9.864   5.304  -6.681  0.00  0.00    -0.035 A 
ATOM     17  C   LIG d   1       9.978   6.538  -7.290  0.00  0.00    -0.041 A 
ATOM     18  H   LIG d   1      10.111   4.406  -7.228  0.00  0.00     0.064 H 
ATOM     19  C   LIG d   1       9.668   7.689  -6.587  0.00  0.00     0.041 A 
ATOM     20  H   LIG d   1      10.313   6.605  -8.314  0.00  0.00     0.063 H 
ATOM     21  C   LIG d   1       9.238   7.606  -5.274  0.00  0.00    -0.041 A 
ATOM     22 CL   LIG d   1       9.817   9.239  -7.353  0.00  0.00    -0.084 Cl
ATOM     23  C   LIG d   1       9.117   6.374  -4.663  0.00  0.00    -0.035 A 
ATOM     24  H   LIG d   1       8.996   8.506  -4.728  0.00  0.00     0.063 H 
ATOM     25  H   LIG d   1       8.780   6.310  -3.638  0.00  0.00     0.064 H 
ENDBRANCH  11  15
ENDBRANCH   8   9
ENDBRANCH   5   8
ENDBRANCH   2   5
BRANCH   1  26
ATOM     26  N   LIG d   1       5.036  -0.190  -7.021  0.00  0.00    -0.246 N 
ATOM     27  C   LIG d   1       3.717   0.080  -7.065  0.00  0.00     0.147 C 
ATOM     28  S   LIG d   1       2.747  -0.585  -8.309  0.00  0.00    -0.017 SA
ATOM     29  H   LIG d   1       5.436  -0.762  -7.694  0.00  0.00     0.172 HD
BRANCH  27  30
ATOM     30  N   LIG d   1       3.160   0.876  -6.129  0.00  0.00    -0.321 N 
ATOM     31  H   LIG d   1       3.347   1.827  -6.129  0.00  0.00     0.148 HD
BRANCH  30  32
ATOM     32  C   LIG d   1       2.274   0.303  -5.113  0.00  0.00     0.036 C 
ATOM     33  H   LIG d   1       1.852  -0.632  -5.484  0.00  0.00     0.051 H 
ATOM     34  H   LIG d   1       1.469   1.005  -4.896  0.00  0.00     0.051 H 
BRANCH  32  35
ATOM     35  C   LIG d   1       3.060   0.035  -3.855  0.00  0.00    -0.030 A 
ATOM     36  C   LIG d   1       3.576   1.088  -3.125  0.00  0.00    -0.057 A 
ATOM     37  C   LIG d   1       4.296   0.843  -1.971  0.00  0.00    -0.061 A 
ATOM     38  H   LIG d   1       3.417   2.104  -3.456  0.00  0.00     0.062 H 
ATOM     39  C   LIG d   1       4.499  -0.458  -1.547  0.00  0.00    -0.062 A 
ATOM     40  H   LIG d   1       4.700   1.665  -1.401  0.00  0.00     0.062 H 
ATOM     41  C   LIG d   1       3.981  -1.511  -2.276  0.00  0.00    -0.061 A 
ATOM     42  H   LIG d   1       5.064  -0.650  -0.647  0.00  0.00     0.062 H 
ATOM     43  C   LIG d   1       3.263  -1.266  -3.431  0.00  0.00    -0.057 A 
ATOM     44  H   LIG d   1       4.139  -2.527  -1.945  0.00  0.00     0.062 H 
ATOM     45  H   LIG d   1       2.858  -2.089  -4.001  0.00  0.00     0.062 H 
ENDBRANCH  32  35
ENDBRANCH  30  32
ENDBRANCH  27  30
ENDBRANCH   1  26
TORSDOF 8
ENDMDL
MODEL 3
REMARK VINA RESULT:      -7.2      6.722      9.940
REMARK  8 active torsions:
REMARK  status: ('A' for Active; 'I' for Inactive)
REMARK    1  A    between atoms: C_4  and  C_7 
REMARK    2  A    between atoms: C_7  and  N_8 
REMARK    3  A    between atoms: N_8  and  C_9 
REMARK    4  A    between atoms: N_11  and  N_12 
REMARK       I    between atoms: N_12  and  C_13 
REMARK    5  A    between atoms: C_13  and  C_15 
REMARK    6  A    between atoms: C_15  and  O_16 
REMARK    7  A    between atoms: O_16  and  C_17 
REMARK    8  A    between atoms: N_20  and  C_22 
ROOT
ATOM      1  N   LIG d   1       3.880  -1.485  -6.802  0.00  0.00    -0.232 N 
ATOM      2  C   LIG d   1       3.957  -0.198  -6.409  0.00  0.00     0.267 C 
ATOM      3  O   LIG d   1       4.985   0.230  -5.930  0.00  0.00    -0.271 OA
ATOM      4  H   LIG d   1       3.058  -1.827  -7.185  0.00  0.00     0.173 HD
ENDROOT
BRANCH   2   5
ATOM      5  C   LIG d   1       2.765   0.711  -6.567  0.00  0.00     0.170 C 
ATOM      6  H   LIG d   1       1.902   0.126  -6.886  0.00  0.00     0.080 H 
ATOM      7  H   LIG d   1       2.546   1.190  -5.613  0.00  0.00     0.080 H 
BRANCH   5   8
ATOM      8  O   LIG d   1       3.053   1.710  -7.547  0.00  0.00    -0.452 OA
BRANCH   8   9
ATOM      9  C   LIG d   1       3.185   1.293  -8.833  0.00  0.00     0.337 A 
ATOM     10  N   LIG d   1       2.501   0.326  -9.395  0.00  0.00    -0.108 NA
ATOM     11  N   LIG d   1       2.948   0.231 -10.723  0.00  0.00    -0.217 N 
ATOM     12  C   LIG d   1       3.904   1.168 -10.870  0.00  0.00     0.124 A 
ATOM     13  N   LIG d   1       4.035   1.798  -9.730  0.00  0.00    -0.182 NA
ATOM     14  H   LIG d   1       4.463   1.366 -11.772  0.00  0.00     0.105 H 
BRANCH  11  15
ATOM     15  C   LIG d   1       2.493  -0.665 -11.700  0.00  0.00     0.067 A 
ATOM     16  C   LIG d   1       3.334  -1.054 -12.733  0.00  0.00    -0.035 A 
ATOM     17  C   LIG d   1       2.885  -1.942 -13.691  0.00  0.00    -0.041 A 
ATOM     18  H   LIG d   1       4.341  -0.666 -12.785  0.00  0.00     0.064 H 
ATOM     19  C   LIG d   1       1.594  -2.435 -13.628  0.00  0.00     0.041 A 
ATOM     20  H   LIG d   1       3.541  -2.248 -14.493  0.00  0.00     0.063 H 
ATOM     21  C   LIG d   1       0.751  -2.044 -12.602  0.00  0.00    -0.041 A 
ATOM     22 CL   LIG d   1       1.030  -3.546 -14.837  0.00  0.00    -0.084 Cl
ATOM     23  C   LIG d   1       1.198  -1.162 -11.638  0.00  0.00    -0.035 A 
ATOM     24  H   LIG d   1      -0.257  -2.431 -12.555  0.00  0.00     0.063 H 
ATOM     25  H   LIG d   1       0.539  -0.858 -10.837  0.00  0.00     0.064 H 
ENDBRANCH  11  15
ENDBRANCH   8   9
ENDBRANCH   5   8
ENDBRANCH   2   5
BRANCH   1  26
ATOM     26  N   LIG d   1       4.988  -2.329  -6.656  0.00  0.00    -0.246 N 
ATOM     27  C   LIG d   1       5.069  -3.160  -5.598  0.00  0.00     0.147 C 
ATOM     28  S   LIG d   1       6.422  -4.192  -5.420  0.00  0.00    -0.017 SA
ATOM     29  H   LIG d   1       5.698  -2.316  -7.317  0.00  0.00     0.172 HD
BRANCH  27  30
ATOM     30  N   LIG d   1       4.081  -3.179  -4.681  0.00  0.00    -0.321 N 
ATOM     31  H   LIG d   1       3.165  -3.333  -4.957  0.00  0.00     0.148 HD
BRANCH  30  32
ATOM     32  C   LIG d   1       4.393  -2.965  -3.264  0.00  0.00     0.036 C 
ATOM     33  H   LIG d   1       5.430  -3.241  -3.075  0.00  0.00     0.051 H 
ATOM     34  H   LIG d   1       3.735  -3.581  -2.652  0.00  0.00     0.051 H 
BRANCH  32  35
ATOM     35  C   LIG d   1       4.187  -1.513  -2.919  0.00  0.00    -0.030 A 
ATOM     36  C   LIG d   1       5.239  -0.764  -2.425  0.00  0.00    -0.057 A 
ATOM     37  C   LIG d   1       5.051   0.568  -2.109  0.00  0.00    -0.061 A 
ATOM     38  H   LIG d   1       6.207  -1.221  -2.286  0.00  0.00     0.062 H 
ATOM     39  C   LIG d   1       3.810   1.152  -2.288  0.00  0.00    -0.062 A 
ATOM     40  H   LIG d   1       5.872   1.153  -1.723  0.00  0.00     0.062 H 
ATOM     41  C   LIG d   1       2.759   0.404  -2.783  0.00  0.00    -0.061 A 
ATOM     42  H   LIG d   1       3.662   2.192  -2.037  0.00  0.00     0.062 H 
ATOM     43  C   LIG d   1       2.947  -0.929  -3.098  0.00  0.00    -0.057 A 
ATOM     44  H   LIG d   1       1.790   0.860  -2.923  0.00  0.00     0.062 H 
ATOM     45  H   LIG d   1       2.125  -1.514  -3.484  0.00  0.00     0.062 H 
ENDBRANCH  32  35
ENDBRANCH  30  32
ENDBRANCH  27  30
ENDBRANCH   1  26
TORSDOF 8
ENDMDL
MODEL 4
REMARK VINA RESULT:      -7.0      1.860      2.309
REMARK  8 active torsions:
REMARK  status: ('A' for Active; 'I' for Inactive)
REMARK    1  A    between atoms: C_4  and  C_7 
REMARK    2  A    between atoms: C_7  and  N_8 
REMARK    3  A    between atoms: N_8  and  C_9 
REMARK    4  A    between atoms: N_11  and  N_12 
REMARK       I    between atoms: N_12  and  C_13 
REMARK    5  A    between atoms: C_13  and  C_15 
REMARK    6  A    between atoms: C_15  and  O_16 
REMARK    7  A    between atoms: O_16  and  C_17 
REMARK    8  A    between atoms: N_20  and  C_22 
ROOT
ATOM      1  N   LIG d   1       6.266   0.546  -5.805  0.00  0.00    -0.232 N 
ATOM      2  C   LIG d   1       6.867   0.106  -4.681  0.00  0.00     0.267 C 
ATOM      3  O   LIG d   1       6.897  -1.082  -4.435  0.00  0.00    -0.271 OA
ATOM      4  H   LIG d   1       6.242   1.495  -6.001  0.00  0.00     0.173 HD
ENDROOT
BRANCH   2   5
ATOM      5  C   LIG d   1       7.504   1.088  -3.731  0.00  0.00     0.170 C 
ATOM      6  H   LIG d   1       6.979   2.041  -3.790  0.00  0.00     0.080 H 
ATOM      7  H   LIG d   1       7.442   0.700  -2.714  0.00  0.00     0.080 H 
BRANCH   5   8
ATOM      8  O   LIG d   1       8.874   1.275  -4.087  0.00  0.00    -0.452 OA
BRANCH   8   9
ATOM      9  C   LIG d   1       9.431   2.477  -3.788  0.00  0.00     0.337 A 
ATOM     10  N   LIG d   1       9.225   3.595  -4.440  0.00  0.00    -0.108 NA
ATOM     11  N   LIG d   1       9.987   4.585  -3.797  0.00  0.00    -0.217 N 
ATOM     12  C   LIG d   1      10.623   3.976  -2.779  0.00  0.00     0.124 A 
ATOM     13  N   LIG d   1      10.281   2.712  -2.785  0.00  0.00    -0.182 NA
ATOM     14  H   LIG d   1      11.297   4.447  -2.080  0.00  0.00     0.105 H 
BRANCH  11  15
ATOM     15  C   LIG d   1      10.071   5.940  -4.149  0.00  0.00     0.067 A 
ATOM     16  C   LIG d   1      11.090   6.730  -3.635  0.00  0.00    -0.035 A 
ATOM     17  C   LIG d   1      11.173   8.063  -3.988  0.00  0.00    -0.041 A 
ATOM     18  H   LIG d   1      11.818   6.302  -2.962  0.00  0.00     0.064 H 
ATOM     19  C   LIG d   1      10.237   8.613  -4.844  0.00  0.00     0.041 A 
ATOM     20  H   LIG d   1      11.969   8.677  -3.591  0.00  0.00     0.063 H 
ATOM     21  C   LIG d   1       9.217   7.829  -5.354  0.00  0.00    -0.041 A 
ATOM     22 CL   LIG d   1      10.341  10.290  -5.282  0.00  0.00    -0.084 Cl
ATOM     23  C   LIG d   1       9.132   6.495  -5.009  0.00  0.00    -0.035 A 
ATOM     24  H   LIG d   1       8.487   8.261  -6.023  0.00  0.00     0.063 H 
ATOM     25  H   LIG d   1       8.336   5.883  -5.408  0.00  0.00     0.064 H 
ENDBRANCH  11  15
ENDBRANCH   8   9
ENDBRANCH   5   8
ENDBRANCH   2   5
BRANCH   1  26
ATOM     26  N   LIG d   1       5.675  -0.367  -6.687  0.00  0.00    -0.246 N 
ATOM     27  C   LIG d   1       4.350  -0.315  -6.923  0.00  0.00     0.147 C 
ATOM     28  S   LIG d   1       3.628  -1.431  -8.002  0.00  0.00    -0.017 SA
ATOM     29  H   LIG d   1       6.220  -1.036  -7.129  0.00  0.00     0.172 HD
BRANCH  27  30
ATOM     30  N   LIG d   1       3.592   0.616  -6.309  0.00  0.00    -0.321 N 
ATOM     31  H   LIG d   1       3.715   1.555  -6.517  0.00  0.00     0.148 HD
BRANCH  30  32
ATOM     32  C   LIG d   1       2.583   0.209  -5.327  0.00  0.00     0.036 C 
ATOM     33  H   LIG d   1       2.123  -0.727  -5.646  0.00  0.00     0.051 H 
ATOM     34  H   LIG d   1       1.819   0.982  -5.251  0.00  0.00     0.051 H 
BRANCH  32  35
ATOM     35  C   LIG d   1       3.239   0.016  -3.984  0.00  0.00    -0.030 A 
ATOM     36  C   LIG d   1       3.474  -1.259  -3.507  0.00  0.00    -0.057 A 
ATOM     37  C   LIG d   1       4.077  -1.436  -2.276  0.00  0.00    -0.061 A 
ATOM     38  H   LIG d   1       3.188  -2.117  -4.096  0.00  0.00     0.062 H 
ATOM     39  C   LIG d   1       4.444  -0.337  -1.521  0.00  0.00    -0.062 A 
ATOM     40  H   LIG d   1       4.260  -2.432  -1.902  0.00  0.00     0.062 H 
ATOM     41  C   LIG d   1       4.209   0.939  -2.000  0.00  0.00    -0.061 A 
ATOM     42  H   LIG d   1       4.911  -0.475  -0.558  0.00  0.00     0.062 H 
ATOM     43  C   LIG d   1       3.606   1.116  -3.230  0.00  0.00    -0.057 A 
ATOM     44  H   LIG d   1       4.496   1.798  -1.411  0.00  0.00     0.062 H 
ATOM     45  H   LIG d   1       3.422   2.112  -3.604  0.00  0.00     0.062 H 
ENDBRANCH  32  35
ENDBRANCH  30  32
ENDBRANCH  27  30
ENDBRANCH   1  26
TORSDOF 8
ENDMDL
MODEL 5
REMARK VINA RESULT:      -6.9      6.032     10.122
REMARK  8 active torsions:
REMARK  status: ('A' for Active; 'I' for Inactive)
REMARK    1  A    between atoms: C_4  and  C_7 
REMARK    2  A    between atoms: C_7  and  N_8 
REMARK    3  A    between atoms: N_8  and  C_9 
REMARK    4  A    between atoms: N_11  and  N_12 
REMARK       I    between atoms: N_12  and  C_13 
REMARK    5  A    between atoms: C_13  and  C_15 
REMARK    6  A    between atoms: C_15  and  O_16 
REMARK    7  A    between atoms: O_16  and  C_17 
REMARK    8  A    between atoms: N_20  and  C_22 
ROOT
ATOM      1  N   LIG d   1       5.402   0.361  -6.548  0.00  0.00    -0.232 N 
ATOM      2  C   LIG d   1       4.287  -0.393  -6.465  0.00  0.00     0.267 C 
ATOM      3  O   LIG d   1       4.377  -1.592  -6.308  0.00  0.00    -0.271 OA
ATOM      4  H   LIG d   1       5.330   1.320  -6.674  0.00  0.00     0.173 HD
ENDROOT
BRANCH   2   5
ATOM      5  C   LIG d   1       2.930   0.254  -6.564  0.00  0.00     0.170 C 
ATOM      6  H   LIG d   1       2.197  -0.486  -6.886  0.00  0.00     0.080 H 
ATOM      7  H   LIG d   1       2.644   0.649  -5.588  0.00  0.00     0.080 H 
BRANCH   5   8
ATOM      8  O   LIG d   1       2.979   1.321  -7.513  0.00  0.00    -0.452 OA
BRANCH   8   9
ATOM      9  C   LIG d   1       3.087   0.978  -8.823  0.00  0.00     0.337 A 
ATOM     10  N   LIG d   1       2.376   0.060  -9.431  0.00  0.00    -0.108 NA
ATOM     11  N   LIG d   1       2.807   0.034 -10.768  0.00  0.00    -0.217 N 
ATOM     12  C   LIG d   1       3.780   0.959 -10.873  0.00  0.00     0.124 A 
ATOM     13  N   LIG d   1       3.938   1.517  -9.699  0.00  0.00    -0.182 NA
ATOM     14  H   LIG d   1       4.333   1.198 -11.768  0.00  0.00     0.105 H 
BRANCH  11  15
ATOM     15  C   LIG d   1       2.322  -0.794 -11.790  0.00  0.00     0.067 A 
ATOM     16  C   LIG d   1       1.003  -1.227 -11.767  0.00  0.00    -0.035 A 
ATOM     17  C   LIG d   1       0.527  -2.038 -12.779  0.00  0.00    -0.041 A 
ATOM     18  H   LIG d   1       0.349  -0.927 -10.961  0.00  0.00     0.064 H 
ATOM     19  C   LIG d   1       1.365  -2.428 -13.807  0.00  0.00     0.041 A 
ATOM     20  H   LIG d   1      -0.500  -2.372 -12.764  0.00  0.00     0.063 H 
ATOM     21  C   LIG d   1       2.682  -2.003 -13.829  0.00  0.00    -0.041 A 
ATOM     22 CL   LIG d   1       0.766  -3.453 -15.074  0.00  0.00    -0.084 Cl
ATOM     23  C   LIG d   1       3.161  -1.186 -12.824  0.00  0.00    -0.035 A 
ATOM     24  H   LIG d   1       3.335  -2.308 -14.634  0.00  0.00     0.063 H 
ATOM     25  H   LIG d   1       4.189  -0.853 -12.842  0.00  0.00     0.064 H 
ENDBRANCH  11  15
ENDBRANCH   8   9
ENDBRANCH   5   8
ENDBRANCH   2   5
BRANCH   1  26
ATOM     26  N   LIG d   1       6.663  -0.241  -6.456  0.00  0.00    -0.246 N 
ATOM     27  C   LIG d   1       7.482   0.065  -5.430  0.00  0.00     0.147 C 
ATOM     28  S   LIG d   1       9.023  -0.671  -5.316  0.00  0.00    -0.017 SA
ATOM     29  H   LIG d   1       6.947  -0.878  -7.129  0.00  0.00     0.172 HD
BRANCH  27  30
ATOM     30  N   LIG d   1       7.087   0.950  -4.493  0.00  0.00    -0.321 N 
ATOM     31  H   LIG d   1       6.932   1.876  -4.735  0.00  0.00     0.148 HD
BRANCH  30  32
ATOM     32  C   LIG d   1       6.892   0.512  -3.108  0.00  0.00     0.036 C 
ATOM     33  H   LIG d   1       6.995   1.367  -2.439  0.00  0.00     0.051 H 
ATOM     34  H   LIG d   1       7.640  -0.239  -2.857  0.00  0.00     0.051 H 
BRANCH  32  35
ATOM     35  C   LIG d   1       5.514  -0.080  -2.958  0.00  0.00    -0.030 A 
ATOM     36  C   LIG d   1       4.406   0.745  -2.934  0.00  0.00    -0.057 A 
ATOM     37  C   LIG d   1       3.142   0.202  -2.797  0.00  0.00    -0.061 A 
ATOM     38  H   LIG d   1       4.527   1.814  -3.022  0.00  0.00     0.062 H 
ATOM     39  C   LIG d   1       2.987  -1.168  -2.685  0.00  0.00    -0.062 A 
ATOM     40  H   LIG d   1       2.276   0.846  -2.778  0.00  0.00     0.062 H 
ATOM     41  C   LIG d   1       4.096  -1.993  -2.711  0.00  0.00    -0.061 A 
ATOM     42  H   LIG d   1       2.001  -1.592  -2.575  0.00  0.00     0.062 H 
ATOM     43  C   LIG d   1       5.359  -1.450  -2.846  0.00  0.00    -0.057 A 
ATOM     44  H   LIG d   1       3.975  -3.063  -2.623  0.00  0.00     0.062 H 
ATOM     45  H   LIG d   1       6.226  -2.094  -2.865  0.00  0.00     0.062 H 
ENDBRANCH  32  35
ENDBRANCH  30  32
ENDBRANCH  27  30
ENDBRANCH   1  26
TORSDOF 8
ENDMDL
MODEL 6
REMARK VINA RESULT:      -6.8      6.265      8.462
REMARK  8 active torsions:
REMARK  status: ('A' for Active; 'I' for Inactive)
REMARK    1  A    between atoms: C_4  and  C_7 
REMARK    2  A    between atoms: C_7  and  N_8 
REMARK    3  A    between atoms: N_8  and  C_9 
REMARK    4  A    between atoms: N_11  and  N_12 
REMARK       I    between atoms: N_12  and  C_13 
REMARK    5  A    between atoms: C_13  and  C_15 
REMARK    6  A    between atoms: C_15  and  O_16 
REMARK    7  A    between atoms: O_16  and  C_17 
REMARK    8  A    between atoms: N_20  and  C_22 
ROOT
ATOM      1  N   LIG d   1       2.652  -5.140  -8.956  0.00  0.00    -0.232 N 
ATOM      2  C   LIG d   1       3.490  -6.167  -9.205  0.00  0.00     0.267 C 
ATOM      3  O   LIG d   1       3.432  -6.753 -10.265  0.00  0.00    -0.271 OA
ATOM      4  H   LIG d   1       2.698  -4.672  -8.108  0.00  0.00     0.173 HD
ENDROOT
BRANCH   2   5
ATOM      5  C   LIG d   1       4.499  -6.585  -8.167  0.00  0.00     0.170 C 
ATOM      6  H   LIG d   1       4.688  -7.655  -8.255  0.00  0.00     0.080 H 
ATOM      7  H   LIG d   1       5.429  -6.038  -8.324  0.00  0.00     0.080 H 
BRANCH   5   8
ATOM      8  O   LIG d   1       3.991  -6.296  -6.863  0.00  0.00    -0.452 OA
BRANCH   8   9
ATOM      9  C   LIG d   1       4.664  -5.371  -6.130  0.00  0.00     0.337 A 
ATOM     10  N   LIG d   1       4.117  -4.395  -5.448  0.00  0.00    -0.108 NA
ATOM     11  N   LIG d   1       5.167  -3.686  -4.842  0.00  0.00    -0.217 N 
ATOM     12  C   LIG d   1       6.306  -4.296  -5.219  0.00  0.00     0.124 A 
ATOM     13  N   LIG d   1       5.990  -5.305  -5.991  0.00  0.00    -0.182 NA
ATOM     14  H   LIG d   1       7.306  -4.005  -4.933  0.00  0.00     0.105 H 
BRANCH  11  15
ATOM     15  C   LIG d   1       5.052  -2.562  -4.012  0.00  0.00     0.067 A 
ATOM     16  C   LIG d   1       6.010  -1.559  -4.062  0.00  0.00    -0.035 A 
ATOM     17  C   LIG d   1       5.890  -0.450  -3.247  0.00  0.00    -0.041 A 
ATOM     18  H   LIG d   1       6.846  -1.644  -4.740  0.00  0.00     0.064 H 
ATOM     19  C   LIG d   1       4.823  -0.344  -2.374  0.00  0.00     0.041 A 
ATOM     20  H   LIG d   1       6.634   0.333  -3.289  0.00  0.00     0.063 H 
ATOM     21  C   LIG d   1       3.869  -1.344  -2.317  0.00  0.00    -0.041 A 
ATOM     22 CL   LIG d   1       4.679   1.049  -1.347  0.00  0.00    -0.084 Cl
ATOM     23  C   LIG d   1       3.981  -2.452  -3.134  0.00  0.00    -0.035 A 
ATOM     24  H   LIG d   1       3.037  -1.259  -1.635  0.00  0.00     0.063 H 
ATOM     25  H   LIG d   1       3.235  -3.233  -3.091  0.00  0.00     0.064 H 
ENDBRANCH  11  15
ENDBRANCH   8   9
ENDBRANCH   5   8
ENDBRANCH   2   5
BRANCH   1  26
ATOM     26  N   LIG d   1       1.715  -4.751  -9.920  0.00  0.00    -0.246 N 
ATOM     27  C   LIG d   1       1.773  -3.517 -10.458  0.00  0.00     0.147 C 
ATOM     28  S   LIG d   1       0.628  -3.042 -11.637  0.00  0.00    -0.017 SA
ATOM     29  H   LIG d   1       1.023  -5.370 -10.202  0.00  0.00     0.172 HD
BRANCH  27  30
ATOM     30  N   LIG d   1       2.735  -2.657 -10.067  0.00  0.00    -0.321 N 
ATOM     31  H   LIG d   1       3.121  -2.731  -9.181  0.00  0.00     0.148 HD
BRANCH  30  32
ATOM     32  C   LIG d   1       3.197  -1.610 -10.983  0.00  0.00     0.036 C 
ATOM     33  H   LIG d   1       2.518  -1.545 -11.833  0.00  0.00     0.051 H 
ATOM     34  H   LIG d   1       4.199  -1.852 -11.335  0.00  0.00     0.051 H 
BRANCH  32  35
ATOM     35  C   LIG d   1       3.225  -0.288 -10.259  0.00  0.00    -0.030 A 
ATOM     36  C   LIG d   1       3.724   0.836 -10.891  0.00  0.00    -0.057 A 
ATOM     37  C   LIG d   1       3.748   2.048 -10.228  0.00  0.00    -0.061 A 
ATOM     38  H   LIG d   1       4.094   0.766 -11.903  0.00  0.00     0.062 H 
ATOM     39  C   LIG d   1       3.273   2.137  -8.932  0.00  0.00    -0.062 A 
ATOM     40  H   LIG d   1       4.138   2.925 -10.721  0.00  0.00     0.062 H 
ATOM     41  C   LIG d   1       2.773   1.014  -8.301  0.00  0.00    -0.061 A 
ATOM     42  H   LIG d   1       3.296   3.083  -8.413  0.00  0.00     0.062 H 
ATOM     43  C   LIG d   1       2.750  -0.199  -8.963  0.00  0.00    -0.057 A 
ATOM     44  H   LIG d   1       2.402   1.083  -7.289  0.00  0.00     0.062 H 
ATOM     45  H   LIG d   1       2.360  -1.077  -8.470  0.00  0.00     0.062 H 
ENDBRANCH  32  35
ENDBRANCH  30  32
ENDBRANCH  27  30
ENDBRANCH   1  26
TORSDOF 8
ENDMDL
MODEL 7
REMARK VINA RESULT:      -6.8      5.420      8.914
REMARK  8 active torsions:
REMARK  status: ('A' for Active; 'I' for Inactive)
REMARK    1  A    between atoms: C_4  and  C_7 
REMARK    2  A    between atoms: C_7  and  N_8 
REMARK    3  A    between atoms: N_8  and  C_9 
REMARK    4  A    between atoms: N_11  and  N_12 
REMARK       I    between atoms: N_12  and  C_13 
REMARK    5  A    between atoms: C_13  and  C_15 
REMARK    6  A    between atoms: C_15  and  O_16 
REMARK    7  A    between atoms: O_16  and  C_17 
REMARK    8  A    between atoms: N_20  and  C_22 
ROOT
ATOM      1  N   LIG d   1       6.535   1.265  -7.574  0.00  0.00    -0.232 N 
ATOM      2  C   LIG d   1       6.098   1.855  -8.705  0.00  0.00     0.267 C 
ATOM      3  O   LIG d   1       6.874   2.463  -9.411  0.00  0.00    -0.271 OA
ATOM      4  H   LIG d   1       5.914   0.779  -7.010  0.00  0.00     0.173 HD
ENDROOT
BRANCH   2   5
ATOM      5  C   LIG d   1       4.645   1.756  -9.094  0.00  0.00     0.170 C 
ATOM      6  H   LIG d   1       4.242   2.757  -9.248  0.00  0.00     0.080 H 
ATOM      7  H   LIG d   1       4.555   1.182 -10.017  0.00  0.00     0.080 H 
BRANCH   5   8
ATOM      8  O   LIG d   1       3.916   1.103  -8.054  0.00  0.00    -0.452 OA
BRANCH   8   9
ATOM      9  C   LIG d   1       3.779  -0.246  -8.150  0.00  0.00     0.337 A 
ATOM     10  N   LIG d   1       4.250  -1.122  -7.297  0.00  0.00    -0.108 NA
ATOM     11  N   LIG d   1       3.880  -2.390  -7.773  0.00  0.00    -0.217 N 
ATOM     12  C   LIG d   1       3.199  -2.184  -8.916  0.00  0.00     0.124 A 
ATOM     13  N   LIG d   1       3.146  -0.894  -9.130  0.00  0.00    -0.182 NA
ATOM     14  H   LIG d   1       2.771  -2.950  -9.545  0.00  0.00     0.105 H 
BRANCH  11  15
ATOM     15  C   LIG d   1       4.167  -3.627  -7.177  0.00  0.00     0.067 A 
ATOM     16  C   LIG d   1       4.691  -3.676  -5.893  0.00  0.00    -0.035 A 
ATOM     17  C   LIG d   1       4.967  -4.896  -5.308  0.00  0.00    -0.041 A 
ATOM     18  H   LIG d   1       4.879  -2.760  -5.351  0.00  0.00     0.064 H 
ATOM     19  C   LIG d   1       4.733  -6.068  -6.003  0.00  0.00     0.041 A 
ATOM     20  H   LIG d   1       5.371  -4.934  -4.306  0.00  0.00     0.063 H 
ATOM     21  C   LIG d   1       4.215  -6.022  -7.286  0.00  0.00    -0.041 A 
ATOM     22 CL   LIG d   1       5.086  -7.599  -5.267  0.00  0.00    -0.084 Cl
ATOM     23  C   LIG d   1       3.932  -4.805  -7.874  0.00  0.00    -0.035 A 
ATOM     24  H   LIG d   1       4.033  -6.938  -7.828  0.00  0.00     0.063 H 
ATOM     25  H   LIG d   1       3.527  -4.770  -8.875  0.00  0.00     0.064 H 
ENDBRANCH  11  15
ENDBRANCH   8   9
ENDBRANCH   5   8
ENDBRANCH   2   5
BRANCH   1  26
ATOM     26  N   LIG d   1       7.885   1.356  -7.214  0.00  0.00    -0.246 N 
ATOM     27  C   LIG d   1       8.229   1.493  -5.918  0.00  0.00     0.147 C 
ATOM     28  S   LIG d   1       9.879   1.604  -5.477  0.00  0.00    -0.017 SA
ATOM     29  H   LIG d   1       8.573   1.320  -7.896  0.00  0.00     0.172 HD
BRANCH  27  30
ATOM     30  N   LIG d   1       7.272   1.542  -4.969  0.00  0.00    -0.321 N 
ATOM     31  H   LIG d   1       6.432   1.991  -5.150  0.00  0.00     0.148 HD
BRANCH  30  32
ATOM     32  C   LIG d   1       7.504   0.918  -3.663  0.00  0.00     0.036 C 
ATOM     33  H   LIG d   1       7.872   1.668  -2.962  0.00  0.00     0.051 H 
ATOM     34  H   LIG d   1       8.242   0.123  -3.767  0.00  0.00     0.051 H 
BRANCH  32  35
ATOM     35  C   LIG d   1       6.211   0.340  -3.147  0.00  0.00    -0.030 A 
ATOM     36  C   LIG d   1       5.216   1.177  -2.682  0.00  0.00    -0.057 A 
ATOM     37  C   LIG d   1       4.030   0.647  -2.210  0.00  0.00    -0.061 A 
ATOM     38  H   LIG d   1       5.365   2.247  -2.687  0.00  0.00     0.062 H 
ATOM     39  C   LIG d   1       3.840  -0.723  -2.205  0.00  0.00    -0.062 A 
ATOM     40  H   LIG d   1       3.252   1.301  -1.846  0.00  0.00     0.062 H 
ATOM     41  C   LIG d   1       4.835  -1.561  -2.671  0.00  0.00    -0.061 A 
ATOM     42  H   LIG d   1       2.915  -1.138  -1.832  0.00  0.00     0.062 H 
ATOM     43  C   LIG d   1       6.021  -1.030  -3.142  0.00  0.00    -0.057 A 
ATOM     44  H   LIG d   1       4.686  -2.631  -2.667  0.00  0.00     0.062 H 
ATOM     45  H   LIG d   1       6.799  -1.685  -3.506  0.00  0.00     0.062 H 
ENDBRANCH  32  35
ENDBRANCH  30  32
ENDBRANCH  27  30
ENDBRANCH   1  26
TORSDOF 8
ENDMDL
MODEL 8
REMARK VINA RESULT:      -6.6      1.783      2.039
REMARK  8 active torsions:
REMARK  status: ('A' for Active; 'I' for Inactive)
REMARK    1  A    between atoms: C_4  and  C_7 
REMARK    2  A    between atoms: C_7  and  N_8 
REMARK    3  A    between atoms: N_8  and  C_9 
REMARK    4  A    between atoms: N_11  and  N_12 
REMARK       I    between atoms: N_12  and  C_13 
REMARK    5  A    between atoms: C_13  and  C_15 
REMARK    6  A    between atoms: C_15  and  O_16 
REMARK    7  A    between atoms: O_16  and  C_17 
REMARK    8  A    between atoms: N_20  and  C_22 
ROOT
ATOM      1  N   LIG d   1       6.082   0.649  -7.636  0.00  0.00    -0.232 N 
ATOM      2  C   LIG d   1       6.898   1.536  -8.240  0.00  0.00     0.267 C 
ATOM      3  O   LIG d   1       6.643   1.932  -9.357  0.00  0.00    -0.271 OA
ATOM      4  H   LIG d   1       6.287   0.332  -6.742  0.00  0.00     0.173 HD
ENDROOT
BRANCH   2   5
ATOM      5  C   LIG d   1       8.127   2.038  -7.526  0.00  0.00     0.170 C 
ATOM      6  H   LIG d   1       9.011   1.819  -8.126  0.00  0.00     0.080 H 
ATOM      7  H   LIG d   1       8.046   3.115  -7.378  0.00  0.00     0.080 H 
BRANCH   5   8
ATOM      8  O   LIG d   1       8.240   1.390  -6.258  0.00  0.00    -0.452 OA
BRANCH   8   9
ATOM      9  C   LIG d   1       8.998   2.008  -5.315  0.00  0.00     0.337 A 
ATOM     10  N   LIG d   1       8.789   3.210  -4.836  0.00  0.00    -0.108 NA
ATOM     11  N   LIG d   1       9.797   3.450  -3.889  0.00  0.00    -0.217 N 
ATOM     12  C   LIG d   1      10.571   2.348  -3.868  0.00  0.00     0.124 A 
ATOM     13  N   LIG d   1      10.080   1.491  -4.728  0.00  0.00    -0.182 NA
ATOM     14  H   LIG d   1      11.443   2.197  -3.250  0.00  0.00     0.105 H 
BRANCH  11  15
ATOM     15  C   LIG d   1       9.968   4.610  -3.120  0.00  0.00     0.067 A 
ATOM     16  C   LIG d   1      10.609   4.542  -1.891  0.00  0.00    -0.035 A 
ATOM     17  C   LIG d   1      10.781   5.687  -1.138  0.00  0.00    -0.041 A 
ATOM     18  H   LIG d   1      10.977   3.594  -1.525  0.00  0.00     0.064 H 
ATOM     19  C   LIG d   1      10.304   6.900  -1.603  0.00  0.00     0.041 A 
ATOM     20  H   LIG d   1      11.284   5.635  -0.184  0.00  0.00     0.063 H 
ATOM     21  C   LIG d   1       9.659   6.970  -2.825  0.00  0.00    -0.041 A 
ATOM     22 CL   LIG d   1      10.516   8.337  -0.652  0.00  0.00    -0.084 Cl
ATOM     23  C   LIG d   1       9.490   5.828  -3.584  0.00  0.00    -0.035 A 
ATOM     24  H   LIG d   1       9.288   7.918  -3.187  0.00  0.00     0.063 H 
ATOM     25  H   LIG d   1       8.988   5.884  -4.539  0.00  0.00     0.064 H 
ENDBRANCH  11  15
ENDBRANCH   8   9
ENDBRANCH   5   8
ENDBRANCH   2   5
BRANCH   1  26
ATOM     26  N   LIG d   1       4.940   0.183  -8.299  0.00  0.00    -0.246 N 
ATOM     27  C   LIG d   1       3.745   0.205  -7.678  0.00  0.00     0.147 C 
ATOM     28  S   LIG d   1       2.348  -0.363  -8.489  0.00  0.00    -0.017 SA
ATOM     29  H   LIG d   1       5.009  -0.155  -9.205  0.00  0.00     0.172 HD
BRANCH  27  30
ATOM     30  N   LIG d   1       3.648   0.677  -6.419  0.00  0.00    -0.321 N 
ATOM     31  H   LIG d   1       4.240   1.383  -6.119  0.00  0.00     0.148 HD
BRANCH  30  32
ATOM     32  C   LIG d   1       2.647   0.121  -5.503  0.00  0.00     0.036 C 
ATOM     33  H   LIG d   1       2.311  -0.846  -5.877  0.00  0.00     0.051 H 
ATOM     34  H   LIG d   1       1.799   0.801  -5.438  0.00  0.00     0.051 H 
BRANCH  32  35
ATOM     35  C   LIG d   1       3.259  -0.052  -4.137  0.00  0.00    -0.030 A 
ATOM     36  C   LIG d   1       3.547  -1.319  -3.664  0.00  0.00    -0.057 A 
ATOM     37  C   LIG d   1       4.110  -1.478  -2.411  0.00  0.00    -0.061 A 
ATOM     38  H   LIG d   1       3.333  -2.184  -4.274  0.00  0.00     0.062 H 
ATOM     39  C   LIG d   1       4.384  -0.369  -1.632  0.00  0.00    -0.062 A 
ATOM     40  H   LIG d   1       4.334  -2.466  -2.042  0.00  0.00     0.062 H 
ATOM     41  C   LIG d   1       4.097   0.897  -2.105  0.00  0.00    -0.061 A 
ATOM     42  H   LIG d   1       4.820  -0.493  -0.652  0.00  0.00     0.062 H 
ATOM     43  C   LIG d   1       3.534   1.056  -3.357  0.00  0.00    -0.057 A 
ATOM     44  H   LIG d   1       4.312   1.763  -1.496  0.00  0.00     0.062 H 
ATOM     45  H   LIG d   1       3.309   2.046  -3.727  0.00  0.00     0.062 H 
ENDBRANCH  32  35
ENDBRANCH  30  32
ENDBRANCH  27  30
ENDBRANCH   1  26
TORSDOF 8
ENDMDL
MODEL 9
REMARK VINA RESULT:      -6.4      5.874      8.376
REMARK  8 active torsions:
REMARK  status: ('A' for Active; 'I' for Inactive)
REMARK    1  A    between atoms: C_4  and  C_7 
REMARK    2  A    between atoms: C_7  and  N_8 
REMARK    3  A    between atoms: N_8  and  C_9 
REMARK    4  A    between atoms: N_11  and  N_12 
REMARK       I    between atoms: N_12  and  C_13 
REMARK    5  A    between atoms: C_13  and  C_15 
REMARK    6  A    between atoms: C_15  and  O_16 
REMARK    7  A    between atoms: O_16  and  C_17 
REMARK    8  A    between atoms: N_20  and  C_22 
ROOT
ATOM      1  N   LIG d   1       9.211  -0.243  -5.473  0.00  0.00    -0.232 N 
ATOM      2  C   LIG d   1       9.232  -0.056  -6.808  0.00  0.00     0.267 C 
ATOM      3  O   LIG d   1       9.489  -0.983  -7.546  0.00  0.00    -0.271 OA
ATOM      4  H   LIG d   1       9.005   0.498  -4.883  0.00  0.00     0.173 HD
ENDROOT
BRANCH   2   5
ATOM      5  C   LIG d   1       8.933   1.304  -7.383  0.00  0.00     0.170 C 
ATOM      6  H   LIG d   1       9.737   1.993  -7.123  0.00  0.00     0.080 H 
ATOM      7  H   LIG d   1       8.855   1.230  -8.468  0.00  0.00     0.080 H 
BRANCH   5   8
ATOM      8  O   LIG d   1       7.699   1.788  -6.849  0.00  0.00    -0.452 OA
BRANCH   8   9
ATOM      9  C   LIG d   1       6.585   1.054  -7.108  0.00  0.00     0.337 A 
ATOM     10  N   LIG d   1       5.910   1.065  -8.231  0.00  0.00    -0.108 NA
ATOM     11  N   LIG d   1       4.843   0.165  -8.072  0.00  0.00    -0.217 N 
ATOM     12  C   LIG d   1       4.949  -0.333  -6.825  0.00  0.00     0.124 A 
ATOM     13  N   LIG d   1       5.998   0.209  -6.258  0.00  0.00    -0.182 NA
ATOM     14  H   LIG d   1       4.285  -1.054  -6.372  0.00  0.00     0.105 H 
BRANCH  11  15
ATOM     15  C   LIG d   1       3.861  -0.149  -9.021  0.00  0.00     0.067 A 
ATOM     16  C   LIG d   1       4.140  -0.033 -10.376  0.00  0.00    -0.035 A 
ATOM     17  C   LIG d   1       3.172  -0.348 -11.308  0.00  0.00    -0.041 A 
ATOM     18  H   LIG d   1       5.115   0.301 -10.700  0.00  0.00     0.064 H 
ATOM     19  C   LIG d   1       1.921  -0.769 -10.894  0.00  0.00     0.041 A 
ATOM     20  H   LIG d   1       3.390  -0.262 -12.363  0.00  0.00     0.063 H 
ATOM     21  C   LIG d   1       1.638  -0.881  -9.544  0.00  0.00    -0.041 A 
ATOM     22 CL   LIG d   1       0.704  -1.160 -12.069  0.00  0.00    -0.084 Cl
ATOM     23  C   LIG d   1       2.604  -0.572  -8.607  0.00  0.00    -0.035 A 
ATOM     24  H   LIG d   1       0.660  -1.210  -9.222  0.00  0.00     0.063 H 
ATOM     25  H   LIG d   1       2.383  -0.661  -7.553  0.00  0.00     0.064 H 
ENDBRANCH  11  15
ENDBRANCH   8   9
ENDBRANCH   5   8
ENDBRANCH   2   5
BRANCH   1  26
ATOM     26  N   LIG d   1       9.488  -1.508  -4.939  0.00  0.00    -0.246 N 
ATOM     27  C   LIG d   1       8.507  -2.221  -4.352  0.00  0.00     0.147 C 
ATOM     28  S   LIG d   1       8.845  -3.767  -3.699  0.00  0.00    -0.017 SA
ATOM     29  H   LIG d   1      10.386  -1.871  -4.991  0.00  0.00     0.172 HD
BRANCH  27  30
ATOM     30  N   LIG d   1       7.259  -1.718  -4.280  0.00  0.00    -0.321 N 
ATOM     31  H   LIG d   1       6.968  -1.048  -4.918  0.00  0.00     0.148 HD
BRANCH  30  32
ATOM     32  C   LIG d   1       6.340  -2.182  -3.236  0.00  0.00     0.036 C 
ATOM     33  H   LIG d   1       6.901  -2.388  -2.324  0.00  0.00     0.051 H 
ATOM     34  H   LIG d   1       5.841  -3.091  -3.570  0.00  0.00     0.051 H 
BRANCH  32  35
ATOM     35  C   LIG d   1       5.311  -1.115  -2.962  0.00  0.00    -0.030 A 
ATOM     36  C   LIG d   1       5.712   0.181  -2.701  0.00  0.00    -0.057 A 
ATOM     37  C   LIG d   1       4.768   1.160  -2.451  0.00  0.00    -0.061 A 
ATOM     38  H   LIG d   1       6.763   0.430  -2.692  0.00  0.00     0.062 H 
ATOM     39  C   LIG d   1       3.422   0.841  -2.464  0.00  0.00    -0.062 A 
ATOM     40  H   LIG d   1       5.081   2.172  -2.246  0.00  0.00     0.062 H 
ATOM     41  C   LIG d   1       3.022  -0.456  -2.727  0.00  0.00    -0.061 A 
ATOM     42  H   LIG d   1       2.685   1.604  -2.265  0.00  0.00     0.062 H 
ATOM     43  C   LIG d   1       3.966  -1.434  -2.975  0.00  0.00    -0.057 A 
ATOM     44  H   LIG d   1       1.971  -0.705  -2.737  0.00  0.00     0.062 H 
ATOM     45  H   LIG d   1       3.653  -2.447  -3.180  0.00  0.00     0.062 H 
ENDBRANCH  32  35
ENDBRANCH  30  32
ENDBRANCH  27  30
ENDBRANCH   1  26
TORSDOF 8
ENDMDL
