MODEL 1
REMARK VINA RESULT:      -7.6      0.000      0.000
REMARK  9 active torsions:
REMARK  status: ('A' for Active; 'I' for Inactive)
REMARK    1  A    between atoms: C_4  and  C_7 
REMARK    2  A    between atoms: C_15  and  O_20 
REMARK    3  A    between atoms: C_16  and  O_19 
REMARK    4  A    between atoms: C_17  and  O_18 
REMARK    5  A    between atoms: O_20  and  C_21 
REMARK    6  A    between atoms: C_23  and  O_36 
REMARK    7  A    between atoms: C_25  and  O_35 
REMARK    8  A    between atoms: C_27  and  O_34 
REMARK    9  A    between atoms: C_29  and  C_32 
ROOT
ATOM      1  C   LIG d   1       7.346   1.168  -3.977  0.00  0.00     0.139 A 
ATOM      2  C   LIG d   1       7.610   0.874  -5.277  0.00  0.00     0.029 A 
ATOM      3  C   LIG d   1       8.622   1.589  -5.963  0.00  0.00     0.197 A 
ATOM      4  O   LIG d   1       8.886   1.352  -7.130  0.00  0.00    -0.287 OA
ATOM      5  C   LIG d   1       9.344   2.630  -5.211  0.00  0.00     0.109 A 
ATOM      6  C   LIG d   1       8.991   2.853  -3.868  0.00  0.00     0.146 A 
ATOM      7  O   LIG d   1       8.010   2.119  -3.302  0.00  0.00    -0.454 OA
ATOM      8  C   LIG d   1       9.658   3.828  -3.142  0.00  0.00     0.027 A 
ATOM      9  C   LIG d   1      10.662   4.573  -3.737  0.00  0.00     0.172 A 
ATOM     10  C   LIG d   1      11.015   4.355  -5.067  0.00  0.00     0.202 A 
ATOM     11  C   LIG d   1      10.359   3.385  -5.809  0.00  0.00     0.177 A 
ATOM     12  H   LIG d   1       7.053   0.101  -5.785  0.00  0.00     0.069 H 
ATOM     13  H   LIG d   1       9.393   4.005  -2.109  0.00  0.00     0.069 H 
ENDROOT
BRANCH   9  14
ATOM     14  O   LIG d   1      11.309   5.526  -3.017  0.00  0.00    -0.457 OA
BRANCH  14  15
ATOM     15  C   LIG d   1      11.204   5.448  -1.594  0.00  0.00     0.231 C 
ATOM     16  H   LIG d   1      10.976   4.423  -1.302  0.00  0.00     0.108 H 
ATOM     17  O   LIG d   1      10.161   6.315  -1.145  0.00  0.00    -0.328 OA
ATOM     18  C   LIG d   1      10.349   7.687  -1.501  0.00  0.00     0.130 C 
ATOM     19  C   LIG d   1      11.641   8.204  -0.861  0.00  0.00     0.115 C 
ATOM     20  H   LIG d   1      10.419   7.776  -2.584  0.00  0.00     0.069 H 
ATOM     21  C   LIG d   1      12.814   7.335  -1.325  0.00  0.00     0.116 C 
ATOM     22  H   LIG d   1      11.810   9.237  -1.166  0.00  0.00     0.065 H 
ATOM     23  C   LIG d   1      12.530   5.875  -0.959  0.00  0.00     0.145 C 
ATOM     24  H   LIG d   1      13.729   7.664  -0.831  0.00  0.00     0.065 H 
ATOM     25  H   LIG d   1      13.334   5.243  -1.334  0.00  0.00     0.068 H 
BRANCH  18  26
ATOM     26  C   LIG d   1       9.182   8.500  -1.003  0.00  0.00     0.073 C 
ATOM     27  O   LIG d   1       8.109   7.972  -0.828  0.00  0.00    -0.547 OA
ATOM     28  O   LIG d   1       9.333   9.810  -0.755  0.00  0.00    -0.547 OA
ENDBRANCH  18  26
BRANCH  19  29
ATOM     29  O   LIG d   1      11.530   8.137   0.562  0.00  0.00    -0.386 OA
ATOM     30  H   LIG d   1      12.357   7.916   1.011  0.00  0.00     0.210 HD
ENDBRANCH  19  29
BRANCH  21  31
ATOM     31  O   LIG d   1      12.966   7.453  -2.741  0.00  0.00    -0.386 OA
ATOM     32  H   LIG d   1      13.420   6.705  -3.151  0.00  0.00     0.210 HD
ENDBRANCH  21  31
BRANCH  23  33
ATOM     33  O   LIG d   1      12.443   5.746   0.461  0.00  0.00    -0.383 OA
ATOM     34  H   LIG d   1      11.648   6.140   0.844  0.00  0.00     0.210 HD
ENDBRANCH  23  33
ENDBRANCH  14  15
ENDBRANCH   9  14
BRANCH  10  35
ATOM     35  O   LIG d   1      12.004   5.095  -5.639  0.00  0.00    -0.501 OA
ATOM     36  H   LIG d   1      12.086   4.971  -6.594  0.00  0.00     0.292 HD
ENDBRANCH  10  35
BRANCH  11  37
ATOM     37  O   LIG d   1      10.699   3.170  -7.106  0.00  0.00    -0.503 OA
ATOM     38  H   LIG d   1      10.021   3.437  -7.741  0.00  0.00     0.292 HD
ENDBRANCH  11  37
BRANCH   1  39
ATOM     39  C   LIG d   1       6.287   0.410  -3.280  0.00  0.00     0.017 A 
ATOM     40  C   LIG d   1       5.323   1.084  -2.528  0.00  0.00    -0.051 A 
ATOM     41  C   LIG d   1       4.336   0.371  -1.879  0.00  0.00    -0.061 A 
ATOM     42  H   LIG d   1       5.350   2.162  -2.453  0.00  0.00     0.062 H 
ATOM     43  C   LIG d   1       4.300  -1.009  -1.974  0.00  0.00    -0.062 A 
ATOM     44  H   LIG d   1       3.589   0.890  -1.296  0.00  0.00     0.062 H 
ATOM     45  C   LIG d   1       5.252  -1.683  -2.718  0.00  0.00    -0.061 A 
ATOM     46  H   LIG d   1       3.525  -1.563  -1.464  0.00  0.00     0.062 H 
ATOM     47  C   LIG d   1       6.241  -0.982  -3.376  0.00  0.00    -0.051 A 
ATOM     48  H   LIG d   1       5.217  -2.761  -2.787  0.00  0.00     0.062 H 
ATOM     49  H   LIG d   1       6.980  -1.508  -3.960  0.00  0.00     0.062 H 
ENDBRANCH   1  39
TORSDOF 9
ENDMDL
MODEL 2
REMARK VINA RESULT:      -7.4      2.695      8.200
REMARK  9 active torsions:
REMARK  status: ('A' for Active; 'I' for Inactive)
REMARK    1  A    between atoms: C_4  and  C_7 
REMARK    2  A    between atoms: C_15  and  O_20 
REMARK    3  A    between atoms: C_16  and  O_19 
REMARK    4  A    between atoms: C_17  and  O_18 
REMARK    5  A    between atoms: O_20  and  C_21 
REMARK    6  A    between atoms: C_23  and  O_36 
REMARK    7  A    between atoms: C_25  and  O_35 
REMARK    8  A    between atoms: C_27  and  O_34 
REMARK    9  A    between atoms: C_29  and  C_32 
ROOT
ATOM      1  C   LIG d   1       9.921   4.696  -3.279  0.00  0.00     0.139 A 
ATOM      2  C   LIG d   1      10.264   5.216  -4.486  0.00  0.00     0.029 A 
ATOM      3  C   LIG d   1       9.930   4.515  -5.670  0.00  0.00     0.197 A 
ATOM      4  O   LIG d   1      10.221   4.953  -6.771  0.00  0.00    -0.287 OA
ATOM      5  C   LIG d   1       9.217   3.234  -5.520  0.00  0.00     0.109 A 
ATOM      6  C   LIG d   1       8.910   2.786  -4.223  0.00  0.00     0.146 A 
ATOM      7  O   LIG d   1       9.272   3.528  -3.155  0.00  0.00    -0.454 OA
ATOM      8  C   LIG d   1       8.240   1.584  -4.058  0.00  0.00     0.027 A 
ATOM      9  C   LIG d   1       7.876   0.834  -5.165  0.00  0.00     0.172 A 
ATOM     10  C   LIG d   1       8.177   1.275  -6.451  0.00  0.00     0.202 A 
ATOM     11  C   LIG d   1       8.848   2.474  -6.636  0.00  0.00     0.177 A 
ATOM     12  H   LIG d   1      10.786   6.160  -4.544  0.00  0.00     0.069 H 
ATOM     13  H   LIG d   1       8.001   1.232  -3.065  0.00  0.00     0.069 H 
ENDROOT
BRANCH   9  14
ATOM     14  O   LIG d   1       7.219  -0.343  -4.994  0.00  0.00    -0.457 OA
BRANCH  14  15
ATOM     15  C   LIG d   1       5.845  -0.382  -5.383  0.00  0.00     0.231 C 
ATOM     16  H   LIG d   1       5.724   0.121  -6.343  0.00  0.00     0.108 H 
ATOM     17  O   LIG d   1       5.051   0.279  -4.395  0.00  0.00    -0.328 OA
ATOM     18  C   LIG d   1       5.157  -0.286  -3.087  0.00  0.00     0.130 C 
ATOM     19  C   LIG d   1       4.675  -1.740  -3.122  0.00  0.00     0.115 C 
ATOM     20  H   LIG d   1       6.196  -0.256  -2.761  0.00  0.00     0.069 H 
ATOM     21  C   LIG d   1       5.506  -2.521  -4.143  0.00  0.00     0.116 C 
ATOM     22  H   LIG d   1       4.795  -2.187  -2.135  0.00  0.00     0.065 H 
ATOM     23  C   LIG d   1       5.390  -1.838  -5.510  0.00  0.00     0.145 C 
ATOM     24  H   LIG d   1       5.133  -3.543  -4.213  0.00  0.00     0.065 H 
ATOM     25  H   LIG d   1       6.023  -2.356  -6.230  0.00  0.00     0.068 H 
BRANCH  18  26
ATOM     26  C   LIG d   1       4.305   0.503  -2.127  0.00  0.00     0.073 C 
ATOM     27  O   LIG d   1       4.805   1.010  -1.151  0.00  0.00    -0.547 OA
ATOM     28  O   LIG d   1       2.990   0.642  -2.356  0.00  0.00    -0.547 OA
ENDBRANCH  18  26
BRANCH  19  29
ATOM     29  O   LIG d   1       3.296  -1.777  -3.499  0.00  0.00    -0.386 OA
ATOM     30  H   LIG d   1       3.040  -2.579  -3.973  0.00  0.00     0.210 HD
ENDBRANCH  19  29
BRANCH  21  31
ATOM     31  O   LIG d   1       6.875  -2.539  -3.732  0.00  0.00    -0.386 OA
ATOM     32  H   LIG d   1       7.300  -3.402  -3.821  0.00  0.00     0.210 HD
ENDBRANCH  21  31
BRANCH  23  33
ATOM     33  O   LIG d   1       4.032  -1.878  -5.951  0.00  0.00    -0.383 OA
ATOM     34  H   LIG d   1       3.931  -2.046  -6.897  0.00  0.00     0.210 HD
ENDBRANCH  23  33
ENDBRANCH  14  15
ENDBRANCH   9  14
BRANCH  10  35
ATOM     35  O   LIG d   1       7.814   0.527  -7.530  0.00  0.00    -0.501 OA
ATOM     36  H   LIG d   1       7.067   0.889  -8.026  0.00  0.00     0.292 HD
ENDBRANCH  10  35
BRANCH  11  37
ATOM     37  O   LIG d   1       9.145   2.906  -7.888  0.00  0.00    -0.503 OA
ATOM     38  H   LIG d   1       8.970   3.846  -8.033  0.00  0.00     0.292 HD
ENDBRANCH  11  37
BRANCH   1  39
ATOM     39  C   LIG d   1      10.278   5.444  -2.057  0.00  0.00     0.017 A 
ATOM     40  C   LIG d   1      11.193   4.907  -1.148  0.00  0.00    -0.051 A 
ATOM     41  C   LIG d   1      11.522   5.611  -0.009  0.00  0.00    -0.061 A 
ATOM     42  H   LIG d   1      11.642   3.943  -1.337  0.00  0.00     0.062 H 
ATOM     43  C   LIG d   1      10.948   6.847   0.235  0.00  0.00    -0.062 A 
ATOM     44  H   LIG d   1      12.230   5.198   0.695  0.00  0.00     0.062 H 
ATOM     45  C   LIG d   1      10.041   7.384  -0.660  0.00  0.00    -0.061 A 
ATOM     46  H   LIG d   1      11.210   7.394   1.129  0.00  0.00     0.062 H 
ATOM     47  C   LIG d   1       9.707   6.693  -1.807  0.00  0.00    -0.051 A 
ATOM     48  H   LIG d   1       9.597   8.349  -0.464  0.00  0.00     0.062 H 
ATOM     49  H   LIG d   1       9.003   7.116  -2.508  0.00  0.00     0.062 H 
ENDBRANCH   1  39
TORSDOF 9
ENDMDL
MODEL 3
REMARK VINA RESULT:      -7.4      0.991      2.346
REMARK  9 active torsions:
REMARK  status: ('A' for Active; 'I' for Inactive)
REMARK    1  A    between atoms: C_4  and  C_7 
REMARK    2  A    between atoms: C_15  and  O_20 
REMARK    3  A    between atoms: C_16  and  O_19 
REMARK    4  A    between atoms: C_17  and  O_18 
REMARK    5  A    between atoms: O_20  and  C_21 
REMARK    6  A    between atoms: C_23  and  O_36 
REMARK    7  A    between atoms: C_25  and  O_35 
REMARK    8  A    between atoms: C_27  and  O_34 
REMARK    9  A    between atoms: C_29  and  C_32 
ROOT
ATOM      1  C   LIG d   1       7.328   1.187  -3.969  0.00  0.00     0.139 A 
ATOM      2  C   LIG d   1       7.507   1.037  -5.307  0.00  0.00     0.029 A 
ATOM      3  C   LIG d   1       8.511   1.787  -5.967  0.00  0.00     0.197 A 
ATOM      4  O   LIG d   1       8.700   1.676  -7.167  0.00  0.00    -0.287 OA
ATOM      5  C   LIG d   1       9.318   2.706  -5.146  0.00  0.00     0.109 A 
ATOM      6  C   LIG d   1       9.050   2.786  -3.768  0.00  0.00     0.146 A 
ATOM      7  O   LIG d   1       8.069   2.028  -3.231  0.00  0.00    -0.454 OA
ATOM      8  C   LIG d   1       9.797   3.644  -2.976  0.00  0.00     0.027 A 
ATOM      9  C   LIG d   1      10.800   4.415  -3.542  0.00  0.00     0.172 A 
ATOM     10  C   LIG d   1      11.069   4.339  -4.907  0.00  0.00     0.202 A 
ATOM     11  C   LIG d   1      10.331   3.487  -5.714  0.00  0.00     0.177 A 
ATOM     12  H   LIG d   1       6.889   0.349  -5.865  0.00  0.00     0.069 H 
ATOM     13  H   LIG d   1       9.598   3.711  -1.917  0.00  0.00     0.069 H 
ENDROOT
BRANCH   9  14
ATOM     14  O   LIG d   1      11.527   5.253  -2.759  0.00  0.00    -0.457 OA
BRANCH  14  15
ATOM     15  C   LIG d   1      10.928   6.504  -2.416  0.00  0.00     0.231 C 
ATOM     16  H   LIG d   1      10.319   6.856  -3.249  0.00  0.00     0.108 H 
ATOM     17  O   LIG d   1      11.952   7.462  -2.136  0.00  0.00    -0.328 OA
ATOM     18  C   LIG d   1      12.828   7.084  -1.072  0.00  0.00     0.130 C 
ATOM     19  C   LIG d   1      12.020   6.929   0.220  0.00  0.00     0.115 C 
ATOM     20  H   LIG d   1      13.309   6.137  -1.315  0.00  0.00     0.069 H 
ATOM     21  C   LIG d   1      10.917   5.890   0.002  0.00  0.00     0.116 C 
ATOM     22  H   LIG d   1      12.679   6.599   1.024  0.00  0.00     0.065 H 
ATOM     23  C   LIG d   1      10.045   6.327  -1.179  0.00  0.00     0.145 C 
ATOM     24  H   LIG d   1      10.304   5.814   0.901  0.00  0.00     0.065 H 
ATOM     25  H   LIG d   1       9.291   5.565  -1.376  0.00  0.00     0.068 H 
BRANCH  18  26
ATOM     26  C   LIG d   1      13.878   8.148  -0.884  0.00  0.00     0.073 C 
ATOM     27  O   LIG d   1      14.197   8.853  -1.811  0.00  0.00    -0.547 OA
ATOM     28  O   LIG d   1      14.460   8.313   0.315  0.00  0.00    -0.547 OA
ENDBRANCH  18  26
BRANCH  19  29
ATOM     29  O   LIG d   1      11.432   8.185   0.569  0.00  0.00    -0.386 OA
ATOM     30  H   LIG d   1      10.780   8.504  -0.069  0.00  0.00     0.210 HD
ENDBRANCH  19  29
BRANCH  21  31
ATOM     31  O   LIG d   1      11.507   4.620  -0.283  0.00  0.00    -0.386 OA
ATOM     32  H   LIG d   1      11.514   4.391  -1.222  0.00  0.00     0.210 HD
ENDBRANCH  21  31
BRANCH  23  33
ATOM     33  O   LIG d   1       9.403   7.565  -0.868  0.00  0.00    -0.383 OA
ATOM     34  H   LIG d   1       9.550   8.259  -1.524  0.00  0.00     0.210 HD
ENDBRANCH  23  33
ENDBRANCH  14  15
ENDBRANCH   9  14
BRANCH  10  35
ATOM     35  O   LIG d   1      12.057   5.103  -5.449  0.00  0.00    -0.501 OA
ATOM     36  H   LIG d   1      12.796   4.593  -5.808  0.00  0.00     0.292 HD
ENDBRANCH  10  35
BRANCH  11  37
ATOM     37  O   LIG d   1      10.590   3.411  -7.045  0.00  0.00    -0.503 OA
ATOM     38  H   LIG d   1      11.058   2.608  -7.311  0.00  0.00     0.292 HD
ENDBRANCH  11  37
BRANCH   1  39
ATOM     39  C   LIG d   1       6.276   0.395  -3.300  0.00  0.00     0.017 A 
ATOM     40  C   LIG d   1       6.249  -0.994  -3.443  0.00  0.00    -0.051 A 
ATOM     41  C   LIG d   1       5.264  -1.729  -2.815  0.00  0.00    -0.061 A 
ATOM     42  H   LIG d   1       6.996  -1.492  -4.043  0.00  0.00     0.062 H 
ATOM     43  C   LIG d   1       4.305  -1.093  -2.046  0.00  0.00    -0.062 A 
ATOM     44  H   LIG d   1       5.240  -2.803  -2.925  0.00  0.00     0.062 H 
ATOM     45  C   LIG d   1       4.327   0.283  -1.901  0.00  0.00    -0.061 A 
ATOM     46  H   LIG d   1       3.536  -1.673  -1.557  0.00  0.00     0.062 H 
ATOM     47  C   LIG d   1       5.309   1.029  -2.518  0.00  0.00    -0.051 A 
ATOM     48  H   LIG d   1       3.576   0.773  -1.299  0.00  0.00     0.062 H 
ATOM     49  H   LIG d   1       5.329   2.102  -2.400  0.00  0.00     0.062 H 
ENDBRANCH   1  39
TORSDOF 9
ENDMDL
MODEL 4
REMARK VINA RESULT:      -7.3      1.970      2.582
REMARK  9 active torsions:
REMARK  status: ('A' for Active; 'I' for Inactive)
REMARK    1  A    between atoms: C_4  and  C_7 
REMARK    2  A    between atoms: C_15  and  O_20 
REMARK    3  A    between atoms: C_16  and  O_19 
REMARK    4  A    between atoms: C_17  and  O_18 
REMARK    5  A    between atoms: O_20  and  C_21 
REMARK    6  A    between atoms: C_23  and  O_36 
REMARK    7  A    between atoms: C_25  and  O_35 
REMARK    8  A    between atoms: C_27  and  O_34 
REMARK    9  A    between atoms: C_29  and  C_32 
ROOT
ATOM      1  C   LIG d   1       7.391   0.325  -3.815  0.00  0.00     0.139 A 
ATOM      2  C   LIG d   1       8.155  -0.392  -4.679  0.00  0.00     0.029 A 
ATOM      3  C   LIG d   1       9.339   0.180  -5.206  0.00  0.00     0.197 A 
ATOM      4  O   LIG d   1      10.049  -0.435  -5.984  0.00  0.00    -0.287 OA
ATOM      5  C   LIG d   1       9.677   1.548  -4.778  0.00  0.00     0.109 A 
ATOM      6  C   LIG d   1       8.817   2.202  -3.879  0.00  0.00     0.146 A 
ATOM      7  O   LIG d   1       7.710   1.571  -3.432  0.00  0.00    -0.454 OA
ATOM      8  C   LIG d   1       9.116   3.490  -3.463  0.00  0.00     0.027 A 
ATOM      9  C   LIG d   1      10.256   4.124  -3.931  0.00  0.00     0.172 A 
ATOM     10  C   LIG d   1      11.112   3.480  -4.821  0.00  0.00     0.202 A 
ATOM     11  C   LIG d   1      10.828   2.192  -5.249  0.00  0.00     0.177 A 
ATOM     12  H   LIG d   1       7.864  -1.393  -4.962  0.00  0.00     0.069 H 
ATOM     13  H   LIG d   1       8.460   3.999  -2.772  0.00  0.00     0.069 H 
ENDROOT
BRANCH   9  14
ATOM     14  O   LIG d   1      10.542   5.386  -3.517  0.00  0.00    -0.457 OA
BRANCH  14  15
ATOM     15  C   LIG d   1       9.445   6.187  -3.075  0.00  0.00     0.231 C 
ATOM     16  H   LIG d   1       8.589   5.547  -2.862  0.00  0.00     0.108 H 
ATOM     17  O   LIG d   1       9.097   7.125  -4.096  0.00  0.00    -0.328 OA
ATOM     18  C   LIG d   1      10.162   8.001  -4.471  0.00  0.00     0.130 C 
ATOM     19  C   LIG d   1      10.591   8.830  -3.256  0.00  0.00     0.115 C 
ATOM     20  H   LIG d   1      11.008   7.413  -4.826  0.00  0.00     0.069 H 
ATOM     21  C   LIG d   1      11.008   7.885  -2.126  0.00  0.00     0.116 C 
ATOM     22  H   LIG d   1      11.432   9.467  -3.528  0.00  0.00     0.065 H 
ATOM     23  C   LIG d   1       9.844   6.943  -1.804  0.00  0.00     0.145 C 
ATOM     24  H   LIG d   1      11.263   8.467  -1.239  0.00  0.00     0.065 H 
ATOM     25  H   LIG d   1      10.151   6.232  -1.039  0.00  0.00     0.068 H 
BRANCH  18  26
ATOM     26  C   LIG d   1       9.693   8.922  -5.568  0.00  0.00     0.073 C 
ATOM     27  O   LIG d   1       9.060   8.481  -6.497  0.00  0.00    -0.547 OA
ATOM     28  O   LIG d   1       9.980  10.232  -5.512  0.00  0.00    -0.547 OA
ENDBRANCH  18  26
BRANCH  19  29
ATOM     29  O   LIG d   1       9.497   9.641  -2.822  0.00  0.00    -0.386 OA
ATOM     30  H   LIG d   1       9.723  10.262  -2.116  0.00  0.00     0.210 HD
ENDBRANCH  19  29
BRANCH  21  31
ATOM     31  O   LIG d   1      12.143   7.120  -2.536  0.00  0.00    -0.386 OA
ATOM     32  H   LIG d   1      12.669   6.772  -1.804  0.00  0.00     0.210 HD
ENDBRANCH  21  31
BRANCH  23  33
ATOM     33  O   LIG d   1       8.730   7.703  -1.331  0.00  0.00    -0.383 OA
ATOM     34  H   LIG d   1       7.879   7.417  -1.687  0.00  0.00     0.210 HD
ENDBRANCH  23  33
ENDBRANCH  14  15
ENDBRANCH   9  14
BRANCH  10  35
ATOM     35  O   LIG d   1      12.228   4.115  -5.273  0.00  0.00    -0.501 OA
ATOM     36  H   LIG d   1      12.507   4.859  -4.723  0.00  0.00     0.292 HD
ENDBRANCH  10  35
BRANCH  11  37
ATOM     37  O   LIG d   1      11.659   1.561  -6.118  0.00  0.00    -0.503 OA
ATOM     38  H   LIG d   1      11.583   1.869  -7.031  0.00  0.00     0.292 HD
ENDBRANCH  11  37
BRANCH   1  39
ATOM     39  C   LIG d   1       6.161  -0.291  -3.276  0.00  0.00     0.017 A 
ATOM     40  C   LIG d   1       5.861  -1.624  -3.565  0.00  0.00    -0.051 A 
ATOM     41  C   LIG d   1       4.711  -2.194  -3.058  0.00  0.00    -0.061 A 
ATOM     42  H   LIG d   1       6.527  -2.207  -4.184  0.00  0.00     0.062 H 
ATOM     43  C   LIG d   1       3.857  -1.447  -2.265  0.00  0.00    -0.062 A 
ATOM     44  H   LIG d   1       4.477  -3.224  -3.281  0.00  0.00     0.062 H 
ATOM     45  C   LIG d   1       4.149  -0.126  -1.976  0.00  0.00    -0.061 A 
ATOM     46  H   LIG d   1       2.958  -1.898  -1.871  0.00  0.00     0.062 H 
ATOM     47  C   LIG d   1       5.298   0.454  -2.471  0.00  0.00    -0.051 A 
ATOM     48  H   LIG d   1       3.478   0.450  -1.356  0.00  0.00     0.062 H 
ATOM     49  H   LIG d   1       5.527   1.483  -2.240  0.00  0.00     0.062 H 
ENDBRANCH   1  39
TORSDOF 9
ENDMDL
MODEL 5
REMARK VINA RESULT:      -7.2      1.374      1.929
REMARK  9 active torsions:
REMARK  status: ('A' for Active; 'I' for Inactive)
REMARK    1  A    between atoms: C_4  and  C_7 
REMARK    2  A    between atoms: C_15  and  O_20 
REMARK    3  A    between atoms: C_16  and  O_19 
REMARK    4  A    between atoms: C_17  and  O_18 
REMARK    5  A    between atoms: O_20  and  C_21 
REMARK    6  A    between atoms: C_23  and  O_36 
REMARK    7  A    between atoms: C_25  and  O_35 
REMARK    8  A    between atoms: C_27  and  O_34 
REMARK    9  A    between atoms: C_29  and  C_32 
ROOT
ATOM      1  C   LIG d   1       6.712   0.319  -4.446  0.00  0.00     0.139 A 
ATOM      2  C   LIG d   1       6.890   0.113  -5.777  0.00  0.00     0.029 A 
ATOM      3  C   LIG d   1       7.810   0.918  -6.492  0.00  0.00     0.197 A 
ATOM      4  O   LIG d   1       7.996   0.760  -7.687  0.00  0.00    -0.287 OA
ATOM      5  C   LIG d   1       8.534   1.954  -5.734  0.00  0.00     0.109 A 
ATOM      6  C   LIG d   1       8.274   2.083  -4.358  0.00  0.00     0.146 A 
ATOM      7  O   LIG d   1       7.377   1.266  -3.766  0.00  0.00    -0.454 OA
ATOM      8  C   LIG d   1       8.944   3.051  -3.626  0.00  0.00     0.027 A 
ATOM      9  C   LIG d   1       9.861   3.882  -4.249  0.00  0.00     0.172 A 
ATOM     10  C   LIG d   1      10.122   3.757  -5.611  0.00  0.00     0.202 A 
ATOM     11  C   LIG d   1       9.461   2.796  -6.360  0.00  0.00     0.177 A 
ATOM     12  H   LIG d   1       6.335  -0.661  -6.287  0.00  0.00     0.069 H 
ATOM     13  H   LIG d   1       8.750   3.157  -2.569  0.00  0.00     0.069 H 
ENDROOT
BRANCH   9  14
ATOM     14  O   LIG d   1      10.513   4.828  -3.523  0.00  0.00    -0.457 OA
BRANCH  14  15
ATOM     15  C   LIG d   1      11.377   4.366  -2.484  0.00  0.00     0.231 C 
ATOM     16  H   LIG d   1      11.261   3.289  -2.365  0.00  0.00     0.108 H 
ATOM     17  O   LIG d   1      11.040   5.020  -1.258  0.00  0.00    -0.328 OA
ATOM     18  C   LIG d   1      11.133   6.445  -1.312  0.00  0.00     0.130 C 
ATOM     19  C   LIG d   1      12.577   6.848  -1.629  0.00  0.00     0.115 C 
ATOM     20  H   LIG d   1      10.472   6.824  -2.090  0.00  0.00     0.069 H 
ATOM     21  C   LIG d   1      12.999   6.204  -2.953  0.00  0.00     0.116 C 
ATOM     22  H   LIG d   1      12.642   7.933  -1.714  0.00  0.00     0.065 H 
ATOM     23  C   LIG d   1      12.830   4.685  -2.847  0.00  0.00     0.145 C 
ATOM     24  H   LIG d   1      14.043   6.442  -3.158  0.00  0.00     0.065 H 
ATOM     25  H   LIG d   1      13.076   4.224  -3.803  0.00  0.00     0.068 H 
BRANCH  18  26
ATOM     26  C   LIG d   1      10.731   7.026   0.019  0.00  0.00     0.073 C 
ATOM     27  O   LIG d   1      10.397   8.185   0.096  0.00  0.00    -0.547 OA
ATOM     28  O   LIG d   1      10.743   6.257   1.118  0.00  0.00    -0.547 OA
ENDBRANCH  18  26
BRANCH  19  29
ATOM     29  O   LIG d   1      13.440   6.397  -0.582  0.00  0.00    -0.386 OA
ATOM     30  H   LIG d   1      12.990   6.245   0.260  0.00  0.00     0.210 HD
ENDBRANCH  19  29
BRANCH  21  31
ATOM     31  O   LIG d   1      12.179   6.704  -4.011  0.00  0.00    -0.386 OA
ATOM     32  H   LIG d   1      11.564   6.052  -4.373  0.00  0.00     0.210 HD
ENDBRANCH  21  31
BRANCH  23  33
ATOM     33  O   LIG d   1      13.699   4.177  -1.834  0.00  0.00    -0.383 OA
ATOM     34  H   LIG d   1      14.491   4.712  -1.690  0.00  0.00     0.210 HD
ENDBRANCH  23  33
ENDBRANCH  14  15
ENDBRANCH   9  14
BRANCH  10  35
ATOM     35  O   LIG d   1      11.026   4.581  -6.210  0.00  0.00    -0.501 OA
ATOM     36  H   LIG d   1      10.692   5.472  -6.383  0.00  0.00     0.292 HD
ENDBRANCH  10  35
BRANCH  11  37
ATOM     37  O   LIG d   1       9.711   2.671  -7.689  0.00  0.00    -0.503 OA
ATOM     38  H   LIG d   1      10.357   3.305  -8.030  0.00  0.00     0.292 HD
ENDBRANCH  11  37
BRANCH   1  39
ATOM     39  C   LIG d   1       5.749  -0.533  -3.719  0.00  0.00     0.017 A 
ATOM     40  C   LIG d   1       5.392  -1.782  -4.231  0.00  0.00    -0.051 A 
ATOM     41  C   LIG d   1       4.492  -2.573  -3.547  0.00  0.00    -0.061 A 
ATOM     42  H   LIG d   1       5.820  -2.128  -5.161  0.00  0.00     0.062 H 
ATOM     43  C   LIG d   1       3.943  -2.130  -2.356  0.00  0.00    -0.062 A 
ATOM     44  H   LIG d   1       4.215  -3.539  -3.942  0.00  0.00     0.062 H 
ATOM     45  C   LIG d   1       4.292  -0.894  -1.844  0.00  0.00    -0.061 A 
ATOM     46  H   LIG d   1       3.239  -2.754  -1.825  0.00  0.00     0.062 H 
ATOM     47  C   LIG d   1       5.195  -0.095  -2.514  0.00  0.00    -0.051 A 
ATOM     48  H   LIG d   1       3.860  -0.555  -0.913  0.00  0.00     0.062 H 
ATOM     49  H   LIG d   1       5.470   0.867  -2.110  0.00  0.00     0.062 H 
ENDBRANCH   1  39
TORSDOF 9
ENDMDL
MODEL 6
REMARK VINA RESULT:      -7.1      6.702      9.732
REMARK  9 active torsions:
REMARK  status: ('A' for Active; 'I' for Inactive)
REMARK    1  A    between atoms: C_4  and  C_7 
REMARK    2  A    between atoms: C_15  and  O_20 
REMARK    3  A    between atoms: C_16  and  O_19 
REMARK    4  A    between atoms: C_17  and  O_18 
REMARK    5  A    between atoms: O_20  and  C_21 
REMARK    6  A    between atoms: C_23  and  O_36 
REMARK    7  A    between atoms: C_25  and  O_35 
REMARK    8  A    between atoms: C_27  and  O_34 
REMARK    9  A    between atoms: C_29  and  C_32 
ROOT
ATOM      1  C   LIG d   1       1.982  -1.788 -10.864  0.00  0.00     0.139 A 
ATOM      2  C   LIG d   1       2.455  -0.770 -11.629  0.00  0.00     0.029 A 
ATOM      3  C   LIG d   1       3.470   0.076 -11.119  0.00  0.00     0.197 A 
ATOM      4  O   LIG d   1       3.918   0.999 -11.778  0.00  0.00    -0.287 OA
ATOM      5  C   LIG d   1       3.963  -0.204  -9.758  0.00  0.00     0.109 A 
ATOM      6  C   LIG d   1       3.404  -1.284  -9.052  0.00  0.00     0.146 A 
ATOM      7  O   LIG d   1       2.439  -2.033  -9.626  0.00  0.00    -0.454 OA
ATOM      8  C   LIG d   1       3.854  -1.565  -7.771  0.00  0.00     0.027 A 
ATOM      9  C   LIG d   1       4.845  -0.787  -7.196  0.00  0.00     0.172 A 
ATOM     10  C   LIG d   1       5.401   0.283  -7.892  0.00  0.00     0.202 A 
ATOM     11  C   LIG d   1       4.964   0.580  -9.174  0.00  0.00     0.177 A 
ATOM     12  H   LIG d   1       2.061  -0.605 -12.622  0.00  0.00     0.069 H 
ATOM     13  H   LIG d   1       3.430  -2.393  -7.221  0.00  0.00     0.069 H 
ENDROOT
BRANCH   9  14
ATOM     14  O   LIG d   1       5.278  -1.071  -5.940  0.00  0.00    -0.457 OA
BRANCH  14  15
ATOM     15  C   LIG d   1       4.301  -1.527  -5.003  0.00  0.00     0.231 C 
ATOM     16  H   LIG d   1       3.444  -1.933  -5.541  0.00  0.00     0.108 H 
ATOM     17  O   LIG d   1       3.877  -0.433  -4.186  0.00  0.00    -0.328 OA
ATOM     18  C   LIG d   1       4.933   0.192  -3.455  0.00  0.00     0.130 C 
ATOM     19  C   LIG d   1       5.568  -0.829  -2.507  0.00  0.00     0.115 C 
ATOM     20  H   LIG d   1       5.687   0.562  -4.149  0.00  0.00     0.069 H 
ATOM     21  C   LIG d   1       6.076  -2.022  -3.321  0.00  0.00     0.116 C 
ATOM     22  H   LIG d   1       6.403  -0.367  -1.979  0.00  0.00     0.065 H 
ATOM     23  C   LIG d   1       4.910  -2.617  -4.118  0.00  0.00     0.145 C 
ATOM     24  H   LIG d   1       6.481  -2.779  -2.648  0.00  0.00     0.065 H 
ATOM     25  H   LIG d   1       5.275  -3.432  -4.742  0.00  0.00     0.068 H 
BRANCH  18  26
ATOM     26  C   LIG d   1       4.378   1.343  -2.655  0.00  0.00     0.073 C 
ATOM     27  O   LIG d   1       3.672   2.165  -3.189  0.00  0.00    -0.547 OA
ATOM     28  O   LIG d   1       4.668   1.454  -1.349  0.00  0.00    -0.547 OA
ENDBRANCH  18  26
BRANCH  19  29
ATOM     29  O   LIG d   1       4.593  -1.276  -1.562  0.00  0.00    -0.386 OA
ATOM     30  H   LIG d   1       4.259  -0.578  -0.982  0.00  0.00     0.210 HD
ENDBRANCH  19  29
BRANCH  21  31
ATOM     31  O   LIG d   1       7.098  -1.587  -4.221  0.00  0.00    -0.386 OA
ATOM     32  H   LIG d   1       7.840  -1.146  -3.788  0.00  0.00     0.210 HD
ENDBRANCH  21  31
BRANCH  23  33
ATOM     33  O   LIG d   1       3.918  -3.111  -3.217  0.00  0.00    -0.383 OA
ATOM     34  H   LIG d   1       3.270  -3.698  -3.629  0.00  0.00     0.210 HD
ENDBRANCH  23  33
ENDBRANCH  14  15
ENDBRANCH   9  14
BRANCH  10  35
ATOM     35  O   LIG d   1       6.374   1.040  -7.314  0.00  0.00    -0.501 OA
ATOM     36  H   LIG d   1       6.070   1.565  -6.562  0.00  0.00     0.292 HD
ENDBRANCH  10  35
BRANCH  11  37
ATOM     37  O   LIG d   1       5.503   1.624  -9.856  0.00  0.00    -0.503 OA
ATOM     38  H   LIG d   1       6.354   1.923  -9.511  0.00  0.00     0.292 HD
ENDBRANCH  11  37
BRANCH   1  39
ATOM     39  C   LIG d   1       0.924  -2.658 -11.416  0.00  0.00     0.017 A 
ATOM     40  C   LIG d   1       0.543  -3.816 -10.735  0.00  0.00    -0.051 A 
ATOM     41  C   LIG d   1      -0.446  -4.625 -11.256  0.00  0.00    -0.061 A 
ATOM     42  H   LIG d   1       1.022  -4.078  -9.803  0.00  0.00     0.062 H 
ATOM     43  C   LIG d   1      -1.059  -4.290 -12.451  0.00  0.00    -0.062 A 
ATOM     44  H   LIG d   1      -0.742  -5.521 -10.731  0.00  0.00     0.062 H 
ATOM     45  C   LIG d   1      -0.687  -3.145 -13.130  0.00  0.00    -0.061 A 
ATOM     46  H   LIG d   1      -1.833  -4.927 -12.854  0.00  0.00     0.062 H 
ATOM     47  C   LIG d   1       0.297  -2.324 -12.618  0.00  0.00    -0.051 A 
ATOM     48  H   LIG d   1      -1.170  -2.890 -14.062  0.00  0.00     0.062 H 
ATOM     49  H   LIG d   1       0.583  -1.428 -13.147  0.00  0.00     0.062 H 
ENDBRANCH   1  39
TORSDOF 9
ENDMDL
MODEL 7
REMARK VINA RESULT:      -7.0      2.798      8.675
REMARK  9 active torsions:
REMARK  status: ('A' for Active; 'I' for Inactive)
REMARK    1  A    between atoms: C_4  and  C_7 
REMARK    2  A    between atoms: C_15  and  O_20 
REMARK    3  A    between atoms: C_16  and  O_19 
REMARK    4  A    between atoms: C_17  and  O_18 
REMARK    5  A    between atoms: O_20  and  C_21 
REMARK    6  A    between atoms: C_23  and  O_36 
REMARK    7  A    between atoms: C_25  and  O_35 
REMARK    8  A    between atoms: C_27  and  O_34 
REMARK    9  A    between atoms: C_29  and  C_32 
ROOT
ATOM      1  C   LIG d   1      10.423   4.555  -2.871  0.00  0.00     0.139 A 
ATOM      2  C   LIG d   1      11.305   4.560  -3.904  0.00  0.00     0.029 A 
ATOM      3  C   LIG d   1      11.094   3.698  -5.009  0.00  0.00     0.197 A 
ATOM      4  O   LIG d   1      11.865   3.677  -5.953  0.00  0.00    -0.287 OA
ATOM      5  C   LIG d   1       9.905   2.829  -4.971  0.00  0.00     0.109 A 
ATOM      6  C   LIG d   1       9.055   2.904  -3.853  0.00  0.00     0.146 A 
ATOM      7  O   LIG d   1       9.343   3.758  -2.848  0.00  0.00    -0.454 OA
ATOM      8  C   LIG d   1       7.931   2.095  -3.797  0.00  0.00     0.027 A 
ATOM      9  C   LIG d   1       7.649   1.223  -4.836  0.00  0.00     0.172 A 
ATOM     10  C   LIG d   1       8.488   1.147  -5.946  0.00  0.00     0.202 A 
ATOM     11  C   LIG d   1       9.617   1.947  -6.019  0.00  0.00     0.177 A 
ATOM     12  H   LIG d   1      12.163   5.216  -3.885  0.00  0.00     0.069 H 
ATOM     13  H   LIG d   1       7.273   2.146  -2.942  0.00  0.00     0.069 H 
ENDROOT
BRANCH   9  14
ATOM     14  O   LIG d   1       6.545   0.434  -4.772  0.00  0.00    -0.457 OA
BRANCH  14  15
ATOM     15  C   LIG d   1       6.284  -0.218  -3.528  0.00  0.00     0.231 C 
ATOM     16  H   LIG d   1       7.036   0.079  -2.797  0.00  0.00     0.108 H 
ATOM     17  O   LIG d   1       6.333  -1.634  -3.714  0.00  0.00    -0.328 OA
ATOM     18  C   LIG d   1       5.401  -2.129  -4.677  0.00  0.00     0.130 C 
ATOM     19  C   LIG d   1       3.976  -1.806  -4.217  0.00  0.00     0.115 C 
ATOM     20  H   LIG d   1       5.587  -1.656  -5.641  0.00  0.00     0.069 H 
ATOM     21  C   LIG d   1       3.840  -0.293  -4.026  0.00  0.00     0.116 C 
ATOM     22  H   LIG d   1       3.264  -2.144  -4.971  0.00  0.00     0.065 H 
ATOM     23  C   LIG d   1       4.896   0.181  -3.022  0.00  0.00     0.145 C 
ATOM     24  H   LIG d   1       2.845  -0.060  -3.647  0.00  0.00     0.065 H 
ATOM     25  H   LIG d   1       4.842   1.265  -2.922  0.00  0.00     0.068 H 
BRANCH  18  26
ATOM     26  C   LIG d   1       5.559  -3.622  -4.810  0.00  0.00     0.073 C 
ATOM     27  O   LIG d   1       6.663  -4.110  -4.862  0.00  0.00    -0.547 OA
ATOM     28  O   LIG d   1       4.475  -4.409  -4.871  0.00  0.00    -0.547 OA
ENDBRANCH  18  26
BRANCH  19  29
ATOM     29  O   LIG d   1       3.712  -2.470  -2.979  0.00  0.00    -0.386 OA
ATOM     30  H   LIG d   1       2.970  -3.089  -3.015  0.00  0.00     0.210 HD
ENDBRANCH  19  29
BRANCH  21  31
ATOM     31  O   LIG d   1       4.040   0.367  -5.278  0.00  0.00    -0.386 OA
ATOM     32  H   LIG d   1       4.594   1.157  -5.222  0.00  0.00     0.210 HD
ENDBRANCH  21  31
BRANCH  23  33
ATOM     33  O   LIG d   1       4.656  -0.428  -1.752  0.00  0.00    -0.383 OA
ATOM     34  H   LIG d   1       4.500  -1.381  -1.797  0.00  0.00     0.210 HD
ENDBRANCH  23  33
ENDBRANCH  14  15
ENDBRANCH   9  14
BRANCH  10  35
ATOM     35  O   LIG d   1       8.199   0.285  -6.960  0.00  0.00    -0.501 OA
ATOM     36  H   LIG d   1       8.188  -0.645  -6.694  0.00  0.00     0.292 HD
ENDBRANCH  10  35
BRANCH  11  37
ATOM     37  O   LIG d   1      10.438   1.875  -7.098  0.00  0.00    -0.503 OA
ATOM     38  H   LIG d   1      10.936   1.049  -7.161  0.00  0.00     0.292 HD
ENDBRANCH  11  37
BRANCH   1  39
ATOM     39  C   LIG d   1      10.662   5.461  -1.730  0.00  0.00     0.017 A 
ATOM     40  C   LIG d   1       9.946   6.655  -1.622  0.00  0.00    -0.051 A 
ATOM     41  C   LIG d   1      10.173   7.497  -0.553  0.00  0.00    -0.061 A 
ATOM     42  H   LIG d   1       9.216   6.919  -2.373  0.00  0.00     0.062 H 
ATOM     43  C   LIG d   1      11.108   7.161   0.410  0.00  0.00    -0.062 A 
ATOM     44  H   LIG d   1       9.621   8.421  -0.468  0.00  0.00     0.062 H 
ATOM     45  C   LIG d   1      11.821   5.980   0.309  0.00  0.00    -0.061 A 
ATOM     46  H   LIG d   1      11.282   7.824   1.245  0.00  0.00     0.062 H 
ATOM     47  C   LIG d   1      11.599   5.125  -0.752  0.00  0.00    -0.051 A 
ATOM     48  H   LIG d   1      12.549   5.723   1.065  0.00  0.00     0.062 H 
ATOM     49  H   LIG d   1      12.152   4.201  -0.827  0.00  0.00     0.062 H 
ENDBRANCH   1  39
TORSDOF 9
ENDMDL
MODEL 8
REMARK VINA RESULT:      -6.7      7.272     11.085
REMARK  9 active torsions:
REMARK  status: ('A' for Active; 'I' for Inactive)
REMARK    1  A    between atoms: C_4  and  C_7 
REMARK    2  A    between atoms: C_15  and  O_20 
REMARK    3  A    between atoms: C_16  and  O_19 
REMARK    4  A    between atoms: C_17  and  O_18 
REMARK    5  A    between atoms: O_20  and  C_21 
REMARK    6  A    between atoms: C_23  and  O_36 
REMARK    7  A    between atoms: C_25  and  O_35 
REMARK    8  A    between atoms: C_27  and  O_34 
REMARK    9  A    between atoms: C_29  and  C_32 
ROOT
ATOM      1  C   LIG d   1       7.165  -1.728  -3.865  0.00  0.00     0.139 A 
ATOM      2  C   LIG d   1       7.466  -1.522  -5.173  0.00  0.00     0.029 A 
ATOM      3  C   LIG d   1       8.446  -2.329  -5.801  0.00  0.00     0.197 A 
ATOM      4  O   LIG d   1       8.740  -2.172  -6.975  0.00  0.00    -0.287 OA
ATOM      5  C   LIG d   1       9.097  -3.365  -4.981  0.00  0.00     0.109 A 
ATOM      6  C   LIG d   1       8.711  -3.495  -3.634  0.00  0.00     0.146 A 
ATOM      7  O   LIG d   1       7.765  -2.676  -3.127  0.00  0.00    -0.454 OA
ATOM      8  C   LIG d   1       9.310  -4.463  -2.844  0.00  0.00     0.027 A 
ATOM      9  C   LIG d   1      10.279  -5.295  -3.380  0.00  0.00     0.172 A 
ATOM     10  C   LIG d   1      10.664  -5.171  -4.713  0.00  0.00     0.202 A 
ATOM     11  C   LIG d   1      10.077  -4.208  -5.518  0.00  0.00     0.177 A 
ATOM     12  H   LIG d   1       6.960  -0.749  -5.733  0.00  0.00     0.069 H 
ATOM     13  H   LIG d   1       9.019  -4.569  -1.809  0.00  0.00     0.069 H 
ENDROOT
BRANCH   9  14
ATOM     14  O   LIG d   1      10.861  -6.242  -2.598  0.00  0.00    -0.457 OA
BRANCH  14  15
ATOM     15  C   LIG d   1      10.034  -6.870  -1.616  0.00  0.00     0.231 C 
ATOM     16  H   LIG d   1       9.217  -6.201  -1.347  0.00  0.00     0.108 H 
ATOM     17  O   LIG d   1      10.813  -7.165  -0.455  0.00  0.00    -0.328 OA
ATOM     18  C   LIG d   1      11.931  -8.019  -0.704  0.00  0.00     0.130 C 
ATOM     19  C   LIG d   1      11.434  -9.365  -1.239  0.00  0.00     0.115 C 
ATOM     20  H   LIG d   1      12.586  -7.555  -1.440  0.00  0.00     0.069 H 
ATOM     21  C   LIG d   1      10.611  -9.128  -2.508  0.00  0.00     0.116 C 
ATOM     22  H   LIG d   1      12.287 -10.003  -1.470  0.00  0.00     0.065 H 
ATOM     23  C   LIG d   1       9.460  -8.170  -2.188  0.00  0.00     0.145 C 
ATOM     24  H   LIG d   1      10.208 -10.076  -2.865  0.00  0.00     0.065 H 
ATOM     25  H   LIG d   1       8.903  -7.952  -3.098  0.00  0.00     0.068 H 
BRANCH  18  26
ATOM     26  C   LIG d   1      12.692  -8.238   0.579  0.00  0.00     0.073 C 
ATOM     27  O   LIG d   1      13.898  -8.289   0.565  0.00  0.00    -0.547 OA
ATOM     28  O   LIG d   1      12.028  -8.377   1.737  0.00  0.00    -0.547 OA
ENDBRANCH  18  26
BRANCH  19  29
ATOM     29  O   LIG d   1      10.617  -9.999  -0.252  0.00  0.00    -0.386 OA
ATOM     30  H   LIG d   1      10.132  -9.381   0.313  0.00  0.00     0.210 HD
ENDBRANCH  19  29
BRANCH  21  31
ATOM     31  O   LIG d   1      11.444  -8.554  -3.517  0.00  0.00    -0.386 OA
ATOM     32  H   LIG d   1      11.619  -9.141  -4.265  0.00  0.00     0.210 HD
ENDBRANCH  21  31
BRANCH  23  33
ATOM     33  O   LIG d   1       8.590  -8.771  -1.227  0.00  0.00    -0.383 OA
ATOM     34  H   LIG d   1       8.787  -9.700  -1.046  0.00  0.00     0.210 HD
ENDBRANCH  23  33
ENDBRANCH  14  15
ENDBRANCH   9  14
BRANCH  10  35
ATOM     35  O   LIG d   1      11.618  -5.995  -5.226  0.00  0.00    -0.501 OA
ATOM     36  H   LIG d   1      12.336  -5.532  -5.679  0.00  0.00     0.292 HD
ENDBRANCH  10  35
BRANCH  11  37
ATOM     37  O   LIG d   1      10.450  -4.082  -6.818  0.00  0.00    -0.503 OA
ATOM     38  H   LIG d   1      11.216  -4.619  -7.062  0.00  0.00     0.292 HD
ENDBRANCH  11  37
BRANCH   1  39
ATOM     39  C   LIG d   1       6.139  -0.877  -3.230  0.00  0.00     0.017 A 
ATOM     40  C   LIG d   1       5.053  -1.460  -2.574  0.00  0.00    -0.051 A 
ATOM     41  C   LIG d   1       4.098  -0.659  -1.983  0.00  0.00    -0.061 A 
ATOM     42  H   LIG d   1       4.959  -2.535  -2.531  0.00  0.00     0.062 H 
ATOM     43  C   LIG d   1       4.215   0.719  -2.038  0.00  0.00    -0.062 A 
ATOM     44  H   LIG d   1       3.256  -1.108  -1.476  0.00  0.00     0.062 H 
ATOM     45  C   LIG d   1       5.289   1.303  -2.685  0.00  0.00    -0.061 A 
ATOM     46  H   LIG d   1       3.465   1.341  -1.573  0.00  0.00     0.062 H 
ATOM     47  C   LIG d   1       6.255   0.514  -3.276  0.00  0.00    -0.051 A 
ATOM     48  H   LIG d   1       5.375   2.379  -2.724  0.00  0.00     0.062 H 
ATOM     49  H   LIG d   1       7.095   0.970  -3.776  0.00  0.00     0.062 H 
ENDBRANCH   1  39
TORSDOF 9
ENDMDL
MODEL 9
REMARK VINA RESULT:      -6.7      8.805     14.020
REMARK  9 active torsions:
REMARK  status: ('A' for Active; 'I' for Inactive)
REMARK    1  A    between atoms: C_4  and  C_7 
REMARK    2  A    between atoms: C_15  and  O_20 
REMARK    3  A    between atoms: C_16  and  O_19 
REMARK    4  A    between atoms: C_17  and  O_18 
REMARK    5  A    between atoms: O_20  and  C_21 
REMARK    6  A    between atoms: C_23  and  O_36 
REMARK    7  A    between atoms: C_25  and  O_35 
REMARK    8  A    between atoms: C_27  and  O_34 
REMARK    9  A    between atoms: C_29  and  C_32 
ROOT
ATOM      1  C   LIG d   1       4.541  -2.330  -5.048  0.00  0.00     0.139 A 
ATOM      2  C   LIG d   1       4.853  -1.909  -6.302  0.00  0.00     0.029 A 
ATOM      3  C   LIG d   1       5.050  -2.862  -7.331  0.00  0.00     0.197 A 
ATOM      4  O   LIG d   1       5.330  -2.519  -8.468  0.00  0.00    -0.287 OA
ATOM      5  C   LIG d   1       4.903  -4.284  -6.974  0.00  0.00     0.109 A 
ATOM      6  C   LIG d   1       4.578  -4.611  -5.646  0.00  0.00     0.146 A 
ATOM      7  O   LIG d   1       4.411  -3.629  -4.735  0.00  0.00    -0.454 OA
ATOM      8  C   LIG d   1       4.435  -5.943  -5.288  0.00  0.00     0.027 A 
ATOM      9  C   LIG d   1       4.611  -6.939  -6.234  0.00  0.00     0.172 A 
ATOM     10  C   LIG d   1       4.933  -6.619  -7.551  0.00  0.00     0.202 A 
ATOM     11  C   LIG d   1       5.080  -5.293  -7.927  0.00  0.00     0.177 A 
ATOM     12  H   LIG d   1       4.948  -0.854  -6.514  0.00  0.00     0.069 H 
ATOM     13  H   LIG d   1       4.186  -6.203  -4.269  0.00  0.00     0.069 H 
ENDROOT
BRANCH   9  14
ATOM     14  O   LIG d   1       4.469  -8.242  -5.874  0.00  0.00    -0.457 OA
BRANCH  14  15
ATOM     15  C   LIG d   1       5.662  -9.021  -5.775  0.00  0.00     0.231 C 
ATOM     16  H   LIG d   1       6.508  -8.442  -6.147  0.00  0.00     0.108 H 
ATOM     17  O   LIG d   1       5.520 -10.211  -6.554  0.00  0.00    -0.328 OA
ATOM     18  C   LIG d   1       4.419 -11.035  -6.165  0.00  0.00     0.130 C 
ATOM     19  C   LIG d   1       4.613 -11.492  -4.716  0.00  0.00     0.115 C 
ATOM     20  H   LIG d   1       3.493 -10.467  -6.244  0.00  0.00     0.069 H 
ATOM     21  C   LIG d   1       4.744 -10.262  -3.814  0.00  0.00     0.116 C 
ATOM     22  H   LIG d   1       3.754 -12.085  -4.402  0.00  0.00     0.065 H 
ATOM     23  C   LIG d   1       5.907  -9.398  -4.311  0.00  0.00     0.145 C 
ATOM     24  H   LIG d   1       4.937 -10.579  -2.788  0.00  0.00     0.065 H 
ATOM     25  H   LIG d   1       5.972  -8.492  -3.708  0.00  0.00     0.068 H 
BRANCH  18  26
ATOM     26  C   LIG d   1       4.349 -12.240  -7.066  0.00  0.00     0.073 C 
ATOM     27  O   LIG d   1       4.700 -12.153  -8.219  0.00  0.00    -0.547 OA
ATOM     28  O   LIG d   1       3.896 -13.410  -6.590  0.00  0.00    -0.547 OA
ENDBRANCH  18  26
BRANCH  19  29
ATOM     29  O   LIG d   1       5.800 -12.283  -4.620  0.00  0.00    -0.386 OA
ATOM     30  H   LIG d   1       6.470 -12.070  -5.284  0.00  0.00     0.210 HD
ENDBRANCH  19  29
BRANCH  21  31
ATOM     31  O   LIG d   1       3.533  -9.505  -3.859  0.00  0.00    -0.386 OA
ATOM     32  H   LIG d   1       3.142  -9.335  -2.992  0.00  0.00     0.210 HD
ENDBRANCH  21  31
BRANCH  23  33
ATOM     33  O   LIG d   1       7.128 -10.132  -4.204  0.00  0.00    -0.383 OA
ATOM     34  H   LIG d   1       7.857  -9.628  -3.818  0.00  0.00     0.210 HD
ENDBRANCH  23  33
ENDBRANCH  14  15
ENDBRANCH   9  14
BRANCH  10  35
ATOM     35  O   LIG d   1       5.103  -7.609  -8.470  0.00  0.00    -0.501 OA
ATOM     36  H   LIG d   1       4.433  -7.619  -9.167  0.00  0.00     0.292 HD
ENDBRANCH  10  35
BRANCH  11  37
ATOM     37  O   LIG d   1       5.395  -4.977  -9.210  0.00  0.00    -0.503 OA
ATOM     38  H   LIG d   1       5.027  -5.583  -9.867  0.00  0.00     0.292 HD
ENDBRANCH  11  37
BRANCH   1  39
ATOM     39  C   LIG d   1       4.339  -1.320  -3.990  0.00  0.00     0.017 A 
ATOM     40  C   LIG d   1       3.791  -0.075  -4.306  0.00  0.00    -0.051 A 
ATOM     41  C   LIG d   1       3.604   0.864  -3.313  0.00  0.00    -0.061 A 
ATOM     42  H   LIG d   1       3.515   0.153  -5.325  0.00  0.00     0.062 H 
ATOM     43  C   LIG d   1       3.958   0.574  -2.007  0.00  0.00    -0.062 A 
ATOM     44  H   LIG d   1       3.181   1.828  -3.555  0.00  0.00     0.062 H 
ATOM     45  C   LIG d   1       4.501  -0.657  -1.687  0.00  0.00    -0.061 A 
ATOM     46  H   LIG d   1       3.809   1.313  -1.233  0.00  0.00     0.062 H 
ATOM     47  C   LIG d   1       4.688  -1.608  -2.669  0.00  0.00    -0.051 A 
ATOM     48  H   LIG d   1       4.774  -0.876  -0.666  0.00  0.00     0.062 H 
ATOM     49  H   LIG d   1       5.107  -2.570  -2.418  0.00  0.00     0.062 H 
ENDBRANCH   1  39
TORSDOF 9
ENDMDL
