MODEL 1
REMARK VINA RESULT:      -5.8      0.000      0.000
REMARK  9 active torsions:
REMARK  status: ('A' for Active; 'I' for Inactive)
REMARK    1  A    between atoms: C_1  and  C_2 
REMARK    2  A    between atoms: C_5  and  C_13 
REMARK    3  A    between atoms: C_8  and  C_9 
REMARK    4  A    between atoms: C_8  and  C_10 
REMARK    5  A    between atoms: C_10  and  C_12 
REMARK    6  A    between atoms: C_13  and  C_14 
REMARK    7  A    between atoms: C_14  and  C_15 
REMARK    8  A    between atoms: C_16  and  C_17 
REMARK    9  A    between atoms: C_16  and  C_18 
ROOT
ATOM      1  C   LIG d   1       4.246  -1.740  -4.638  0.00  0.00    -0.028 C 
ATOM      2  H   LIG d   1       3.507  -2.476  -4.959  0.00  0.00     0.031 H 
ATOM      3  C   LIG d   1       4.328  -0.616  -5.670  0.00  0.00    -0.028 C 
ATOM      4  C   LIG d   1       3.080   0.218  -5.627  0.00  0.00    -0.073 C 
ATOM      5  C   LIG d   1       2.236   0.211  -4.647  0.00  0.00    -0.084 C 
ATOM      6  C   LIG d   1       2.383  -0.637  -3.417  0.00  0.00    -0.022 C 
ATOM      7  C   LIG d   1       3.823  -1.138  -3.292  0.00  0.00     0.032 C 
ATOM      8  H   LIG d   1       4.441  -1.045  -6.666  0.00  0.00     0.031 H 
ATOM      9  H   LIG d   1       5.190   0.012  -5.449  0.00  0.00     0.031 H 
ATOM     10  H   LIG d   1       1.373   0.855  -4.718  0.00  0.00     0.057 H 
ATOM     11  H   LIG d   1       2.129  -0.045  -2.538  0.00  0.00     0.032 H 
ATOM     12  H   LIG d   1       1.707  -1.490  -3.484  0.00  0.00     0.032 H 
ENDROOT
BRANCH   4  13
ATOM     13  C   LIG d   1       2.791   1.117  -6.802  0.00  0.00    -0.028 C 
ATOM     14  H   LIG d   1       3.090   2.137  -6.561  0.00  0.00     0.031 H 
ATOM     15  H   LIG d   1       1.723   1.093  -7.023  0.00  0.00     0.031 H 
BRANCH  13  16
ATOM     16  C   LIG d   1       3.575   0.630  -8.023  0.00  0.00    -0.031 C 
ATOM     17  H   LIG d   1       4.049  -0.324  -7.793  0.00  0.00     0.031 H 
ATOM     18  H   LIG d   1       4.339   1.364  -8.279  0.00  0.00     0.031 H 
BRANCH  16  19
ATOM     19  C   LIG d   1       2.634   0.456  -9.186  0.00  0.00    -0.085 C 
ATOM     20  C   LIG d   1       2.316  -0.748  -9.596  0.00  0.00    -0.080 C 
ATOM     21  H   LIG d   1       2.222   1.321  -9.682  0.00  0.00     0.057 H 
BRANCH  20  22
ATOM     22  C   LIG d   1       2.991  -1.953  -8.993  0.00  0.00    -0.044 C 
ATOM     23  H   LIG d   1       2.871  -1.933  -7.910  0.00  0.00     0.027 H 
ATOM     24  H   LIG d   1       2.537  -2.860  -9.392  0.00  0.00     0.027 H 
ATOM     25  H   LIG d   1       4.052  -1.937  -9.241  0.00  0.00     0.027 H 
ENDBRANCH  20  22
BRANCH  20  26
ATOM     26  C   LIG d   1       1.270  -0.927 -10.667  0.00  0.00    -0.044 C 
ATOM     27  H   LIG d   1       0.597  -1.737 -10.385  0.00  0.00     0.027 H 
ATOM     28  H   LIG d   1       0.702  -0.004 -10.777  0.00  0.00     0.027 H 
ATOM     29  H   LIG d   1       1.755  -1.171 -11.612  0.00  0.00     0.027 H 
ENDBRANCH  20  26
ENDBRANCH  16  19
ENDBRANCH  13  16
ENDBRANCH   4  13
BRANCH   1  30
ATOM     30  C   LIG d   1       5.615  -2.409  -4.495  0.00  0.00    -0.061 C 
ATOM     31  H   LIG d   1       5.775  -3.090  -5.330  0.00  0.00     0.023 H 
ATOM     32  H   LIG d   1       6.393  -1.646  -4.493  0.00  0.00     0.023 H 
ATOM     33  H   LIG d   1       5.651  -2.966  -3.559  0.00  0.00     0.023 H 
ENDBRANCH   1  30
BRANCH   7  34
ATOM     34  C   LIG d   1       3.902  -2.209  -2.202  0.00  0.00    -0.052 C 
ATOM     35  H   LIG d   1       4.603  -2.987  -2.506  0.00  0.00     0.024 H 
ATOM     36  H   LIG d   1       4.242  -1.757  -1.271  0.00  0.00     0.024 H 
ATOM     37  H   LIG d   1       2.916  -2.650  -2.053  0.00  0.00     0.024 H 
ENDBRANCH   7  34
BRANCH   7  38
ATOM     38  C   LIG d   1       4.731   0.011  -2.938  0.00  0.00     0.137 C 
ATOM     39  O   LIG d   1       5.854   0.053  -3.383  0.00  0.00    -0.297 OA
BRANCH  38  40
ATOM     40  C   LIG d   1       4.239   1.108  -2.030  0.00  0.00    -0.005 C 
ATOM     41  H   LIG d   1       4.665   1.012  -1.131  0.00  0.00     0.031 H 
ATOM     42  H   LIG d   1       4.501   2.077  -2.456  0.00  0.00     0.031 H 
ATOM     43  H   LIG d   1       3.156   1.037  -1.929  0.00  0.00     0.031 H 
ENDBRANCH  38  40
ENDBRANCH   7  38
TORSDOF 9
ENDMDL
MODEL 2
REMARK VINA RESULT:      -5.6      3.325      5.514
REMARK  9 active torsions:
REMARK  status: ('A' for Active; 'I' for Inactive)
REMARK    1  A    between atoms: C_1  and  C_2 
REMARK    2  A    between atoms: C_5  and  C_13 
REMARK    3  A    between atoms: C_8  and  C_9 
REMARK    4  A    between atoms: C_8  and  C_10 
REMARK    5  A    between atoms: C_10  and  C_12 
REMARK    6  A    between atoms: C_13  and  C_14 
REMARK    7  A    between atoms: C_14  and  C_15 
REMARK    8  A    between atoms: C_16  and  C_17 
REMARK    9  A    between atoms: C_16  and  C_18 
ROOT
ATOM      1  C   LIG d   1       6.016  -0.480  -3.137  0.00  0.00    -0.028 C 
ATOM      2  H   LIG d   1       6.639  -0.917  -2.355  0.00  0.00     0.031 H 
ATOM      3  C   LIG d   1       5.997  -1.409  -4.351  0.00  0.00    -0.028 C 
ATOM      4  C   LIG d   1       5.210  -2.649  -4.042  0.00  0.00    -0.073 C 
ATOM      5  C   LIG d   1       4.388  -2.758  -3.048  0.00  0.00    -0.084 C 
ATOM      6  C   LIG d   1       4.112  -1.661  -2.061  0.00  0.00    -0.022 C 
ATOM      7  C   LIG d   1       4.580  -0.318  -2.623  0.00  0.00     0.032 C 
ATOM      8  H   LIG d   1       7.018  -1.685  -4.613  0.00  0.00     0.031 H 
ATOM      9  H   LIG d   1       5.538  -0.890  -5.192  0.00  0.00     0.031 H 
ATOM     10  H   LIG d   1       3.870  -3.697  -2.921  0.00  0.00     0.057 H 
ATOM     11  H   LIG d   1       3.041  -1.617  -1.862  0.00  0.00     0.032 H 
ATOM     12  H   LIG d   1       4.643  -1.870  -1.131  0.00  0.00     0.032 H 
ENDROOT
BRANCH   4  13
ATOM     13  C   LIG d   1       5.391  -3.844  -4.943  0.00  0.00    -0.028 C 
ATOM     14  H   LIG d   1       4.628  -3.831  -5.721  0.00  0.00     0.031 H 
ATOM     15  H   LIG d   1       5.298  -4.758  -4.357  0.00  0.00     0.031 H 
BRANCH  13  16
ATOM     16  C   LIG d   1       6.777  -3.791  -5.588  0.00  0.00    -0.031 C 
ATOM     17  H   LIG d   1       7.300  -2.896  -5.253  0.00  0.00     0.031 H 
ATOM     18  H   LIG d   1       6.672  -3.765  -6.673  0.00  0.00     0.031 H 
BRANCH  16  19
ATOM     19  C   LIG d   1       7.564  -5.012  -5.188  0.00  0.00    -0.085 C 
ATOM     20  C   LIG d   1       8.517  -4.912  -4.294  0.00  0.00    -0.080 C 
ATOM     21  H   LIG d   1       7.343  -5.968  -5.637  0.00  0.00     0.057 H 
BRANCH  20  22
ATOM     22  C   LIG d   1       8.915  -3.559  -3.763  0.00  0.00    -0.044 C 
ATOM     23  H   LIG d   1       9.157  -3.641  -2.704  0.00  0.00     0.027 H 
ATOM     24  H   LIG d   1       9.787  -3.197  -4.309  0.00  0.00     0.027 H 
ATOM     25  H   LIG d   1       8.088  -2.861  -3.894  0.00  0.00     0.027 H 
ENDBRANCH  20  22
BRANCH  20  26
ATOM     26  C   LIG d   1       9.210  -6.152  -3.790  0.00  0.00    -0.044 C 
ATOM     27  H   LIG d   1      10.064  -6.376  -4.430  0.00  0.00     0.027 H 
ATOM     28  H   LIG d   1       9.554  -5.987  -2.769  0.00  0.00     0.027 H 
ATOM     29  H   LIG d   1       8.513  -6.991  -3.808  0.00  0.00     0.027 H 
ENDBRANCH  20  26
ENDBRANCH  16  19
ENDBRANCH  13  16
ENDBRANCH   4  13
BRANCH   1  30
ATOM     30  C   LIG d   1       6.575   0.885  -3.541  0.00  0.00    -0.061 C 
ATOM     31  H   LIG d   1       6.483   1.578  -2.705  0.00  0.00     0.023 H 
ATOM     32  H   LIG d   1       7.626   0.782  -3.812  0.00  0.00     0.023 H 
ATOM     33  H   LIG d   1       6.016   1.269  -4.394  0.00  0.00     0.023 H 
ENDBRANCH   1  30
BRANCH   7  34
ATOM     34  C   LIG d   1       4.546   0.741  -1.519  0.00  0.00    -0.052 C 
ATOM     35  H   LIG d   1       4.809   1.713  -1.939  0.00  0.00     0.024 H 
ATOM     36  H   LIG d   1       3.545   0.788  -1.090  0.00  0.00     0.024 H 
ATOM     37  H   LIG d   1       5.263   0.478  -0.740  0.00  0.00     0.024 H 
ENDBRANCH   7  34
BRANCH   7  38
ATOM     38  C   LIG d   1       3.677   0.102  -3.754  0.00  0.00     0.137 C 
ATOM     39  O   LIG d   1       4.098   0.821  -4.628  0.00  0.00    -0.297 OA
BRANCH  38  40
ATOM     40  C   LIG d   1       2.249  -0.376  -3.794  0.00  0.00    -0.005 C 
ATOM     41  H   LIG d   1       2.077  -0.841  -4.663  0.00  0.00     0.031 H 
ATOM     42  H   LIG d   1       2.074  -1.068  -2.970  0.00  0.00     0.031 H 
ATOM     43  H   LIG d   1       1.577   0.478  -3.699  0.00  0.00     0.031 H 
ENDBRANCH  38  40
ENDBRANCH   7  38
TORSDOF 9
ENDMDL
MODEL 3
REMARK VINA RESULT:      -5.4      3.796      6.165
REMARK  9 active torsions:
REMARK  status: ('A' for Active; 'I' for Inactive)
REMARK    1  A    between atoms: C_1  and  C_2 
REMARK    2  A    between atoms: C_5  and  C_13 
REMARK    3  A    between atoms: C_8  and  C_9 
REMARK    4  A    between atoms: C_8  and  C_10 
REMARK    5  A    between atoms: C_10  and  C_12 
REMARK    6  A    between atoms: C_13  and  C_14 
REMARK    7  A    between atoms: C_14  and  C_15 
REMARK    8  A    between atoms: C_16  and  C_17 
REMARK    9  A    between atoms: C_16  and  C_18 
ROOT
ATOM      1  C   LIG d   1       5.217   0.195  -2.363  0.00  0.00    -0.028 C 
ATOM      2  H   LIG d   1       5.769  -0.104  -1.471  0.00  0.00     0.031 H 
ATOM      3  C   LIG d   1       6.116   1.048  -3.257  0.00  0.00    -0.028 C 
ATOM      4  C   LIG d   1       7.188   0.199  -3.875  0.00  0.00    -0.073 C 
ATOM      5  C   LIG d   1       7.148  -1.094  -3.931  0.00  0.00    -0.084 C 
ATOM      6  C   LIG d   1       6.026  -1.925  -3.379  0.00  0.00    -0.022 C 
ATOM      7  C   LIG d   1       4.790  -1.052  -3.147  0.00  0.00     0.032 C 
ATOM      8  H   LIG d   1       6.578   1.835  -2.661  0.00  0.00     0.031 H 
ATOM      9  H   LIG d   1       5.514   1.500  -4.044  0.00  0.00     0.031 H 
ATOM     10  H   LIG d   1       7.972  -1.606  -4.403  0.00  0.00     0.057 H 
ATOM     11  H   LIG d   1       5.781  -2.716  -4.088  0.00  0.00     0.032 H 
ATOM     12  H   LIG d   1       6.337  -2.371  -2.434  0.00  0.00     0.032 H 
ENDROOT
BRANCH   4  13
ATOM     13  C   LIG d   1       8.389   0.894  -4.464  0.00  0.00    -0.028 C 
ATOM     14  H   LIG d   1       8.208   1.100  -5.519  0.00  0.00     0.031 H 
ATOM     15  H   LIG d   1       9.265   0.252  -4.364  0.00  0.00     0.031 H 
BRANCH  13  16
ATOM     16  C   LIG d   1       8.632   2.209  -3.722  0.00  0.00    -0.031 C 
ATOM     17  H   LIG d   1       9.529   2.121  -3.109  0.00  0.00     0.031 H 
ATOM     18  H   LIG d   1       7.776   2.429  -3.084  0.00  0.00     0.031 H 
BRANCH  16  19
ATOM     19  C   LIG d   1       8.814   3.323  -4.720  0.00  0.00    -0.085 C 
ATOM     20  C   LIG d   1       9.474   4.403  -4.381  0.00  0.00    -0.080 C 
ATOM     21  H   LIG d   1       8.402   3.231  -5.713  0.00  0.00     0.057 H 
BRANCH  20  22
ATOM     22  C   LIG d   1       9.936   4.591  -2.959  0.00  0.00    -0.044 C 
ATOM     23  H   LIG d   1      10.741   3.889  -2.742  0.00  0.00     0.027 H 
ATOM     24  H   LIG d   1      10.298   5.610  -2.827  0.00  0.00     0.027 H 
ATOM     25  H   LIG d   1       9.103   4.408  -2.280  0.00  0.00     0.027 H 
ENDBRANCH  20  22
BRANCH  20  26
ATOM     26  C   LIG d   1       9.778   5.456  -5.417  0.00  0.00    -0.044 C 
ATOM     27  H   LIG d   1       9.062   5.377  -6.236  0.00  0.00     0.027 H 
ATOM     28  H   LIG d   1       9.702   6.444  -4.963  0.00  0.00     0.027 H 
ATOM     29  H   LIG d   1      10.787   5.308  -5.800  0.00  0.00     0.027 H 
ENDBRANCH  20  26
ENDBRANCH  16  19
ENDBRANCH  13  16
ENDBRANCH   4  13
BRANCH   1  30
ATOM     30  C   LIG d   1       3.978   0.998  -1.960  0.00  0.00    -0.061 C 
ATOM     31  H   LIG d   1       3.832   0.924  -0.883  0.00  0.00     0.023 H 
ATOM     32  H   LIG d   1       4.117   2.042  -2.238  0.00  0.00     0.023 H 
ATOM     33  H   LIG d   1       3.104   0.599  -2.474  0.00  0.00     0.023 H 
ENDBRANCH   1  30
BRANCH   7  34
ATOM     34  C   LIG d   1       3.752  -1.836  -2.342  0.00  0.00    -0.052 C 
ATOM     35  H   LIG d   1       4.183  -2.785  -2.018  0.00  0.00     0.024 H 
ATOM     36  H   LIG d   1       3.454  -1.256  -1.468  0.00  0.00     0.024 H 
ATOM     37  H   LIG d   1       2.879  -2.030  -2.965  0.00  0.00     0.024 H 
ENDBRANCH   7  34
BRANCH   7  38
ATOM     38  C   LIG d   1       4.200  -0.646  -4.472  0.00  0.00     0.137 C 
ATOM     39  O   LIG d   1       4.708  -1.025  -5.501  0.00  0.00    -0.297 OA
BRANCH  38  40
ATOM     40  C   LIG d   1       2.976   0.232  -4.515  0.00  0.00    -0.005 C 
ATOM     41  H   LIG d   1       2.791   0.590  -3.600  0.00  0.00     0.031 H 
ATOM     42  H   LIG d   1       3.147   1.060  -5.202  0.00  0.00     0.031 H 
ATOM     43  H   LIG d   1       2.122  -0.353  -4.856  0.00  0.00     0.031 H 
ENDBRANCH  38  40
ENDBRANCH   7  38
TORSDOF 9
ENDMDL
MODEL 4
REMARK VINA RESULT:      -5.4      1.731      2.811
REMARK  9 active torsions:
REMARK  status: ('A' for Active; 'I' for Inactive)
REMARK    1  A    between atoms: C_1  and  C_2 
REMARK    2  A    between atoms: C_5  and  C_13 
REMARK    3  A    between atoms: C_8  and  C_9 
REMARK    4  A    between atoms: C_8  and  C_10 
REMARK    5  A    between atoms: C_10  and  C_12 
REMARK    6  A    between atoms: C_13  and  C_14 
REMARK    7  A    between atoms: C_14  and  C_15 
REMARK    8  A    between atoms: C_16  and  C_17 
REMARK    9  A    between atoms: C_16  and  C_18 
ROOT
ATOM      1  C   LIG d   1       4.646   0.279  -3.609  0.00  0.00    -0.028 C 
ATOM      2  H   LIG d   1       5.254   1.123  -3.939  0.00  0.00     0.031 H 
ATOM      3  C   LIG d   1       3.314   0.286  -4.358  0.00  0.00    -0.028 C 
ATOM      4  C   LIG d   1       3.527  -0.083  -5.798  0.00  0.00    -0.073 C 
ATOM      5  C   LIG d   1       4.595  -0.657  -6.249  0.00  0.00    -0.084 C 
ATOM      6  C   LIG d   1       5.774  -1.029  -5.397  0.00  0.00    -0.022 C 
ATOM      7  C   LIG d   1       5.375  -1.035  -3.920  0.00  0.00     0.032 C 
ATOM      8  H   LIG d   1       2.871   1.280  -4.302  0.00  0.00     0.031 H 
ATOM      9  H   LIG d   1       2.640  -0.435  -3.897  0.00  0.00     0.031 H 
ATOM     10  H   LIG d   1       4.641  -0.881  -7.304  0.00  0.00     0.057 H 
ATOM     11  H   LIG d   1       6.125  -2.021  -5.681  0.00  0.00     0.032 H 
ATOM     12  H   LIG d   1       6.575  -0.305  -5.553  0.00  0.00     0.032 H 
ENDROOT
BRANCH   4  13
ATOM     13  C   LIG d   1       2.429   0.240  -6.779  0.00  0.00    -0.028 C 
ATOM     14  H   LIG d   1       1.495   0.397  -6.240  0.00  0.00     0.031 H 
ATOM     15  H   LIG d   1       2.311  -0.590  -7.477  0.00  0.00     0.031 H 
BRANCH  13  16
ATOM     16  C   LIG d   1       2.793   1.509  -7.552  0.00  0.00    -0.031 C 
ATOM     17  H   LIG d   1       3.782   1.849  -7.249  0.00  0.00     0.031 H 
ATOM     18  H   LIG d   1       2.060   2.287  -7.338  0.00  0.00     0.031 H 
BRANCH  16  19
ATOM     19  C   LIG d   1       2.795   1.213  -9.030  0.00  0.00    -0.085 C 
ATOM     20  C   LIG d   1       3.864   1.462  -9.745  0.00  0.00    -0.080 C 
ATOM     21  H   LIG d   1       1.917   0.797  -9.499  0.00  0.00     0.057 H 
BRANCH  20  22
ATOM     22  C   LIG d   1       5.043   2.164  -9.122  0.00  0.00    -0.044 C 
ATOM     23  H   LIG d   1       4.749   3.169  -8.817  0.00  0.00     0.027 H 
ATOM     24  H   LIG d   1       5.379   1.604  -8.250  0.00  0.00     0.027 H 
ATOM     25  H   LIG d   1       5.853   2.228  -9.849  0.00  0.00     0.027 H 
ENDBRANCH  20  22
BRANCH  20  26
ATOM     26  C   LIG d   1       3.918   1.039 -11.191  0.00  0.00    -0.044 C 
ATOM     27  H   LIG d   1       4.364   0.047 -11.263  0.00  0.00     0.027 H 
ATOM     28  H   LIG d   1       2.908   1.014 -11.600  0.00  0.00     0.027 H 
ATOM     29  H   LIG d   1       4.521   1.751 -11.756  0.00  0.00     0.027 H 
ENDBRANCH  20  26
ENDBRANCH  16  19
ENDBRANCH  13  16
ENDBRANCH   4  13
BRANCH   1  30
ATOM     30  C   LIG d   1       4.392   0.381  -2.104  0.00  0.00    -0.061 C 
ATOM     31  H   LIG d   1       4.428  -0.614  -1.661  0.00  0.00     0.023 H 
ATOM     32  H   LIG d   1       5.158   1.010  -1.649  0.00  0.00     0.023 H 
ATOM     33  H   LIG d   1       3.411   0.821  -1.930  0.00  0.00     0.023 H 
ENDBRANCH   1  30
BRANCH   7  34
ATOM     34  C   LIG d   1       6.628  -1.146  -3.050  0.00  0.00    -0.052 C 
ATOM     35  H   LIG d   1       6.684  -0.287  -2.381  0.00  0.00     0.024 H 
ATOM     36  H   LIG d   1       6.583  -2.063  -2.462  0.00  0.00     0.024 H 
ATOM     37  H   LIG d   1       7.513  -1.167  -3.687  0.00  0.00     0.024 H 
ENDBRANCH   7  34
BRANCH   7  38
ATOM     38  C   LIG d   1       4.463  -2.203  -3.646  0.00  0.00     0.137 C 
ATOM     39  O   LIG d   1       4.292  -3.047  -4.493  0.00  0.00    -0.297 OA
BRANCH  38  40
ATOM     40  C   LIG d   1       3.766  -2.318  -2.316  0.00  0.00    -0.005 C 
ATOM     41  H   LIG d   1       2.842  -1.943  -2.390  0.00  0.00     0.031 H 
ATOM     42  H   LIG d   1       3.710  -3.367  -2.024  0.00  0.00     0.031 H 
ATOM     43  H   LIG d   1       4.324  -1.761  -1.563  0.00  0.00     0.031 H 
ENDBRANCH  38  40
ENDBRANCH   7  38
TORSDOF 9
ENDMDL
MODEL 5
REMARK VINA RESULT:      -5.4      2.795      4.517
REMARK  9 active torsions:
REMARK  status: ('A' for Active; 'I' for Inactive)
REMARK    1  A    between atoms: C_1  and  C_2 
REMARK    2  A    between atoms: C_5  and  C_13 
REMARK    3  A    between atoms: C_8  and  C_9 
REMARK    4  A    between atoms: C_8  and  C_10 
REMARK    5  A    between atoms: C_10  and  C_12 
REMARK    6  A    between atoms: C_13  and  C_14 
REMARK    7  A    between atoms: C_14  and  C_15 
REMARK    8  A    between atoms: C_16  and  C_17 
REMARK    9  A    between atoms: C_16  and  C_18 
ROOT
ATOM      1  C   LIG d   1       4.963   0.344  -2.333  0.00  0.00    -0.028 C 
ATOM      2  H   LIG d   1       5.418   0.086  -1.376  0.00  0.00     0.031 H 
ATOM      3  C   LIG d   1       5.887   1.292  -3.097  0.00  0.00    -0.028 C 
ATOM      4  C   LIG d   1       7.108   0.558  -3.569  0.00  0.00    -0.073 C 
ATOM      5  C   LIG d   1       7.199  -0.731  -3.633  0.00  0.00    -0.084 C 
ATOM      6  C   LIG d   1       6.098  -1.673  -3.238  0.00  0.00    -0.022 C 
ATOM      7  C   LIG d   1       4.765  -0.925  -3.170  0.00  0.00     0.032 C 
ATOM      8  H   LIG d   1       6.188   2.111  -2.443  0.00  0.00     0.031 H 
ATOM      9  H   LIG d   1       5.354   1.697  -3.956  0.00  0.00     0.031 H 
ATOM     10  H   LIG d   1       8.124  -1.156  -3.993  0.00  0.00     0.057 H 
ATOM     11  H   LIG d   1       6.027  -2.473  -3.975  0.00  0.00     0.032 H 
ATOM     12  H   LIG d   1       6.323  -2.102  -2.261  0.00  0.00     0.032 H 
ENDROOT
BRANCH   4  13
ATOM     13  C   LIG d   1       8.303   1.373  -3.991  0.00  0.00    -0.028 C 
ATOM     14  H   LIG d   1       9.095   1.266  -3.250  0.00  0.00     0.031 H 
ATOM     15  H   LIG d   1       8.017   2.422  -4.070  0.00  0.00     0.031 H 
BRANCH  13  16
ATOM     16  C   LIG d   1       8.805   0.877  -5.349  0.00  0.00    -0.031 C 
ATOM     17  H   LIG d   1       8.713  -0.207  -5.397  0.00  0.00     0.031 H 
ATOM     18  H   LIG d   1       9.851   1.159  -5.474  0.00  0.00     0.031 H 
BRANCH  16  19
ATOM     19  C   LIG d   1       7.982   1.501  -6.446  0.00  0.00    -0.085 C 
ATOM     20  C   LIG d   1       7.470   0.747  -7.388  0.00  0.00    -0.080 C 
ATOM     21  H   LIG d   1       7.815   2.566  -6.457  0.00  0.00     0.057 H 
BRANCH  20  22
ATOM     22  C   LIG d   1       7.811  -0.719  -7.451  0.00  0.00    -0.044 C 
ATOM     23  H   LIG d   1       7.527  -1.199  -6.515  0.00  0.00     0.027 H 
ATOM     24  H   LIG d   1       7.271  -1.183  -8.276  0.00  0.00     0.027 H 
ATOM     25  H   LIG d   1       8.884  -0.836  -7.606  0.00  0.00     0.027 H 
ENDBRANCH  20  22
BRANCH  20  26
ATOM     26  C   LIG d   1       6.534   1.347  -8.406  0.00  0.00    -0.044 C 
ATOM     27  H   LIG d   1       6.115   2.273  -8.013  0.00  0.00     0.027 H 
ATOM     28  H   LIG d   1       7.082   1.557  -9.324  0.00  0.00     0.027 H 
ATOM     29  H   LIG d   1       5.728   0.644  -8.617  0.00  0.00     0.027 H 
ENDBRANCH  20  26
ENDBRANCH  16  19
ENDBRANCH  13  16
ENDBRANCH   4  13
BRANCH   1  30
ATOM     30  C   LIG d   1       3.611   1.021  -2.097  0.00  0.00    -0.061 C 
ATOM     31  H   LIG d   1       3.292   0.846  -1.069  0.00  0.00     0.023 H 
ATOM     32  H   LIG d   1       3.705   2.092  -2.271  0.00  0.00     0.023 H 
ATOM     33  H   LIG d   1       2.872   0.605  -2.782  0.00  0.00     0.023 H 
ENDBRANCH   1  30
BRANCH   7  34
ATOM     34  C   LIG d   1       3.710  -1.816  -2.512  0.00  0.00    -0.052 C 
ATOM     35  H   LIG d   1       3.903  -1.878  -1.441  0.00  0.00     0.024 H 
ATOM     36  H   LIG d   1       2.719  -1.392  -2.679  0.00  0.00     0.024 H 
ATOM     37  H   LIG d   1       3.755  -2.815  -2.946  0.00  0.00     0.024 H 
ENDBRANCH   7  34
BRANCH   7  38
ATOM     38  C   LIG d   1       4.319  -0.556  -4.561  0.00  0.00     0.137 C 
ATOM     39  O   LIG d   1       3.681   0.454  -4.742  0.00  0.00    -0.297 OA
BRANCH  38  40
ATOM     40  C   LIG d   1       4.669  -1.446  -5.726  0.00  0.00    -0.005 C 
ATOM     41  H   LIG d   1       3.945  -1.395  -6.413  0.00  0.00     0.031 H 
ATOM     42  H   LIG d   1       5.611  -1.116  -6.165  0.00  0.00     0.031 H 
ATOM     43  H   LIG d   1       4.771  -2.474  -5.379  0.00  0.00     0.031 H 
ENDBRANCH  38  40
ENDBRANCH   7  38
TORSDOF 9
ENDMDL
MODEL 6
REMARK VINA RESULT:      -5.3      3.036      4.721
REMARK  9 active torsions:
REMARK  status: ('A' for Active; 'I' for Inactive)
REMARK    1  A    between atoms: C_1  and  C_2 
REMARK    2  A    between atoms: C_5  and  C_13 
REMARK    3  A    between atoms: C_8  and  C_9 
REMARK    4  A    between atoms: C_8  and  C_10 
REMARK    5  A    between atoms: C_10  and  C_12 
REMARK    6  A    between atoms: C_13  and  C_14 
REMARK    7  A    between atoms: C_14  and  C_15 
REMARK    8  A    between atoms: C_16  and  C_17 
REMARK    9  A    between atoms: C_16  and  C_18 
ROOT
ATOM      1  C   LIG d   1       6.061  -0.451  -3.099  0.00  0.00    -0.028 C 
ATOM      2  H   LIG d   1       6.536  -0.869  -2.210  0.00  0.00     0.031 H 
ATOM      3  C   LIG d   1       6.304  -1.376  -4.290  0.00  0.00    -0.028 C 
ATOM      4  C   LIG d   1       5.513  -2.642  -4.133  0.00  0.00    -0.073 C 
ATOM      5  C   LIG d   1       4.520  -2.780  -3.314  0.00  0.00    -0.084 C 
ATOM      6  C   LIG d   1       4.025  -1.695  -2.402  0.00  0.00    -0.022 C 
ATOM      7  C   LIG d   1       4.548  -0.336  -2.869  0.00  0.00     0.032 C 
ATOM      8  H   LIG d   1       7.365  -1.619  -4.351  0.00  0.00     0.031 H 
ATOM      9  H   LIG d   1       5.997  -0.871  -5.205  0.00  0.00     0.031 H 
ATOM     10  H   LIG d   1       4.018  -3.735  -3.284  0.00  0.00     0.057 H 
ATOM     11  H   LIG d   1       2.935  -1.686  -2.412  0.00  0.00     0.032 H 
ATOM     12  H   LIG d   1       4.375  -1.889  -1.387  0.00  0.00     0.032 H 
ENDROOT
BRANCH   4  13
ATOM     13  C   LIG d   1       5.901  -3.828  -4.978  0.00  0.00    -0.028 C 
ATOM     14  H   LIG d   1       6.407  -4.567  -4.357  0.00  0.00     0.031 H 
ATOM     15  H   LIG d   1       6.572  -3.502  -5.774  0.00  0.00     0.031 H 
BRANCH  13  16
ATOM     16  C   LIG d   1       4.646  -4.451  -5.592  0.00  0.00    -0.031 C 
ATOM     17  H   LIG d   1       4.612  -4.223  -6.657  0.00  0.00     0.031 H 
ATOM     18  H   LIG d   1       3.762  -4.041  -5.104  0.00  0.00     0.031 H 
BRANCH  16  19
ATOM     19  C   LIG d   1       4.680  -5.944  -5.399  0.00  0.00    -0.085 C 
ATOM     20  C   LIG d   1       4.635  -6.740  -6.439  0.00  0.00    -0.080 C 
ATOM     21  H   LIG d   1       4.742  -6.359  -4.404  0.00  0.00     0.057 H 
BRANCH  20  22
ATOM     22  C   LIG d   1       4.417  -6.170  -7.817  0.00  0.00    -0.044 C 
ATOM     23  H   LIG d   1       3.415  -6.424  -8.161  0.00  0.00     0.027 H 
ATOM     24  H   LIG d   1       4.526  -5.086  -7.782  0.00  0.00     0.027 H 
ATOM     25  H   LIG d   1       5.154  -6.588  -8.503  0.00  0.00     0.027 H 
ENDBRANCH  20  22
BRANCH  20  26
ATOM     26  C   LIG d   1       4.809  -8.227  -6.258  0.00  0.00    -0.044 C 
ATOM     27  H   LIG d   1       5.312  -8.421  -5.310  0.00  0.00     0.027 H 
ATOM     28  H   LIG d   1       3.832  -8.709  -6.256  0.00  0.00     0.027 H 
ATOM     29  H   LIG d   1       5.410  -8.625  -7.076  0.00  0.00     0.027 H 
ENDBRANCH  20  26
ENDBRANCH  16  19
ENDBRANCH  13  16
ENDBRANCH   4  13
BRANCH   1  30
ATOM     30  C   LIG d   1       6.642   0.934  -3.394  0.00  0.00    -0.061 C 
ATOM     31  H   LIG d   1       5.893   1.696  -3.179  0.00  0.00     0.023 H 
ATOM     32  H   LIG d   1       7.519   1.100  -2.769  0.00  0.00     0.023 H 
ATOM     33  H   LIG d   1       6.928   0.991  -4.443  0.00  0.00     0.023 H 
ENDBRANCH   1  30
BRANCH   7  34
ATOM     34  C   LIG d   1       4.270   0.719  -1.796  0.00  0.00    -0.052 C 
ATOM     35  H   LIG d   1       3.241   0.620  -1.448  0.00  0.00     0.024 H 
ATOM     36  H   LIG d   1       4.952   0.575  -0.958  0.00  0.00     0.024 H 
ATOM     37  H   LIG d   1       4.415   1.713  -2.217  0.00  0.00     0.024 H 
ENDBRANCH   7  34
BRANCH   7  38
ATOM     38  C   LIG d   1       3.865   0.057  -4.153  0.00  0.00     0.137 C 
ATOM     39  O   LIG d   1       4.521   0.432  -5.096  0.00  0.00    -0.297 OA
BRANCH  38  40
ATOM     40  C   LIG d   1       2.364  -0.020  -4.262  0.00  0.00    -0.005 C 
ATOM     41  H   LIG d   1       1.982   0.904  -4.252  0.00  0.00     0.031 H 
ATOM     42  H   LIG d   1       2.092  -0.516  -5.194  0.00  0.00     0.031 H 
ATOM     43  H   LIG d   1       1.967  -0.586  -3.420  0.00  0.00     0.031 H 
ENDBRANCH  38  40
ENDBRANCH   7  38
TORSDOF 9
ENDMDL
MODEL 7
REMARK VINA RESULT:      -5.0      1.967      6.046
REMARK  9 active torsions:
REMARK  status: ('A' for Active; 'I' for Inactive)
REMARK    1  A    between atoms: C_1  and  C_2 
REMARK    2  A    between atoms: C_5  and  C_13 
REMARK    3  A    between atoms: C_8  and  C_9 
REMARK    4  A    between atoms: C_8  and  C_10 
REMARK    5  A    between atoms: C_10  and  C_12 
REMARK    6  A    between atoms: C_13  and  C_14 
REMARK    7  A    between atoms: C_14  and  C_15 
REMARK    8  A    between atoms: C_16  and  C_17 
REMARK    9  A    between atoms: C_16  and  C_18 
ROOT
ATOM      1  C   LIG d   1       2.843  -1.183  -9.099  0.00  0.00    -0.028 C 
ATOM      2  H   LIG d   1       2.608  -2.153  -8.658  0.00  0.00     0.031 H 
ATOM      3  C   LIG d   1       2.287  -0.071  -8.210  0.00  0.00    -0.028 C 
ATOM      4  C   LIG d   1       3.073   0.015  -6.934  0.00  0.00    -0.073 C 
ATOM      5  C   LIG d   1       4.241  -0.515  -6.766  0.00  0.00    -0.084 C 
ATOM      6  C   LIG d   1       4.971  -1.296  -7.820  0.00  0.00    -0.022 C 
ATOM      7  C   LIG d   1       4.365  -1.016  -9.196  0.00  0.00     0.032 C 
ATOM      8  H   LIG d   1       1.243  -0.281  -7.977  0.00  0.00     0.031 H 
ATOM      9  H   LIG d   1       2.353   0.878  -8.740  0.00  0.00     0.031 H 
ATOM     10  H   LIG d   1       4.721  -0.389  -5.806  0.00  0.00     0.057 H 
ATOM     11  H   LIG d   1       6.022  -1.004  -7.822  0.00  0.00     0.032 H 
ATOM     12  H   LIG d   1       4.893  -2.361  -7.600  0.00  0.00     0.032 H 
ENDROOT
BRANCH   4  13
ATOM     13  C   LIG d   1       2.462   0.762  -5.777  0.00  0.00    -0.028 C 
ATOM     14  H   LIG d   1       1.420   0.988  -6.001  0.00  0.00     0.031 H 
ATOM     15  H   LIG d   1       3.009   1.691  -5.615  0.00  0.00     0.031 H 
BRANCH  13  16
ATOM     16  C   LIG d   1       2.537  -0.101  -4.516  0.00  0.00    -0.031 C 
ATOM     17  H   LIG d   1       3.098  -1.011  -4.730  0.00  0.00     0.031 H 
ATOM     18  H   LIG d   1       1.529  -0.363  -4.195  0.00  0.00     0.031 H 
BRANCH  16  19
ATOM     19  C   LIG d   1       3.230   0.668  -3.421  0.00  0.00    -0.085 C 
ATOM     20  C   LIG d   1       3.884   0.028  -2.484  0.00  0.00    -0.080 C 
ATOM     21  H   LIG d   1       3.187   1.747  -3.409  0.00  0.00     0.057 H 
BRANCH  20  22
ATOM     22  C   LIG d   1       3.835  -1.477  -2.423  0.00  0.00    -0.044 C 
ATOM     23  H   LIG d   1       3.131  -1.788  -1.652  0.00  0.00     0.027 H 
ATOM     24  H   LIG d   1       3.513  -1.869  -3.388  0.00  0.00     0.027 H 
ATOM     25  H   LIG d   1       4.827  -1.863  -2.186  0.00  0.00     0.027 H 
ENDBRANCH  20  22
BRANCH  20  26
ATOM     26  C   LIG d   1       4.692   0.797  -1.469  0.00  0.00    -0.044 C 
ATOM     27  H   LIG d   1       5.687   0.359  -1.391  0.00  0.00     0.027 H 
ATOM     28  H   LIG d   1       4.776   1.836  -1.785  0.00  0.00     0.027 H 
ATOM     29  H   LIG d   1       4.197   0.750  -0.499  0.00  0.00     0.027 H 
ENDBRANCH  20  26
ENDBRANCH  16  19
ENDBRANCH  13  16
ENDBRANCH   4  13
BRANCH   1  30
ATOM     30  C   LIG d   1       2.225  -1.085 -10.495  0.00  0.00    -0.061 C 
ATOM     31  H   LIG d   1       2.253  -0.049 -10.833  0.00  0.00     0.023 H 
ATOM     32  H   LIG d   1       2.791  -1.708 -11.187  0.00  0.00     0.023 H 
ATOM     33  H   LIG d   1       1.191  -1.428 -10.460  0.00  0.00     0.023 H 
ENDBRANCH   1  30
BRANCH   7  34
ATOM     34  C   LIG d   1       4.927  -2.008 -10.217  0.00  0.00    -0.052 C 
ATOM     35  H   LIG d   1       4.756  -3.026  -9.866  0.00  0.00     0.024 H 
ATOM     36  H   LIG d   1       4.429  -1.865 -11.176  0.00  0.00     0.024 H 
ATOM     37  H   LIG d   1       5.998  -1.840 -10.335  0.00  0.00     0.024 H 
ENDBRANCH   7  34
BRANCH   7  38
ATOM     38  C   LIG d   1       4.698   0.391  -9.621  0.00  0.00     0.137 C 
ATOM     39  O   LIG d   1       5.439   1.065  -8.946  0.00  0.00    -0.297 OA
BRANCH  38  40
ATOM     40  C   LIG d   1       4.109   0.955 -10.887  0.00  0.00    -0.005 C 
ATOM     41  H   LIG d   1       3.816   0.206 -11.481  0.00  0.00     0.031 H 
ATOM     42  H   LIG d   1       3.252   1.582 -10.641  0.00  0.00     0.031 H 
ATOM     43  H   LIG d   1       4.861   1.554 -11.402  0.00  0.00     0.031 H 
ENDBRANCH  38  40
ENDBRANCH   7  38
TORSDOF 9
ENDMDL
MODEL 8
REMARK VINA RESULT:      -5.0      2.660      5.966
REMARK  9 active torsions:
REMARK  status: ('A' for Active; 'I' for Inactive)
REMARK    1  A    between atoms: C_1  and  C_2 
REMARK    2  A    between atoms: C_5  and  C_13 
REMARK    3  A    between atoms: C_8  and  C_9 
REMARK    4  A    between atoms: C_8  and  C_10 
REMARK    5  A    between atoms: C_10  and  C_12 
REMARK    6  A    between atoms: C_13  and  C_14 
REMARK    7  A    between atoms: C_14  and  C_15 
REMARK    8  A    between atoms: C_16  and  C_17 
REMARK    9  A    between atoms: C_16  and  C_18 
ROOT
ATOM      1  C   LIG d   1       4.280  -1.913  -3.580  0.00  0.00    -0.028 C 
ATOM      2  H   LIG d   1       3.815  -2.626  -4.262  0.00  0.00     0.031 H 
ATOM      3  C   LIG d   1       5.785  -2.171  -3.522  0.00  0.00    -0.028 C 
ATOM      4  C   LIG d   1       6.431  -1.766  -4.815  0.00  0.00    -0.073 C 
ATOM      5  C   LIG d   1       5.872  -0.999  -5.695  0.00  0.00    -0.084 C 
ATOM      6  C   LIG d   1       4.498  -0.412  -5.549  0.00  0.00    -0.022 C 
ATOM      7  C   LIG d   1       4.048  -0.485  -4.089  0.00  0.00     0.032 C 
ATOM      8  H   LIG d   1       5.965  -3.231  -3.345  0.00  0.00     0.031 H 
ATOM      9  H   LIG d   1       6.216  -1.592  -2.706  0.00  0.00     0.031 H 
ATOM     10  H   LIG d   1       6.429  -0.767  -6.591  0.00  0.00     0.057 H 
ATOM     11  H   LIG d   1       4.515   0.629  -5.871  0.00  0.00     0.032 H 
ATOM     12  H   LIG d   1       3.799  -0.971  -6.172  0.00  0.00     0.032 H 
ENDROOT
BRANCH   4  13
ATOM     13  C   LIG d   1       7.814  -2.288  -5.109  0.00  0.00    -0.028 C 
ATOM     14  H   LIG d   1       8.474  -1.454  -5.345  0.00  0.00     0.031 H 
ATOM     15  H   LIG d   1       7.771  -2.970  -5.958  0.00  0.00     0.031 H 
BRANCH  13  16
ATOM     16  C   LIG d   1       8.349  -3.032  -3.884  0.00  0.00    -0.031 C 
ATOM     17  H   LIG d   1       7.616  -2.982  -3.079  0.00  0.00     0.031 H 
ATOM     18  H   LIG d   1       9.280  -2.570  -3.557  0.00  0.00     0.031 H 
BRANCH  16  19
ATOM     19  C   LIG d   1       8.602  -4.473  -4.243  0.00  0.00    -0.085 C 
ATOM     20  C   LIG d   1       9.221  -5.259  -3.397  0.00  0.00    -0.080 C 
ATOM     21  H   LIG d   1       8.273  -4.858  -5.196  0.00  0.00     0.057 H 
BRANCH  20  22
ATOM     22  C   LIG d   1       9.797  -4.694  -2.124  0.00  0.00    -0.044 C 
ATOM     23  H   LIG d   1      10.738  -4.190  -2.343  0.00  0.00     0.027 H 
ATOM     24  H   LIG d   1       9.094  -3.981  -1.693  0.00  0.00     0.027 H 
ATOM     25  H   LIG d   1       9.975  -5.503  -1.415  0.00  0.00     0.027 H 
ENDBRANCH  20  22
BRANCH  20  26
ATOM     26  C   LIG d   1       9.352  -6.731  -3.693  0.00  0.00    -0.044 C 
ATOM     27  H   LIG d   1       9.809  -7.235  -2.841  0.00  0.00     0.027 H 
ATOM     28  H   LIG d   1       8.364  -7.153  -3.878  0.00  0.00     0.027 H 
ATOM     29  H   LIG d   1       9.977  -6.871  -4.575  0.00  0.00     0.027 H 
ENDBRANCH  20  26
ENDBRANCH  16  19
ENDBRANCH  13  16
ENDBRANCH   4  13
BRANCH   1  30
ATOM     30  C   LIG d   1       3.676  -2.065  -2.182  0.00  0.00    -0.061 C 
ATOM     31  H   LIG d   1       3.799  -3.093  -1.843  0.00  0.00     0.023 H 
ATOM     32  H   LIG d   1       4.184  -1.392  -1.492  0.00  0.00     0.023 H 
ATOM     33  H   LIG d   1       2.615  -1.818  -2.215  0.00  0.00     0.023 H 
ENDBRANCH   1  30
BRANCH   7  34
ATOM     34  C   LIG d   1       2.560  -0.140  -3.992  0.00  0.00    -0.052 C 
ATOM     35  H   LIG d   1       2.378   0.433  -3.083  0.00  0.00     0.024 H 
ATOM     36  H   LIG d   1       2.266   0.451  -4.860  0.00  0.00     0.024 H 
ATOM     37  H   LIG d   1       1.975  -1.059  -3.964  0.00  0.00     0.024 H 
ENDBRANCH   7  34
BRANCH   7  38
ATOM     38  C   LIG d   1       4.847   0.489  -3.263  0.00  0.00     0.137 C 
ATOM     39  O   LIG d   1       5.721   1.144  -3.780  0.00  0.00    -0.297 OA
BRANCH  38  40
ATOM     40  C   LIG d   1       4.557   0.646  -1.793  0.00  0.00    -0.005 C 
ATOM     41  H   LIG d   1       4.355   1.605  -1.593  0.00  0.00     0.031 H 
ATOM     42  H   LIG d   1       3.699   0.030  -1.524  0.00  0.00     0.031 H 
ATOM     43  H   LIG d   1       5.426   0.330  -1.215  0.00  0.00     0.031 H 
ENDBRANCH  38  40
ENDBRANCH   7  38
TORSDOF 9
ENDMDL
MODEL 9
REMARK VINA RESULT:      -5.0      2.071      5.993
REMARK  9 active torsions:
REMARK  status: ('A' for Active; 'I' for Inactive)
REMARK    1  A    between atoms: C_1  and  C_2 
REMARK    2  A    between atoms: C_5  and  C_13 
REMARK    3  A    between atoms: C_8  and  C_9 
REMARK    4  A    between atoms: C_8  and  C_10 
REMARK    5  A    between atoms: C_10  and  C_12 
REMARK    6  A    between atoms: C_13  and  C_14 
REMARK    7  A    between atoms: C_14  and  C_15 
REMARK    8  A    between atoms: C_16  and  C_17 
REMARK    9  A    between atoms: C_16  and  C_18 
ROOT
ATOM      1  C   LIG d   1       3.264   1.213  -9.303  0.00  0.00    -0.028 C 
ATOM      2  H   LIG d   1       2.421   0.713  -9.782  0.00  0.00     0.031 H 
ATOM      3  C   LIG d   1       2.922   1.501  -7.842  0.00  0.00    -0.028 C 
ATOM      4  C   LIG d   1       2.886   0.223  -7.056  0.00  0.00    -0.073 C 
ATOM      5  C   LIG d   1       3.405  -0.892  -7.460  0.00  0.00    -0.084 C 
ATOM      6  C   LIG d   1       4.110  -1.063  -8.775  0.00  0.00    -0.022 C 
ATOM      7  C   LIG d   1       4.497   0.302  -9.346  0.00  0.00     0.032 C 
ATOM      8  H   LIG d   1       1.948   1.987  -7.785  0.00  0.00     0.031 H 
ATOM      9  H   LIG d   1       3.678   2.163  -7.420  0.00  0.00     0.031 H 
ATOM     10  H   LIG d   1       3.325  -1.751  -6.812  0.00  0.00     0.057 H 
ATOM     11  H   LIG d   1       5.009  -1.661  -8.626  0.00  0.00     0.032 H 
ATOM     12  H   LIG d   1       3.449  -1.575  -9.475  0.00  0.00     0.032 H 
ENDROOT
BRANCH   4  13
ATOM     13  C   LIG d   1       2.199   0.237  -5.714  0.00  0.00    -0.028 C 
ATOM     14  H   LIG d   1       1.832  -0.763  -5.484  0.00  0.00     0.031 H 
ATOM     15  H   LIG d   1       1.361   0.934  -5.744  0.00  0.00     0.031 H 
BRANCH  13  16
ATOM     16  C   LIG d   1       3.192   0.677  -4.637  0.00  0.00    -0.031 C 
ATOM     17  H   LIG d   1       2.706   1.380  -3.961  0.00  0.00     0.031 H 
ATOM     18  H   LIG d   1       4.048   1.159  -5.108  0.00  0.00     0.031 H 
BRANCH  16  19
ATOM     19  C   LIG d   1       3.657  -0.527  -3.860  0.00  0.00    -0.085 C 
ATOM     20  C   LIG d   1       4.047  -0.393  -2.617  0.00  0.00    -0.080 C 
ATOM     21  H   LIG d   1       3.669  -1.500  -4.328  0.00  0.00     0.057 H 
BRANCH  20  22
ATOM     22  C   LIG d   1       4.157   0.980  -2.004  0.00  0.00    -0.044 C 
ATOM     23  H   LIG d   1       3.676   1.709  -2.656  0.00  0.00     0.027 H 
ATOM     24  H   LIG d   1       3.667   0.983  -1.031  0.00  0.00     0.027 H 
ATOM     25  H   LIG d   1       5.209   1.240  -1.883  0.00  0.00     0.027 H 
ENDBRANCH  20  22
BRANCH  20  26
ATOM     26  C   LIG d   1       4.380  -1.612  -1.796  0.00  0.00    -0.044 C 
ATOM     27  H   LIG d   1       4.222  -2.509  -2.396  0.00  0.00     0.027 H 
ATOM     28  H   LIG d   1       5.422  -1.565  -1.480  0.00  0.00     0.027 H 
ATOM     29  H   LIG d   1       3.735  -1.646  -0.917  0.00  0.00     0.027 H 
ENDBRANCH  20  26
ENDBRANCH  16  19
ENDBRANCH  13  16
ENDBRANCH   4  13
BRANCH   1  30
ATOM     30  C   LIG d   1       3.568   2.525 -10.030  0.00  0.00    -0.061 C 
ATOM     31  H   LIG d   1       4.480   2.412 -10.616  0.00  0.00     0.023 H 
ATOM     32  H   LIG d   1       2.739   2.774 -10.692  0.00  0.00     0.023 H 
ATOM     33  H   LIG d   1       3.703   3.322  -9.300  0.00  0.00     0.023 H 
ENDBRANCH   1  30
BRANCH   7  34
ATOM     34  C   LIG d   1       4.965   0.139 -10.794  0.00  0.00    -0.052 C 
ATOM     35  H   LIG d   1       5.349   1.091 -11.161  0.00  0.00     0.024 H 
ATOM     36  H   LIG d   1       5.753  -0.613 -10.839  0.00  0.00     0.024 H 
ATOM     37  H   LIG d   1       4.126  -0.176 -11.414  0.00  0.00     0.024 H 
ENDBRANCH   7  34
BRANCH   7  38
ATOM     38  C   LIG d   1       5.605   0.902  -8.521  0.00  0.00     0.137 C 
ATOM     39  O   LIG d   1       5.848   2.082  -8.603  0.00  0.00    -0.297 OA
BRANCH  38  40
ATOM     40  C   LIG d   1       6.410   0.030  -7.593  0.00  0.00    -0.005 C 
ATOM     41  H   LIG d   1       6.468   0.464  -6.694  0.00  0.00     0.031 H 
ATOM     42  H   LIG d   1       5.926  -0.942  -7.496  0.00  0.00     0.031 H 
ATOM     43  H   LIG d   1       7.413  -0.103  -7.998  0.00  0.00     0.031 H 
ENDBRANCH  38  40
ENDBRANCH   7  38
TORSDOF 9
ENDMDL
MODEL 10
REMARK VINA RESULT:      -4.9      1.657      2.518
REMARK  9 active torsions:
REMARK  status: ('A' for Active; 'I' for Inactive)
REMARK    1  A    between atoms: C_1  and  C_2 
REMARK    2  A    between atoms: C_5  and  C_13 
REMARK    3  A    between atoms: C_8  and  C_9 
REMARK    4  A    between atoms: C_8  and  C_10 
REMARK    5  A    between atoms: C_10  and  C_12 
REMARK    6  A    between atoms: C_13  and  C_14 
REMARK    7  A    between atoms: C_14  and  C_15 
REMARK    8  A    between atoms: C_16  and  C_17 
REMARK    9  A    between atoms: C_16  and  C_18 
ROOT
ATOM      1  C   LIG d   1       4.293  -1.875  -4.278  0.00  0.00    -0.028 C 
ATOM      2  H   LIG d   1       3.397  -2.495  -4.234  0.00  0.00     0.031 H 
ATOM      3  C   LIG d   1       4.367  -1.182  -5.638  0.00  0.00    -0.028 C 
ATOM      4  C   LIG d   1       3.304  -0.127  -5.741  0.00  0.00    -0.073 C 
ATOM      5  C   LIG d   1       2.666   0.361  -4.726  0.00  0.00    -0.084 C 
ATOM      6  C   LIG d   1       2.895  -0.065  -3.305  0.00  0.00    -0.022 C 
ATOM      7  C   LIG d   1       4.231  -0.800  -3.185  0.00  0.00     0.032 C 
ATOM      8  H   LIG d   1       4.224  -1.918  -6.429  0.00  0.00     0.031 H 
ATOM      9  H   LIG d   1       5.347  -0.719  -5.751  0.00  0.00     0.031 H 
ATOM     10  H   LIG d   1       1.922   1.120  -4.914  0.00  0.00     0.057 H 
ATOM     11  H   LIG d   1       2.908   0.816  -2.663  0.00  0.00     0.032 H 
ATOM     12  H   LIG d   1       2.087  -0.727  -2.991  0.00  0.00     0.032 H 
ENDROOT
BRANCH   4  13
ATOM     13  C   LIG d   1       2.955   0.393  -7.112  0.00  0.00    -0.028 C 
ATOM     14  H   LIG d   1       2.926   1.482  -7.090  0.00  0.00     0.031 H 
ATOM     15  H   LIG d   1       1.979   0.009  -7.408  0.00  0.00     0.031 H 
BRANCH  13  16
ATOM     16  C   LIG d   1       4.011  -0.069  -8.117  0.00  0.00    -0.031 C 
ATOM     17  H   LIG d   1       3.520  -0.490  -8.994  0.00  0.00     0.031 H 
ATOM     18  H   LIG d   1       4.643  -0.828  -7.656  0.00  0.00     0.031 H 
BRANCH  16  19
ATOM     19  C   LIG d   1       4.858   1.106  -8.532  0.00  0.00    -0.085 C 
ATOM     20  C   LIG d   1       6.162   1.045  -8.419  0.00  0.00    -0.080 C 
ATOM     21  H   LIG d   1       4.391   1.997  -8.922  0.00  0.00     0.057 H 
BRANCH  20  22
ATOM     22  C   LIG d   1       6.807  -0.143  -7.753  0.00  0.00    -0.044 C 
ATOM     23  H   LIG d   1       7.887  -0.100  -7.899  0.00  0.00     0.027 H 
ATOM     24  H   LIG d   1       6.583  -0.128  -6.687  0.00  0.00     0.027 H 
ATOM     25  H   LIG d   1       6.418  -1.061  -8.194  0.00  0.00     0.027 H 
ENDBRANCH  20  22
BRANCH  20  26
ATOM     26  C   LIG d   1       7.018   2.161  -8.961  0.00  0.00    -0.044 C 
ATOM     27  H   LIG d   1       7.608   2.593  -8.152  0.00  0.00     0.027 H 
ATOM     28  H   LIG d   1       7.686   1.767  -9.727  0.00  0.00     0.027 H 
ATOM     29  H   LIG d   1       6.380   2.930  -9.396  0.00  0.00     0.027 H 
ENDBRANCH  20  26
ENDBRANCH  16  19
ENDBRANCH  13  16
ENDBRANCH   4  13
BRANCH   1  30
ATOM     30  C   LIG d   1       5.536  -2.744  -4.073  0.00  0.00    -0.061 C 
ATOM     31  H   LIG d   1       5.243  -3.702  -3.645  0.00  0.00     0.023 H 
ATOM     32  H   LIG d   1       6.025  -2.909  -5.033  0.00  0.00     0.023 H 
ATOM     33  H   LIG d   1       6.225  -2.239  -3.397  0.00  0.00     0.023 H 
ENDBRANCH   1  30
BRANCH   7  34
ATOM     34  C   LIG d   1       4.332  -1.461  -1.808  0.00  0.00    -0.052 C 
ATOM     35  H   LIG d   1       3.372  -1.384  -1.297  0.00  0.00     0.024 H 
ATOM     36  H   LIG d   1       4.597  -2.511  -1.927  0.00  0.00     0.024 H 
ATOM     37  H   LIG d   1       5.097  -0.957  -1.218  0.00  0.00     0.024 H 
ENDBRANCH   7  34
BRANCH   7  38
ATOM     38  C   LIG d   1       5.365   0.176  -3.361  0.00  0.00     0.137 C 
ATOM     39  O   LIG d   1       5.138   1.361  -3.417  0.00  0.00    -0.297 OA
BRANCH  38  40
ATOM     40  C   LIG d   1       6.781  -0.326  -3.468  0.00  0.00    -0.005 C 
ATOM     41  H   LIG d   1       7.014  -0.844  -2.645  0.00  0.00     0.031 H 
ATOM     42  H   LIG d   1       6.873  -0.970  -4.342  0.00  0.00     0.031 H 
ATOM     43  H   LIG d   1       7.460   0.521  -3.569  0.00  0.00     0.031 H 
ENDBRANCH  38  40
ENDBRANCH   7  38
TORSDOF 9
ENDMDL
