MODEL 1
REMARK VINA RESULT:      -5.3      0.000      0.000
REMARK  13 active torsions:
REMARK  status: ('A' for Active; 'I' for Inactive)
REMARK    1  A    between atoms: C_1  and  C_2 
REMARK    2  A    between atoms: C_2  and  N_3 
REMARK    3  A    between atoms: N_3  and  C_4 
REMARK       I    between atoms: N_3  and  C_6 
REMARK    4  A    between atoms: C_4  and  C_5 
REMARK    5  A    between atoms: C_6  and  C_8 
REMARK    6  A    between atoms: C_8  and  O_9 
REMARK    7  A    between atoms: O_9  and  C_10 
REMARK    8  A    between atoms: C_14  and  C_27 
REMARK    9  A    between atoms: C_15  and  C_22 
REMARK   10  A    between atoms: C_20  and  C_21 
REMARK   11  A    between atoms: C_22  and  C_23 
REMARK   12  A    between atoms: C_23  and  O_25 
REMARK   13  A    between atoms: O_25  and  C_26 
ROOT
ATOM      1  C   LIG d   1       3.325   0.186  -8.495  0.00  0.00     0.128 A 
ATOM      2  C   LIG d   1       2.063  -0.362  -8.714  0.00  0.00    -0.019 A 
ATOM      3  C   LIG d   1       1.723  -0.845  -9.943  0.00  0.00    -0.047 A 
ATOM      4  C   LIG d   1       2.647  -0.792 -10.992  0.00  0.00     0.021 A 
ATOM      5  C   LIG d   1       2.311  -1.304 -12.322  0.00  0.00    -0.029 A 
ATOM      6  C   LIG d   1       3.252  -1.223 -13.299  0.00  0.00     0.051 A 
ATOM      7  C   LIG d   1       4.512  -0.657 -13.013  0.00  0.00     0.341 A 
ATOM      8  O   LIG d   1       5.345  -0.587 -13.899  0.00  0.00    -0.245 OA
ATOM      9  O   LIG d   1       4.815  -0.191 -11.792  0.00  0.00    -0.422 OA
ATOM     10  C   LIG d   1       3.925  -0.240 -10.778  0.00  0.00     0.146 A 
ATOM     11  C   LIG d   1       4.254   0.247  -9.522  0.00  0.00     0.034 A 
ATOM     12  H   LIG d   1       1.348  -0.403  -7.905  0.00  0.00     0.065 H 
ATOM     13  H   LIG d   1       0.742  -1.268 -10.108  0.00  0.00     0.063 H 
ENDROOT
BRANCH   1  14
ATOM     14  O   LIG d   1       3.648   0.664  -7.267  0.00  0.00    -0.482 OA
BRANCH  14  15
ATOM     15  C   LIG d   1       3.707  -0.283  -6.197  0.00  0.00     0.165 C 
ATOM     16  H   LIG d   1       3.028  -1.110  -6.406  0.00  0.00     0.080 H 
ATOM     17  H   LIG d   1       4.724  -0.661  -6.102  0.00  0.00     0.080 H 
BRANCH  15  18
ATOM     18  C   LIG d   1       3.298   0.388  -4.911  0.00  0.00     0.253 C 
ATOM     19  N   LIG d   1       3.700  -0.122  -3.729  0.00  0.00    -0.299 N 
ATOM     20  O   LIG d   1       2.608   1.385  -4.938  0.00  0.00    -0.272 OA
BRANCH  19  21
ATOM     21  C   LIG d   1       3.303   0.531  -2.478  0.00  0.00     0.012 C 
ATOM     22  H   LIG d   1       2.641   1.369  -2.700  0.00  0.00     0.046 H 
ATOM     23  H   LIG d   1       2.782  -0.186  -1.843  0.00  0.00     0.046 H 
BRANCH  21  24
ATOM     24  C   LIG d   1       4.549   1.043  -1.753  0.00  0.00    -0.049 C 
ATOM     25  H   LIG d   1       4.429   0.901  -0.679  0.00  0.00     0.025 H 
ATOM     26  H   LIG d   1       5.423   0.490  -2.098  0.00  0.00     0.025 H 
ATOM     27  H   LIG d   1       4.684   2.104  -1.966  0.00  0.00     0.025 H 
ENDBRANCH  21  24
ENDBRANCH  19  21
BRANCH  19  28
ATOM     28  C   LIG d   1       4.532  -1.325  -3.695  0.00  0.00     0.012 C 
ATOM     29  H   LIG d   1       4.542  -1.789  -4.681  0.00  0.00     0.046 H 
ATOM     30  H   LIG d   1       5.550  -1.055  -3.411  0.00  0.00     0.046 H 
BRANCH  28  31
ATOM     31  C   LIG d   1       3.963  -2.311  -2.673  0.00  0.00    -0.049 C 
ATOM     32  H   LIG d   1       4.288  -3.321  -2.921  0.00  0.00     0.025 H 
ATOM     33  H   LIG d   1       4.319  -2.049  -1.677  0.00  0.00     0.025 H 
ATOM     34  H   LIG d   1       2.873  -2.266  -2.692  0.00  0.00     0.025 H 
ENDBRANCH  28  31
ENDBRANCH  19  28
ENDBRANCH  15  18
ENDBRANCH  14  15
ENDBRANCH   1  14
BRANCH  11  35
ATOM     35  C   LIG d   1       5.617   0.840  -9.274  0.00  0.00    -0.033 C 
ATOM     36  H   LIG d   1       5.876   1.509 -10.096  0.00  0.00     0.028 H 
ATOM     37  H   LIG d   1       5.605   1.401  -8.340  0.00  0.00     0.028 H 
ATOM     38  H   LIG d   1       6.355   0.041  -9.208  0.00  0.00     0.028 H 
ENDBRANCH  11  35
BRANCH   5  39
ATOM     39  C   LIG d   1       0.956  -1.903 -12.600  0.00  0.00    -0.038 C 
ATOM     40  H   LIG d   1       0.593  -2.411 -11.706  0.00  0.00     0.028 H 
ATOM     41  H   LIG d   1       0.259  -1.112 -12.877  0.00  0.00     0.028 H 
ATOM     42  H   LIG d   1       1.037  -2.619 -13.417  0.00  0.00     0.028 H 
ENDBRANCH   5  39
BRANCH   6  43
ATOM     43  C   LIG d   1       2.950  -1.736 -14.683  0.00  0.00     0.077 C 
ATOM     44  H   LIG d   1       1.871  -1.779 -14.827  0.00  0.00     0.043 H 
ATOM     45  H   LIG d   1       3.390  -1.066 -15.422  0.00  0.00     0.043 H 
BRANCH  43  46
ATOM     46  C   LIG d   1       3.533  -3.116 -14.845  0.00  0.00     0.311 C 
ATOM     47  O   LIG d   1       4.508  -3.283 -15.539  0.00  0.00    -0.251 OA
BRANCH  46  48
ATOM     48  O   LIG d   1       2.968  -4.161 -14.220  0.00  0.00    -0.468 OA
BRANCH  48  49
ATOM     49  C   LIG d   1       3.812  -4.923 -13.316  0.00  0.00     0.082 C 
ATOM     50  H   LIG d   1       4.539  -4.257 -12.851  0.00  0.00     0.066 H 
ATOM     51  H   LIG d   1       3.195  -5.384 -12.545  0.00  0.00     0.066 H 
ATOM     52  H   LIG d   1       4.335  -5.698 -13.875  0.00  0.00     0.066 H 
ENDBRANCH  48  49
ENDBRANCH  46  48
ENDBRANCH  43  46
ENDBRANCH   6  43
TORSDOF 13
ENDMDL
MODEL 2
REMARK VINA RESULT:      -5.3      5.827      8.226
REMARK  13 active torsions:
REMARK  status: ('A' for Active; 'I' for Inactive)
REMARK    1  A    between atoms: C_1  and  C_2 
REMARK    2  A    between atoms: C_2  and  N_3 
REMARK    3  A    between atoms: N_3  and  C_4 
REMARK       I    between atoms: N_3  and  C_6 
REMARK    4  A    between atoms: C_4  and  C_5 
REMARK    5  A    between atoms: C_6  and  C_8 
REMARK    6  A    between atoms: C_8  and  O_9 
REMARK    7  A    between atoms: O_9  and  C_10 
REMARK    8  A    between atoms: C_14  and  C_27 
REMARK    9  A    between atoms: C_15  and  C_22 
REMARK   10  A    between atoms: C_20  and  C_21 
REMARK   11  A    between atoms: C_22  and  C_23 
REMARK   12  A    between atoms: C_23  and  O_25 
REMARK   13  A    between atoms: O_25  and  C_26 
ROOT
ATOM      1  C   LIG d   1       7.403  -3.039  -5.377  0.00  0.00     0.128 A 
ATOM      2  C   LIG d   1       8.435  -3.797  -4.829  0.00  0.00    -0.019 A 
ATOM      3  C   LIG d   1       8.340  -5.157  -4.774  0.00  0.00    -0.047 A 
ATOM      4  C   LIG d   1       7.199  -5.796  -5.272  0.00  0.00     0.021 A 
ATOM      5  C   LIG d   1       7.069  -7.253  -5.227  0.00  0.00    -0.029 A 
ATOM      6  C   LIG d   1       5.936  -7.813  -5.726  0.00  0.00     0.051 A 
ATOM      7  C   LIG d   1       4.928  -6.991  -6.268  0.00  0.00     0.341 A 
ATOM      8  O   LIG d   1       3.915  -7.505  -6.709  0.00  0.00    -0.245 OA
ATOM      9  O   LIG d   1       5.052  -5.655  -6.307  0.00  0.00    -0.422 OA
ATOM     10  C   LIG d   1       6.152  -5.036  -5.827  0.00  0.00     0.146 A 
ATOM     11  C   LIG d   1       6.265  -3.654  -5.875  0.00  0.00     0.034 A 
ATOM     12  H   LIG d   1       9.317  -3.305  -4.445  0.00  0.00     0.065 H 
ATOM     13  H   LIG d   1       9.143  -5.740  -4.347  0.00  0.00     0.063 H 
ENDROOT
BRANCH   1  14
ATOM     14  O   LIG d   1       7.512  -1.687  -5.424  0.00  0.00    -0.482 OA
BRANCH  14  15
ATOM     15  C   LIG d   1       7.529  -0.994  -4.175  0.00  0.00     0.165 C 
ATOM     16  H   LIG d   1       7.482  -1.715  -3.359  0.00  0.00     0.080 H 
ATOM     17  H   LIG d   1       8.447  -0.413  -4.095  0.00  0.00     0.080 H 
BRANCH  15  18
ATOM     18  C   LIG d   1       6.341  -0.070  -4.097  0.00  0.00     0.253 C 
ATOM     19  N   LIG d   1       5.258  -0.425  -3.378  0.00  0.00    -0.299 N 
ATOM     20  O   LIG d   1       6.360   0.994  -4.681  0.00  0.00    -0.272 OA
BRANCH  19  21
ATOM     21  C   LIG d   1       4.103   0.475  -3.302  0.00  0.00     0.012 C 
ATOM     22  H   LIG d   1       4.129   1.170  -4.141  0.00  0.00     0.046 H 
ATOM     23  H   LIG d   1       3.184  -0.110  -3.341  0.00  0.00     0.046 H 
BRANCH  21  24
ATOM     24  C   LIG d   1       4.153   1.258  -1.988  0.00  0.00    -0.049 C 
ATOM     25  H   LIG d   1       3.410   0.859  -1.299  0.00  0.00     0.025 H 
ATOM     26  H   LIG d   1       5.145   1.164  -1.547  0.00  0.00     0.025 H 
ATOM     27  H   LIG d   1       3.941   2.309  -2.183  0.00  0.00     0.025 H 
ENDBRANCH  21  24
ENDBRANCH  19  21
BRANCH  19  28
ATOM     28  C   LIG d   1       5.234  -1.708  -2.673  0.00  0.00     0.012 C 
ATOM     29  H   LIG d   1       5.806  -2.444  -3.238  0.00  0.00     0.046 H 
ATOM     30  H   LIG d   1       5.674  -1.587  -1.683  0.00  0.00     0.046 H 
BRANCH  28  31
ATOM     31  C   LIG d   1       3.788  -2.186  -2.533  0.00  0.00    -0.049 C 
ATOM     32  H   LIG d   1       3.121  -1.323  -2.505  0.00  0.00     0.025 H 
ATOM     33  H   LIG d   1       3.528  -2.818  -3.381  0.00  0.00     0.025 H 
ATOM     34  H   LIG d   1       3.680  -2.756  -1.610  0.00  0.00     0.025 H 
ENDBRANCH  28  31
ENDBRANCH  19  28
ENDBRANCH  15  18
ENDBRANCH  14  15
ENDBRANCH   1  14
BRANCH  11  35
ATOM     35  C   LIG d   1       5.155  -2.825  -6.467  0.00  0.00    -0.033 C 
ATOM     36  H   LIG d   1       4.289  -3.460  -6.656  0.00  0.00     0.028 H 
ATOM     37  H   LIG d   1       4.880  -2.034  -5.769  0.00  0.00     0.028 H 
ATOM     38  H   LIG d   1       5.492  -2.381  -7.404  0.00  0.00     0.028 H 
ENDBRANCH  11  35
BRANCH   5  39
ATOM     39  C   LIG d   1       8.163  -8.110  -4.642  0.00  0.00    -0.038 C 
ATOM     40  H   LIG d   1       8.471  -7.698  -3.680  0.00  0.00     0.028 H 
ATOM     41  H   LIG d   1       7.793  -9.125  -4.501  0.00  0.00     0.028 H 
ATOM     42  H   LIG d   1       9.015  -8.124  -5.320  0.00  0.00     0.028 H 
ENDBRANCH   5  39
BRANCH   6  43
ATOM     43  C   LIG d   1       5.758  -9.310  -5.701  0.00  0.00     0.077 C 
ATOM     44  H   LIG d   1       5.115  -9.613  -6.526  0.00  0.00     0.043 H 
ATOM     45  H   LIG d   1       6.731  -9.792  -5.802  0.00  0.00     0.043 H 
BRANCH  43  46
ATOM     46  C   LIG d   1       5.127  -9.719  -4.395  0.00  0.00     0.311 C 
ATOM     47  O   LIG d   1       5.784 -10.296  -3.561  0.00  0.00    -0.251 OA
BRANCH  46  48
ATOM     48  O   LIG d   1       3.835  -9.443  -4.159  0.00  0.00    -0.468 OA
BRANCH  48  49
ATOM     49  C   LIG d   1       3.169 -10.231  -3.137  0.00  0.00     0.082 C 
ATOM     50  H   LIG d   1       3.231 -11.289  -3.397  0.00  0.00     0.066 H 
ATOM     51  H   LIG d   1       3.654 -10.064  -2.175  0.00  0.00     0.066 H 
ATOM     52  H   LIG d   1       2.123  -9.934  -3.074  0.00  0.00     0.066 H 
ENDBRANCH  48  49
ENDBRANCH  46  48
ENDBRANCH  43  46
ENDBRANCH   6  43
TORSDOF 13
ENDMDL
MODEL 3
REMARK VINA RESULT:      -5.3      4.245      9.295
REMARK  13 active torsions:
REMARK  status: ('A' for Active; 'I' for Inactive)
REMARK    1  A    between atoms: C_1  and  C_2 
REMARK    2  A    between atoms: C_2  and  N_3 
REMARK    3  A    between atoms: N_3  and  C_4 
REMARK       I    between atoms: N_3  and  C_6 
REMARK    4  A    between atoms: C_4  and  C_5 
REMARK    5  A    between atoms: C_6  and  C_8 
REMARK    6  A    between atoms: C_8  and  O_9 
REMARK    7  A    between atoms: O_9  and  C_10 
REMARK    8  A    between atoms: C_14  and  C_27 
REMARK    9  A    between atoms: C_15  and  C_22 
REMARK   10  A    between atoms: C_20  and  C_21 
REMARK   11  A    between atoms: C_22  and  C_23 
REMARK   12  A    between atoms: C_23  and  O_25 
REMARK   13  A    between atoms: O_25  and  C_26 
ROOT
ATOM      1  C   LIG d   1       6.771  -4.650  -6.335  0.00  0.00     0.128 A 
ATOM      2  C   LIG d   1       7.711  -3.621  -6.349  0.00  0.00    -0.019 A 
ATOM      3  C   LIG d   1       7.555  -2.532  -5.543  0.00  0.00    -0.047 A 
ATOM      4  C   LIG d   1       6.445  -2.446  -4.696  0.00  0.00     0.021 A 
ATOM      5  C   LIG d   1       6.252  -1.289  -3.819  0.00  0.00    -0.029 A 
ATOM      6  C   LIG d   1       5.153  -1.265  -3.020  0.00  0.00     0.051 A 
ATOM      7  C   LIG d   1       4.240  -2.338  -3.052  0.00  0.00     0.341 A 
ATOM      8  O   LIG d   1       3.257  -2.303  -2.333  0.00  0.00    -0.245 OA
ATOM      9  O   LIG d   1       4.422  -3.396  -3.857  0.00  0.00    -0.422 OA
ATOM     10  C   LIG d   1       5.492  -3.482  -4.676  0.00  0.00     0.146 A 
ATOM     11  C   LIG d   1       5.666  -4.582  -5.503  0.00  0.00     0.034 A 
ATOM     12  H   LIG d   1       8.568  -3.686  -7.004  0.00  0.00     0.065 H 
ATOM     13  H   LIG d   1       8.286  -1.736  -5.559  0.00  0.00     0.063 H 
ENDROOT
BRANCH   1  14
ATOM     14  O   LIG d   1       6.940  -5.727  -7.144  0.00  0.00    -0.482 OA
BRANCH  14  15
ATOM     15  C   LIG d   1       6.816  -5.508  -8.551  0.00  0.00     0.165 C 
ATOM     16  H   LIG d   1       7.028  -4.463  -8.776  0.00  0.00     0.080 H 
ATOM     17  H   LIG d   1       7.523  -6.145  -9.080  0.00  0.00     0.080 H 
BRANCH  15  18
ATOM     18  C   LIG d   1       5.413  -5.840  -8.989  0.00  0.00     0.253 C 
ATOM     19  N   LIG d   1       4.536  -4.850  -9.249  0.00  0.00    -0.299 N 
ATOM     20  O   LIG d   1       5.073  -6.999  -9.109  0.00  0.00    -0.272 OA
BRANCH  19  21
ATOM     21  C   LIG d   1       3.172  -5.174  -9.677  0.00  0.00     0.012 C 
ATOM     22  H   LIG d   1       2.952  -6.214  -9.432  0.00  0.00     0.046 H 
ATOM     23  H   LIG d   1       2.466  -4.522  -9.163  0.00  0.00     0.046 H 
BRANCH  21  24
ATOM     24  C   LIG d   1       3.050  -4.969 -11.188  0.00  0.00    -0.049 C 
ATOM     25  H   LIG d   1       2.460  -4.074 -11.387  0.00  0.00     0.025 H 
ATOM     26  H   LIG d   1       4.044  -4.852 -11.620  0.00  0.00     0.025 H 
ATOM     27  H   LIG d   1       2.560  -5.835 -11.634  0.00  0.00     0.025 H 
ENDBRANCH  21  24
ENDBRANCH  19  21
BRANCH  19  28
ATOM     28  C   LIG d   1       4.946  -3.452  -9.105  0.00  0.00     0.012 C 
ATOM     29  H   LIG d   1       5.937  -3.408  -8.654  0.00  0.00     0.046 H 
ATOM     30  H   LIG d   1       4.972  -2.978 -10.086  0.00  0.00     0.046 H 
BRANCH  28  31
ATOM     31  C   LIG d   1       3.946  -2.718  -8.210  0.00  0.00    -0.049 C 
ATOM     32  H   LIG d   1       4.214  -2.868  -7.164  0.00  0.00     0.025 H 
ATOM     33  H   LIG d   1       3.964  -1.653  -8.441  0.00  0.00     0.025 H 
ATOM     34  H   LIG d   1       2.944  -3.109  -8.386  0.00  0.00     0.025 H 
ENDBRANCH  28  31
ENDBRANCH  19  28
ENDBRANCH  15  18
ENDBRANCH  14  15
ENDBRANCH   1  14
BRANCH  11  35
ATOM     35  C   LIG d   1       4.656  -5.701  -5.494  0.00  0.00    -0.033 C 
ATOM     36  H   LIG d   1       4.234  -5.801  -4.494  0.00  0.00     0.028 H 
ATOM     37  H   LIG d   1       3.859  -5.477  -6.204  0.00  0.00     0.028 H 
ATOM     38  H   LIG d   1       5.144  -6.633  -5.779  0.00  0.00     0.028 H 
ENDBRANCH  11  35
BRANCH   5  39
ATOM     39  C   LIG d   1       7.245  -0.155  -3.805  0.00  0.00    -0.038 C 
ATOM     40  H   LIG d   1       7.870  -0.208  -4.697  0.00  0.00     0.028 H 
ATOM     41  H   LIG d   1       6.710   0.794  -3.792  0.00  0.00     0.028 H 
ATOM     42  H   LIG d   1       7.871  -0.232  -2.917  0.00  0.00     0.028 H 
ENDBRANCH   5  39
BRANCH   6  43
ATOM     43  C   LIG d   1       4.913  -0.095  -2.101  0.00  0.00     0.077 C 
ATOM     44  H   LIG d   1       4.505  -0.453  -1.156  0.00  0.00     0.043 H 
ATOM     45  H   LIG d   1       5.855   0.421  -1.918  0.00  0.00     0.043 H 
BRANCH  43  46
ATOM     46  C   LIG d   1       3.935   0.855  -2.743  0.00  0.00     0.311 C 
ATOM     47  O   LIG d   1       3.226   1.550  -2.053  0.00  0.00    -0.251 OA
BRANCH  46  48
ATOM     48  O   LIG d   1       3.850   0.929  -4.080  0.00  0.00    -0.468 OA
BRANCH  48  49
ATOM     49  C   LIG d   1       2.569   0.597  -4.679  0.00  0.00     0.082 C 
ATOM     50  H   LIG d   1       1.765   0.951  -4.033  0.00  0.00     0.066 H 
ATOM     51  H   LIG d   1       2.490   1.075  -5.655  0.00  0.00     0.066 H 
ATOM     52  H   LIG d   1       2.492  -0.483  -4.796  0.00  0.00     0.066 H 
ENDBRANCH  48  49
ENDBRANCH  46  48
ENDBRANCH  43  46
ENDBRANCH   6  43
TORSDOF 13
ENDMDL
MODEL 4
REMARK VINA RESULT:      -5.3      6.561      9.498
REMARK  13 active torsions:
REMARK  status: ('A' for Active; 'I' for Inactive)
REMARK    1  A    between atoms: C_1  and  C_2 
REMARK    2  A    between atoms: C_2  and  N_3 
REMARK    3  A    between atoms: N_3  and  C_4 
REMARK       I    between atoms: N_3  and  C_6 
REMARK    4  A    between atoms: C_4  and  C_5 
REMARK    5  A    between atoms: C_6  and  C_8 
REMARK    6  A    between atoms: C_8  and  O_9 
REMARK    7  A    between atoms: O_9  and  C_10 
REMARK    8  A    between atoms: C_14  and  C_27 
REMARK    9  A    between atoms: C_15  and  C_22 
REMARK   10  A    between atoms: C_20  and  C_21 
REMARK   11  A    between atoms: C_22  and  C_23 
REMARK   12  A    between atoms: C_23  and  O_25 
REMARK   13  A    between atoms: O_25  and  C_26 
ROOT
ATOM      1  C   LIG d   1       8.568  -3.331  -5.689  0.00  0.00     0.128 A 
ATOM      2  C   LIG d   1       7.474  -4.104  -5.303  0.00  0.00    -0.019 A 
ATOM      3  C   LIG d   1       6.470  -3.556  -4.559  0.00  0.00    -0.047 A 
ATOM      4  C   LIG d   1       6.537  -2.211  -4.181  0.00  0.00     0.021 A 
ATOM      5  C   LIG d   1       5.475  -1.596  -3.384  0.00  0.00    -0.029 A 
ATOM      6  C   LIG d   1       5.599  -0.285  -3.048  0.00  0.00     0.051 A 
ATOM      7  C   LIG d   1       6.730   0.442  -3.471  0.00  0.00     0.341 A 
ATOM      8  O   LIG d   1       6.832   1.616  -3.161  0.00  0.00    -0.245 OA
ATOM      9  O   LIG d   1       7.701  -0.127  -4.203  0.00  0.00    -0.422 OA
ATOM     10  C   LIG d   1       7.639  -1.425  -4.569  0.00  0.00     0.146 A 
ATOM     11  C   LIG d   1       8.652  -1.997  -5.325  0.00  0.00     0.034 A 
ATOM     12  H   LIG d   1       7.421  -5.143  -5.594  0.00  0.00     0.065 H 
ATOM     13  H   LIG d   1       5.625  -4.160  -4.261  0.00  0.00     0.063 H 
ENDROOT
BRANCH   1  14
ATOM     14  O   LIG d   1       9.558  -3.891  -6.429  0.00  0.00    -0.482 OA
BRANCH  14  15
ATOM     15  C   LIG d   1      10.012  -5.187  -6.033  0.00  0.00     0.165 C 
ATOM     16  H   LIG d   1       9.350  -5.583  -5.262  0.00  0.00     0.080 H 
ATOM     17  H   LIG d   1      10.007  -5.852  -6.895  0.00  0.00     0.080 H 
BRANCH  15  18
ATOM     18  C   LIG d   1      11.412  -5.084  -5.486  0.00  0.00     0.253 C 
ATOM     19  N   LIG d   1      11.634  -5.248  -4.166  0.00  0.00    -0.299 N 
ATOM     20  O   LIG d   1      12.340  -4.853  -6.233  0.00  0.00    -0.272 OA
BRANCH  19  21
ATOM     21  C   LIG d   1      12.997  -5.148  -3.635  0.00  0.00     0.012 C 
ATOM     22  H   LIG d   1      13.047  -5.651  -2.669  0.00  0.00     0.046 H 
ATOM     23  H   LIG d   1      13.692  -5.621  -4.329  0.00  0.00     0.046 H 
BRANCH  21  24
ATOM     24  C   LIG d   1      13.370  -3.674  -3.463  0.00  0.00    -0.049 C 
ATOM     25  H   LIG d   1      12.507  -3.122  -3.091  0.00  0.00     0.025 H 
ATOM     26  H   LIG d   1      14.191  -3.588  -2.752  0.00  0.00     0.025 H 
ATOM     27  H   LIG d   1      13.678  -3.263  -4.425  0.00  0.00     0.025 H 
ENDBRANCH  21  24
ENDBRANCH  19  21
BRANCH  19  28
ATOM     28  C   LIG d   1      10.515  -5.526  -3.264  0.00  0.00     0.012 C 
ATOM     29  H   LIG d   1       9.667  -5.896  -3.840  0.00  0.00     0.046 H 
ATOM     30  H   LIG d   1      10.815  -6.277  -2.533  0.00  0.00     0.046 H 
BRANCH  28  31
ATOM     31  C   LIG d   1      10.115  -4.240  -2.537  0.00  0.00    -0.049 C 
ATOM     32  H   LIG d   1      11.002  -3.774  -2.108  0.00  0.00     0.025 H 
ATOM     33  H   LIG d   1       9.648  -3.553  -3.242  0.00  0.00     0.025 H 
ATOM     34  H   LIG d   1       9.409  -4.477  -1.741  0.00  0.00     0.025 H 
ENDBRANCH  28  31
ENDBRANCH  19  28
ENDBRANCH  15  18
ENDBRANCH  14  15
ENDBRANCH   1  14
BRANCH  11  35
ATOM     35  C   LIG d   1       9.838  -1.171  -5.749  0.00  0.00    -0.033 C 
ATOM     36  H   LIG d   1       9.491  -0.284  -6.281  0.00  0.00     0.028 H 
ATOM     37  H   LIG d   1      10.403  -0.868  -4.868  0.00  0.00     0.028 H 
ATOM     38  H   LIG d   1      10.477  -1.762  -6.405  0.00  0.00     0.028 H 
ENDBRANCH  11  35
BRANCH   5  39
ATOM     39  C   LIG d   1       4.275  -2.397  -2.945  0.00  0.00    -0.038 C 
ATOM     40  H   LIG d   1       4.601  -3.219  -2.307  0.00  0.00     0.028 H 
ATOM     41  H   LIG d   1       3.594  -1.754  -2.388  0.00  0.00     0.028 H 
ATOM     42  H   LIG d   1       3.765  -2.796  -3.820  0.00  0.00     0.028 H 
ENDBRANCH   5  39
BRANCH   6  43
ATOM     43  C   LIG d   1       4.530   0.390  -2.228  0.00  0.00     0.077 C 
ATOM     44  H   LIG d   1       4.004  -0.357  -1.633  0.00  0.00     0.043 H 
ATOM     45  H   LIG d   1       4.990   1.124  -1.567  0.00  0.00     0.043 H 
BRANCH  43  46
ATOM     46  C   LIG d   1       3.554   1.080  -3.145  0.00  0.00     0.311 C 
ATOM     47  O   LIG d   1       3.618   2.275  -3.306  0.00  0.00    -0.251 OA
BRANCH  46  48
ATOM     48  O   LIG d   1       2.612   0.366  -3.781  0.00  0.00    -0.468 OA
BRANCH  48  49
ATOM     49  C   LIG d   1       2.640   0.384  -5.233  0.00  0.00     0.082 C 
ATOM     50  H   LIG d   1       1.737   0.867  -5.608  0.00  0.00     0.066 H 
ATOM     51  H   LIG d   1       3.516   0.936  -5.573  0.00  0.00     0.066 H 
ATOM     52  H   LIG d   1       2.687  -0.638  -5.608  0.00  0.00     0.066 H 
ENDBRANCH  48  49
ENDBRANCH  46  48
ENDBRANCH  43  46
ENDBRANCH   6  43
TORSDOF 13
ENDMDL
MODEL 5
REMARK VINA RESULT:      -5.3      5.513      9.251
REMARK  13 active torsions:
REMARK  status: ('A' for Active; 'I' for Inactive)
REMARK    1  A    between atoms: C_1  and  C_2 
REMARK    2  A    between atoms: C_2  and  N_3 
REMARK    3  A    between atoms: N_3  and  C_4 
REMARK       I    between atoms: N_3  and  C_6 
REMARK    4  A    between atoms: C_4  and  C_5 
REMARK    5  A    between atoms: C_6  and  C_8 
REMARK    6  A    between atoms: C_8  and  O_9 
REMARK    7  A    between atoms: O_9  and  C_10 
REMARK    8  A    between atoms: C_14  and  C_27 
REMARK    9  A    between atoms: C_15  and  C_22 
REMARK   10  A    between atoms: C_20  and  C_21 
REMARK   11  A    between atoms: C_22  and  C_23 
REMARK   12  A    between atoms: C_23  and  O_25 
REMARK   13  A    between atoms: O_25  and  C_26 
ROOT
ATOM      1  C   LIG d   1       6.944  -0.090  -5.854  0.00  0.00     0.128 A 
ATOM      2  C   LIG d   1       7.252   0.487  -7.084  0.00  0.00    -0.019 A 
ATOM      3  C   LIG d   1       8.012   1.619  -7.145  0.00  0.00    -0.047 A 
ATOM      4  C   LIG d   1       8.485   2.204  -5.966  0.00  0.00     0.021 A 
ATOM      5  C   LIG d   1       9.303   3.418  -6.001  0.00  0.00    -0.029 A 
ATOM      6  C   LIG d   1       9.732   3.938  -4.821  0.00  0.00     0.051 A 
ATOM      7  C   LIG d   1       9.387   3.305  -3.610  0.00  0.00     0.341 A 
ATOM      8  O   LIG d   1       9.775   3.784  -2.558  0.00  0.00    -0.245 OA
ATOM      9  O   LIG d   1       8.637   2.192  -3.584  0.00  0.00    -0.422 OA
ATOM     10  C   LIG d   1       8.178   1.625  -4.720  0.00  0.00     0.146 A 
ATOM     11  C   LIG d   1       7.404   0.475  -4.676  0.00  0.00     0.034 A 
ATOM     12  H   LIG d   1       6.887   0.037  -7.995  0.00  0.00     0.065 H 
ATOM     13  H   LIG d   1       8.246   2.064  -8.102  0.00  0.00     0.063 H 
ENDROOT
BRANCH   1  14
ATOM     14  O   LIG d   1       6.187  -1.215  -5.810  0.00  0.00    -0.482 OA
BRANCH  14  15
ATOM     15  C   LIG d   1       4.888  -1.147  -6.401  0.00  0.00     0.165 C 
ATOM     16  H   LIG d   1       4.956  -0.659  -7.373  0.00  0.00     0.080 H 
ATOM     17  H   LIG d   1       4.492  -2.154  -6.525  0.00  0.00     0.080 H 
BRANCH  15  18
ATOM     18  C   LIG d   1       3.970  -0.354  -5.506  0.00  0.00     0.253 C 
ATOM     19  N   LIG d   1       3.644  -0.828  -4.287  0.00  0.00    -0.299 N 
ATOM     20  O   LIG d   1       3.524   0.710  -5.882  0.00  0.00    -0.272 OA
BRANCH  19  21
ATOM     21  C   LIG d   1       2.752  -0.056  -3.416  0.00  0.00     0.012 C 
ATOM     22  H   LIG d   1       1.988   0.433  -4.021  0.00  0.00     0.046 H 
ATOM     23  H   LIG d   1       2.276  -0.724  -2.699  0.00  0.00     0.046 H 
BRANCH  21  24
ATOM     24  C   LIG d   1       3.563   1.003  -2.666  0.00  0.00    -0.049 C 
ATOM     25  H   LIG d   1       4.607   0.947  -2.974  0.00  0.00     0.025 H 
ATOM     26  H   LIG d   1       3.169   1.993  -2.896  0.00  0.00     0.025 H 
ATOM     27  H   LIG d   1       3.490   0.824  -1.593  0.00  0.00     0.025 H 
ENDBRANCH  21  24
ENDBRANCH  19  21
BRANCH  19  28
ATOM     28  C   LIG d   1       4.180  -2.111  -3.831  0.00  0.00     0.012 C 
ATOM     29  H   LIG d   1       3.727  -2.919  -4.405  0.00  0.00     0.046 H 
ATOM     30  H   LIG d   1       5.261  -2.125  -3.976  0.00  0.00     0.046 H 
BRANCH  28  31
ATOM     31  C   LIG d   1       3.863  -2.299  -2.347  0.00  0.00    -0.049 C 
ATOM     32  H   LIG d   1       4.418  -1.566  -1.760  0.00  0.00     0.025 H 
ATOM     33  H   LIG d   1       2.795  -2.162  -2.182  0.00  0.00     0.025 H 
ATOM     34  H   LIG d   1       4.151  -3.304  -2.037  0.00  0.00     0.025 H 
ENDBRANCH  28  31
ENDBRANCH  19  28
ENDBRANCH  15  18
ENDBRANCH  14  15
ENDBRANCH   1  14
BRANCH  11  35
ATOM     35  C   LIG d   1       7.067  -0.158  -3.351  0.00  0.00    -0.033 C 
ATOM     36  H   LIG d   1       6.163   0.301  -2.949  0.00  0.00     0.028 H 
ATOM     37  H   LIG d   1       6.899  -1.226  -3.491  0.00  0.00     0.028 H 
ATOM     38  H   LIG d   1       7.892  -0.008  -2.655  0.00  0.00     0.028 H 
ENDBRANCH  11  35
BRANCH   5  39
ATOM     39  C   LIG d   1       9.658   4.074  -7.311  0.00  0.00    -0.038 C 
ATOM     40  H   LIG d   1      10.736   4.014  -7.467  0.00  0.00     0.028 H 
ATOM     41  H   LIG d   1       9.144   3.562  -8.124  0.00  0.00     0.028 H 
ATOM     42  H   LIG d   1       9.352   5.119  -7.288  0.00  0.00     0.028 H 
ENDBRANCH   5  39
BRANCH   6  43
ATOM     43  C   LIG d   1      10.577   5.187  -4.808  0.00  0.00     0.077 C 
ATOM     44  H   LIG d   1      11.320   5.114  -4.015  0.00  0.00     0.043 H 
ATOM     45  H   LIG d   1      11.080   5.293  -5.769  0.00  0.00     0.043 H 
BRANCH  43  46
ATOM     46  C   LIG d   1       9.697   6.385  -4.565  0.00  0.00     0.311 C 
ATOM     47  O   LIG d   1       9.541   6.803  -3.442  0.00  0.00    -0.251 OA
BRANCH  46  48
ATOM     48  O   LIG d   1       9.085   6.988  -5.596  0.00  0.00    -0.468 OA
BRANCH  48  49
ATOM     49  C   LIG d   1       9.401   8.387  -5.823  0.00  0.00     0.082 C 
ATOM     50  H   LIG d   1       9.927   8.786  -4.955  0.00  0.00     0.066 H 
ATOM     51  H   LIG d   1      10.034   8.478  -6.706  0.00  0.00     0.066 H 
ATOM     52  H   LIG d   1       8.479   8.948  -5.977  0.00  0.00     0.066 H 
ENDBRANCH  48  49
ENDBRANCH  46  48
ENDBRANCH  43  46
ENDBRANCH   6  43
TORSDOF 13
ENDMDL
MODEL 6
REMARK VINA RESULT:      -5.2      6.640      9.600
REMARK  13 active torsions:
REMARK  status: ('A' for Active; 'I' for Inactive)
REMARK    1  A    between atoms: C_1  and  C_2 
REMARK    2  A    between atoms: C_2  and  N_3 
REMARK    3  A    between atoms: N_3  and  C_4 
REMARK       I    between atoms: N_3  and  C_6 
REMARK    4  A    between atoms: C_4  and  C_5 
REMARK    5  A    between atoms: C_6  and  C_8 
REMARK    6  A    between atoms: C_8  and  O_9 
REMARK    7  A    between atoms: O_9  and  C_10 
REMARK    8  A    between atoms: C_14  and  C_27 
REMARK    9  A    between atoms: C_15  and  C_22 
REMARK   10  A    between atoms: C_20  and  C_21 
REMARK   11  A    between atoms: C_22  and  C_23 
REMARK   12  A    between atoms: C_23  and  O_25 
REMARK   13  A    between atoms: O_25  and  C_26 
ROOT
ATOM      1  C   LIG d   1       8.620  -3.695  -5.757  0.00  0.00     0.128 A 
ATOM      2  C   LIG d   1       9.221  -2.447  -5.603  0.00  0.00    -0.019 A 
ATOM      3  C   LIG d   1       8.577  -1.448  -4.935  0.00  0.00    -0.047 A 
ATOM      4  C   LIG d   1       7.304  -1.675  -4.400  0.00  0.00     0.021 A 
ATOM      5  C   LIG d   1       6.589  -0.621  -3.678  0.00  0.00    -0.029 A 
ATOM      6  C   LIG d   1       5.355  -0.905  -3.183  0.00  0.00     0.051 A 
ATOM      7  C   LIG d   1       4.802  -2.188  -3.372  0.00  0.00     0.341 A 
ATOM      8  O   LIG d   1       3.694  -2.428  -2.926  0.00  0.00    -0.245 OA
ATOM      9  O   LIG d   1       5.463  -3.150  -4.034  0.00  0.00    -0.422 OA
ATOM     10  C   LIG d   1       6.691  -2.933  -4.552  0.00  0.00     0.146 A 
ATOM     11  C   LIG d   1       7.360  -3.939  -5.234  0.00  0.00     0.034 A 
ATOM     12  H   LIG d   1      10.203  -2.271  -6.015  0.00  0.00     0.065 H 
ATOM     13  H   LIG d   1       9.047  -0.481  -4.819  0.00  0.00     0.063 H 
ENDROOT
BRANCH   1  14
ATOM     14  O   LIG d   1       9.273  -4.679  -6.424  0.00  0.00    -0.482 OA
BRANCH  14  15
ATOM     15  C   LIG d   1      10.505  -5.137  -5.863  0.00  0.00     0.165 C 
ATOM     16  H   LIG d   1      11.173  -5.455  -6.663  0.00  0.00     0.080 H 
ATOM     17  H   LIG d   1      10.970  -4.329  -5.300  0.00  0.00     0.080 H 
BRANCH  15  18
ATOM     18  C   LIG d   1      10.236  -6.299  -4.942  0.00  0.00     0.253 C 
ATOM     19  N   LIG d   1      10.382  -6.152  -3.611  0.00  0.00    -0.299 N 
ATOM     20  O   LIG d   1       9.888  -7.368  -5.400  0.00  0.00    -0.272 OA
BRANCH  19  21
ATOM     21  C   LIG d   1      10.119  -7.283  -2.716  0.00  0.00     0.012 C 
ATOM     22  H   LIG d   1       9.384  -6.989  -1.966  0.00  0.00     0.046 H 
ATOM     23  H   LIG d   1       9.734  -8.122  -3.294  0.00  0.00     0.046 H 
BRANCH  21  24
ATOM     24  C   LIG d   1      11.419  -7.696  -2.022  0.00  0.00    -0.049 C 
ATOM     25  H   LIG d   1      12.228  -7.724  -2.752  0.00  0.00     0.025 H 
ATOM     26  H   LIG d   1      11.660  -6.974  -1.242  0.00  0.00     0.025 H 
ATOM     27  H   LIG d   1      11.296  -8.683  -1.577  0.00  0.00     0.025 H 
ENDBRANCH  21  24
ENDBRANCH  19  21
BRANCH  19  28
ATOM     28  C   LIG d   1      10.802  -4.863  -3.058  0.00  0.00     0.012 C 
ATOM     29  H   LIG d   1      11.666  -5.009  -2.410  0.00  0.00     0.046 H 
ATOM     30  H   LIG d   1      11.069  -4.188  -3.872  0.00  0.00     0.046 H 
BRANCH  28  31
ATOM     31  C   LIG d   1       9.654  -4.256  -2.249  0.00  0.00    -0.049 C 
ATOM     32  H   LIG d   1       9.617  -4.724  -1.264  0.00  0.00     0.025 H 
ATOM     33  H   LIG d   1       9.814  -3.185  -2.137  0.00  0.00     0.025 H 
ATOM     34  H   LIG d   1       8.711  -4.430  -2.768  0.00  0.00     0.025 H 
ENDBRANCH  28  31
ENDBRANCH  19  28
ENDBRANCH  15  18
ENDBRANCH  14  15
ENDBRANCH   1  14
BRANCH  11  35
ATOM     35  C   LIG d   1       6.719  -5.292  -5.405  0.00  0.00    -0.033 C 
ATOM     36  H   LIG d   1       6.879  -5.886  -4.505  0.00  0.00     0.028 H 
ATOM     37  H   LIG d   1       5.649  -5.169  -5.574  0.00  0.00     0.028 H 
ATOM     38  H   LIG d   1       7.166  -5.800  -6.260  0.00  0.00     0.028 H 
ENDBRANCH  11  35
BRANCH   5  39
ATOM     39  C   LIG d   1       7.204   0.742  -3.490  0.00  0.00    -0.038 C 
ATOM     40  H   LIG d   1       7.777   1.007  -4.379  0.00  0.00     0.028 H 
ATOM     41  H   LIG d   1       6.415   1.477  -3.334  0.00  0.00     0.028 H 
ATOM     42  H   LIG d   1       7.863   0.726  -2.623  0.00  0.00     0.028 H 
ENDBRANCH   5  39
BRANCH   6  43
ATOM     43  C   LIG d   1       4.582   0.149  -2.433  0.00  0.00     0.077 C 
ATOM     44  H   LIG d   1       3.836  -0.330  -1.799  0.00  0.00     0.043 H 
ATOM     45  H   LIG d   1       5.266   0.729  -1.814  0.00  0.00     0.043 H 
BRANCH  43  46
ATOM     46  C   LIG d   1       3.895   1.062  -3.414  0.00  0.00     0.311 C 
ATOM     47  O   LIG d   1       3.638   2.201  -3.103  0.00  0.00    -0.251 OA
BRANCH  46  48
ATOM     48  O   LIG d   1       3.567   0.611  -4.635  0.00  0.00    -0.468 OA
BRANCH  48  49
ATOM     49  C   LIG d   1       2.174   0.267  -4.859  0.00  0.00     0.082 C 
ATOM     50  H   LIG d   1       2.112  -0.533  -5.598  0.00  0.00     0.066 H 
ATOM     51  H   LIG d   1       1.727  -0.067  -3.923  0.00  0.00     0.066 H 
ATOM     52  H   LIG d   1       1.639   1.142  -5.226  0.00  0.00     0.066 H 
ENDBRANCH  48  49
ENDBRANCH  46  48
ENDBRANCH  43  46
ENDBRANCH   6  43
TORSDOF 13
ENDMDL
MODEL 7
REMARK VINA RESULT:      -5.1      6.212      9.390
REMARK  13 active torsions:
REMARK  status: ('A' for Active; 'I' for Inactive)
REMARK    1  A    between atoms: C_1  and  C_2 
REMARK    2  A    between atoms: C_2  and  N_3 
REMARK    3  A    between atoms: N_3  and  C_4 
REMARK       I    between atoms: N_3  and  C_6 
REMARK    4  A    between atoms: C_4  and  C_5 
REMARK    5  A    between atoms: C_6  and  C_8 
REMARK    6  A    between atoms: C_8  and  O_9 
REMARK    7  A    between atoms: O_9  and  C_10 
REMARK    8  A    between atoms: C_14  and  C_27 
REMARK    9  A    between atoms: C_15  and  C_22 
REMARK   10  A    between atoms: C_20  and  C_21 
REMARK   11  A    between atoms: C_22  and  C_23 
REMARK   12  A    between atoms: C_23  and  O_25 
REMARK   13  A    between atoms: O_25  and  C_26 
ROOT
ATOM      1  C   LIG d   1       9.936   1.304  -5.462  0.00  0.00     0.128 A 
ATOM      2  C   LIG d   1       9.907  -0.069  -5.697  0.00  0.00    -0.019 A 
ATOM      3  C   LIG d   1       8.898  -0.836  -5.192  0.00  0.00    -0.047 A 
ATOM      4  C   LIG d   1       7.884  -0.240  -4.433  0.00  0.00     0.021 A 
ATOM      5  C   LIG d   1       6.788  -1.037  -3.879  0.00  0.00    -0.029 A 
ATOM      6  C   LIG d   1       5.835  -0.399  -3.150  0.00  0.00     0.051 A 
ATOM      7  C   LIG d   1       5.921   0.993  -2.948  0.00  0.00     0.341 A 
ATOM      8  O   LIG d   1       5.062   1.552  -2.290  0.00  0.00    -0.245 OA
ATOM      9  O   LIG d   1       6.928   1.719  -3.459  0.00  0.00    -0.422 OA
ATOM     10  C   LIG d   1       7.908   1.147  -4.192  0.00  0.00     0.146 A 
ATOM     11  C   LIG d   1       8.942   1.911  -4.712  0.00  0.00     0.034 A 
ATOM     12  H   LIG d   1      10.689  -0.530  -6.283  0.00  0.00     0.065 H 
ATOM     13  H   LIG d   1       8.880  -1.900  -5.377  0.00  0.00     0.063 H 
ENDROOT
BRANCH   1  14
ATOM     14  O   LIG d   1      10.948   2.052  -5.970  0.00  0.00    -0.482 OA
BRANCH  14  15
ATOM     15  C   LIG d   1      11.043   2.133  -7.394  0.00  0.00     0.165 C 
ATOM     16  H   LIG d   1      12.089   2.059  -7.692  0.00  0.00     0.080 H 
ATOM     17  H   LIG d   1      10.477   1.318  -7.842  0.00  0.00     0.080 H 
BRANCH  15  18
ATOM     18  C   LIG d   1      10.480   3.451  -7.861  0.00  0.00     0.253 C 
ATOM     19  N   LIG d   1       9.412   3.474  -8.682  0.00  0.00    -0.299 N 
ATOM     20  O   LIG d   1      10.988   4.491  -7.497  0.00  0.00    -0.272 OA
BRANCH  19  21
ATOM     21  C   LIG d   1       8.865   4.756  -9.136  0.00  0.00     0.012 C 
ATOM     22  H   LIG d   1       7.780   4.680  -9.214  0.00  0.00     0.046 H 
ATOM     23  H   LIG d   1       9.124   5.535  -8.420  0.00  0.00     0.046 H 
BRANCH  21  24
ATOM     24  C   LIG d   1       9.452   5.104 -10.505  0.00  0.00    -0.049 C 
ATOM     25  H   LIG d   1       9.851   6.118 -10.482  0.00  0.00     0.025 H 
ATOM     26  H   LIG d   1      10.252   4.405 -10.746  0.00  0.00     0.025 H 
ATOM     27  H   LIG d   1       8.671   5.038 -11.263  0.00  0.00     0.025 H 
ENDBRANCH  21  24
ENDBRANCH  19  21
BRANCH  19  28
ATOM     28  C   LIG d   1       8.799   2.219  -9.122  0.00  0.00     0.012 C 
ATOM     29  H   LIG d   1       8.528   2.295 -10.174  0.00  0.00     0.046 H 
ATOM     30  H   LIG d   1       9.508   1.401  -8.987  0.00  0.00     0.046 H 
BRANCH  28  31
ATOM     31  C   LIG d   1       7.544   1.947  -8.291  0.00  0.00    -0.049 C 
ATOM     32  H   LIG d   1       6.672   1.921  -8.945  0.00  0.00     0.025 H 
ATOM     33  H   LIG d   1       7.644   0.989  -7.782  0.00  0.00     0.025 H 
ATOM     34  H   LIG d   1       7.418   2.738  -7.551  0.00  0.00     0.025 H 
ENDBRANCH  28  31
ENDBRANCH  19  28
ENDBRANCH  15  18
ENDBRANCH  14  15
ENDBRANCH   1  14
BRANCH  11  35
ATOM     35  C   LIG d   1       8.982   3.397  -4.465  0.00  0.00    -0.033 C 
ATOM     36  H   LIG d   1       9.605   3.603  -3.593  0.00  0.00     0.028 H 
ATOM     37  H   LIG d   1       9.401   3.900  -5.336  0.00  0.00     0.028 H 
ATOM     38  H   LIG d   1       7.971   3.763  -4.285  0.00  0.00     0.028 H 
ENDBRANCH  11  35
BRANCH   5  39
ATOM     39  C   LIG d   1       6.720  -2.525  -4.111  0.00  0.00    -0.038 C 
ATOM     40  H   LIG d   1       6.565  -2.721  -5.172  0.00  0.00     0.028 H 
ATOM     41  H   LIG d   1       7.654  -2.985  -3.789  0.00  0.00     0.028 H 
ATOM     42  H   LIG d   1       5.892  -2.943  -3.539  0.00  0.00     0.028 H 
ENDBRANCH   5  39
BRANCH   6  43
ATOM     43  C   LIG d   1       4.688  -1.179  -2.560  0.00  0.00     0.077 C 
ATOM     44  H   LIG d   1       4.931  -2.241  -2.565  0.00  0.00     0.043 H 
ATOM     45  H   LIG d   1       4.515  -0.850  -1.536  0.00  0.00     0.043 H 
BRANCH  43  46
ATOM     46  C   LIG d   1       3.446  -0.944  -3.380  0.00  0.00     0.311 C 
ATOM     47  O   LIG d   1       2.365  -0.907  -2.843  0.00  0.00    -0.251 OA
BRANCH  46  48
ATOM     48  O   LIG d   1       3.541  -0.778  -4.709  0.00  0.00    -0.468 OA
BRANCH  48  49
ATOM     49  C   LIG d   1       2.796   0.325  -5.290  0.00  0.00     0.082 C 
ATOM     50  H   LIG d   1       2.313   0.895  -4.496  0.00  0.00     0.066 H 
ATOM     51  H   LIG d   1       3.477   0.973  -5.841  0.00  0.00     0.066 H 
ATOM     52  H   LIG d   1       2.038  -0.066  -5.968  0.00  0.00     0.066 H 
ENDBRANCH  48  49
ENDBRANCH  46  48
ENDBRANCH  43  46
ENDBRANCH   6  43
TORSDOF 13
ENDMDL
MODEL 8
REMARK VINA RESULT:      -5.1      6.836     10.011
REMARK  13 active torsions:
REMARK  status: ('A' for Active; 'I' for Inactive)
REMARK    1  A    between atoms: C_1  and  C_2 
REMARK    2  A    between atoms: C_2  and  N_3 
REMARK    3  A    between atoms: N_3  and  C_4 
REMARK       I    between atoms: N_3  and  C_6 
REMARK    4  A    between atoms: C_4  and  C_5 
REMARK    5  A    between atoms: C_6  and  C_8 
REMARK    6  A    between atoms: C_8  and  O_9 
REMARK    7  A    between atoms: O_9  and  C_10 
REMARK    8  A    between atoms: C_14  and  C_27 
REMARK    9  A    between atoms: C_15  and  C_22 
REMARK   10  A    between atoms: C_20  and  C_21 
REMARK   11  A    between atoms: C_22  and  C_23 
REMARK   12  A    between atoms: C_23  and  O_25 
REMARK   13  A    between atoms: O_25  and  C_26 
ROOT
ATOM      1  C   LIG d   1       8.819   2.268  -4.643  0.00  0.00     0.128 A 
ATOM      2  C   LIG d   1       9.287   3.090  -3.619  0.00  0.00    -0.019 A 
ATOM      3  C   LIG d   1       9.811   4.317  -3.903  0.00  0.00    -0.047 A 
ATOM      4  C   LIG d   1       9.880   4.755  -5.230  0.00  0.00     0.021 A 
ATOM      5  C   LIG d   1      10.436   6.067  -5.564  0.00  0.00    -0.029 A 
ATOM      6  C   LIG d   1      10.475   6.434  -6.872  0.00  0.00     0.051 A 
ATOM      7  C   LIG d   1       9.986   5.557  -7.861  0.00  0.00     0.341 A 
ATOM      8  O   LIG d   1      10.030   5.897  -9.030  0.00  0.00    -0.245 OA
ATOM      9  O   LIG d   1       9.476   4.356  -7.548  0.00  0.00    -0.422 OA
ATOM     10  C   LIG d   1       9.408   3.930  -6.269  0.00  0.00     0.146 A 
ATOM     11  C   LIG d   1       8.879   2.685  -5.963  0.00  0.00     0.034 A 
ATOM     12  H   LIG d   1       9.235   2.753  -2.594  0.00  0.00     0.065 H 
ATOM     13  H   LIG d   1      10.174   4.950  -3.105  0.00  0.00     0.063 H 
ENDROOT
BRANCH   1  14
ATOM     14  O   LIG d   1       8.301   1.050  -4.344  0.00  0.00    -0.482 OA
BRANCH  14  15
ATOM     15  C   LIG d   1       7.164   1.023  -3.480  0.00  0.00     0.165 C 
ATOM     16  H   LIG d   1       7.489   0.831  -2.458  0.00  0.00     0.080 H 
ATOM     17  H   LIG d   1       6.650   1.982  -3.525  0.00  0.00     0.080 H 
BRANCH  15  18
ATOM     18  C   LIG d   1       6.225  -0.071  -3.920  0.00  0.00     0.253 C 
ATOM     19  N   LIG d   1       5.090  -0.303  -3.230  0.00  0.00    -0.299 N 
ATOM     20  O   LIG d   1       6.490  -0.742  -4.896  0.00  0.00    -0.272 OA
BRANCH  19  21
ATOM     21  C   LIG d   1       4.177  -1.366  -3.659  0.00  0.00     0.012 C 
ATOM     22  H   LIG d   1       3.258  -0.922  -4.043  0.00  0.00     0.046 H 
ATOM     23  H   LIG d   1       4.651  -1.958  -4.443  0.00  0.00     0.046 H 
BRANCH  21  24
ATOM     24  C   LIG d   1       3.849  -2.268  -2.467  0.00  0.00    -0.049 C 
ATOM     25  H   LIG d   1       3.148  -3.042  -2.779  0.00  0.00     0.025 H 
ATOM     26  H   LIG d   1       4.764  -2.732  -2.100  0.00  0.00     0.025 H 
ATOM     27  H   LIG d   1       3.401  -1.670  -1.672  0.00  0.00     0.025 H 
ENDBRANCH  21  24
ENDBRANCH  19  21
BRANCH  19  28
ATOM     28  C   LIG d   1       4.770   0.506  -2.053  0.00  0.00     0.012 C 
ATOM     29  H   LIG d   1       4.493  -0.147  -1.226  0.00  0.00     0.046 H 
ATOM     30  H   LIG d   1       5.641   1.099  -1.772  0.00  0.00     0.046 H 
BRANCH  28  31
ATOM     31  C   LIG d   1       3.603   1.440  -2.379  0.00  0.00    -0.049 C 
ATOM     32  H   LIG d   1       3.396   1.405  -3.449  0.00  0.00     0.025 H 
ATOM     33  H   LIG d   1       2.718   1.123  -1.827  0.00  0.00     0.025 H 
ATOM     34  H   LIG d   1       3.862   2.460  -2.093  0.00  0.00     0.025 H 
ENDBRANCH  28  31
ENDBRANCH  19  28
ENDBRANCH  15  18
ENDBRANCH  14  15
ENDBRANCH   1  14
BRANCH  11  35
ATOM     35  C   LIG d   1       8.369   1.789  -7.062  0.00  0.00    -0.033 C 
ATOM     36  H   LIG d   1       7.462   2.219  -7.489  0.00  0.00     0.028 H 
ATOM     37  H   LIG d   1       9.128   1.699  -7.839  0.00  0.00     0.028 H 
ATOM     38  H   LIG d   1       8.148   0.803  -6.654  0.00  0.00     0.028 H 
ENDBRANCH  11  35
BRANCH   5  39
ATOM     39  C   LIG d   1      10.953   6.986  -4.486  0.00  0.00    -0.038 C 
ATOM     40  H   LIG d   1      10.126   7.299  -3.848  0.00  0.00     0.028 H 
ATOM     41  H   LIG d   1      11.695   6.459  -3.887  0.00  0.00     0.028 H 
ATOM     42  H   LIG d   1      11.411   7.862  -4.945  0.00  0.00     0.028 H 
ENDBRANCH   5  39
BRANCH   6  43
ATOM     43  C   LIG d   1      11.040   7.776  -7.264  0.00  0.00     0.077 C 
ATOM     44  H   LIG d   1      11.680   8.148  -6.464  0.00  0.00     0.043 H 
ATOM     45  H   LIG d   1      11.625   7.670  -8.177  0.00  0.00     0.043 H 
BRANCH  43  46
ATOM     46  C   LIG d   1       9.913   8.747  -7.498  0.00  0.00     0.311 C 
ATOM     47  O   LIG d   1       9.708   9.179  -8.607  0.00  0.00    -0.251 OA
BRANCH  46  48
ATOM     48  O   LIG d   1       9.136   9.132  -6.474  0.00  0.00    -0.468 OA
BRANCH  48  49
ATOM     49  C   LIG d   1       9.623  10.226  -5.652  0.00  0.00     0.082 C 
ATOM     50  H   LIG d   1       9.132  10.195  -4.678  0.00  0.00     0.066 H 
ATOM     51  H   LIG d   1      10.700  10.129  -5.519  0.00  0.00     0.066 H 
ATOM     52  H   LIG d   1       9.400  11.174  -6.140  0.00  0.00     0.066 H 
ENDBRANCH  48  49
ENDBRANCH  46  48
ENDBRANCH  43  46
ENDBRANCH   6  43
TORSDOF 13
ENDMDL
MODEL 9
REMARK VINA RESULT:      -5.1      2.804      3.548
REMARK  13 active torsions:
REMARK  status: ('A' for Active; 'I' for Inactive)
REMARK    1  A    between atoms: C_1  and  C_2 
REMARK    2  A    between atoms: C_2  and  N_3 
REMARK    3  A    between atoms: N_3  and  C_4 
REMARK       I    between atoms: N_3  and  C_6 
REMARK    4  A    between atoms: C_4  and  C_5 
REMARK    5  A    between atoms: C_6  and  C_8 
REMARK    6  A    between atoms: C_8  and  O_9 
REMARK    7  A    between atoms: O_9  and  C_10 
REMARK    8  A    between atoms: C_14  and  C_27 
REMARK    9  A    between atoms: C_15  and  C_22 
REMARK   10  A    between atoms: C_20  and  C_21 
REMARK   11  A    between atoms: C_22  and  C_23 
REMARK   12  A    between atoms: C_23  and  O_25 
REMARK   13  A    between atoms: O_25  and  C_26 
ROOT
ATOM      1  C   LIG d   1       4.088  -1.091  -7.601  0.00  0.00     0.128 A 
ATOM      2  C   LIG d   1       4.321  -2.463  -7.527  0.00  0.00    -0.019 A 
ATOM      3  C   LIG d   1       3.709  -3.316  -8.397  0.00  0.00    -0.047 A 
ATOM      4  C   LIG d   1       2.840  -2.812  -9.371  0.00  0.00     0.021 A 
ATOM      5  C   LIG d   1       2.169  -3.703 -10.319  0.00  0.00    -0.029 A 
ATOM      6  C   LIG d   1       1.336  -3.151 -11.241  0.00  0.00     0.051 A 
ATOM      7  C   LIG d   1       1.143  -1.756 -11.264  0.00  0.00     0.341 A 
ATOM      8  O   LIG d   1       0.391  -1.274 -12.093  0.00  0.00    -0.245 OA
ATOM      9  O   LIG d   1       1.761  -0.943 -10.393  0.00  0.00    -0.422 OA
ATOM     10  C   LIG d   1       2.600  -1.427  -9.451  0.00  0.00     0.146 A 
ATOM     11  C   LIG d   1       3.231  -0.573  -8.558  0.00  0.00     0.034 A 
ATOM     12  H   LIG d   1       4.992  -2.853  -6.775  0.00  0.00     0.065 H 
ATOM     13  H   LIG d   1       3.892  -4.379  -8.334  0.00  0.00     0.063 H 
ENDROOT
BRANCH   1  14
ATOM     14  O   LIG d   1       4.704  -0.255  -6.727  0.00  0.00    -0.482 OA
BRANCH  14  15
ATOM     15  C   LIG d   1       5.656  -0.837  -5.834  0.00  0.00     0.165 C 
ATOM     16  H   LIG d   1       5.364  -1.863  -5.610  0.00  0.00     0.080 H 
ATOM     17  H   LIG d   1       6.641  -0.831  -6.299  0.00  0.00     0.080 H 
BRANCH  15  18
ATOM     18  C   LIG d   1       5.700  -0.038  -4.557  0.00  0.00     0.253 C 
ATOM     19  N   LIG d   1       4.865  -0.343  -3.543  0.00  0.00    -0.299 N 
ATOM     20  O   LIG d   1       6.486   0.878  -4.440  0.00  0.00    -0.272 OA
BRANCH  19  21
ATOM     21  C   LIG d   1       4.908   0.433  -2.301  0.00  0.00     0.012 C 
ATOM     22  H   LIG d   1       4.848  -0.243  -1.448  0.00  0.00     0.046 H 
ATOM     23  H   LIG d   1       5.840   0.995  -2.255  0.00  0.00     0.046 H 
BRANCH  21  24
ATOM     24  C   LIG d   1       3.725   1.404  -2.266  0.00  0.00    -0.049 C 
ATOM     25  H   LIG d   1       3.808   2.108  -3.094  0.00  0.00     0.025 H 
ATOM     26  H   LIG d   1       2.794   0.845  -2.355  0.00  0.00     0.025 H 
ATOM     27  H   LIG d   1       3.732   1.950  -1.322  0.00  0.00     0.025 H 
ENDBRANCH  21  24
ENDBRANCH  19  21
BRANCH  19  28
ATOM     28  C   LIG d   1       3.915  -1.449  -3.683  0.00  0.00     0.012 C 
ATOM     29  H   LIG d   1       2.929  -1.054  -3.924  0.00  0.00     0.046 H 
ATOM     30  H   LIG d   1       4.246  -2.113  -4.483  0.00  0.00     0.046 H 
BRANCH  28  31
ATOM     31  C   LIG d   1       3.846  -2.230  -2.370  0.00  0.00    -0.049 C 
ATOM     32  H   LIG d   1       4.853  -2.374  -1.978  0.00  0.00     0.025 H 
ATOM     33  H   LIG d   1       3.251  -1.674  -1.646  0.00  0.00     0.025 H 
ATOM     34  H   LIG d   1       3.385  -3.202  -2.548  0.00  0.00     0.025 H 
ENDBRANCH  28  31
ENDBRANCH  19  28
ENDBRANCH  15  18
ENDBRANCH  14  15
ENDBRANCH   1  14
BRANCH  11  35
ATOM     35  C   LIG d   1       2.986   0.912  -8.631  0.00  0.00    -0.033 C 
ATOM     36  H   LIG d   1       1.955   1.124  -8.348  0.00  0.00     0.028 H 
ATOM     37  H   LIG d   1       3.663   1.425  -7.948  0.00  0.00     0.028 H 
ATOM     38  H   LIG d   1       3.164   1.260  -9.648  0.00  0.00     0.028 H 
ENDBRANCH  11  35
BRANCH   5  39
ATOM     39  C   LIG d   1       2.394  -5.193 -10.272  0.00  0.00    -0.038 C 
ATOM     40  H   LIG d   1       3.464  -5.397 -10.225  0.00  0.00     0.028 H 
ATOM     41  H   LIG d   1       1.906  -5.606  -9.389  0.00  0.00     0.028 H 
ATOM     42  H   LIG d   1       1.975  -5.652 -11.167  0.00  0.00     0.028 H 
ENDBRANCH   5  39
BRANCH   6  43
ATOM     43  C   LIG d   1       0.623  -4.030 -12.236  0.00  0.00     0.077 C 
ATOM     44  H   LIG d   1       0.637  -3.554 -13.216  0.00  0.00     0.043 H 
ATOM     45  H   LIG d   1       1.128  -4.995 -12.295  0.00  0.00     0.043 H 
BRANCH  43  46
ATOM     46  C   LIG d   1      -0.803  -4.234 -11.796  0.00  0.00     0.311 C 
ATOM     47  O   LIG d   1      -1.711  -3.943 -12.536  0.00  0.00    -0.251 OA
BRANCH  46  48
ATOM     48  O   LIG d   1      -1.064  -4.739 -10.580  0.00  0.00    -0.468 OA
BRANCH  48  49
ATOM     49  C   LIG d   1      -1.627  -6.077 -10.528  0.00  0.00     0.082 C 
ATOM     50  H   LIG d   1      -1.898  -6.395 -11.535  0.00  0.00     0.066 H 
ATOM     51  H   LIG d   1      -0.891  -6.765 -10.114  0.00  0.00     0.066 H 
ATOM     52  H   LIG d   1      -2.516  -6.072  -9.898  0.00  0.00     0.066 H 
ENDBRANCH  48  49
ENDBRANCH  46  48
ENDBRANCH  43  46
ENDBRANCH   6  43
TORSDOF 13
ENDMDL
MODEL 10
REMARK VINA RESULT:      -5.1      2.831      8.683
REMARK  13 active torsions:
REMARK  status: ('A' for Active; 'I' for Inactive)
REMARK    1  A    between atoms: C_1  and  C_2 
REMARK    2  A    between atoms: C_2  and  N_3 
REMARK    3  A    between atoms: N_3  and  C_4 
REMARK       I    between atoms: N_3  and  C_6 
REMARK    4  A    between atoms: C_4  and  C_5 
REMARK    5  A    between atoms: C_6  and  C_8 
REMARK    6  A    between atoms: C_8  and  O_9 
REMARK    7  A    between atoms: O_9  and  C_10 
REMARK    8  A    between atoms: C_14  and  C_27 
REMARK    9  A    between atoms: C_15  and  C_22 
REMARK   10  A    between atoms: C_20  and  C_21 
REMARK   11  A    between atoms: C_22  and  C_23 
REMARK   12  A    between atoms: C_23  and  O_25 
REMARK   13  A    between atoms: O_25  and  C_26 
ROOT
ATOM      1  C   LIG d   1       3.831  -0.603  -9.320  0.00  0.00     0.128 A 
ATOM      2  C   LIG d   1       3.114   0.476  -8.809  0.00  0.00    -0.019 A 
ATOM      3  C   LIG d   1       2.952   0.623  -7.462  0.00  0.00    -0.047 A 
ATOM      4  C   LIG d   1       3.511  -0.315  -6.588  0.00  0.00     0.021 A 
ATOM      5  C   LIG d   1       3.355  -0.183  -5.138  0.00  0.00    -0.029 A 
ATOM      6  C   LIG d   1       3.921  -1.128  -4.342  0.00  0.00     0.051 A 
ATOM      7  C   LIG d   1       4.635  -2.196  -4.921  0.00  0.00     0.341 A 
ATOM      8  O   LIG d   1       5.134  -3.038  -4.196  0.00  0.00    -0.245 OA
ATOM      9  O   LIG d   1       4.776  -2.312  -6.251  0.00  0.00    -0.422 OA
ATOM     10  C   LIG d   1       4.238  -1.408  -7.098  0.00  0.00     0.146 A 
ATOM     11  C   LIG d   1       4.391  -1.543  -8.470  0.00  0.00     0.034 A 
ATOM     12  H   LIG d   1       2.682   1.201  -9.483  0.00  0.00     0.065 H 
ATOM     13  H   LIG d   1       2.394   1.462  -7.071  0.00  0.00     0.063 H 
ENDROOT
BRANCH   1  14
ATOM     14  O   LIG d   1       3.982  -0.736 -10.662  0.00  0.00    -0.482 OA
BRANCH  14  15
ATOM     15  C   LIG d   1       2.863  -0.386 -11.479  0.00  0.00     0.165 C 
ATOM     16  H   LIG d   1       1.961  -0.360 -10.868  0.00  0.00     0.080 H 
ATOM     17  H   LIG d   1       3.030   0.594 -11.924  0.00  0.00     0.080 H 
BRANCH  15  18
ATOM     18  C   LIG d   1       2.698  -1.412 -12.571  0.00  0.00     0.253 C 
ATOM     19  N   LIG d   1       1.877  -2.465 -12.388  0.00  0.00    -0.299 N 
ATOM     20  O   LIG d   1       3.305  -1.290 -13.615  0.00  0.00    -0.272 OA
BRANCH  19  21
ATOM     21  C   LIG d   1       1.717  -3.462 -13.450  0.00  0.00     0.012 C 
ATOM     22  H   LIG d   1       2.525  -3.354 -14.175  0.00  0.00     0.046 H 
ATOM     23  H   LIG d   1       1.746  -4.462 -13.018  0.00  0.00     0.046 H 
BRANCH  21  24
ATOM     24  C   LIG d   1       0.373  -3.248 -14.150  0.00  0.00    -0.049 C 
ATOM     25  H   LIG d   1      -0.438  -3.480 -13.459  0.00  0.00     0.025 H 
ATOM     26  H   LIG d   1       0.291  -2.210 -14.471  0.00  0.00     0.025 H 
ATOM     27  H   LIG d   1       0.308  -3.903 -15.020  0.00  0.00     0.025 H 
ENDBRANCH  21  24
ENDBRANCH  19  21
BRANCH  19  28
ATOM     28  C   LIG d   1       1.145  -2.613 -11.128  0.00  0.00     0.012 C 
ATOM     29  H   LIG d   1       1.217  -1.689 -10.555  0.00  0.00     0.046 H 
ATOM     30  H   LIG d   1       0.098  -2.829 -11.340  0.00  0.00     0.046 H 
BRANCH  28  31
ATOM     31  C   LIG d   1       1.749  -3.763 -10.320  0.00  0.00    -0.049 C 
ATOM     32  H   LIG d   1       1.995  -4.589 -10.990  0.00  0.00     0.025 H 
ATOM     33  H   LIG d   1       2.653  -3.421  -9.819  0.00  0.00     0.025 H 
ATOM     34  H   LIG d   1       1.028  -4.103  -9.576  0.00  0.00     0.025 H 
ENDBRANCH  28  31
ENDBRANCH  19  28
ENDBRANCH  15  18
ENDBRANCH  14  15
ENDBRANCH   1  14
BRANCH  11  35
ATOM     35  C   LIG d   1       5.167  -2.706  -9.033  0.00  0.00    -0.033 C 
ATOM     36  H   LIG d   1       6.110  -2.807  -8.496  0.00  0.00     0.028 H 
ATOM     37  H   LIG d   1       4.584  -3.620  -8.919  0.00  0.00     0.028 H 
ATOM     38  H   LIG d   1       5.367  -2.531 -10.090  0.00  0.00     0.028 H 
ENDBRANCH  11  35
BRANCH   5  39
ATOM     39  C   LIG d   1       2.586   0.970  -4.545  0.00  0.00    -0.038 C 
ATOM     40  H   LIG d   1       3.152   1.892  -4.679  0.00  0.00     0.028 H 
ATOM     41  H   LIG d   1       1.622   1.059  -5.046  0.00  0.00     0.028 H 
ATOM     42  H   LIG d   1       2.428   0.792  -3.482  0.00  0.00     0.028 H 
ENDBRANCH   5  39
BRANCH   6  43
ATOM     43  C   LIG d   1       3.786  -1.033  -2.844  0.00  0.00     0.077 C 
ATOM     44  H   LIG d   1       2.792  -0.664  -2.592  0.00  0.00     0.043 H 
ATOM     45  H   LIG d   1       3.930  -2.019  -2.404  0.00  0.00     0.043 H 
BRANCH  43  46
ATOM     46  C   LIG d   1       4.825  -0.085  -2.305  0.00  0.00     0.311 C 
ATOM     47  O   LIG d   1       4.524   0.727  -1.462  0.00  0.00    -0.251 OA
BRANCH  46  48
ATOM     48  O   LIG d   1       6.085  -0.140  -2.762  0.00  0.00    -0.468 OA
BRANCH  48  49
ATOM     49  C   LIG d   1       6.604   1.050  -3.412  0.00  0.00     0.082 C 
ATOM     50  H   LIG d   1       6.747   0.851  -4.474  0.00  0.00     0.066 H 
ATOM     51  H   LIG d   1       5.897   1.870  -3.287  0.00  0.00     0.066 H 
ATOM     52  H   LIG d   1       7.559   1.322  -2.962  0.00  0.00     0.066 H 
ENDBRANCH  48  49
ENDBRANCH  46  48
ENDBRANCH  43  46
ENDBRANCH   6  43
TORSDOF 13
ENDMDL
