MODEL 1
REMARK VINA RESULT:      -5.8      0.000      0.000
REMARK  5 active torsions:
REMARK  status: ('A' for Active; 'I' for Inactive)
REMARK    1  A    between atoms: C_1  and  C_2 
REMARK    2  A    between atoms: C_8  and  C_12 
REMARK    3  A    between atoms: C_12  and  CA_13 
REMARK    4  A    between atoms: CA_13  and  C_15 
REMARK    5  A    between atoms: CA_13  and  N_29 
ROOT
ATOM      1  C   LIG d   1       4.520  -0.124  -2.495  0.00  0.00    -0.050 A 
ATOM      2  C   LIG d   1       4.137  -1.369  -2.014  0.00  0.00    -0.057 A 
ATOM      3  C   LIG d   1       4.035  -2.449  -2.862  0.00  0.00    -0.037 A 
ATOM      4  C   LIG d   1       4.317  -2.295  -4.216  0.00  0.00     0.047 A 
ATOM      5  C   LIG d   1       4.705  -1.031  -4.698  0.00  0.00     0.003 A 
ATOM      6  C   LIG d   1       4.801   0.051  -3.821  0.00  0.00    -0.049 A 
ATOM      7  C   LIG d   1       4.925  -1.198  -6.137  0.00  0.00    -0.017 A 
ATOM      8  C   LIG d   1       4.667  -2.483  -6.427  0.00  0.00     0.006 A 
ATOM      9  N   LIG d   1       4.308  -3.155  -5.290  0.00  0.00    -0.360 N 
ATOM     10  H   LIG d   1       4.077  -4.096  -5.249  0.00  0.00     0.165 HD
ATOM     11  H   LIG d   1       3.917  -1.492  -0.963  0.00  0.00     0.062 H 
ATOM     12  H   LIG d   1       3.737  -3.413  -2.478  0.00  0.00     0.064 H 
ATOM     13  H   LIG d   1       5.098   1.022  -4.188  0.00  0.00     0.063 H 
ATOM     14  H   LIG d   1       4.735  -2.922  -7.411  0.00  0.00     0.081 H 
ENDROOT
BRANCH   7  15
ATOM     15  C   LIG d   1       5.355  -0.129  -7.108  0.00  0.00     0.023 C 
ATOM     16  H   LIG d   1       5.736   0.731  -6.557  0.00  0.00     0.037 H 
ATOM     17  H   LIG d   1       6.140  -0.521  -7.755  0.00  0.00     0.037 H 
BRANCH  15  18
ATOM     18  CA  LIG d   1       4.158   0.300  -7.958  0.00  0.00     0.020 C 
ATOM     19  HA  LIG d   1       3.738  -0.572  -8.459  0.00  0.00     0.092 H 
BRANCH  18  20
ATOM     20  C   LIG d   1       4.608   1.302  -8.990  0.00  0.00     0.090 C 
ATOM     21  O   LIG d   1       4.027   1.382 -10.047  0.00  0.00    -0.544 OA
ATOM     22  OXT LIG d   1       5.651   2.107  -8.735  0.00  0.00    -0.544 OA
ENDBRANCH  18  20
BRANCH  18  23
ATOM     23  N   LIG d   1       3.134   0.889  -7.079  0.00  0.00     0.225 N 
ATOM     24  H1  LIG d   1       3.544   1.630  -6.513  0.00  0.00     0.200 HD
ATOM     25  H2  LIG d   1       2.373   1.273  -7.638  0.00  0.00     0.200 HD
ATOM     26  H3  LIG d   1       2.761   0.161  -6.459  0.00  0.00     0.200 HD
ENDBRANCH  18  23
ENDBRANCH  15  18
ENDBRANCH   7  15
BRANCH   1  27
ATOM     27  C   LIG d   1       4.625   1.043  -1.548  0.00  0.00    -0.040 C 
ATOM     28  H   LIG d   1       5.330   1.773  -1.947  0.00  0.00     0.028 H 
ATOM     29  H   LIG d   1       3.646   1.509  -1.435  0.00  0.00     0.028 H 
ATOM     30  H   LIG d   1       4.975   0.692  -0.577  0.00  0.00     0.028 H 
ENDBRANCH   1  27
TORSDOF 5
ENDMDL
MODEL 2
REMARK VINA RESULT:      -5.5      3.447      5.056
REMARK  5 active torsions:
REMARK  status: ('A' for Active; 'I' for Inactive)
REMARK    1  A    between atoms: C_1  and  C_2 
REMARK    2  A    between atoms: C_8  and  C_12 
REMARK    3  A    between atoms: C_12  and  CA_13 
REMARK    4  A    between atoms: CA_13  and  C_15 
REMARK    5  A    between atoms: CA_13  and  N_29 
ROOT
ATOM      1  C   LIG d   1       5.270  -4.796  -5.542  0.00  0.00    -0.050 A 
ATOM      2  C   LIG d   1       6.638  -4.893  -5.759  0.00  0.00    -0.057 A 
ATOM      3  C   LIG d   1       7.508  -4.004  -5.170  0.00  0.00    -0.037 A 
ATOM      4  C   LIG d   1       7.015  -2.996  -4.348  0.00  0.00     0.047 A 
ATOM      5  C   LIG d   1       5.628  -2.901  -4.131  0.00  0.00     0.003 A 
ATOM      6  C   LIG d   1       4.764  -3.813  -4.739  0.00  0.00    -0.049 A 
ATOM      7  C   LIG d   1       5.436  -1.757  -3.237  0.00  0.00    -0.017 A 
ATOM      8  C   LIG d   1       6.652  -1.249  -2.983  0.00  0.00     0.006 A 
ATOM      9  N   LIG d   1       7.608  -1.980  -3.634  0.00  0.00    -0.360 N 
ATOM     10  H   LIG d   1       8.562  -1.805  -3.600  0.00  0.00     0.165 HD
ATOM     11  H   LIG d   1       7.024  -5.676  -6.398  0.00  0.00     0.062 H 
ATOM     12  H   LIG d   1       8.570  -4.089  -5.345  0.00  0.00     0.064 H 
ATOM     13  H   LIG d   1       3.698  -3.743  -4.575  0.00  0.00     0.063 H 
ATOM     14  H   LIG d   1       6.847  -0.391  -2.356  0.00  0.00     0.081 H 
ENDROOT
BRANCH   7  15
ATOM     15  C   LIG d   1       4.121  -1.244  -2.707  0.00  0.00     0.023 C 
ATOM     16  H   LIG d   1       3.410  -2.067  -2.640  0.00  0.00     0.037 H 
ATOM     17  H   LIG d   1       4.273  -0.813  -1.717  0.00  0.00     0.037 H 
BRANCH  15  18
ATOM     18  CA  LIG d   1       3.574  -0.173  -3.653  0.00  0.00     0.020 C 
ATOM     19  HA  LIG d   1       4.178  -0.146  -4.560  0.00  0.00     0.092 H 
BRANCH  18  20
ATOM     20  C   LIG d   1       3.629   1.172  -2.974  0.00  0.00     0.090 C 
ATOM     21  O   LIG d   1       3.439   2.179  -3.615  0.00  0.00    -0.544 OA
ATOM     22  OXT LIG d   1       3.887   1.251  -1.660  0.00  0.00    -0.544 OA
ENDBRANCH  18  20
BRANCH  18  23
ATOM     23  N   LIG d   1       2.186  -0.514  -4.009  0.00  0.00     0.225 N 
ATOM     24  H1  LIG d   1       1.895   0.016  -4.828  0.00  0.00     0.200 HD
ATOM     25  H2  LIG d   1       2.111  -1.512  -4.206  0.00  0.00     0.200 HD
ATOM     26  H3  LIG d   1       1.569  -0.281  -3.223  0.00  0.00     0.200 HD
ENDBRANCH  18  23
ENDBRANCH  15  18
ENDBRANCH   7  15
BRANCH   1  27
ATOM     27  C   LIG d   1       4.337  -5.781  -6.198  0.00  0.00    -0.040 C 
ATOM     28  H   LIG d   1       4.917  -6.581  -6.659  0.00  0.00     0.028 H 
ATOM     29  H   LIG d   1       3.669  -6.203  -5.448  0.00  0.00     0.028 H 
ATOM     30  H   LIG d   1       3.749  -5.271  -6.962  0.00  0.00     0.028 H 
ENDBRANCH   1  27
TORSDOF 5
ENDMDL
MODEL 3
REMARK VINA RESULT:      -5.3      1.971      2.383
REMARK  5 active torsions:
REMARK  status: ('A' for Active; 'I' for Inactive)
REMARK    1  A    between atoms: C_1  and  C_2 
REMARK    2  A    between atoms: C_8  and  C_12 
REMARK    3  A    between atoms: C_12  and  CA_13 
REMARK    4  A    between atoms: CA_13  and  C_15 
REMARK    5  A    between atoms: CA_13  and  N_29 
ROOT
ATOM      1  C   LIG d   1       4.483  -0.108  -2.499  0.00  0.00    -0.050 A 
ATOM      2  C   LIG d   1       4.149  -1.345  -1.966  0.00  0.00    -0.057 A 
ATOM      3  C   LIG d   1       4.065  -2.459  -2.772  0.00  0.00    -0.037 A 
ATOM      4  C   LIG d   1       4.318  -2.346  -4.136  0.00  0.00     0.047 A 
ATOM      5  C   LIG d   1       4.657  -1.090  -4.671  0.00  0.00     0.003 A 
ATOM      6  C   LIG d   1       4.735   0.026  -3.836  0.00  0.00    -0.049 A 
ATOM      7  C   LIG d   1       4.857  -1.303  -6.107  0.00  0.00    -0.017 A 
ATOM      8  C   LIG d   1       4.634  -2.605  -6.345  0.00  0.00     0.006 A 
ATOM      9  N   LIG d   1       4.316  -3.245  -5.178  0.00  0.00    -0.360 N 
ATOM     10  H   LIG d   1       4.116  -4.191  -5.098  0.00  0.00     0.165 HD
ATOM     11  H   LIG d   1       3.952  -1.436  -0.907  0.00  0.00     0.062 H 
ATOM     12  H   LIG d   1       3.805  -3.417  -2.347  0.00  0.00     0.064 H 
ATOM     13  H   LIG d   1       4.995   0.992  -4.244  0.00  0.00     0.063 H 
ATOM     14  H   LIG d   1       4.698  -3.078  -7.314  0.00  0.00     0.081 H 
ENDROOT
BRANCH   7  15
ATOM     15  C   LIG d   1       5.236  -0.258  -7.124  0.00  0.00     0.023 C 
ATOM     16  H   LIG d   1       4.666  -0.419  -8.039  0.00  0.00     0.037 H 
ATOM     17  H   LIG d   1       5.013   0.733  -6.727  0.00  0.00     0.037 H 
BRANCH  15  18
ATOM     18  CA  LIG d   1       6.731  -0.362  -7.429  0.00  0.00     0.020 C 
ATOM     19  HA  LIG d   1       7.028  -1.411  -7.443  0.00  0.00     0.092 H 
BRANCH  18  20
ATOM     20  C   LIG d   1       7.513   0.366  -6.365  0.00  0.00     0.090 C 
ATOM     21  O   LIG d   1       7.421   1.567  -6.263  0.00  0.00    -0.544 OA
ATOM     22  OXT LIG d   1       8.309  -0.320  -5.530  0.00  0.00    -0.544 OA
ENDBRANCH  18  20
BRANCH  18  23
ATOM     23  N   LIG d   1       6.991   0.229  -8.754  0.00  0.00     0.225 N 
ATOM     24  H1  LIG d   1       6.564  -0.342  -9.480  0.00  0.00     0.200 HD
ATOM     25  H2  LIG d   1       6.609   1.173  -8.796  0.00  0.00     0.200 HD
ATOM     26  H3  LIG d   1       8.004   0.270  -8.912  0.00  0.00     0.200 HD
ENDBRANCH  18  23
ENDBRANCH  15  18
ENDBRANCH   7  15
BRANCH   1  27
ATOM     27  C   LIG d   1       4.569   1.096  -1.598  0.00  0.00    -0.040 C 
ATOM     28  H   LIG d   1       4.602   0.771  -0.558  0.00  0.00     0.028 H 
ATOM     29  H   LIG d   1       5.471   1.662  -1.831  0.00  0.00     0.028 H 
ATOM     30  H   LIG d   1       3.694   1.729  -1.753  0.00  0.00     0.028 H 
ENDBRANCH   1  27
TORSDOF 5
ENDMDL
MODEL 4
REMARK VINA RESULT:      -5.3      1.994      2.610
REMARK  5 active torsions:
REMARK  status: ('A' for Active; 'I' for Inactive)
REMARK    1  A    between atoms: C_1  and  C_2 
REMARK    2  A    between atoms: C_8  and  C_12 
REMARK    3  A    between atoms: C_12  and  CA_13 
REMARK    4  A    between atoms: CA_13  and  C_15 
REMARK    5  A    between atoms: CA_13  and  N_29 
ROOT
ATOM      1  C   LIG d   1       5.839  -1.721  -3.577  0.00  0.00    -0.050 A 
ATOM      2  C   LIG d   1       4.951  -1.757  -2.511  0.00  0.00    -0.057 A 
ATOM      3  C   LIG d   1       3.672  -1.266  -2.643  0.00  0.00    -0.037 A 
ATOM      4  C   LIG d   1       3.261  -0.727  -3.859  0.00  0.00     0.047 A 
ATOM      5  C   LIG d   1       4.164  -0.693  -4.937  0.00  0.00     0.003 A 
ATOM      6  C   LIG d   1       5.457  -1.196  -4.780  0.00  0.00    -0.049 A 
ATOM      7  C   LIG d   1       3.440  -0.076  -6.051  0.00  0.00    -0.017 A 
ATOM      8  C   LIG d   1       2.208   0.216  -5.605  0.00  0.00     0.006 A 
ATOM      9  N   LIG d   1       2.081  -0.171  -4.299  0.00  0.00    -0.360 N 
ATOM     10  H   LIG d   1       1.280  -0.065  -3.762  0.00  0.00     0.165 HD
ATOM     11  H   LIG d   1       5.268  -2.174  -1.565  0.00  0.00     0.062 H 
ATOM     12  H   LIG d   1       2.989  -1.299  -1.808  0.00  0.00     0.064 H 
ATOM     13  H   LIG d   1       6.153  -1.171  -5.606  0.00  0.00     0.063 H 
ATOM     14  H   LIG d   1       1.432   0.686  -6.191  0.00  0.00     0.081 H 
ENDROOT
BRANCH   7  15
ATOM     15  C   LIG d   1       3.978   0.185  -7.435  0.00  0.00     0.023 C 
ATOM     16  H   LIG d   1       4.919   0.730  -7.362  0.00  0.00     0.037 H 
ATOM     17  H   LIG d   1       4.146  -0.765  -7.944  0.00  0.00     0.037 H 
BRANCH  15  18
ATOM     18  CA  LIG d   1       2.967   1.017  -8.226  0.00  0.00     0.020 C 
ATOM     19  HA  LIG d   1       2.080   1.189  -7.615  0.00  0.00     0.092 H 
BRANCH  18  20
ATOM     20  C   LIG d   1       2.575   0.274  -9.478  0.00  0.00     0.090 C 
ATOM     21  O   LIG d   1       3.149   0.498 -10.518  0.00  0.00    -0.544 OA
ATOM     22  OXT LIG d   1       1.590  -0.637  -9.438  0.00  0.00    -0.544 OA
ENDBRANCH  18  20
BRANCH  18  23
ATOM     23  N   LIG d   1       3.577   2.314  -8.566  0.00  0.00     0.225 N 
ATOM     24  H1  LIG d   1       2.873   2.940  -8.952  0.00  0.00     0.200 HD
ATOM     25  H2  LIG d   1       3.986   2.736  -7.734  0.00  0.00     0.200 HD
ATOM     26  H3  LIG d   1       4.314   2.167  -9.265  0.00  0.00     0.200 HD
ENDBRANCH  18  23
ENDBRANCH  15  18
ENDBRANCH   7  15
BRANCH   1  27
ATOM     27  C   LIG d   1       7.234  -2.264  -3.408  0.00  0.00    -0.040 C 
ATOM     28  H   LIG d   1       7.295  -2.828  -2.477  0.00  0.00     0.028 H 
ATOM     29  H   LIG d   1       7.473  -2.918  -4.245  0.00  0.00     0.028 H 
ATOM     30  H   LIG d   1       7.944  -1.437  -3.379  0.00  0.00     0.028 H 
ENDBRANCH   1  27
TORSDOF 5
ENDMDL
MODEL 5
REMARK VINA RESULT:      -5.2      3.734      4.474
REMARK  5 active torsions:
REMARK  status: ('A' for Active; 'I' for Inactive)
REMARK    1  A    between atoms: C_1  and  C_2 
REMARK    2  A    between atoms: C_8  and  C_12 
REMARK    3  A    between atoms: C_12  and  CA_13 
REMARK    4  A    between atoms: CA_13  and  C_15 
REMARK    5  A    between atoms: CA_13  and  N_29 
ROOT
ATOM      1  C   LIG d   1       6.514   0.859  -3.450  0.00  0.00    -0.050 A 
ATOM      2  C   LIG d   1       5.621   1.302  -2.484  0.00  0.00    -0.057 A 
ATOM      3  C   LIG d   1       4.606   0.486  -2.037  0.00  0.00    -0.037 A 
ATOM      4  C   LIG d   1       4.472  -0.798  -2.557  0.00  0.00     0.047 A 
ATOM      5  C   LIG d   1       5.380  -1.243  -3.536  0.00  0.00     0.003 A 
ATOM      6  C   LIG d   1       6.401  -0.398  -3.975  0.00  0.00    -0.049 A 
ATOM      7  C   LIG d   1       4.975  -2.610  -3.872  0.00  0.00    -0.017 A 
ATOM      8  C   LIG d   1       3.900  -2.896  -3.121  0.00  0.00     0.006 A 
ATOM      9  N   LIG d   1       3.588  -1.827  -2.326  0.00  0.00    -0.360 N 
ATOM     10  H   LIG d   1       2.851  -1.798  -1.695  0.00  0.00     0.165 HD
ATOM     11  H   LIG d   1       5.723   2.299  -2.078  0.00  0.00     0.062 H 
ATOM     12  H   LIG d   1       3.917   0.839  -1.285  0.00  0.00     0.064 H 
ATOM     13  H   LIG d   1       7.099  -0.736  -4.726  0.00  0.00     0.063 H 
ATOM     14  H   LIG d   1       3.361  -3.832  -3.141  0.00  0.00     0.081 H 
ENDROOT
BRANCH   7  15
ATOM     15  C   LIG d   1       5.637  -3.520  -4.874  0.00  0.00     0.023 C 
ATOM     16  H   LIG d   1       6.608  -3.111  -5.151  0.00  0.00     0.037 H 
ATOM     17  H   LIG d   1       5.772  -4.508  -4.433  0.00  0.00     0.037 H 
BRANCH  15  18
ATOM     18  CA  LIG d   1       4.757  -3.633  -6.120  0.00  0.00     0.020 C 
ATOM     19  HA  LIG d   1       3.994  -2.854  -6.098  0.00  0.00     0.092 H 
BRANCH  18  20
ATOM     20  C   LIG d   1       4.090  -4.985  -6.144  0.00  0.00     0.090 C 
ATOM     21  O   LIG d   1       3.484  -5.342  -7.126  0.00  0.00    -0.544 OA
ATOM     22  OXT LIG d   1       4.171  -5.792  -5.075  0.00  0.00    -0.544 OA
ENDBRANCH  18  20
BRANCH  18  23
ATOM     23  N   LIG d   1       5.596  -3.451  -7.317  0.00  0.00     0.225 N 
ATOM     24  H1  LIG d   1       6.320  -4.167  -7.348  0.00  0.00     0.200 HD
ATOM     25  H2  LIG d   1       5.023  -3.513  -8.157  0.00  0.00     0.200 HD
ATOM     26  H3  LIG d   1       6.040  -2.527  -7.281  0.00  0.00     0.200 HD
ENDBRANCH  18  23
ENDBRANCH  15  18
ENDBRANCH   7  15
BRANCH   1  27
ATOM     27  C   LIG d   1       7.616   1.770  -3.923  0.00  0.00    -0.040 C 
ATOM     28  H   LIG d   1       7.432   2.059  -4.958  0.00  0.00     0.028 H 
ATOM     29  H   LIG d   1       7.645   2.662  -3.297  0.00  0.00     0.028 H 
ATOM     30  H   LIG d   1       8.572   1.250  -3.856  0.00  0.00     0.028 H 
ENDBRANCH   1  27
TORSDOF 5
ENDMDL
MODEL 6
REMARK VINA RESULT:      -5.1      4.011      4.682
REMARK  5 active torsions:
REMARK  status: ('A' for Active; 'I' for Inactive)
REMARK    1  A    between atoms: C_1  and  C_2 
REMARK    2  A    between atoms: C_8  and  C_12 
REMARK    3  A    between atoms: C_12  and  CA_13 
REMARK    4  A    between atoms: CA_13  and  C_15 
REMARK    5  A    between atoms: CA_13  and  N_29 
ROOT
ATOM      1  C   LIG d   1       3.989  -0.892  -3.069  0.00  0.00    -0.050 A 
ATOM      2  C   LIG d   1       4.813   0.166  -2.709  0.00  0.00    -0.057 A 
ATOM      3  C   LIG d   1       6.167   0.117  -2.950  0.00  0.00    -0.037 A 
ATOM      4  C   LIG d   1       6.721  -1.004  -3.561  0.00  0.00     0.047 A 
ATOM      5  C   LIG d   1       5.883  -2.075  -3.924  0.00  0.00     0.003 A 
ATOM      6  C   LIG d   1       4.512  -2.004  -3.669  0.00  0.00    -0.049 A 
ATOM      7  C   LIG d   1       6.754  -3.082  -4.532  0.00  0.00    -0.017 A 
ATOM      8  C   LIG d   1       8.004  -2.592  -4.498  0.00  0.00     0.006 A 
ATOM      9  N   LIG d   1       8.002  -1.349  -3.927  0.00  0.00    -0.360 N 
ATOM     10  H   LIG d   1       8.788  -0.795  -3.795  0.00  0.00     0.165 HD
ATOM     11  H   LIG d   1       4.386   1.039  -2.235  0.00  0.00     0.062 H 
ATOM     12  H   LIG d   1       6.799   0.946  -2.667  0.00  0.00     0.064 H 
ATOM     13  H   LIG d   1       3.866  -2.824  -3.946  0.00  0.00     0.063 H 
ATOM     14  H   LIG d   1       8.880  -3.103  -4.869  0.00  0.00     0.081 H 
ENDROOT
BRANCH   7  15
ATOM     15  C   LIG d   1       6.330  -4.419  -5.085  0.00  0.00     0.023 C 
ATOM     16  H   LIG d   1       7.211  -4.978  -5.399  0.00  0.00     0.037 H 
ATOM     17  H   LIG d   1       5.800  -4.979  -4.314  0.00  0.00     0.037 H 
BRANCH  15  18
ATOM     18  CA  LIG d   1       5.407  -4.204  -6.285  0.00  0.00     0.020 C 
ATOM     19  HA  LIG d   1       5.074  -3.166  -6.307  0.00  0.00     0.092 H 
BRANCH  18  20
ATOM     20  C   LIG d   1       4.209  -5.112  -6.168  0.00  0.00     0.090 C 
ATOM     21  O   LIG d   1       3.446  -5.227  -7.097  0.00  0.00    -0.544 OA
ATOM     22  OXT LIG d   1       3.993  -5.792  -5.032  0.00  0.00    -0.544 OA
ENDBRANCH  18  20
BRANCH  18  23
ATOM     23  N   LIG d   1       6.155  -4.494  -7.521  0.00  0.00     0.225 N 
ATOM     24  H1  LIG d   1       6.007  -3.751  -8.201  0.00  0.00     0.200 HD
ATOM     25  H2  LIG d   1       7.150  -4.574  -7.316  0.00  0.00     0.200 HD
ATOM     26  H3  LIG d   1       5.822  -5.381  -7.916  0.00  0.00     0.200 HD
ENDBRANCH  18  23
ENDBRANCH  15  18
ENDBRANCH   7  15
BRANCH   1  27
ATOM     27  C   LIG d   1       2.510  -0.816  -2.795  0.00  0.00    -0.040 C 
ATOM     28  H   LIG d   1       1.973  -1.425  -3.522  0.00  0.00     0.028 H 
ATOM     29  H   LIG d   1       2.307  -1.185  -1.791  0.00  0.00     0.028 H 
ATOM     30  H   LIG d   1       2.179   0.220  -2.875  0.00  0.00     0.028 H 
ENDBRANCH   1  27
TORSDOF 5
ENDMDL
MODEL 7
REMARK VINA RESULT:      -5.0      2.997      5.123
REMARK  5 active torsions:
REMARK  status: ('A' for Active; 'I' for Inactive)
REMARK    1  A    between atoms: C_1  and  C_2 
REMARK    2  A    between atoms: C_8  and  C_12 
REMARK    3  A    between atoms: C_12  and  CA_13 
REMARK    4  A    between atoms: CA_13  and  C_15 
REMARK    5  A    between atoms: CA_13  and  N_29 
ROOT
ATOM      1  C   LIG d   1       3.063   0.727  -8.579  0.00  0.00    -0.050 A 
ATOM      2  C   LIG d   1       2.836  -0.336  -9.443  0.00  0.00    -0.057 A 
ATOM      3  C   LIG d   1       3.163  -1.622  -9.078  0.00  0.00    -0.037 A 
ATOM      4  C   LIG d   1       3.728  -1.863  -7.829  0.00  0.00     0.047 A 
ATOM      5  C   LIG d   1       3.956  -0.783  -6.956  0.00  0.00     0.003 A 
ATOM      6  C   LIG d   1       3.617   0.513  -7.348  0.00  0.00    -0.049 A 
ATOM      7  C   LIG d   1       4.550  -1.358  -5.747  0.00  0.00    -0.017 A 
ATOM      8  C   LIG d   1       4.646  -2.682  -5.949  0.00  0.00     0.006 A 
ATOM      9  N   LIG d   1       4.155  -3.002  -7.185  0.00  0.00    -0.360 N 
ATOM     10  H   LIG d   1       4.117  -3.899  -7.555  0.00  0.00     0.165 HD
ATOM     11  H   LIG d   1       2.397  -0.152 -10.414  0.00  0.00     0.062 H 
ATOM     12  H   LIG d   1       2.982  -2.442  -9.757  0.00  0.00     0.064 H 
ATOM     13  H   LIG d   1       3.791   1.345  -6.681  0.00  0.00     0.063 H 
ATOM     14  H   LIG d   1       5.050  -3.390  -5.240  0.00  0.00     0.081 H 
ENDROOT
BRANCH   7  15
ATOM     15  C   LIG d   1       4.976  -0.607  -4.512  0.00  0.00     0.023 C 
ATOM     16  H   LIG d   1       5.366  -1.309  -3.776  0.00  0.00     0.037 H 
ATOM     17  H   LIG d   1       5.753   0.112  -4.776  0.00  0.00     0.037 H 
BRANCH  15  18
ATOM     18  CA  LIG d   1       3.773   0.133  -3.925  0.00  0.00     0.020 C 
ATOM     19  HA  LIG d   1       3.351   0.798  -4.679  0.00  0.00     0.092 H 
BRANCH  18  20
ATOM     20  C   LIG d   1       4.215   0.944  -2.733  0.00  0.00     0.090 C 
ATOM     21  O   LIG d   1       3.396   1.349  -1.942  0.00  0.00    -0.544 OA
ATOM     22  OXT LIG d   1       5.516   1.215  -2.551  0.00  0.00    -0.544 OA
ENDBRANCH  18  20
BRANCH  18  23
ATOM     23  N   LIG d   1       2.753  -0.852  -3.528  0.00  0.00     0.225 N 
ATOM     24  H1  LIG d   1       3.147  -1.514  -2.861  0.00  0.00     0.200 HD
ATOM     25  H2  LIG d   1       1.956  -0.378  -3.104  0.00  0.00     0.200 HD
ATOM     26  H3  LIG d   1       2.435  -1.363  -4.359  0.00  0.00     0.200 HD
ENDBRANCH  18  23
ENDBRANCH  15  18
ENDBRANCH   7  15
BRANCH   1  27
ATOM     27  C   LIG d   1       2.696   2.125  -9.002  0.00  0.00    -0.040 C 
ATOM     28  H   LIG d   1       1.625   2.278  -8.865  0.00  0.00     0.028 H 
ATOM     29  H   LIG d   1       3.246   2.844  -8.395  0.00  0.00     0.028 H 
ATOM     30  H   LIG d   1       2.952   2.266 -10.052  0.00  0.00     0.028 H 
ENDBRANCH   1  27
TORSDOF 5
ENDMDL
MODEL 8
REMARK VINA RESULT:      -5.0      3.890      4.900
REMARK  5 active torsions:
REMARK  status: ('A' for Active; 'I' for Inactive)
REMARK    1  A    between atoms: C_1  and  C_2 
REMARK    2  A    between atoms: C_8  and  C_12 
REMARK    3  A    between atoms: C_12  and  CA_13 
REMARK    4  A    between atoms: CA_13  and  C_15 
REMARK    5  A    between atoms: CA_13  and  N_29 
ROOT
ATOM      1  C   LIG d   1       4.573  -1.196  -2.519  0.00  0.00    -0.050 A 
ATOM      2  C   LIG d   1       4.215   0.090  -2.136  0.00  0.00    -0.057 A 
ATOM      3  C   LIG d   1       4.991   1.171  -2.489  0.00  0.00    -0.037 A 
ATOM      4  C   LIG d   1       6.149   0.976  -3.237  0.00  0.00     0.047 A 
ATOM      5  C   LIG d   1       6.507  -0.329  -3.623  0.00  0.00     0.003 A 
ATOM      6  C   LIG d   1       5.705  -1.410  -3.253  0.00  0.00    -0.049 A 
ATOM      7  C   LIG d   1       7.752  -0.198  -4.384  0.00  0.00    -0.017 A 
ATOM      8  C   LIG d   1       8.060   1.108  -4.410  0.00  0.00     0.006 A 
ATOM      9  N   LIG d   1       7.111   1.825  -3.734  0.00  0.00    -0.360 N 
ATOM     10  H   LIG d   1       7.117   2.789  -3.619  0.00  0.00     0.165 HD
ATOM     11  H   LIG d   1       3.317   0.245  -1.555  0.00  0.00     0.062 H 
ATOM     12  H   LIG d   1       4.704   2.167  -2.187  0.00  0.00     0.064 H 
ATOM     13  H   LIG d   1       5.978  -2.413  -3.547  0.00  0.00     0.063 H 
ATOM     14  H   LIG d   1       8.929   1.531  -4.893  0.00  0.00     0.081 H 
ENDROOT
BRANCH   7  15
ATOM     15  C   LIG d   1       8.539  -1.318  -5.015  0.00  0.00     0.023 C 
ATOM     16  H   LIG d   1       8.634  -2.140  -4.306  0.00  0.00     0.037 H 
ATOM     17  H   LIG d   1       8.021  -1.667  -5.909  0.00  0.00     0.037 H 
BRANCH  15  18
ATOM     18  CA  LIG d   1       9.931  -0.810  -5.396  0.00  0.00     0.020 C 
ATOM     19  HA  LIG d   1      10.000   0.257  -5.183  0.00  0.00     0.092 H 
BRANCH  18  20
ATOM     20  C   LIG d   1      10.164  -1.043  -6.868  0.00  0.00     0.090 C 
ATOM     21  O   LIG d   1       9.384  -1.711  -7.505  0.00  0.00    -0.544 OA
ATOM     22  OXT LIG d   1      11.237  -0.507  -7.470  0.00  0.00    -0.544 OA
ENDBRANCH  18  20
BRANCH  18  23
ATOM     23  N   LIG d   1      10.937  -1.527  -4.595  0.00  0.00     0.225 N 
ATOM     24  H1  LIG d   1      11.785  -1.665  -5.142  0.00  0.00     0.200 HD
ATOM     25  H2  LIG d   1      11.159  -0.994  -3.755  0.00  0.00     0.200 HD
ATOM     26  H3  LIG d   1      10.562  -2.442  -4.322  0.00  0.00     0.200 HD
ENDBRANCH  18  23
ENDBRANCH  15  18
ENDBRANCH   7  15
BRANCH   1  27
ATOM     27  C   LIG d   1       3.707  -2.362  -2.121  0.00  0.00    -0.040 C 
ATOM     28  H   LIG d   1       2.865  -2.442  -2.809  0.00  0.00     0.028 H 
ATOM     29  H   LIG d   1       4.294  -3.279  -2.157  0.00  0.00     0.028 H 
ATOM     30  H   LIG d   1       3.335  -2.209  -1.107  0.00  0.00     0.028 H 
ENDBRANCH   1  27
TORSDOF 5
ENDMDL
MODEL 9
REMARK VINA RESULT:      -4.9      3.708      4.035
REMARK  5 active torsions:
REMARK  status: ('A' for Active; 'I' for Inactive)
REMARK    1  A    between atoms: C_1  and  C_2 
REMARK    2  A    between atoms: C_8  and  C_12 
REMARK    3  A    between atoms: C_12  and  CA_13 
REMARK    4  A    between atoms: CA_13  and  C_15 
REMARK    5  A    between atoms: CA_13  and  N_29 
ROOT
ATOM      1  C   LIG d   1       4.554   0.037  -2.315  0.00  0.00    -0.050 A 
ATOM      2  C   LIG d   1       3.309  -0.525  -2.561  0.00  0.00    -0.057 A 
ATOM      3  C   LIG d   1       3.193  -1.687  -3.291  0.00  0.00    -0.037 A 
ATOM      4  C   LIG d   1       4.335  -2.307  -3.790  0.00  0.00     0.047 A 
ATOM      5  C   LIG d   1       5.595  -1.734  -3.539  0.00  0.00     0.003 A 
ATOM      6  C   LIG d   1       5.689  -0.555  -2.796  0.00  0.00    -0.049 A 
ATOM      7  C   LIG d   1       6.574  -2.609  -4.187  0.00  0.00    -0.017 A 
ATOM      8  C   LIG d   1       5.886  -3.606  -4.767  0.00  0.00     0.006 A 
ATOM      9  N   LIG d   1       4.547  -3.444  -4.535  0.00  0.00    -0.360 N 
ATOM     10  H   LIG d   1       3.851  -4.041  -4.853  0.00  0.00     0.165 HD
ATOM     11  H   LIG d   1       2.420  -0.046  -2.175  0.00  0.00     0.062 H 
ATOM     12  H   LIG d   1       2.220  -2.116  -3.476  0.00  0.00     0.064 H 
ATOM     13  H   LIG d   1       6.654  -0.112  -2.602  0.00  0.00     0.063 H 
ATOM     14  H   LIG d   1       6.325  -4.415  -5.331  0.00  0.00     0.081 H 
ENDROOT
BRANCH   7  15
ATOM     15  C   LIG d   1       8.070  -2.424  -4.204  0.00  0.00     0.023 C 
ATOM     16  H   LIG d   1       8.405  -2.085  -3.224  0.00  0.00     0.037 H 
ATOM     17  H   LIG d   1       8.550  -3.373  -4.445  0.00  0.00     0.037 H 
BRANCH  15  18
ATOM     18  CA  LIG d   1       8.442  -1.380  -5.259  0.00  0.00     0.020 C 
ATOM     19  HA  LIG d   1       7.541  -1.046  -5.773  0.00  0.00     0.092 H 
BRANCH  18  20
ATOM     20  C   LIG d   1       9.391  -1.992  -6.258  0.00  0.00     0.090 C 
ATOM     21  O   LIG d   1      10.339  -1.359  -6.657  0.00  0.00    -0.544 OA
ATOM     22  OXT LIG d   1       9.182  -3.241  -6.704  0.00  0.00    -0.544 OA
ENDBRANCH  18  20
BRANCH  18  23
ATOM     23  N   LIG d   1       9.071  -0.228  -4.591  0.00  0.00     0.225 N 
ATOM     24  H1  LIG d   1       8.355   0.382  -4.199  0.00  0.00     0.200 HD
ATOM     25  H2  LIG d   1       9.687  -0.550  -3.845  0.00  0.00     0.200 HD
ATOM     26  H3  LIG d   1       9.622   0.300  -5.276  0.00  0.00     0.200 HD
ENDBRANCH  18  23
ENDBRANCH  15  18
ENDBRANCH   7  15
BRANCH   1  27
ATOM     27  C   LIG d   1       4.656   1.308  -1.514  0.00  0.00    -0.040 C 
ATOM     28  H   LIG d   1       3.670   1.580  -1.136  0.00  0.00     0.028 H 
ATOM     29  H   LIG d   1       5.336   1.157  -0.677  0.00  0.00     0.028 H 
ATOM     30  H   LIG d   1       5.035   2.109  -2.149  0.00  0.00     0.028 H 
ENDBRANCH   1  27
TORSDOF 5
ENDMDL
MODEL 10
REMARK VINA RESULT:      -4.9      3.620      4.937
REMARK  5 active torsions:
REMARK  status: ('A' for Active; 'I' for Inactive)
REMARK    1  A    between atoms: C_1  and  C_2 
REMARK    2  A    between atoms: C_8  and  C_12 
REMARK    3  A    between atoms: C_12  and  CA_13 
REMARK    4  A    between atoms: CA_13  and  C_15 
REMARK    5  A    between atoms: CA_13  and  N_29 
ROOT
ATOM      1  C   LIG d   1       4.972  -2.867  -4.104  0.00  0.00    -0.050 A 
ATOM      2  C   LIG d   1       4.061  -2.814  -3.058  0.00  0.00    -0.057 A 
ATOM      3  C   LIG d   1       3.928  -1.675  -2.297  0.00  0.00    -0.037 A 
ATOM      4  C   LIG d   1       4.715  -0.561  -2.577  0.00  0.00     0.047 A 
ATOM      5  C   LIG d   1       5.637  -0.619  -3.638  0.00  0.00     0.003 A 
ATOM      6  C   LIG d   1       5.755  -1.785  -4.396  0.00  0.00    -0.049 A 
ATOM      7  C   LIG d   1       6.297   0.688  -3.671  0.00  0.00    -0.017 A 
ATOM      8  C   LIG d   1       5.769   1.421  -2.678  0.00  0.00     0.006 A 
ATOM      9  N   LIG d   1       4.817   0.692  -2.017  0.00  0.00    -0.360 N 
ATOM     10  H   LIG d   1       4.296   1.010  -1.263  0.00  0.00     0.165 HD
ATOM     11  H   LIG d   1       3.449  -3.678  -2.839  0.00  0.00     0.062 H 
ATOM     12  H   LIG d   1       3.216  -1.644  -1.486  0.00  0.00     0.064 H 
ATOM     13  H   LIG d   1       6.462  -1.833  -5.211  0.00  0.00     0.063 H 
ATOM     14  H   LIG d   1       6.051   2.435  -2.438  0.00  0.00     0.081 H 
ENDROOT
BRANCH   7  15
ATOM     15  C   LIG d   1       7.371   1.126  -4.635  0.00  0.00     0.023 C 
ATOM     16  H   LIG d   1       7.532   0.346  -5.378  0.00  0.00     0.037 H 
ATOM     17  H   LIG d   1       7.057   2.044  -5.133  0.00  0.00     0.037 H 
BRANCH  15  18
ATOM     18  CA  LIG d   1       8.670   1.378  -3.869  0.00  0.00     0.020 C 
ATOM     19  HA  LIG d   1       8.539   1.095  -2.825  0.00  0.00     0.092 H 
BRANCH  18  20
ATOM     20  C   LIG d   1       9.025   2.842  -3.949  0.00  0.00     0.090 C 
ATOM     21  O   LIG d   1       9.361   3.437  -2.953  0.00  0.00    -0.544 OA
ATOM     22  OXT LIG d   1       8.970   3.482  -5.127  0.00  0.00    -0.544 OA
ENDBRANCH  18  20
BRANCH  18  23
ATOM     23  N   LIG d   1       9.740   0.556  -4.459  0.00  0.00     0.225 N 
ATOM     24  H1  LIG d   1      10.373   0.230  -3.731  0.00  0.00     0.200 HD
ATOM     25  H2  LIG d   1       9.337  -0.247  -4.942  0.00  0.00     0.200 HD
ATOM     26  H3  LIG d   1      10.268   1.122  -5.133  0.00  0.00     0.200 HD
ENDBRANCH  18  23
ENDBRANCH  15  18
ENDBRANCH   7  15
BRANCH   1  27
ATOM     27  C   LIG d   1       5.099  -4.125  -4.923  0.00  0.00    -0.040 C 
ATOM     28  H   LIG d   1       5.591  -3.896  -5.869  0.00  0.00     0.028 H 
ATOM     29  H   LIG d   1       5.691  -4.857  -4.374  0.00  0.00     0.028 H 
ATOM     30  H   LIG d   1       4.107  -4.533  -5.118  0.00  0.00     0.028 H 
ENDBRANCH   1  27
TORSDOF 5
ENDMDL
