MODEL 1
REMARK VINA RESULT:      -6.4      0.000      0.000
REMARK  12 active torsions:
REMARK  status: ('A' for Active; 'I' for Inactive)
REMARK    1  A    between atoms: C_1  and  C_2 
REMARK    2  A    between atoms: C_4  and  C_26 
REMARK    3  A    between atoms: C_6  and  C_23 
REMARK    4  A    between atoms: C_9  and  C_11 
REMARK    5  A    between atoms: C_11  and  C_12 
REMARK       I    between atoms: C_12  and  N_14 
REMARK    6  A    between atoms: N_14  and  C_15 
REMARK    7  A    between atoms: C_15  and  C_16 
REMARK    8  A    between atoms: C_16  and  N_17 
REMARK    9  A    between atoms: C_23  and  C_24 
REMARK   10  A    between atoms: C_23  and  C_25 
REMARK   11  A    between atoms: C_26  and  N_27 
REMARK       I    between atoms: N_27  and  C_28 
REMARK   12  A    between atoms: C_28  and  C_30 
ROOT
ATOM      1  C   LIG d   1       6.811  -2.449  -3.948  0.00  0.00    -0.073 C 
ATOM      2  C   LIG d   1       6.824  -1.401  -3.188  0.00  0.00    -0.080 C 
ATOM      3  C   LIG d   1       5.661  -0.465  -3.028  0.00  0.00    -0.004 C 
ATOM      4  H   LIG d   1       5.175  -0.688  -2.066  0.00  0.00     0.036 H 
ATOM      5  C   LIG d   1       4.661  -0.665  -4.169  0.00  0.00    -0.030 C 
ATOM      6  H   LIG d   1       5.080  -0.278  -5.108  0.00  0.00     0.031 H 
ATOM      7  C   LIG d   1       4.367  -2.165  -4.297  0.00  0.00    -0.042 C 
ATOM      8  C   LIG d   1       5.636  -2.868  -4.783  0.00  0.00    -0.012 C 
ATOM      9  H   LIG d   1       5.518  -3.957  -4.680  0.00  0.00     0.035 H 
ATOM     10  H   LIG d   1       7.725  -1.151  -2.610  0.00  0.00     0.058 H 
ATOM     11  H   LIG d   1       4.068  -2.566  -3.317  0.00  0.00     0.027 H 
ATOM     12  H   LIG d   1       3.553  -2.319  -5.021  0.00  0.00     0.027 H 
ENDROOT
BRANCH   8  13
ATOM     13  C   LIG d   1       5.895  -2.496  -6.244  0.00  0.00     0.030 C 
ATOM     14  H   LIG d   1       5.908  -1.401  -6.347  0.00  0.00     0.036 H 
ATOM     15  H   LIG d   1       6.865  -2.905  -6.561  0.00  0.00     0.036 H 
BRANCH  13  16
ATOM     16  C   LIG d   1       4.802  -3.070  -7.109  0.00  0.00     0.214 C 
ATOM     17  O   LIG d   1       4.316  -4.147  -6.838  0.00  0.00    -0.276 OA
ATOM     18  N   LIG d   1       4.363  -2.384  -8.184  0.00  0.00    -0.314 N 
ATOM     19  H   LIG d   1       4.804  -1.406  -8.430  0.00  0.00     0.149 HD
BRANCH  18  20
ATOM     20  C   LIG d   1       3.300  -2.941  -9.024  0.00  0.00     0.024 C 
ATOM     21  H   LIG d   1       3.745  -3.414  -9.912  0.00  0.00     0.047 H 
ATOM     22  H   LIG d   1       2.737  -3.693  -8.452  0.00  0.00     0.047 H 
BRANCH  20  23
ATOM     23  C   LIG d   1       2.356  -1.820  -9.461  0.00  0.00     0.015 C 
ATOM     24  H   LIG d   1       1.916  -2.072 -10.438  0.00  0.00     0.044 H 
ATOM     25  H   LIG d   1       1.555  -1.703  -8.717  0.00  0.00     0.044 H 
BRANCH  23  26
ATOM     26  N   LIG d   1       3.108  -0.562  -9.574  0.00  0.00    -0.296 N 
ATOM     27  C   LIG d   1       3.349  -0.217 -10.982  0.00  0.00     0.022 C 
ATOM     28  C   LIG d   1       4.185   1.065 -11.051  0.00  0.00     0.060 C 
ATOM     29  H   LIG d   1       3.893  -1.038 -11.472  0.00  0.00     0.045 H 
ATOM     30  H   LIG d   1       2.388  -0.058 -11.491  0.00  0.00     0.045 H 
ATOM     31  O   LIG d   1       3.507   2.108 -10.346  0.00  0.00    -0.377 OA
ATOM     32  H   LIG d   1       4.320   1.360 -12.103  0.00  0.00     0.057 H 
ATOM     33  H   LIG d   1       5.167   0.890 -10.590  0.00  0.00     0.057 H 
ATOM     34  C   LIG d   1       3.255   1.805  -8.972  0.00  0.00     0.060 C 
ATOM     35  C   LIG d   1       2.410   0.531  -8.882  0.00  0.00     0.022 C 
ATOM     36  H   LIG d   1       2.711   2.640  -8.504  0.00  0.00     0.057 H 
ATOM     37  H   LIG d   1       4.210   1.650  -8.448  0.00  0.00     0.057 H 
ATOM     38  H   LIG d   1       1.434   0.703  -9.357  0.00  0.00     0.045 H 
ATOM     39  H   LIG d   1       2.263   0.261  -7.826  0.00  0.00     0.045 H 
ENDBRANCH  23  26
ENDBRANCH  20  23
ENDBRANCH  18  20
ENDBRANCH  13  16
ENDBRANCH   8  13
BRANCH   1  40
ATOM     40  C   LIG d   1       8.053  -3.299  -3.997  0.00  0.00    -0.043 C 
ATOM     41  H   LIG d   1       7.996  -3.983  -4.857  0.00  0.00     0.027 H 
ATOM     42  H   LIG d   1       8.135  -3.884  -3.069  0.00  0.00     0.027 H 
ATOM     43  H   LIG d   1       8.937  -2.652  -4.102  0.00  0.00     0.027 H 
ENDBRANCH   1  40
BRANCH   5  44
ATOM     44  C   LIG d   1       3.367   0.088  -3.856  0.00  0.00    -0.043 C 
ATOM     45  H   LIG d   1       3.606   1.028  -3.340  0.00  0.00     0.030 H 
BRANCH  44  46
ATOM     46  C   LIG d   1       2.628   0.395  -5.160  0.00  0.00    -0.062 C 
ATOM     47  H   LIG d   1       3.123  -0.126  -5.994  0.00  0.00     0.023 H 
ATOM     48  H   LIG d   1       2.644   1.479  -5.345  0.00  0.00     0.023 H 
ATOM     49  H   LIG d   1       1.586   0.051  -5.081  0.00  0.00     0.023 H 
ENDBRANCH  44  46
BRANCH  44  50
ATOM     50  C   LIG d   1       2.478  -0.776  -2.959  0.00  0.00    -0.062 C 
ATOM     51  H   LIG d   1       2.787  -1.829  -3.043  0.00  0.00     0.023 H 
ATOM     52  H   LIG d   1       1.430  -0.674  -3.275  0.00  0.00     0.023 H 
ATOM     53  H   LIG d   1       2.581  -0.447  -1.914  0.00  0.00     0.023 H 
ENDBRANCH  44  50
ENDBRANCH   5  44
BRANCH   3  54
ATOM     54  C   LIG d   1       6.167   0.979  -3.045  0.00  0.00     0.018 C 
ATOM     55  H   LIG d   1       5.326   1.664  -2.859  0.00  0.00     0.047 H 
ATOM     56  H   LIG d   1       6.926   1.110  -2.260  0.00  0.00     0.047 H 
BRANCH  54  57
ATOM     57  N   LIG d   1       6.758   1.275  -4.351  0.00  0.00    -0.311 N 
ATOM     58  C   LIG d   1       7.919   1.956  -4.427  0.00  0.00     0.244 C 
ATOM     59  O   LIG d   1       8.476   2.322  -3.412  0.00  0.00    -0.270 OA
ATOM     60  H   LIG d   1       6.254   0.943  -5.272  0.00  0.00     0.149 HD
BRANCH  58  61
ATOM     61  C   LIG d   1       8.517   2.255  -5.750  0.00  0.00     0.040 A 
ATOM     62  C   LIG d   1       9.474   3.264  -5.893  0.00  0.00    -0.032 A 
ATOM     63  C   LIG d   1      10.006   3.510  -7.144  0.00  0.00     0.028 A 
ATOM     64  H   LIG d   1       9.793   3.843  -5.039  0.00  0.00     0.064 H 
ATOM     65  N   LIG d   1       9.622   2.809  -8.192  0.00  0.00    -0.263 NA
ATOM     66  H   LIG d   1      10.745   4.288  -7.265  0.00  0.00     0.083 H 
ATOM     67  C   LIG d   1       8.724   1.848  -8.100  0.00  0.00     0.028 A 
ATOM     68  C   LIG d   1       8.145   1.532  -6.887  0.00  0.00    -0.032 A 
ATOM     69  H   LIG d   1       8.439   1.299  -8.986  0.00  0.00     0.083 H 
ATOM     70  H   LIG d   1       7.413   0.741  -6.818  0.00  0.00     0.064 H 
ENDBRANCH  58  61
ENDBRANCH  54  57
ENDBRANCH   3  54
TORSDOF 12
ENDMDL
MODEL 2
REMARK VINA RESULT:      -6.3      4.147      6.332
REMARK  12 active torsions:
REMARK  status: ('A' for Active; 'I' for Inactive)
REMARK    1  A    between atoms: C_1  and  C_2 
REMARK    2  A    between atoms: C_4  and  C_26 
REMARK    3  A    between atoms: C_6  and  C_23 
REMARK    4  A    between atoms: C_9  and  C_11 
REMARK    5  A    between atoms: C_11  and  C_12 
REMARK       I    between atoms: C_12  and  N_14 
REMARK    6  A    between atoms: N_14  and  C_15 
REMARK    7  A    between atoms: C_15  and  C_16 
REMARK    8  A    between atoms: C_16  and  N_17 
REMARK    9  A    between atoms: C_23  and  C_24 
REMARK   10  A    between atoms: C_23  and  C_25 
REMARK   11  A    between atoms: C_26  and  N_27 
REMARK       I    between atoms: N_27  and  C_28 
REMARK   12  A    between atoms: C_28  and  C_30 
ROOT
ATOM      1  C   LIG d   1       7.008  -2.880  -4.726  0.00  0.00    -0.073 C 
ATOM      2  C   LIG d   1       7.311  -1.635  -4.536  0.00  0.00    -0.080 C 
ATOM      3  C   LIG d   1       6.356  -0.613  -3.989  0.00  0.00    -0.004 C 
ATOM      4  H   LIG d   1       6.611  -0.442  -2.932  0.00  0.00     0.036 H 
ATOM      5  C   LIG d   1       4.918  -1.123  -4.096  0.00  0.00    -0.030 C 
ATOM      6  H   LIG d   1       4.598  -1.128  -5.148  0.00  0.00     0.031 H 
ATOM      7  C   LIG d   1       4.863  -2.543  -3.518  0.00  0.00    -0.042 C 
ATOM      8  C   LIG d   1       5.660  -3.471  -4.436  0.00  0.00    -0.012 C 
ATOM      9  H   LIG d   1       5.813  -4.440  -3.938  0.00  0.00     0.035 H 
ATOM     10  H   LIG d   1       8.319  -1.271  -4.779  0.00  0.00     0.058 H 
ATOM     11  H   LIG d   1       5.302  -2.545  -2.509  0.00  0.00     0.027 H 
ATOM     12  H   LIG d   1       3.816  -2.876  -3.463  0.00  0.00     0.027 H 
ENDROOT
BRANCH   8  13
ATOM     13  C   LIG d   1       4.898  -3.662  -5.750  0.00  0.00     0.030 C 
ATOM     14  H   LIG d   1       4.017  -3.004  -5.762  0.00  0.00     0.036 H 
ATOM     15  H   LIG d   1       5.555  -3.412  -6.595  0.00  0.00     0.036 H 
BRANCH  13  16
ATOM     16  C   LIG d   1       4.455  -5.098  -5.868  0.00  0.00     0.214 C 
ATOM     17  O   LIG d   1       3.299  -5.357  -6.130  0.00  0.00    -0.276 OA
ATOM     18  N   LIG d   1       5.343  -6.095  -5.683  0.00  0.00    -0.314 N 
ATOM     19  H   LIG d   1       6.392  -5.860  -5.445  0.00  0.00     0.149 HD
BRANCH  18  20
ATOM     20  C   LIG d   1       4.913  -7.490  -5.798  0.00  0.00     0.024 C 
ATOM     21  H   LIG d   1       3.864  -7.578  -5.476  0.00  0.00     0.047 H 
ATOM     22  H   LIG d   1       5.004  -7.817  -6.844  0.00  0.00     0.047 H 
BRANCH  20  23
ATOM     23  C   LIG d   1       5.794  -8.371  -4.910  0.00  0.00     0.015 C 
ATOM     24  H   LIG d   1       6.775  -8.509  -5.389  0.00  0.00     0.044 H 
ATOM     25  H   LIG d   1       5.929  -7.887  -3.932  0.00  0.00     0.044 H 
BRANCH  23  26
ATOM     26  N   LIG d   1       5.151  -9.679  -4.725  0.00  0.00    -0.296 N 
ATOM     27  C   LIG d   1       4.080  -9.602  -3.722  0.00  0.00     0.022 C 
ATOM     28  C   LIG d   1       3.479 -10.996  -3.518  0.00  0.00     0.060 C 
ATOM     29  H   LIG d   1       4.495  -9.237  -2.770  0.00  0.00     0.045 H 
ATOM     30  H   LIG d   1       3.298  -8.912  -4.070  0.00  0.00     0.045 H 
ATOM     31  O   LIG d   1       3.010 -11.496  -4.773  0.00  0.00    -0.377 OA
ATOM     32  H   LIG d   1       2.638 -10.935  -2.810  0.00  0.00     0.057 H 
ATOM     33  H   LIG d   1       4.247 -11.674  -3.118  0.00  0.00     0.057 H 
ATOM     34  C   LIG d   1       4.027 -11.584  -5.773  0.00  0.00     0.060 C 
ATOM     35  C   LIG d   1       4.634 -10.196  -6.001  0.00  0.00     0.022 C 
ATOM     36  H   LIG d   1       3.588 -11.950  -6.714  0.00  0.00     0.057 H 
ATOM     37  H   LIG d   1       4.813 -12.278  -5.440  0.00  0.00     0.057 H 
ATOM     38  H   LIG d   1       3.861  -9.515  -6.386  0.00  0.00     0.045 H 
ATOM     39  H   LIG d   1       5.456 -10.268  -6.727  0.00  0.00     0.045 H 
ENDBRANCH  23  26
ENDBRANCH  20  23
ENDBRANCH  18  20
ENDBRANCH  13  16
ENDBRANCH   8  13
BRANCH   1  40
ATOM     40  C   LIG d   1       8.077  -3.790  -5.272  0.00  0.00    -0.043 C 
ATOM     41  H   LIG d   1       7.776  -4.838  -5.127  0.00  0.00     0.027 H 
ATOM     42  H   LIG d   1       9.024  -3.604  -4.743  0.00  0.00     0.027 H 
ATOM     43  H   LIG d   1       8.213  -3.593  -6.346  0.00  0.00     0.027 H 
ENDBRANCH   1  40
BRANCH   5  44
ATOM     44  C   LIG d   1       3.987  -0.207  -3.300  0.00  0.00    -0.043 C 
ATOM     45  H   LIG d   1       3.929   0.774  -3.792  0.00  0.00     0.030 H 
BRANCH  44  46
ATOM     46  C   LIG d   1       2.591  -0.829  -3.236  0.00  0.00    -0.062 C 
ATOM     47  H   LIG d   1       1.832  -0.041  -3.351  0.00  0.00     0.023 H 
ATOM     48  H   LIG d   1       2.456  -1.329  -2.266  0.00  0.00     0.023 H 
ATOM     49  H   LIG d   1       2.481  -1.565  -4.047  0.00  0.00     0.023 H 
ENDBRANCH  44  46
BRANCH  44  50
ATOM     50  C   LIG d   1       4.533  -0.034  -1.881  0.00  0.00    -0.062 C 
ATOM     51  H   LIG d   1       4.377   1.005  -1.553  0.00  0.00     0.023 H 
ATOM     52  H   LIG d   1       5.608  -0.265  -1.872  0.00  0.00     0.023 H 
ATOM     53  H   LIG d   1       4.005  -0.717  -1.199  0.00  0.00     0.023 H 
ENDBRANCH  44  50
ENDBRANCH   5  44
BRANCH   3  54
ATOM     54  C   LIG d   1       6.495   0.686  -4.785  0.00  0.00     0.018 C 
ATOM     55  H   LIG d   1       6.883   0.461  -5.789  0.00  0.00     0.047 H 
ATOM     56  H   LIG d   1       5.511   1.169  -4.873  0.00  0.00     0.047 H 
BRANCH  54  57
ATOM     57  N   LIG d   1       7.421   1.587  -4.094  0.00  0.00    -0.311 N 
ATOM     58  C   LIG d   1       8.307   2.315  -4.803  0.00  0.00     0.244 C 
ATOM     59  O   LIG d   1       8.337   2.225  -6.013  0.00  0.00    -0.270 OA
ATOM     60  H   LIG d   1       7.393   1.669  -2.998  0.00  0.00     0.149 HD
BRANCH  58  61
ATOM     61  C   LIG d   1       9.243   3.226  -4.103  0.00  0.00     0.040 A 
ATOM     62  C   LIG d   1      10.050   2.763  -3.059  0.00  0.00    -0.032 A 
ATOM     63  C   LIG d   1      10.909   3.646  -2.434  0.00  0.00     0.028 A 
ATOM     64  H   LIG d   1      10.002   1.730  -2.745  0.00  0.00     0.064 H 
ATOM     65  N   LIG d   1      10.973   4.907  -2.809  0.00  0.00    -0.263 NA
ATOM     66  H   LIG d   1      11.535   3.297  -1.626  0.00  0.00     0.083 H 
ATOM     67  C   LIG d   1      10.231   5.384  -3.789  0.00  0.00     0.028 A 
ATOM     68  C   LIG d   1       9.349   4.570  -4.472  0.00  0.00    -0.032 A 
ATOM     69  H   LIG d   1      10.317   6.426  -4.064  0.00  0.00     0.083 H 
ATOM     70  H   LIG d   1       8.748   4.966  -5.277  0.00  0.00     0.064 H 
ENDBRANCH  58  61
ENDBRANCH  54  57
ENDBRANCH   3  54
TORSDOF 12
ENDMDL
MODEL 3
REMARK VINA RESULT:      -6.2      3.723      8.638
REMARK  12 active torsions:
REMARK  status: ('A' for Active; 'I' for Inactive)
REMARK    1  A    between atoms: C_1  and  C_2 
REMARK    2  A    between atoms: C_4  and  C_26 
REMARK    3  A    between atoms: C_6  and  C_23 
REMARK    4  A    between atoms: C_9  and  C_11 
REMARK    5  A    between atoms: C_11  and  C_12 
REMARK       I    between atoms: C_12  and  N_14 
REMARK    6  A    between atoms: N_14  and  C_15 
REMARK    7  A    between atoms: C_15  and  C_16 
REMARK    8  A    between atoms: C_16  and  N_17 
REMARK    9  A    between atoms: C_23  and  C_24 
REMARK   10  A    between atoms: C_23  and  C_25 
REMARK   11  A    between atoms: C_26  and  N_27 
REMARK       I    between atoms: N_27  and  C_28 
REMARK   12  A    between atoms: C_28  and  C_30 
ROOT
ATOM      1  C   LIG d   1       3.535   1.415  -9.884  0.00  0.00    -0.073 C 
ATOM      2  C   LIG d   1       3.868   1.033 -11.076  0.00  0.00    -0.080 C 
ATOM      3  C   LIG d   1       3.311  -0.186 -11.753  0.00  0.00    -0.004 C 
ATOM      4  H   LIG d   1       2.556   0.145 -12.482  0.00  0.00     0.036 H 
ATOM      5  C   LIG d   1       2.660  -1.111 -10.723  0.00  0.00    -0.030 C 
ATOM      6  H   LIG d   1       3.433  -1.585 -10.100  0.00  0.00     0.031 H 
ATOM      7  C   LIG d   1       1.715  -0.275  -9.850  0.00  0.00    -0.042 C 
ATOM      8  C   LIG d   1       2.555   0.688  -9.010  0.00  0.00    -0.012 C 
ATOM      9  H   LIG d   1       1.900   1.436  -8.540  0.00  0.00     0.035 H 
ATOM     10  H   LIG d   1       4.601   1.613 -11.655  0.00  0.00     0.058 H 
ATOM     11  H   LIG d   1       1.025   0.291 -10.495  0.00  0.00     0.027 H 
ATOM     12  H   LIG d   1       1.138  -0.942  -9.192  0.00  0.00     0.027 H 
ENDROOT
BRANCH   8  13
ATOM     13  C   LIG d   1       3.316  -0.100  -7.943  0.00  0.00     0.030 C 
ATOM     14  H   LIG d   1       3.062  -1.166  -8.023  0.00  0.00     0.036 H 
ATOM     15  H   LIG d   1       4.398   0.032  -8.090  0.00  0.00     0.036 H 
BRANCH  13  16
ATOM     16  C   LIG d   1       2.932   0.407  -6.576  0.00  0.00     0.214 C 
ATOM     17  O   LIG d   1       2.722   1.589  -6.404  0.00  0.00    -0.276 OA
ATOM     18  N   LIG d   1       2.819  -0.454  -5.545  0.00  0.00    -0.314 N 
ATOM     19  H   LIG d   1       3.009  -1.527  -5.701  0.00  0.00     0.149 HD
BRANCH  18  20
ATOM     20  C   LIG d   1       2.445   0.038  -4.217  0.00  0.00     0.024 C 
ATOM     21  H   LIG d   1       2.691   1.108  -4.140  0.00  0.00     0.047 H 
ATOM     22  H   LIG d   1       1.364  -0.101  -4.066  0.00  0.00     0.047 H 
BRANCH  20  23
ATOM     23  C   LIG d   1       3.214  -0.741  -3.149  0.00  0.00     0.015 C 
ATOM     24  H   LIG d   1       3.262  -0.146  -2.225  0.00  0.00     0.044 H 
ATOM     25  H   LIG d   1       2.702  -1.692  -2.948  0.00  0.00     0.044 H 
BRANCH  23  26
ATOM     26  N   LIG d   1       4.578  -1.011  -3.627  0.00  0.00    -0.296 N 
ATOM     27  C   LIG d   1       5.566  -0.236  -2.863  0.00  0.00     0.022 C 
ATOM     28  C   LIG d   1       6.963  -0.502  -3.432  0.00  0.00     0.060 C 
ATOM     29  H   LIG d   1       5.333   0.836  -2.944  0.00  0.00     0.045 H 
ATOM     30  H   LIG d   1       5.535  -0.540  -1.807  0.00  0.00     0.045 H 
ATOM     31  O   LIG d   1       7.230  -1.906  -3.393  0.00  0.00    -0.377 OA
ATOM     32  H   LIG d   1       7.714   0.030  -2.828  0.00  0.00     0.057 H 
ATOM     33  H   LIG d   1       7.011  -0.148  -4.472  0.00  0.00     0.057 H 
ATOM     34  C   LIG d   1       6.286  -2.691  -4.126  0.00  0.00     0.060 C 
ATOM     35  C   LIG d   1       4.882  -2.448  -3.565  0.00  0.00     0.022 C 
ATOM     36  H   LIG d   1       6.539  -3.758  -4.030  0.00  0.00     0.057 H 
ATOM     37  H   LIG d   1       6.311  -2.402  -5.188  0.00  0.00     0.057 H 
ATOM     38  H   LIG d   1       4.839  -2.788  -2.520  0.00  0.00     0.045 H 
ATOM     39  H   LIG d   1       4.145  -3.004  -4.162  0.00  0.00     0.045 H 
ENDBRANCH  23  26
ENDBRANCH  20  23
ENDBRANCH  18  20
ENDBRANCH  13  16
ENDBRANCH   8  13
BRANCH   1  40
ATOM     40  C   LIG d   1       4.172   2.668  -9.342  0.00  0.00    -0.043 C 
ATOM     41  H   LIG d   1       4.937   2.398  -8.598  0.00  0.00     0.027 H 
ATOM     42  H   LIG d   1       3.404   3.296  -8.867  0.00  0.00     0.027 H 
ATOM     43  H   LIG d   1       4.644   3.226 -10.165  0.00  0.00     0.027 H 
ENDBRANCH   1  40
BRANCH   5  44
ATOM     44  C   LIG d   1       1.866  -2.203 -11.442  0.00  0.00    -0.043 C 
ATOM     45  H   LIG d   1       2.531  -2.749 -12.127  0.00  0.00     0.030 H 
BRANCH  44  46
ATOM     46  C   LIG d   1       1.287  -3.174 -10.411  0.00  0.00    -0.062 C 
ATOM     47  H   LIG d   1       0.903  -4.069 -10.924  0.00  0.00     0.023 H 
ATOM     48  H   LIG d   1       0.466  -2.685  -9.866  0.00  0.00     0.023 H 
ATOM     49  H   LIG d   1       2.074  -3.469  -9.701  0.00  0.00     0.023 H 
ENDBRANCH  44  46
BRANCH  44  50
ATOM     50  C   LIG d   1       0.726  -1.565 -12.237  0.00  0.00    -0.062 C 
ATOM     51  H   LIG d   1       0.015  -1.093 -11.543  0.00  0.00     0.023 H 
ATOM     52  H   LIG d   1       0.209  -2.340 -12.822  0.00  0.00     0.023 H 
ATOM     53  H   LIG d   1       1.134  -0.803 -12.917  0.00  0.00     0.023 H 
ENDBRANCH  44  50
ENDBRANCH   5  44
BRANCH   3  54
ATOM     54  C   LIG d   1       4.443  -0.933 -12.462  0.00  0.00     0.018 C 
ATOM     55  H   LIG d   1       5.317  -0.991 -11.797  0.00  0.00     0.047 H 
ATOM     56  H   LIG d   1       4.108  -1.949 -12.716  0.00  0.00     0.047 H 
BRANCH  54  57
ATOM     57  N   LIG d   1       4.808  -0.218 -13.687  0.00  0.00    -0.311 N 
ATOM     58  C   LIG d   1       4.222  -0.544 -14.857  0.00  0.00     0.244 C 
ATOM     59  O   LIG d   1       3.391  -1.428 -14.895  0.00  0.00    -0.270 OA
ATOM     60  H   LIG d   1       5.560   0.584 -13.653  0.00  0.00     0.149 HD
BRANCH  58  61
ATOM     61  C   LIG d   1       4.591   0.180 -16.096  0.00  0.00     0.040 A 
ATOM     62  C   LIG d   1       3.614   0.781 -16.895  0.00  0.00    -0.032 A 
ATOM     63  C   LIG d   1       4.002   1.447 -18.042  0.00  0.00     0.028 A 
ATOM     64  H   LIG d   1       2.570   0.726 -16.621  0.00  0.00     0.064 H 
ATOM     65  N   LIG d   1       5.272   1.518 -18.385  0.00  0.00    -0.263 NA
ATOM     66  H   LIG d   1       3.254   1.913 -18.666  0.00  0.00     0.083 H 
ATOM     67  C   LIG d   1       6.225   0.967 -17.660  0.00  0.00     0.028 A 
ATOM     68  C   LIG d   1       5.927   0.287 -16.496  0.00  0.00    -0.032 A 
ATOM     69  H   LIG d   1       7.254   1.051 -17.979  0.00  0.00     0.083 H 
ATOM     70  H   LIG d   1       6.713  -0.158 -15.904  0.00  0.00     0.064 H 
ENDBRANCH  58  61
ENDBRANCH  54  57
ENDBRANCH   3  54
TORSDOF 12
ENDMDL
MODEL 4
REMARK VINA RESULT:      -6.1      2.215      7.419
REMARK  12 active torsions:
REMARK  status: ('A' for Active; 'I' for Inactive)
REMARK    1  A    between atoms: C_1  and  C_2 
REMARK    2  A    between atoms: C_4  and  C_26 
REMARK    3  A    between atoms: C_6  and  C_23 
REMARK    4  A    between atoms: C_9  and  C_11 
REMARK    5  A    between atoms: C_11  and  C_12 
REMARK       I    between atoms: C_12  and  N_14 
REMARK    6  A    between atoms: N_14  and  C_15 
REMARK    7  A    between atoms: C_15  and  C_16 
REMARK    8  A    between atoms: C_16  and  N_17 
REMARK    9  A    between atoms: C_23  and  C_24 
REMARK   10  A    between atoms: C_23  and  C_25 
REMARK   11  A    between atoms: C_26  and  N_27 
REMARK       I    between atoms: N_27  and  C_28 
REMARK   12  A    between atoms: C_28  and  C_30 
ROOT
ATOM      1  C   LIG d   1       4.982  -1.922  -3.258  0.00  0.00    -0.073 C 
ATOM      2  C   LIG d   1       4.605  -3.033  -3.805  0.00  0.00    -0.080 C 
ATOM      3  C   LIG d   1       5.497  -3.901  -4.646  0.00  0.00    -0.004 C 
ATOM      4  H   LIG d   1       5.819  -4.755  -4.030  0.00  0.00     0.036 H 
ATOM      5  C   LIG d   1       6.722  -3.108  -5.106  0.00  0.00    -0.030 C 
ATOM      6  H   LIG d   1       6.428  -2.364  -5.860  0.00  0.00     0.031 H 
ATOM      7  C   LIG d   1       7.336  -2.412  -3.885  0.00  0.00    -0.042 C 
ATOM      8  C   LIG d   1       6.359  -1.341  -3.396  0.00  0.00    -0.012 C 
ATOM      9  H   LIG d   1       6.675  -0.978  -2.407  0.00  0.00     0.035 H 
ATOM     10  H   LIG d   1       3.576  -3.394  -3.667  0.00  0.00     0.058 H 
ATOM     11  H   LIG d   1       7.511  -3.153  -3.090  0.00  0.00     0.027 H 
ATOM     12  H   LIG d   1       8.292  -1.947  -4.170  0.00  0.00     0.027 H 
ENDROOT
BRANCH   8  13
ATOM     13  C   LIG d   1       6.324  -0.188  -4.401  0.00  0.00     0.030 C 
ATOM     14  H   LIG d   1       6.763  -0.519  -5.353  0.00  0.00     0.036 H 
ATOM     15  H   LIG d   1       5.283   0.124  -4.565  0.00  0.00     0.036 H 
BRANCH  13  16
ATOM     16  C   LIG d   1       7.116   0.974  -3.859  0.00  0.00     0.214 C 
ATOM     17  O   LIG d   1       6.563   1.833  -3.205  0.00  0.00    -0.276 OA
ATOM     18  N   LIG d   1       8.440   1.058  -4.098  0.00  0.00    -0.314 N 
ATOM     19  H   LIG d   1       8.942   0.278  -4.691  0.00  0.00     0.149 HD
BRANCH  18  20
ATOM     20  C   LIG d   1       9.210   2.186  -3.571  0.00  0.00     0.024 C 
ATOM     21  H   LIG d   1       8.643   2.670  -2.762  0.00  0.00     0.047 H 
ATOM     22  H   LIG d   1      10.171   1.823  -3.179  0.00  0.00     0.047 H 
BRANCH  20  23
ATOM     23  C   LIG d   1       9.465   3.197  -4.691  0.00  0.00     0.015 C 
ATOM     24  H   LIG d   1      10.192   2.780  -5.403  0.00  0.00     0.044 H 
ATOM     25  H   LIG d   1       8.521   3.412  -5.213  0.00  0.00     0.044 H 
BRANCH  23  26
ATOM     26  N   LIG d   1      10.000   4.440  -4.117  0.00  0.00    -0.296 N 
ATOM     27  C   LIG d   1       9.290   5.613  -4.645  0.00  0.00     0.022 C 
ATOM     28  C   LIG d   1       9.918   6.885  -4.068  0.00  0.00     0.060 C 
ATOM     29  H   LIG d   1       9.372   5.627  -5.742  0.00  0.00     0.045 H 
ATOM     30  H   LIG d   1       8.230   5.562  -4.357  0.00  0.00     0.045 H 
ATOM     31  O   LIG d   1       9.876   6.826  -2.640  0.00  0.00    -0.377 OA
ATOM     32  H   LIG d   1       9.354   7.764  -4.415  0.00  0.00     0.057 H 
ATOM     33  H   LIG d   1      10.963   6.964  -4.401  0.00  0.00     0.057 H 
ATOM     34  C   LIG d   1      10.558   5.695  -2.091  0.00  0.00     0.060 C 
ATOM     35  C   LIG d   1       9.937   4.411  -2.648  0.00  0.00     0.022 C 
ATOM     36  H   LIG d   1      10.462   5.703  -0.995  0.00  0.00     0.057 H 
ATOM     37  H   LIG d   1      11.622   5.737  -2.366  0.00  0.00     0.057 H 
ATOM     38  H   LIG d   1       8.887   4.340  -2.327  0.00  0.00     0.045 H 
ATOM     39  H   LIG d   1      10.494   3.539  -2.274  0.00  0.00     0.045 H 
ENDBRANCH  23  26
ENDBRANCH  20  23
ENDBRANCH  18  20
ENDBRANCH  13  16
ENDBRANCH   8  13
BRANCH   1  40
ATOM     40  C   LIG d   1       3.975  -1.166  -2.432  0.00  0.00    -0.043 C 
ATOM     41  H   LIG d   1       4.296  -1.157  -1.379  0.00  0.00     0.027 H 
ATOM     42  H   LIG d   1       2.992  -1.655  -2.511  0.00  0.00     0.027 H 
ATOM     43  H   LIG d   1       3.901  -0.132  -2.801  0.00  0.00     0.027 H 
ENDBRANCH   1  40
BRANCH   5  44
ATOM     44  C   LIG d   1       7.748  -4.061  -5.725  0.00  0.00    -0.043 C 
ATOM     45  H   LIG d   1       7.244  -4.726  -6.441  0.00  0.00     0.030 H 
BRANCH  44  46
ATOM     46  C   LIG d   1       8.823  -3.250  -6.451  0.00  0.00    -0.062 C 
ATOM     47  H   LIG d   1       9.183  -3.815  -7.323  0.00  0.00     0.023 H 
ATOM     48  H   LIG d   1       9.663  -3.058  -5.767  0.00  0.00     0.023 H 
ATOM     49  H   LIG d   1       8.397  -2.292  -6.786  0.00  0.00     0.023 H 
ENDBRANCH  44  46
BRANCH  44  50
ATOM     50  C   LIG d   1       8.398  -4.896  -4.621  0.00  0.00    -0.062 C 
ATOM     51  H   LIG d   1       8.834  -5.807  -5.060  0.00  0.00     0.023 H 
ATOM     52  H   LIG d   1       7.638  -5.175  -3.877  0.00  0.00     0.023 H 
ATOM     53  H   LIG d   1       9.191  -4.309  -4.135  0.00  0.00     0.023 H 
ENDBRANCH  44  50
ENDBRANCH   5  44
BRANCH   3  54
ATOM     54  C   LIG d   1       4.721  -4.391  -5.869  0.00  0.00     0.018 C 
ATOM     55  H   LIG d   1       5.424  -4.792  -6.614  0.00  0.00     0.047 H 
ATOM     56  H   LIG d   1       4.019  -5.182  -5.566  0.00  0.00     0.047 H 
BRANCH  54  57
ATOM     57  N   LIG d   1       3.975  -3.274  -6.455  0.00  0.00    -0.311 N 
ATOM     58  C   LIG d   1       4.277  -2.839  -7.694  0.00  0.00     0.244 C 
ATOM     59  O   LIG d   1       5.166  -3.372  -8.326  0.00  0.00    -0.270 OA
ATOM     60  H   LIG d   1       3.169  -2.791  -5.883  0.00  0.00     0.149 HD
BRANCH  58  61
ATOM     61  C   LIG d   1       3.522  -1.709  -8.286  0.00  0.00     0.040 A 
ATOM     62  C   LIG d   1       2.697  -1.901  -9.399  0.00  0.00    -0.032 A 
ATOM     63  C   LIG d   1       2.010  -0.821  -9.919  0.00  0.00     0.028 A 
ATOM     64  H   LIG d   1       2.599  -2.880  -9.846  0.00  0.00     0.064 H 
ATOM     65  N   LIG d   1       2.126   0.377  -9.380  0.00  0.00    -0.263 NA
ATOM     66  H   LIG d   1       1.372  -0.960 -10.779  0.00  0.00     0.083 H 
ATOM     67  C   LIG d   1       2.891   0.601  -8.330  0.00  0.00     0.028 A 
ATOM     68  C   LIG d   1       3.609  -0.423  -7.744  0.00  0.00    -0.032 A 
ATOM     69  H   LIG d   1       2.956   1.599  -7.921  0.00  0.00     0.083 H 
ATOM     70  H   LIG d   1       4.230  -0.233  -6.881  0.00  0.00     0.064 H 
ENDBRANCH  58  61
ENDBRANCH  54  57
ENDBRANCH   3  54
TORSDOF 12
ENDMDL
MODEL 5
REMARK VINA RESULT:      -5.9      2.622      6.999
REMARK  12 active torsions:
REMARK  status: ('A' for Active; 'I' for Inactive)
REMARK    1  A    between atoms: C_1  and  C_2 
REMARK    2  A    between atoms: C_4  and  C_26 
REMARK    3  A    between atoms: C_6  and  C_23 
REMARK    4  A    between atoms: C_9  and  C_11 
REMARK    5  A    between atoms: C_11  and  C_12 
REMARK       I    between atoms: C_12  and  N_14 
REMARK    6  A    between atoms: N_14  and  C_15 
REMARK    7  A    between atoms: C_15  and  C_16 
REMARK    8  A    between atoms: C_16  and  N_17 
REMARK    9  A    between atoms: C_23  and  C_24 
REMARK   10  A    between atoms: C_23  and  C_25 
REMARK   11  A    between atoms: C_26  and  N_27 
REMARK       I    between atoms: N_27  and  C_28 
REMARK   12  A    between atoms: C_28  and  C_30 
ROOT
ATOM      1  C   LIG d   1       3.580   1.484  -9.851  0.00  0.00    -0.073 C 
ATOM      2  C   LIG d   1       3.934   1.105 -11.037  0.00  0.00    -0.080 C 
ATOM      3  C   LIG d   1       3.429  -0.140 -11.706  0.00  0.00    -0.004 C 
ATOM      4  H   LIG d   1       2.665   0.155 -12.441  0.00  0.00     0.036 H 
ATOM      5  C   LIG d   1       2.809  -1.081 -10.671  0.00  0.00    -0.030 C 
ATOM      6  H   LIG d   1       3.597  -1.519 -10.041  0.00  0.00     0.031 H 
ATOM      7  C   LIG d   1       1.828  -0.276  -9.810  0.00  0.00    -0.042 C 
ATOM      8  C   LIG d   1       2.626   0.727  -8.975  0.00  0.00    -0.012 C 
ATOM      9  H   LIG d   1       1.939   1.452  -8.514  0.00  0.00     0.035 H 
ATOM     10  H   LIG d   1       4.645   1.709 -11.618  0.00  0.00     0.058 H 
ATOM     11  H   LIG d   1       1.119   0.257 -10.462  0.00  0.00     0.027 H 
ATOM     12  H   LIG d   1       1.274  -0.960  -9.148  0.00  0.00     0.027 H 
ENDROOT
BRANCH   8  13
ATOM     13  C   LIG d   1       3.412  -0.021  -7.897  0.00  0.00     0.030 C 
ATOM     14  H   LIG d   1       3.239  -1.102  -8.000  0.00  0.00     0.036 H 
ATOM     15  H   LIG d   1       4.485   0.191  -8.011  0.00  0.00     0.036 H 
BRANCH  13  16
ATOM     16  C   LIG d   1       2.953   0.433  -6.535  0.00  0.00     0.214 C 
ATOM     17  O   LIG d   1       2.698   1.603  -6.340  0.00  0.00    -0.276 OA
ATOM     18  N   LIG d   1       2.825  -0.460  -5.534  0.00  0.00    -0.314 N 
ATOM     19  H   LIG d   1       3.057  -1.522  -5.711  0.00  0.00     0.149 HD
BRANCH  18  20
ATOM     20  C   LIG d   1       2.379  -0.019  -4.210  0.00  0.00     0.024 C 
ATOM     21  H   LIG d   1       2.535   1.066  -4.114  0.00  0.00     0.047 H 
ATOM     22  H   LIG d   1       1.310  -0.248  -4.089  0.00  0.00     0.047 H 
BRANCH  20  23
ATOM     23  C   LIG d   1       3.183  -0.747  -3.132  0.00  0.00     0.015 C 
ATOM     24  H   LIG d   1       3.214  -0.133  -2.220  0.00  0.00     0.044 H 
ATOM     25  H   LIG d   1       2.706  -1.712  -2.907  0.00  0.00     0.044 H 
BRANCH  23  26
ATOM     26  N   LIG d   1       4.552  -0.977  -3.613  0.00  0.00    -0.296 N 
ATOM     27  C   LIG d   1       5.518  -0.163  -2.862  0.00  0.00     0.022 C 
ATOM     28  C   LIG d   1       6.921  -0.388  -3.435  0.00  0.00     0.060 C 
ATOM     29  H   LIG d   1       5.250   0.900  -2.953  0.00  0.00     0.045 H 
ATOM     30  H   LIG d   1       5.501  -0.456  -1.803  0.00  0.00     0.045 H 
ATOM     31  O   LIG d   1       7.233  -1.783  -3.383  0.00  0.00    -0.377 OA
ATOM     32  H   LIG d   1       7.656   0.175  -2.840  0.00  0.00     0.057 H 
ATOM     33  H   LIG d   1       6.952  -0.044  -4.479  0.00  0.00     0.057 H 
ATOM     34  C   LIG d   1       6.312  -2.605  -4.103  0.00  0.00     0.060 C 
ATOM     35  C   LIG d   1       4.904  -2.403  -3.538  0.00  0.00     0.022 C 
ATOM     36  H   LIG d   1       6.601  -3.662  -3.997  0.00  0.00     0.057 H 
ATOM     37  H   LIG d   1       6.324  -2.327  -5.168  0.00  0.00     0.057 H 
ATOM     38  H   LIG d   1       4.877  -2.733  -2.489  0.00  0.00     0.045 H 
ATOM     39  H   LIG d   1       4.183  -2.989  -4.126  0.00  0.00     0.045 H 
ENDBRANCH  23  26
ENDBRANCH  20  23
ENDBRANCH  18  20
ENDBRANCH  13  16
ENDBRANCH   8  13
BRANCH   1  40
ATOM     40  C   LIG d   1       4.165   2.766  -9.316  0.00  0.00    -0.043 C 
ATOM     41  H   LIG d   1       3.635   3.057  -8.397  0.00  0.00     0.027 H 
ATOM     42  H   LIG d   1       4.057   3.562 -10.069  0.00  0.00     0.027 H 
ATOM     43  H   LIG d   1       5.232   2.616  -9.092  0.00  0.00     0.027 H 
ENDBRANCH   1  40
BRANCH   5  44
ATOM     44  C   LIG d   1       2.062  -2.210 -11.384  0.00  0.00    -0.043 C 
ATOM     45  H   LIG d   1       2.749  -2.728 -12.068  0.00  0.00     0.030 H 
BRANCH  44  46
ATOM     46  C   LIG d   1       1.528  -3.202 -10.348  0.00  0.00    -0.062 C 
ATOM     47  H   LIG d   1       1.116  -4.083 -10.862  0.00  0.00     0.023 H 
ATOM     48  H   LIG d   1       0.737  -2.721  -9.753  0.00  0.00     0.023 H 
ATOM     49  H   LIG d   1       2.348  -3.515  -9.684  0.00  0.00     0.023 H 
ENDBRANCH  44  46
BRANCH  44  50
ATOM     50  C   LIG d   1       0.894  -1.625 -12.179  0.00  0.00    -0.062 C 
ATOM     51  H   LIG d   1       0.029  -1.488 -11.512  0.00  0.00     0.023 H 
ATOM     52  H   LIG d   1       0.623  -2.314 -12.993  0.00  0.00     0.023 H 
ATOM     53  H   LIG d   1       1.187  -0.653 -12.603  0.00  0.00     0.023 H 
ENDBRANCH  44  50
ENDBRANCH   5  44
BRANCH   3  54
ATOM     54  C   LIG d   1       4.592  -0.848 -12.404  0.00  0.00     0.018 C 
ATOM     55  H   LIG d   1       4.400  -1.931 -12.428  0.00  0.00     0.047 H 
ATOM     56  H   LIG d   1       4.687  -0.469 -13.432  0.00  0.00     0.047 H 
BRANCH  54  57
ATOM     57  N   LIG d   1       5.833  -0.589 -11.670  0.00  0.00    -0.311 N 
ATOM     58  C   LIG d   1       6.446  -1.591 -11.009  0.00  0.00     0.244 C 
ATOM     59  O   LIG d   1       5.971  -2.708 -11.022  0.00  0.00    -0.270 OA
ATOM     60  H   LIG d   1       6.264   0.424 -11.658  0.00  0.00     0.149 HD
BRANCH  58  61
ATOM     61  C   LIG d   1       7.702  -1.327 -10.267  0.00  0.00     0.040 A 
ATOM     62  C   LIG d   1       8.497  -2.381  -9.806  0.00  0.00    -0.032 A 
ATOM     63  C   LIG d   1       9.661  -2.091  -9.118  0.00  0.00     0.028 A 
ATOM     64  H   LIG d   1       8.206  -3.406  -9.983  0.00  0.00     0.064 H 
ATOM     65  N   LIG d   1      10.022  -0.843  -8.897  0.00  0.00    -0.263 NA
ATOM     66  H   LIG d   1      10.280  -2.898  -8.758  0.00  0.00     0.083 H 
ATOM     67  C   LIG d   1       9.302   0.179  -9.315  0.00  0.00     0.028 A 
ATOM     68  C   LIG d   1       8.128  -0.020 -10.014  0.00  0.00    -0.032 A 
ATOM     69  H   LIG d   1       9.637   1.185  -9.111  0.00  0.00     0.083 H 
ATOM     70  H   LIG d   1       7.545   0.822 -10.358  0.00  0.00     0.064 H 
ENDBRANCH  58  61
ENDBRANCH  54  57
ENDBRANCH   3  54
TORSDOF 12
ENDMDL
MODEL 6
REMARK VINA RESULT:      -5.8      4.037      7.548
REMARK  12 active torsions:
REMARK  status: ('A' for Active; 'I' for Inactive)
REMARK    1  A    between atoms: C_1  and  C_2 
REMARK    2  A    between atoms: C_4  and  C_26 
REMARK    3  A    between atoms: C_6  and  C_23 
REMARK    4  A    between atoms: C_9  and  C_11 
REMARK    5  A    between atoms: C_11  and  C_12 
REMARK       I    between atoms: C_12  and  N_14 
REMARK    6  A    between atoms: N_14  and  C_15 
REMARK    7  A    between atoms: C_15  and  C_16 
REMARK    8  A    between atoms: C_16  and  N_17 
REMARK    9  A    between atoms: C_23  and  C_24 
REMARK   10  A    between atoms: C_23  and  C_25 
REMARK   11  A    between atoms: C_26  and  N_27 
REMARK       I    between atoms: N_27  and  C_28 
REMARK   12  A    between atoms: C_28  and  C_30 
ROOT
ATOM      1  C   LIG d   1       6.094  -2.128  -6.391  0.00  0.00    -0.073 C 
ATOM      2  C   LIG d   1       5.428  -1.018  -6.373  0.00  0.00    -0.080 C 
ATOM      3  C   LIG d   1       4.611  -0.548  -5.203  0.00  0.00    -0.004 C 
ATOM      4  H   LIG d   1       5.186   0.230  -4.678  0.00  0.00     0.036 H 
ATOM      5  C   LIG d   1       4.334  -1.713  -4.251  0.00  0.00    -0.030 C 
ATOM      6  H   LIG d   1       3.616  -2.409  -4.707  0.00  0.00     0.031 H 
ATOM      7  C   LIG d   1       5.659  -2.430  -3.963  0.00  0.00    -0.042 C 
ATOM      8  C   LIG d   1       6.135  -3.104  -5.252  0.00  0.00    -0.012 C 
ATOM      9  H   LIG d   1       7.175  -3.441  -5.130  0.00  0.00     0.035 H 
ATOM     10  H   LIG d   1       5.439  -0.355  -7.249  0.00  0.00     0.058 H 
ATOM     11  H   LIG d   1       6.407  -1.697  -3.624  0.00  0.00     0.027 H 
ATOM     12  H   LIG d   1       5.505  -3.186  -3.179  0.00  0.00     0.027 H 
ENDROOT
BRANCH   8  13
ATOM     13  C   LIG d   1       5.224  -4.292  -5.569  0.00  0.00     0.030 C 
ATOM     14  H   LIG d   1       4.480  -4.407  -4.769  0.00  0.00     0.036 H 
ATOM     15  H   LIG d   1       4.711  -4.115  -6.525  0.00  0.00     0.036 H 
BRANCH  13  16
ATOM     16  C   LIG d   1       6.054  -5.547  -5.669  0.00  0.00     0.214 C 
ATOM     17  O   LIG d   1       7.218  -5.533  -5.332  0.00  0.00    -0.276 OA
ATOM     18  N   LIG d   1       5.500  -6.685  -6.133  0.00  0.00    -0.314 N 
ATOM     19  H   LIG d   1       4.443  -6.698  -6.439  0.00  0.00     0.149 HD
BRANCH  18  20
ATOM     20  C   LIG d   1       6.306  -7.904  -6.230  0.00  0.00     0.024 C 
ATOM     21  H   LIG d   1       6.899  -7.879  -7.156  0.00  0.00     0.047 H 
ATOM     22  H   LIG d   1       6.980  -7.968  -5.364  0.00  0.00     0.047 H 
BRANCH  20  23
ATOM     23  C   LIG d   1       5.383  -9.125  -6.250  0.00  0.00     0.015 C 
ATOM     24  H   LIG d   1       4.457  -8.875  -6.790  0.00  0.00     0.044 H 
ATOM     25  H   LIG d   1       5.889  -9.960  -6.755  0.00  0.00     0.044 H 
BRANCH  23  26
ATOM     26  N   LIG d   1       5.055  -9.513  -4.871  0.00  0.00    -0.296 N 
ATOM     27  C   LIG d   1       4.137 -10.661  -4.852  0.00  0.00     0.022 C 
ATOM     28  C   LIG d   1       3.775 -10.993  -3.401  0.00  0.00     0.060 C 
ATOM     29  H   LIG d   1       3.223 -10.409  -5.410  0.00  0.00     0.045 H 
ATOM     30  H   LIG d   1       4.624 -11.529  -5.318  0.00  0.00     0.045 H 
ATOM     31  O   LIG d   1       4.973 -11.246  -2.662  0.00  0.00    -0.377 OA
ATOM     32  H   LIG d   1       3.134 -11.887  -3.377  0.00  0.00     0.057 H 
ATOM     33  H   LIG d   1       3.240 -10.145  -2.951  0.00  0.00     0.057 H 
ATOM     34  C   LIG d   1       5.890 -10.149  -2.661  0.00  0.00     0.060 C 
ATOM     35  C   LIG d   1       6.274  -9.808  -4.103  0.00  0.00     0.022 C 
ATOM     36  H   LIG d   1       6.795 -10.426  -2.097  0.00  0.00     0.057 H 
ATOM     37  H   LIG d   1       5.418  -9.274  -2.190  0.00  0.00     0.057 H 
ATOM     38  H   LIG d   1       6.796 -10.663  -4.558  0.00  0.00     0.045 H 
ATOM     39  H   LIG d   1       6.933  -8.928  -4.111  0.00  0.00     0.045 H 
ENDBRANCH  23  26
ENDBRANCH  20  23
ENDBRANCH  18  20
ENDBRANCH  13  16
ENDBRANCH   8  13
BRANCH   1  40
ATOM     40  C   LIG d   1       6.877  -2.460  -7.635  0.00  0.00    -0.043 C 
ATOM     41  H   LIG d   1       6.523  -1.836  -8.469  0.00  0.00     0.027 H 
ATOM     42  H   LIG d   1       6.736  -3.522  -7.886  0.00  0.00     0.027 H 
ATOM     43  H   LIG d   1       7.945  -2.264  -7.459  0.00  0.00     0.027 H 
ENDBRANCH   1  40
BRANCH   5  44
ATOM     44  C   LIG d   1       3.744  -1.179  -2.944  0.00  0.00    -0.043 C 
ATOM     45  H   LIG d   1       2.759  -0.733  -3.142  0.00  0.00     0.030 H 
BRANCH  44  46
ATOM     46  C   LIG d   1       3.592  -2.329  -1.946  0.00  0.00    -0.062 C 
ATOM     47  H   LIG d   1       3.297  -1.927  -0.965  0.00  0.00     0.023 H 
ATOM     48  H   LIG d   1       4.550  -2.861  -1.851  0.00  0.00     0.023 H 
ATOM     49  H   LIG d   1       2.819  -3.026  -2.304  0.00  0.00     0.023 H 
ENDBRANCH  44  46
BRANCH  44  50
ATOM     50  C   LIG d   1       4.677  -0.117  -2.360  0.00  0.00    -0.062 C 
ATOM     51  H   LIG d   1       4.113   0.523  -1.665  0.00  0.00     0.023 H 
ATOM     52  H   LIG d   1       5.087   0.498  -3.174  0.00  0.00     0.023 H 
ATOM     53  H   LIG d   1       5.500  -0.608  -1.820  0.00  0.00     0.023 H 
ENDBRANCH  44  50
ENDBRANCH   5  44
BRANCH   3  54
ATOM     54  C   LIG d   1       3.285   0.022  -5.708  0.00  0.00     0.018 C 
ATOM     55  H   LIG d   1       2.468  -0.317  -5.054  0.00  0.00     0.047 H 
ATOM     56  H   LIG d   1       3.330   1.120  -5.699  0.00  0.00     0.047 H 
BRANCH  54  57
ATOM     57  N   LIG d   1       3.040  -0.446  -7.075  0.00  0.00    -0.311 N 
ATOM     58  C   LIG d   1       2.924   0.444  -8.081  0.00  0.00     0.244 C 
ATOM     59  O   LIG d   1       3.023   1.633  -7.854  0.00  0.00    -0.270 OA
ATOM     60  H   LIG d   1       2.951  -1.523  -7.280  0.00  0.00     0.149 HD
BRANCH  58  61
ATOM     61  C   LIG d   1       2.677  -0.030  -9.463  0.00  0.00     0.040 A 
ATOM     62  C   LIG d   1       1.490  -0.691  -9.794  0.00  0.00    -0.032 A 
ATOM     63  C   LIG d   1       1.300  -1.116 -11.095  0.00  0.00     0.028 A 
ATOM     64  H   LIG d   1       0.733  -0.868  -9.043  0.00  0.00     0.064 H 
ATOM     65  N   LIG d   1       2.219  -0.906 -12.016  0.00  0.00    -0.263 NA
ATOM     66  H   LIG d   1       0.387  -1.629 -11.359  0.00  0.00     0.083 H 
ATOM     67  C   LIG d   1       3.351  -0.286 -11.746  0.00  0.00     0.028 A 
ATOM     68  C   LIG d   1       3.620   0.177 -10.474  0.00  0.00    -0.032 A 
ATOM     69  H   LIG d   1       4.075  -0.135 -12.533  0.00  0.00     0.083 H 
ATOM     70  H   LIG d   1       4.548   0.688 -10.261  0.00  0.00     0.064 H 
ENDBRANCH  58  61
ENDBRANCH  54  57
ENDBRANCH   3  54
TORSDOF 12
ENDMDL
MODEL 7
REMARK VINA RESULT:      -5.8      3.917      6.600
REMARK  12 active torsions:
REMARK  status: ('A' for Active; 'I' for Inactive)
REMARK    1  A    between atoms: C_1  and  C_2 
REMARK    2  A    between atoms: C_4  and  C_26 
REMARK    3  A    between atoms: C_6  and  C_23 
REMARK    4  A    between atoms: C_9  and  C_11 
REMARK    5  A    between atoms: C_11  and  C_12 
REMARK       I    between atoms: C_12  and  N_14 
REMARK    6  A    between atoms: N_14  and  C_15 
REMARK    7  A    between atoms: C_15  and  C_16 
REMARK    8  A    between atoms: C_16  and  N_17 
REMARK    9  A    between atoms: C_23  and  C_24 
REMARK   10  A    between atoms: C_23  and  C_25 
REMARK   11  A    between atoms: C_26  and  N_27 
REMARK       I    between atoms: N_27  and  C_28 
REMARK   12  A    between atoms: C_28  and  C_30 
ROOT
ATOM      1  C   LIG d   1       7.078  -3.150  -4.829  0.00  0.00    -0.073 C 
ATOM      2  C   LIG d   1       7.499  -1.931  -4.716  0.00  0.00    -0.080 C 
ATOM      3  C   LIG d   1       6.635  -0.780  -4.286  0.00  0.00    -0.004 C 
ATOM      4  H   LIG d   1       6.867  -0.556  -3.233  0.00  0.00     0.036 H 
ATOM      5  C   LIG d   1       5.157  -1.152  -4.418  0.00  0.00    -0.030 C 
ATOM      6  H   LIG d   1       4.876  -1.205  -5.479  0.00  0.00     0.031 H 
ATOM      7  C   LIG d   1       4.937  -2.512  -3.742  0.00  0.00    -0.042 C 
ATOM      8  C   LIG d   1       5.667  -3.581  -4.556  0.00  0.00    -0.012 C 
ATOM      9  H   LIG d   1       5.703  -4.520  -3.984  0.00  0.00     0.035 H 
ATOM     10  H   LIG d   1       8.547  -1.687  -4.940  0.00  0.00     0.058 H 
ATOM     11  H   LIG d   1       5.337  -2.481  -2.717  0.00  0.00     0.027 H 
ATOM     12  H   LIG d   1       3.860  -2.734  -3.709  0.00  0.00     0.027 H 
ENDROOT
BRANCH   8  13
ATOM     13  C   LIG d   1       4.937  -3.795  -5.884  0.00  0.00     0.030 C 
ATOM     14  H   LIG d   1       4.077  -3.113  -5.944  0.00  0.00     0.036 H 
ATOM     15  H   LIG d   1       5.625  -3.592  -6.718  0.00  0.00     0.036 H 
BRANCH  13  16
ATOM     16  C   LIG d   1       4.456  -5.221  -5.968  0.00  0.00     0.214 C 
ATOM     17  O   LIG d   1       3.305  -5.456  -6.272  0.00  0.00    -0.276 OA
ATOM     18  N   LIG d   1       5.304  -6.235  -5.706  0.00  0.00    -0.314 N 
ATOM     19  H   LIG d   1       6.348  -6.022  -5.430  0.00  0.00     0.149 HD
BRANCH  18  20
ATOM     20  C   LIG d   1       4.836  -7.621  -5.788  0.00  0.00     0.024 C 
ATOM     21  H   LIG d   1       4.195  -7.842  -4.922  0.00  0.00     0.047 H 
ATOM     22  H   LIG d   1       4.262  -7.760  -6.715  0.00  0.00     0.047 H 
BRANCH  20  23
ATOM     23  C   LIG d   1       6.040  -8.566  -5.786  0.00  0.00     0.015 C 
ATOM     24  H   LIG d   1       6.110  -9.071  -6.761  0.00  0.00     0.044 H 
ATOM     25  H   LIG d   1       6.959  -7.990  -5.605  0.00  0.00     0.044 H 
BRANCH  23  26
ATOM     26  N   LIG d   1       5.873  -9.569  -4.725  0.00  0.00    -0.296 N 
ATOM     27  C   LIG d   1       6.827  -9.341  -3.630  0.00  0.00     0.022 C 
ATOM     28  C   LIG d   1       6.659 -10.441  -2.578  0.00  0.00     0.060 C 
ATOM     29  H   LIG d   1       7.852  -9.364  -4.027  0.00  0.00     0.045 H 
ATOM     30  H   LIG d   1       6.633  -8.360  -3.172  0.00  0.00     0.045 H 
ATOM     31  O   LIG d   1       5.304 -10.455  -2.122  0.00  0.00    -0.377 OA
ATOM     32  H   LIG d   1       7.330 -10.244  -1.729  0.00  0.00     0.057 H 
ATOM     33  H   LIG d   1       6.906 -11.416  -3.022  0.00  0.00     0.057 H 
ATOM     34  C   LIG d   1       4.349 -10.674  -3.162  0.00  0.00     0.060 C 
ATOM     35  C   LIG d   1       4.492  -9.577  -4.220  0.00  0.00     0.022 C 
ATOM     36  H   LIG d   1       3.332 -10.646  -2.741  0.00  0.00     0.057 H 
ATOM     37  H   LIG d   1       4.527 -11.656  -3.626  0.00  0.00     0.057 H 
ATOM     38  H   LIG d   1       4.260  -8.600  -3.772  0.00  0.00     0.045 H 
ATOM     39  H   LIG d   1       3.799  -9.773  -5.052  0.00  0.00     0.045 H 
ENDBRANCH  23  26
ENDBRANCH  20  23
ENDBRANCH  18  20
ENDBRANCH  13  16
ENDBRANCH   8  13
BRANCH   1  40
ATOM     40  C   LIG d   1       8.068  -4.200  -5.261  0.00  0.00    -0.043 C 
ATOM     41  H   LIG d   1       8.148  -4.200  -6.359  0.00  0.00     0.027 H 
ATOM     42  H   LIG d   1       7.728  -5.189  -4.919  0.00  0.00     0.027 H 
ATOM     43  H   LIG d   1       9.052  -3.979  -4.822  0.00  0.00     0.027 H 
ENDBRANCH   1  40
BRANCH   5  44
ATOM     44  C   LIG d   1       4.296  -0.090  -3.730  0.00  0.00    -0.043 C 
ATOM     45  H   LIG d   1       4.836   0.867  -3.720  0.00  0.00     0.030 H 
BRANCH  44  46
ATOM     46  C   LIG d   1       2.981   0.073  -4.495  0.00  0.00    -0.062 C 
ATOM     47  H   LIG d   1       3.195   0.317  -5.546  0.00  0.00     0.023 H 
ATOM     48  H   LIG d   1       2.392   0.885  -4.043  0.00  0.00     0.023 H 
ATOM     49  H   LIG d   1       2.410  -0.866  -4.446  0.00  0.00     0.023 H 
ENDBRANCH  44  46
BRANCH  44  50
ATOM     50  C   LIG d   1       4.000  -0.526  -2.294  0.00  0.00    -0.062 C 
ATOM     51  H   LIG d   1       4.883  -1.032  -1.876  0.00  0.00     0.023 H 
ATOM     52  H   LIG d   1       3.145  -1.218  -2.291  0.00  0.00     0.023 H 
ATOM     53  H   LIG d   1       3.760   0.358  -1.684  0.00  0.00     0.023 H 
ENDBRANCH  44  50
ENDBRANCH   5  44
BRANCH   3  54
ATOM     54  C   LIG d   1       6.934   0.434  -5.166  0.00  0.00     0.018 C 
ATOM     55  H   LIG d   1       6.628   1.351  -4.642  0.00  0.00     0.047 H 
ATOM     56  H   LIG d   1       8.012   0.476  -5.379  0.00  0.00     0.047 H 
BRANCH  54  57
ATOM     57  N   LIG d   1       6.191   0.321  -6.424  0.00  0.00    -0.311 N 
ATOM     58  C   LIG d   1       6.551   1.066  -7.488  0.00  0.00     0.244 C 
ATOM     59  O   LIG d   1       7.491   1.830  -7.405  0.00  0.00    -0.270 OA
ATOM     60  H   LIG d   1       5.340  -0.371  -6.500  0.00  0.00     0.149 HD
BRANCH  58  61
ATOM     61  C   LIG d   1       5.799   0.951  -8.760  0.00  0.00     0.040 A 
ATOM     62  C   LIG d   1       4.755   1.832  -9.059  0.00  0.00    -0.032 A 
ATOM     63  C   LIG d   1       4.080   1.689 -10.257  0.00  0.00     0.028 A 
ATOM     64  H   LIG d   1       4.480   2.612  -8.365  0.00  0.00     0.064 H 
ATOM     65  N   LIG d   1       4.409   0.739 -11.109  0.00  0.00    -0.263 NA
ATOM     66  H   LIG d   1       3.272   2.364 -10.496  0.00  0.00     0.083 H 
ATOM     67  C   LIG d   1       5.387  -0.111 -10.866  0.00  0.00     0.028 A 
ATOM     68  C   LIG d   1       6.117  -0.037  -9.696  0.00  0.00    -0.032 A 
ATOM     69  H   LIG d   1       5.623  -0.874 -11.594  0.00  0.00     0.083 H 
ATOM     70  H   LIG d   1       6.920  -0.734  -9.506  0.00  0.00     0.064 H 
ENDBRANCH  58  61
ENDBRANCH  54  57
ENDBRANCH   3  54
TORSDOF 12
ENDMDL
MODEL 8
REMARK VINA RESULT:      -5.6      3.716      6.831
REMARK  12 active torsions:
REMARK  status: ('A' for Active; 'I' for Inactive)
REMARK    1  A    between atoms: C_1  and  C_2 
REMARK    2  A    between atoms: C_4  and  C_26 
REMARK    3  A    between atoms: C_6  and  C_23 
REMARK    4  A    between atoms: C_9  and  C_11 
REMARK    5  A    between atoms: C_11  and  C_12 
REMARK       I    between atoms: C_12  and  N_14 
REMARK    6  A    between atoms: N_14  and  C_15 
REMARK    7  A    between atoms: C_15  and  C_16 
REMARK    8  A    between atoms: C_16  and  N_17 
REMARK    9  A    between atoms: C_23  and  C_24 
REMARK   10  A    between atoms: C_23  and  C_25 
REMARK   11  A    between atoms: C_26  and  N_27 
REMARK       I    between atoms: N_27  and  C_28 
REMARK   12  A    between atoms: C_28  and  C_30 
ROOT
ATOM      1  C   LIG d   1       3.606   1.102  -9.151  0.00  0.00    -0.073 C 
ATOM      2  C   LIG d   1       4.785   1.033  -8.621  0.00  0.00    -0.080 C 
ATOM      3  C   LIG d   1       5.771  -0.062  -8.906  0.00  0.00    -0.004 C 
ATOM      4  H   LIG d   1       6.524   0.332  -9.606  0.00  0.00     0.036 H 
ATOM      5  C   LIG d   1       5.060  -1.261  -9.537  0.00  0.00    -0.030 C 
ATOM      6  H   LIG d   1       4.437  -1.767  -8.786  0.00  0.00     0.031 H 
ATOM      7  C   LIG d   1       4.190  -0.755 -10.694  0.00  0.00    -0.042 C 
ATOM      8  C   LIG d   1       3.056   0.091 -10.114  0.00  0.00    -0.012 C 
ATOM      9  H   LIG d   1       2.549   0.635 -10.925  0.00  0.00     0.035 H 
ATOM     10  H   LIG d   1       5.118   1.808  -7.916  0.00  0.00     0.058 H 
ATOM     11  H   LIG d   1       4.804  -0.145 -11.375  0.00  0.00     0.027 H 
ATOM     12  H   LIG d   1       3.776  -1.613 -11.244  0.00  0.00     0.027 H 
ENDROOT
BRANCH   8  13
ATOM     13  C   LIG d   1       2.067  -0.819  -9.383  0.00  0.00     0.030 C 
ATOM     14  H   LIG d   1       2.615  -1.479  -8.696  0.00  0.00     0.036 H 
ATOM     15  H   LIG d   1       1.355  -0.205  -8.813  0.00  0.00     0.036 H 
BRANCH  13  16
ATOM     16  C   LIG d   1       1.315  -1.653 -10.389  0.00  0.00     0.214 C 
ATOM     17  O   LIG d   1       0.955  -1.161 -11.437  0.00  0.00    -0.276 OA
ATOM     18  N   LIG d   1       1.045  -2.947 -10.125  0.00  0.00    -0.314 N 
ATOM     19  H   LIG d   1       1.372  -3.394  -9.173  0.00  0.00     0.149 HD
BRANCH  18  20
ATOM     20  C   LIG d   1       0.316  -3.758 -11.102  0.00  0.00     0.024 C 
ATOM     21  H   LIG d   1      -0.728  -3.415 -11.156  0.00  0.00     0.047 H 
ATOM     22  H   LIG d   1       0.787  -3.652 -12.090  0.00  0.00     0.047 H 
BRANCH  20  23
ATOM     23  C   LIG d   1       0.350  -5.226 -10.674  0.00  0.00     0.015 C 
ATOM     24  H   LIG d   1       0.449  -5.865 -11.563  0.00  0.00     0.044 H 
ATOM     25  H   LIG d   1       1.206  -5.393 -10.004  0.00  0.00     0.044 H 
BRANCH  23  26
ATOM     26  N   LIG d   1      -0.896  -5.559  -9.969  0.00  0.00    -0.296 N 
ATOM     27  C   LIG d   1      -2.055  -4.938 -10.626  0.00  0.00     0.022 C 
ATOM     28  C   LIG d   1      -3.321  -5.262  -9.827  0.00  0.00     0.060 C 
ATOM     29  H   LIG d   1      -1.913  -3.848 -10.666  0.00  0.00     0.045 H 
ATOM     30  H   LIG d   1      -2.154  -5.333 -11.648  0.00  0.00     0.045 H 
ATOM     31  O   LIG d   1      -3.459  -6.681  -9.714  0.00  0.00    -0.377 OA
ATOM     32  H   LIG d   1      -4.199  -4.848 -10.345  0.00  0.00     0.057 H 
ATOM     33  H   LIG d   1      -3.246  -4.820  -8.823  0.00  0.00     0.057 H 
ATOM     34  C   LIG d   1      -2.347  -7.318  -9.079  0.00  0.00     0.060 C 
ATOM     35  C   LIG d   1      -1.071  -7.016  -9.871  0.00  0.00     0.022 C 
ATOM     36  H   LIG d   1      -2.512  -8.406  -9.052  0.00  0.00     0.057 H 
ATOM     37  H   LIG d   1      -2.241  -6.937  -8.053  0.00  0.00     0.057 H 
ATOM     38  H   LIG d   1      -1.154  -7.444 -10.880  0.00  0.00     0.045 H 
ATOM     39  H   LIG d   1      -0.205  -7.455  -9.355  0.00  0.00     0.045 H 
ENDBRANCH  23  26
ENDBRANCH  20  23
ENDBRANCH  18  20
ENDBRANCH  13  16
ENDBRANCH   8  13
BRANCH   1  40
ATOM     40  C   LIG d   1       2.731   2.270  -8.775  0.00  0.00    -0.043 C 
ATOM     41  H   LIG d   1       1.989   2.443  -9.569  0.00  0.00     0.027 H 
ATOM     42  H   LIG d   1       3.352   3.170  -8.651  0.00  0.00     0.027 H 
ATOM     43  H   LIG d   1       2.212   2.050  -7.830  0.00  0.00     0.027 H 
ENDBRANCH   1  40
BRANCH   5  44
ATOM     44  C   LIG d   1       6.098  -2.253 -10.068  0.00  0.00    -0.043 C 
ATOM     45  H   LIG d   1       6.781  -2.538  -9.256  0.00  0.00     0.030 H 
BRANCH  44  46
ATOM     46  C   LIG d   1       5.386  -3.499 -10.598  0.00  0.00    -0.062 C 
ATOM     47  H   LIG d   1       5.452  -4.305  -9.852  0.00  0.00     0.023 H 
ATOM     48  H   LIG d   1       5.865  -3.826 -11.533  0.00  0.00     0.023 H 
ATOM     49  H   LIG d   1       4.328  -3.264 -10.790  0.00  0.00     0.023 H 
ENDBRANCH  44  46
BRANCH  44  50
ATOM     50  C   LIG d   1       6.893  -1.600 -11.200  0.00  0.00    -0.062 C 
ATOM     51  H   LIG d   1       7.722  -1.015 -10.775  0.00  0.00     0.023 H 
ATOM     52  H   LIG d   1       6.233  -0.936 -11.776  0.00  0.00     0.023 H 
ATOM     53  H   LIG d   1       7.298  -2.381 -11.862  0.00  0.00     0.023 H 
ENDBRANCH  44  50
ENDBRANCH   5  44
BRANCH   3  54
ATOM     54  C   LIG d   1       6.437  -0.497  -7.599  0.00  0.00     0.018 C 
ATOM     55  H   LIG d   1       6.603  -1.584  -7.616  0.00  0.00     0.047 H 
ATOM     56  H   LIG d   1       7.402   0.019  -7.490  0.00  0.00     0.047 H 
BRANCH  54  57
ATOM     57  N   LIG d   1       5.569  -0.154  -6.470  0.00  0.00    -0.311 N 
ATOM     58  C   LIG d   1       6.012  -0.313  -5.207  0.00  0.00     0.244 C 
ATOM     59  O   LIG d   1       7.131  -0.738  -5.005  0.00  0.00    -0.270 OA
ATOM     60  H   LIG d   1       4.555   0.232  -6.653  0.00  0.00     0.149 HD
BRANCH  58  61
ATOM     61  C   LIG d   1       5.133   0.034  -4.066  0.00  0.00     0.040 A 
ATOM     62  C   LIG d   1       5.637   0.712  -2.951  0.00  0.00    -0.032 A 
ATOM     63  C   LIG d   1       4.783   1.017  -1.909  0.00  0.00     0.028 A 
ATOM     64  H   LIG d   1       6.679   0.993  -2.906  0.00  0.00     0.064 H 
ATOM     65  N   LIG d   1       3.511   0.677  -1.956  0.00  0.00    -0.263 NA
ATOM     66  H   LIG d   1       5.164   1.539  -1.044  0.00  0.00     0.083 H 
ATOM     67  C   LIG d   1       2.995   0.038  -2.988  0.00  0.00     0.028 A 
ATOM     68  C   LIG d   1       3.776  -0.301  -4.075  0.00  0.00    -0.032 A 
ATOM     69  H   LIG d   1       1.946  -0.221  -2.983  0.00  0.00     0.083 H 
ATOM     70  H   LIG d   1       3.345  -0.820  -4.919  0.00  0.00     0.064 H 
ENDBRANCH  58  61
ENDBRANCH  54  57
ENDBRANCH   3  54
TORSDOF 12
ENDMDL
MODEL 9
REMARK VINA RESULT:      -5.5      4.475      9.957
REMARK  12 active torsions:
REMARK  status: ('A' for Active; 'I' for Inactive)
REMARK    1  A    between atoms: C_1  and  C_2 
REMARK    2  A    between atoms: C_4  and  C_26 
REMARK    3  A    between atoms: C_6  and  C_23 
REMARK    4  A    between atoms: C_9  and  C_11 
REMARK    5  A    between atoms: C_11  and  C_12 
REMARK       I    between atoms: C_12  and  N_14 
REMARK    6  A    between atoms: N_14  and  C_15 
REMARK    7  A    between atoms: C_15  and  C_16 
REMARK    8  A    between atoms: C_16  and  N_17 
REMARK    9  A    between atoms: C_23  and  C_24 
REMARK   10  A    between atoms: C_23  and  C_25 
REMARK   11  A    between atoms: C_26  and  N_27 
REMARK       I    between atoms: N_27  and  C_28 
REMARK   12  A    between atoms: C_28  and  C_30 
ROOT
ATOM      1  C   LIG d   1      10.046   2.724  -4.562  0.00  0.00    -0.073 C 
ATOM      2  C   LIG d   1       9.455   1.740  -5.160  0.00  0.00    -0.080 C 
ATOM      3  C   LIG d   1       9.114   1.729  -6.623  0.00  0.00    -0.004 C 
ATOM      4  H   LIG d   1       9.856   1.101  -7.140  0.00  0.00     0.036 H 
ATOM      5  C   LIG d   1       9.163   3.151  -7.186  0.00  0.00    -0.030 C 
ATOM      6  H   LIG d   1       8.313   3.736  -6.804  0.00  0.00     0.031 H 
ATOM      7  C   LIG d   1      10.487   3.797  -6.759  0.00  0.00    -0.042 C 
ATOM      8  C   LIG d   1      10.462   3.995  -5.242  0.00  0.00    -0.012 C 
ATOM      9  H   LIG d   1      11.470   4.256  -4.887  0.00  0.00     0.035 H 
ATOM     10  H   LIG d   1       9.173   0.841  -4.594  0.00  0.00     0.058 H 
ATOM     11  H   LIG d   1      11.323   3.139  -7.038  0.00  0.00     0.027 H 
ATOM     12  H   LIG d   1      10.600   4.769  -7.263  0.00  0.00     0.027 H 
ENDROOT
BRANCH   8  13
ATOM     13  C   LIG d   1       9.470   5.106  -4.891  0.00  0.00     0.030 C 
ATOM     14  H   LIG d   1       9.096   5.569  -5.815  0.00  0.00     0.036 H 
ATOM     15  H   LIG d   1       8.627   4.680  -4.326  0.00  0.00     0.036 H 
BRANCH  13  16
ATOM     16  C   LIG d   1      10.161   6.148  -4.050  0.00  0.00     0.214 C 
ATOM     17  O   LIG d   1      11.352   6.063  -3.835  0.00  0.00    -0.276 OA
ATOM     18  N   LIG d   1       9.457   7.177  -3.537  0.00  0.00    -0.314 N 
ATOM     19  H   LIG d   1       8.376   7.255  -3.732  0.00  0.00     0.149 HD
BRANCH  18  20
ATOM     20  C   LIG d   1      10.128   8.190  -2.721  0.00  0.00     0.024 C 
ATOM     21  H   LIG d   1      11.083   7.789  -2.351  0.00  0.00     0.047 H 
ATOM     22  H   LIG d   1      10.319   9.085  -3.331  0.00  0.00     0.047 H 
BRANCH  20  23
ATOM     23  C   LIG d   1       9.237   8.561  -1.534  0.00  0.00     0.015 C 
ATOM     24  H   LIG d   1       9.040   9.644  -1.547  0.00  0.00     0.044 H 
ATOM     25  H   LIG d   1       8.286   8.015  -1.604  0.00  0.00     0.044 H 
BRANCH  23  26
ATOM     26  N   LIG d   1       9.916   8.203  -0.281  0.00  0.00    -0.296 N 
ATOM     27  C   LIG d   1      10.508   6.861  -0.368  0.00  0.00     0.022 C 
ATOM     28  C   LIG d   1      11.152   6.505   0.975  0.00  0.00     0.060 C 
ATOM     29  H   LIG d   1       9.722   6.128  -0.605  0.00  0.00     0.045 H 
ATOM     30  H   LIG d   1      11.273   6.847  -1.158  0.00  0.00     0.045 H 
ATOM     31  O   LIG d   1      12.120   7.502   1.314  0.00  0.00    -0.377 OA
ATOM     32  H   LIG d   1      11.646   5.525   0.899  0.00  0.00     0.057 H 
ATOM     33  H   LIG d   1      10.378   6.466   1.756  0.00  0.00     0.057 H 
ATOM     34  C   LIG d   1      11.577   8.822   1.406  0.00  0.00     0.060 C 
ATOM     35  C   LIG d   1      10.938   9.201   0.068  0.00  0.00     0.022 C 
ATOM     36  H   LIG d   1      12.382   9.535   1.643  0.00  0.00     0.057 H 
ATOM     37  H   LIG d   1      10.815   8.852   2.199  0.00  0.00     0.057 H 
ATOM     38  H   LIG d   1      11.710   9.225  -0.716  0.00  0.00     0.045 H 
ATOM     39  H   LIG d   1      10.469  10.192   0.151  0.00  0.00     0.045 H 
ENDBRANCH  23  26
ENDBRANCH  20  23
ENDBRANCH  18  20
ENDBRANCH  13  16
ENDBRANCH   8  13
BRANCH   1  40
ATOM     40  C   LIG d   1      10.332   2.584  -3.089  0.00  0.00    -0.043 C 
ATOM     41  H   LIG d   1       9.423   2.813  -2.515  0.00  0.00     0.027 H 
ATOM     42  H   LIG d   1      11.133   3.282  -2.802  0.00  0.00     0.027 H 
ATOM     43  H   LIG d   1      10.651   1.552  -2.874  0.00  0.00     0.027 H 
ENDBRANCH   1  40
BRANCH   5  44
ATOM     44  C   LIG d   1       9.083   3.102  -8.713  0.00  0.00    -0.043 C 
ATOM     45  H   LIG d   1       8.244   2.459  -9.016  0.00  0.00     0.030 H 
BRANCH  44  46
ATOM     46  C   LIG d   1       8.866   4.515  -9.258  0.00  0.00    -0.062 C 
ATOM     47  H   LIG d   1       8.523   5.173  -8.445  0.00  0.00     0.023 H 
ATOM     48  H   LIG d   1       8.107   4.490 -10.053  0.00  0.00     0.023 H 
ATOM     49  H   LIG d   1       9.813   4.900  -9.666  0.00  0.00     0.023 H 
ENDBRANCH  44  46
BRANCH  44  50
ATOM     50  C   LIG d   1      10.389   2.535  -9.273  0.00  0.00    -0.062 C 
ATOM     51  H   LIG d   1      10.187   1.575  -9.772  0.00  0.00     0.023 H 
ATOM     52  H   LIG d   1      11.103   2.378  -8.451  0.00  0.00     0.023 H 
ATOM     53  H   LIG d   1      10.814   3.243 -10.000  0.00  0.00     0.023 H 
ENDBRANCH  44  50
ENDBRANCH   5  44
BRANCH   3  54
ATOM     54  C   LIG d   1       7.709   1.156  -6.811  0.00  0.00     0.018 C 
ATOM     55  H   LIG d   1       7.116   1.838  -7.439  0.00  0.00     0.047 H 
ATOM     56  H   LIG d   1       7.776   0.174  -7.300  0.00  0.00     0.047 H 
BRANCH  54  57
ATOM     57  N   LIG d   1       7.062   1.009  -5.505  0.00  0.00    -0.311 N 
ATOM     58  C   LIG d   1       6.274  -0.057  -5.260  0.00  0.00     0.244 C 
ATOM     59  O   LIG d   1       6.102  -0.896  -6.121  0.00  0.00    -0.270 OA
ATOM     60  H   LIG d   1       7.218   1.768  -4.725  0.00  0.00     0.149 HD
BRANCH  58  61
ATOM     61  C   LIG d   1       5.620  -0.206  -3.938  0.00  0.00     0.040 A 
ATOM     62  C   LIG d   1       5.434   0.899  -3.101  0.00  0.00    -0.032 A 
ATOM     63  C   LIG d   1       4.819   0.716  -1.877  0.00  0.00     0.028 A 
ATOM     64  H   LIG d   1       5.766   1.880  -3.407  0.00  0.00     0.064 H 
ATOM     65  N   LIG d   1       4.412  -0.478  -1.497  0.00  0.00    -0.263 NA
ATOM     66  H   LIG d   1       4.672   1.564  -1.224  0.00  0.00     0.083 H 
ATOM     67  C   LIG d   1       4.567  -1.545  -2.256  0.00  0.00     0.028 A 
ATOM     68  C   LIG d   1       5.167  -1.452  -3.496  0.00  0.00    -0.032 A 
ATOM     69  H   LIG d   1       4.218  -2.505  -1.903  0.00  0.00     0.083 H 
ATOM     70  H   LIG d   1       5.286  -2.329  -4.114  0.00  0.00     0.064 H 
ENDBRANCH  58  61
ENDBRANCH  54  57
ENDBRANCH   3  54
TORSDOF 12
ENDMDL
