MODEL 1
REMARK VINA RESULT:      -6.7      0.000      0.000
REMARK  2 active torsions:
REMARK  status: ('A' for Active; 'I' for Inactive)
REMARK    1  A    between atoms: C_2  and  C_15 
REMARK    2  A    between atoms: C_15  and  N_38 
ROOT
ATOM      1  C   LIG d   1       5.012  -1.811  -7.679  0.00  0.00    -0.005 C 
ATOM      2  H   LIG d   1       5.492  -2.446  -8.422  0.00  0.00     0.087 H 
ATOM      3  H   LIG d   1       5.657  -0.963  -7.453  0.00  0.00     0.087 H 
ENDROOT
BRANCH   1   4
ATOM      4  C   LIG d   1       4.769  -2.606  -6.421  0.00  0.00     0.015 A 
ATOM      5  C   LIG d   1       4.613  -3.954  -6.467  0.00  0.00     0.032 A 
ATOM      6  C   LIG d   1       4.387  -4.674  -5.275  0.00  0.00     0.338 A 
ATOM      7  H   LIG d   1       4.662  -4.473  -7.412  0.00  0.00     0.069 H 
ATOM      8  O   LIG d   1       4.319  -4.062  -4.084  0.00  0.00    -0.422 OA
ATOM      9  O   LIG d   1       4.249  -5.883  -5.329  0.00  0.00    -0.245 OA
ATOM     10  C   LIG d   1       4.464  -2.723  -3.969  0.00  0.00     0.143 A 
ATOM     11  C   LIG d   1       4.700  -1.945  -5.116  0.00  0.00     0.029 A 
ATOM     12  C   LIG d   1       4.390  -2.108  -2.727  0.00  0.00     0.027 A 
ATOM     13  C   LIG d   1       4.856  -0.558  -5.003  0.00  0.00    -0.005 A 
ATOM     14  C   LIG d   1       4.785   0.038  -3.763  0.00  0.00     0.167 A 
ATOM     15  H   LIG d   1       5.035   0.042  -5.883  0.00  0.00     0.066 H 
ATOM     16  O   LIG d   1       4.900   1.345  -3.383  0.00  0.00    -0.453 OA
ATOM     17  C   LIG d   1       4.555  -0.738  -2.621  0.00  0.00     0.170 A 
ATOM     18  C   LIG d   1       4.331   1.412  -2.062  0.00  0.00     0.233 C 
ATOM     19  O   LIG d   1       4.528   0.087  -1.535  0.00  0.00    -0.453 OA
ATOM     20  H   LIG d   1       3.269   1.650  -2.113  0.00  0.00     0.117 H 
ATOM     21  H   LIG d   1       4.858   2.148  -1.453  0.00  0.00     0.117 H 
ATOM     22  H   LIG d   1       4.214  -2.701  -1.842  0.00  0.00     0.069 H 
ENDBRANCH   1   4
BRANCH   1  23
ATOM     23  N   LIG d   1       3.710  -1.348  -8.203  0.00  0.00     0.238 N 
ATOM     24  C   LIG d   1       3.814   0.061  -8.638  0.00  0.00    -0.032 C 
ATOM     25  C   LIG d   1       2.428   0.553  -9.065  0.00  0.00    -0.012 C 
ATOM     26  H   LIG d   1       4.505   0.152  -9.476  0.00  0.00     0.081 H 
ATOM     27  H   LIG d   1       4.172   0.664  -7.804  0.00  0.00     0.081 H 
ATOM     28  C   LIG d   1       1.921  -0.310 -10.223  0.00  0.00    -0.043 C 
ATOM     29  H   LIG d   1       2.494   1.591  -9.387  0.00  0.00     0.032 H 
ATOM     30  H   LIG d   1       1.740   0.474  -8.224  0.00  0.00     0.032 H 
ATOM     31  C   LIG d   1       1.889  -1.776  -9.782  0.00  0.00    -0.012 C 
ATOM     32  H   LIG d   1       0.916   0.009 -10.502  0.00  0.00     0.027 H 
ATOM     33  H   LIG d   1       2.588  -0.201 -11.078  0.00  0.00     0.027 H 
ATOM     34  C   LIG d   1       3.290  -2.200  -9.336  0.00  0.00    -0.032 C 
ATOM     35  H   LIG d   1       1.192  -1.891  -8.953  0.00  0.00     0.032 H 
ATOM     36  H   LIG d   1       1.569  -2.400 -10.617  0.00  0.00     0.032 H 
ATOM     37  H   LIG d   1       3.984  -2.097 -10.169  0.00  0.00     0.081 H 
ATOM     38  H   LIG d   1       3.267  -3.239  -9.007  0.00  0.00     0.081 H 
ATOM     39  H   LIG d   1       3.008  -1.415  -7.457  0.00  0.00     0.204 HD
ENDBRANCH   1  23
TORSDOF 2
ENDMDL
MODEL 2
REMARK VINA RESULT:      -6.4      2.547      5.377
REMARK  2 active torsions:
REMARK  status: ('A' for Active; 'I' for Inactive)
REMARK    1  A    between atoms: C_2  and  C_15 
REMARK    2  A    between atoms: C_15  and  N_38 
ROOT
ATOM      1  C   LIG d   1       6.120  -2.244  -4.390  0.00  0.00    -0.005 C 
ATOM      2  H   LIG d   1       7.073  -1.897  -4.789  0.00  0.00     0.087 H 
ATOM      3  H   LIG d   1       6.300  -2.999  -3.625  0.00  0.00     0.087 H 
ENDROOT
BRANCH   1   4
ATOM      4  C   LIG d   1       5.299  -2.844  -5.503  0.00  0.00     0.015 A 
ATOM      5  C   LIG d   1       4.874  -4.133  -5.439  0.00  0.00     0.032 A 
ATOM      6  C   LIG d   1       4.106  -4.670  -6.494  0.00  0.00     0.338 A 
ATOM      7  H   LIG d   1       5.123  -4.744  -4.585  0.00  0.00     0.069 H 
ATOM      8  O   LIG d   1       3.779  -3.940  -7.570  0.00  0.00    -0.422 OA
ATOM      9  O   LIG d   1       3.731  -5.827  -6.425  0.00  0.00    -0.245 OA
ATOM     10  C   LIG d   1       4.171  -2.653  -7.696  0.00  0.00     0.143 A 
ATOM     11  C   LIG d   1       4.933  -2.052  -6.679  0.00  0.00     0.029 A 
ATOM     12  C   LIG d   1       3.823  -1.915  -8.819  0.00  0.00     0.027 A 
ATOM     13  C   LIG d   1       5.337  -0.717  -6.801  0.00  0.00    -0.005 A 
ATOM     14  C   LIG d   1       4.980   0.005  -7.919  0.00  0.00     0.167 A 
ATOM     15  H   LIG d   1       5.924  -0.254  -6.021  0.00  0.00     0.066 H 
ATOM     16  O   LIG d   1       5.240   1.297  -8.278  0.00  0.00    -0.453 OA
ATOM     17  C   LIG d   1       4.218  -0.593  -8.929  0.00  0.00     0.170 A 
ATOM     18  C   LIG d   1       4.984   1.359  -9.694  0.00  0.00     0.233 C 
ATOM     19  O   LIG d   1       4.006   0.327  -9.914  0.00  0.00    -0.453 OA
ATOM     20  H   LIG d   1       5.894   1.150 -10.257  0.00  0.00     0.117 H 
ATOM     21  H   LIG d   1       4.581   2.334  -9.970  0.00  0.00     0.117 H 
ATOM     22  H   LIG d   1       3.234  -2.370  -9.601  0.00  0.00     0.069 H 
ENDBRANCH   1   4
BRANCH   1  23
ATOM     23  N   LIG d   1       5.382  -1.097  -3.825  0.00  0.00     0.238 N 
ATOM     24  C   LIG d   1       4.463  -1.561  -2.764  0.00  0.00    -0.032 C 
ATOM     25  C   LIG d   1       3.626  -0.375  -2.277  0.00  0.00    -0.012 C 
ATOM     26  H   LIG d   1       5.024  -1.977  -1.927  0.00  0.00     0.081 H 
ATOM     27  H   LIG d   1       3.804  -2.326  -3.175  0.00  0.00     0.081 H 
ATOM     28  C   LIG d   1       4.557   0.704  -1.718  0.00  0.00    -0.043 C 
ATOM     29  H   LIG d   1       2.944  -0.707  -1.495  0.00  0.00     0.032 H 
ATOM     30  H   LIG d   1       3.055   0.033  -3.110  0.00  0.00     0.032 H 
ATOM     31  C   LIG d   1       5.551   1.123  -2.805  0.00  0.00    -0.012 C 
ATOM     32  H   LIG d   1       3.968   1.569  -1.410  0.00  0.00     0.027 H 
ATOM     33  H   LIG d   1       5.100   0.309  -0.860  0.00  0.00     0.027 H 
ATOM     34  C   LIG d   1       6.332  -0.106  -3.276  0.00  0.00    -0.032 C 
ATOM     35  H   LIG d   1       5.010   1.555  -3.647  0.00  0.00     0.032 H 
ATOM     36  H   LIG d   1       6.244   1.861  -2.400  0.00  0.00     0.032 H 
ATOM     37  H   LIG d   1       6.884  -0.529  -2.437  0.00  0.00     0.081 H 
ATOM     38  H   LIG d   1       7.030   0.186  -4.060  0.00  0.00     0.081 H 
ATOM     39  H   LIG d   1       4.833  -0.653  -4.571  0.00  0.00     0.204 HD
ENDBRANCH   1  23
TORSDOF 2
ENDMDL
MODEL 3
REMARK VINA RESULT:      -6.3      3.130      5.952
REMARK  2 active torsions:
REMARK  status: ('A' for Active; 'I' for Inactive)
REMARK    1  A    between atoms: C_2  and  C_15 
REMARK    2  A    between atoms: C_15  and  N_38 
ROOT
ATOM      1  C   LIG d   1       5.181  -2.460  -5.711  0.00  0.00    -0.005 C 
ATOM      2  H   LIG d   1       5.311  -1.756  -6.532  0.00  0.00     0.087 H 
ATOM      3  H   LIG d   1       6.132  -2.599  -5.197  0.00  0.00     0.087 H 
ENDROOT
BRANCH   1   4
ATOM      4  C   LIG d   1       4.707  -3.785  -6.254  0.00  0.00     0.015 A 
ATOM      5  C   LIG d   1       4.900  -4.934  -5.556  0.00  0.00     0.032 A 
ATOM      6  C   LIG d   1       4.446  -6.160  -6.087  0.00  0.00     0.338 A 
ATOM      7  H   LIG d   1       5.398  -4.909  -4.599  0.00  0.00     0.069 H 
ATOM      8  O   LIG d   1       3.824  -6.227  -7.273  0.00  0.00    -0.422 OA
ATOM      9  O   LIG d   1       4.625  -7.183  -5.452  0.00  0.00    -0.245 OA
ATOM     10  C   LIG d   1       3.601  -5.121  -8.017  0.00  0.00     0.143 A 
ATOM     11  C   LIG d   1       4.021  -3.865  -7.545  0.00  0.00     0.029 A 
ATOM     12  C   LIG d   1       2.956  -5.213  -9.243  0.00  0.00     0.027 A 
ATOM     13  C   LIG d   1       3.788  -2.715  -8.310  0.00  0.00    -0.005 A 
ATOM     14  C   LIG d   1       3.142  -2.821  -9.522  0.00  0.00     0.167 A 
ATOM     15  H   LIG d   1       4.112  -1.749  -7.950  0.00  0.00     0.066 H 
ATOM     16  O   LIG d   1       2.799  -1.874 -10.445  0.00  0.00    -0.453 OA
ATOM     17  C   LIG d   1       2.721  -4.071  -9.989  0.00  0.00     0.170 A 
ATOM     18  C   LIG d   1       2.535  -2.602 -11.660  0.00  0.00     0.233 C 
ATOM     19  O   LIG d   1       2.117  -3.900 -11.200  0.00  0.00    -0.453 OA
ATOM     20  H   LIG d   1       3.440  -2.682 -12.262  0.00  0.00     0.117 H 
ATOM     21  H   LIG d   1       1.739  -2.123 -12.230  0.00  0.00     0.117 H 
ATOM     22  H   LIG d   1       2.627  -6.174  -9.608  0.00  0.00     0.069 H 
ENDBRANCH   1   4
BRANCH   1  23
ATOM     23  N   LIG d   1       4.159  -1.940  -4.780  0.00  0.00     0.238 N 
ATOM     24  C   LIG d   1       4.635  -2.065  -3.386  0.00  0.00    -0.032 C 
ATOM     25  C   LIG d   1       3.515  -1.631  -2.437  0.00  0.00    -0.012 C 
ATOM     26  H   LIG d   1       5.512  -1.439  -3.223  0.00  0.00     0.081 H 
ATOM     27  H   LIG d   1       4.891  -3.107  -3.192  0.00  0.00     0.081 H 
ATOM     28  C   LIG d   1       3.145  -0.174  -2.727  0.00  0.00    -0.043 C 
ATOM     29  H   LIG d   1       3.856  -1.721  -1.406  0.00  0.00     0.032 H 
ATOM     30  H   LIG d   1       2.642  -2.265  -2.590  0.00  0.00     0.032 H 
ATOM     31  C   LIG d   1       2.725  -0.043  -4.193  0.00  0.00    -0.012 C 
ATOM     32  H   LIG d   1       2.318   0.127  -2.083  0.00  0.00     0.027 H 
ATOM     33  H   LIG d   1       4.007   0.466  -2.537  0.00  0.00     0.027 H 
ATOM     34  C   LIG d   1       3.868  -0.524  -5.091  0.00  0.00    -0.032 C 
ATOM     35  H   LIG d   1       1.840  -0.653  -4.374  0.00  0.00     0.032 H 
ATOM     36  H   LIG d   1       2.501   1.000  -4.417  0.00  0.00     0.032 H 
ATOM     37  H   LIG d   1       4.748   0.094  -4.920  0.00  0.00     0.081 H 
ATOM     38  H   LIG d   1       3.566  -0.446  -6.135  0.00  0.00     0.081 H 
ATOM     39  H   LIG d   1       3.298  -2.488  -4.889  0.00  0.00     0.204 HD
ENDBRANCH   1  23
TORSDOF 2
ENDMDL
MODEL 4
REMARK VINA RESULT:      -6.3      2.932      6.774
REMARK  2 active torsions:
REMARK  status: ('A' for Active; 'I' for Inactive)
REMARK    1  A    between atoms: C_2  and  C_15 
REMARK    2  A    between atoms: C_15  and  N_38 
ROOT
ATOM      1  C   LIG d   1       5.066  -0.868  -5.962  0.00  0.00    -0.005 C 
ATOM      2  H   LIG d   1       6.081  -0.583  -6.236  0.00  0.00     0.087 H 
ATOM      3  H   LIG d   1       5.034  -1.935  -5.744  0.00  0.00     0.087 H 
ENDROOT
BRANCH   1   4
ATOM      4  C   LIG d   1       4.133  -0.562  -7.106  0.00  0.00     0.015 A 
ATOM      5  C   LIG d   1       3.720   0.710  -7.348  0.00  0.00     0.032 A 
ATOM      6  C   LIG d   1       2.847   0.969  -8.425  0.00  0.00     0.338 A 
ATOM      7  H   LIG d   1       4.059   1.518  -6.718  0.00  0.00     0.069 H 
ATOM      8  O   LIG d   1       2.406  -0.011  -9.227  0.00  0.00    -0.422 OA
ATOM      9  O   LIG d   1       2.484   2.113  -8.632  0.00  0.00    -0.245 OA
ATOM     10  C   LIG d   1       2.778  -1.297  -9.040  0.00  0.00     0.143 A 
ATOM     11  C   LIG d   1       3.652  -1.626  -7.990  0.00  0.00     0.029 A 
ATOM     12  C   LIG d   1       2.309  -2.297  -9.881  0.00  0.00     0.027 A 
ATOM     13  C   LIG d   1       4.046  -2.955  -7.795  0.00  0.00    -0.005 A 
ATOM     14  C   LIG d   1       3.576  -3.937  -8.640  0.00  0.00     0.167 A 
ATOM     15  H   LIG d   1       4.715  -3.211  -6.987  0.00  0.00     0.066 H 
ATOM     16  O   LIG d   1       3.800  -5.285  -8.668  0.00  0.00    -0.453 OA
ATOM     17  C   LIG d   1       2.709  -3.608  -9.688  0.00  0.00     0.170 A 
ATOM     18  C   LIG d   1       2.745  -5.831  -9.482  0.00  0.00     0.233 C 
ATOM     19  O   LIG d   1       2.396  -4.750 -10.366  0.00  0.00    -0.453 OA
ATOM     20  H   LIG d   1       1.892  -6.111  -8.865  0.00  0.00     0.117 H 
ATOM     21  H   LIG d   1       3.103  -6.690 -10.050  0.00  0.00     0.117 H 
ATOM     22  H   LIG d   1       1.641  -2.050 -10.692  0.00  0.00     0.069 H 
ENDBRANCH   1   4
BRANCH   1  23
ATOM     23  N   LIG d   1       4.641  -0.084  -4.785  0.00  0.00     0.238 N 
ATOM     24  C   LIG d   1       3.647  -0.848  -4.001  0.00  0.00    -0.032 C 
ATOM     25  C   LIG d   1       3.135   0.029  -2.856  0.00  0.00    -0.012 C 
ATOM     26  H   LIG d   1       4.096  -1.754  -3.592  0.00  0.00     0.081 H 
ATOM     27  H   LIG d   1       2.815  -1.118  -4.652  0.00  0.00     0.081 H 
ATOM     28  C   LIG d   1       4.311   0.421  -1.957  0.00  0.00    -0.043 C 
ATOM     29  H   LIG d   1       2.401  -0.526  -2.273  0.00  0.00     0.032 H 
ATOM     30  H   LIG d   1       2.674   0.928  -3.265  0.00  0.00     0.032 H 
ATOM     31  C   LIG d   1       5.366   1.147  -2.796  0.00  0.00    -0.012 C 
ATOM     32  H   LIG d   1       3.958   1.081  -1.164  0.00  0.00     0.027 H 
ATOM     33  H   LIG d   1       4.748  -0.475  -1.517  0.00  0.00     0.027 H 
ATOM     34  C   LIG d   1       5.813   0.237  -3.942  0.00  0.00    -0.032 C 
ATOM     35  H   LIG d   1       4.940   2.063  -3.203  0.00  0.00     0.032 H 
ATOM     36  H   LIG d   1       6.224   1.391  -2.169  0.00  0.00     0.032 H 
ATOM     37  H   LIG d   1       6.251  -0.673  -3.534  0.00  0.00     0.081 H 
ATOM     38  H   LIG d   1       6.553   0.756  -4.550  0.00  0.00     0.081 H 
ATOM     39  H   LIG d   1       4.211   0.792  -5.104  0.00  0.00     0.204 HD
ENDBRANCH   1  23
TORSDOF 2
ENDMDL
MODEL 5
REMARK VINA RESULT:      -6.1      2.882      6.303
REMARK  2 active torsions:
REMARK  status: ('A' for Active; 'I' for Inactive)
REMARK    1  A    between atoms: C_2  and  C_15 
REMARK    2  A    between atoms: C_15  and  N_38 
ROOT
ATOM      1  C   LIG d   1       5.898  -2.049  -4.694  0.00  0.00    -0.005 C 
ATOM      2  H   LIG d   1       6.902  -1.751  -4.993  0.00  0.00     0.087 H 
ATOM      3  H   LIG d   1       5.958  -2.900  -4.016  0.00  0.00     0.087 H 
ENDROOT
BRANCH   1   4
ATOM      4  C   LIG d   1       5.103  -2.435  -5.915  0.00  0.00     0.015 A 
ATOM      5  C   LIG d   1       4.563  -1.488  -6.724  0.00  0.00     0.032 A 
ATOM      6  C   LIG d   1       3.823  -1.876  -7.861  0.00  0.00     0.338 A 
ATOM      7  H   LIG d   1       4.699  -0.441  -6.498  0.00  0.00     0.069 H 
ATOM      8  O   LIG d   1       3.634  -3.167  -8.171  0.00  0.00    -0.422 OA
ATOM      9  O   LIG d   1       3.344  -1.017  -8.579  0.00  0.00    -0.245 OA
ATOM     10  C   LIG d   1       4.144  -4.158  -7.408  0.00  0.00     0.143 A 
ATOM     11  C   LIG d   1       4.897  -3.842  -6.264  0.00  0.00     0.029 A 
ATOM     12  C   LIG d   1       3.936  -5.488  -7.746  0.00  0.00     0.027 A 
ATOM     13  C   LIG d   1       5.433  -4.866  -5.472  0.00  0.00    -0.005 A 
ATOM     14  C   LIG d   1       5.222  -6.181  -5.822  0.00  0.00     0.167 A 
ATOM     15  H   LIG d   1       6.010  -4.625  -4.591  0.00  0.00     0.066 H 
ATOM     16  O   LIG d   1       5.625  -7.347  -5.233  0.00  0.00    -0.453 OA
ATOM     17  C   LIG d   1       4.475  -6.495  -6.964  0.00  0.00     0.170 A 
ATOM     18  C   LIG d   1       4.777  -8.370  -5.789  0.00  0.00     0.233 C 
ATOM     19  O   LIG d   1       4.416  -7.853  -7.083  0.00  0.00    -0.453 OA
ATOM     20  H   LIG d   1       3.891  -8.509  -5.171  0.00  0.00     0.117 H 
ATOM     21  H   LIG d   1       5.323  -9.308  -5.891  0.00  0.00     0.117 H 
ATOM     22  H   LIG d   1       3.362  -5.738  -8.626  0.00  0.00     0.069 H 
ENDBRANCH   1   4
BRANCH   1  23
ATOM     23  N   LIG d   1       5.227  -0.909  -4.036  0.00  0.00     0.238 N 
ATOM     24  C   LIG d   1       4.239  -1.401  -3.054  0.00  0.00    -0.032 C 
ATOM     25  C   LIG d   1       3.475  -0.208  -2.474  0.00  0.00    -0.012 C 
ATOM     26  H   LIG d   1       4.736  -1.941  -2.248  0.00  0.00     0.081 H 
ATOM     27  H   LIG d   1       3.539  -2.068  -3.560  0.00  0.00     0.081 H 
ATOM     28  C   LIG d   1       4.464   0.735  -1.783  0.00  0.00    -0.043 C 
ATOM     29  H   LIG d   1       2.743  -0.561  -1.750  0.00  0.00     0.032 H 
ATOM     30  H   LIG d   1       2.967   0.324  -3.278  0.00  0.00     0.032 H 
ATOM     31  C   LIG d   1       5.525   1.180  -2.793  0.00  0.00    -0.012 C 
ATOM     32  H   LIG d   1       3.931   1.608  -1.406  0.00  0.00     0.027 H 
ATOM     33  H   LIG d   1       4.945   0.215  -0.954  0.00  0.00     0.027 H 
ATOM     34  C   LIG d   1       6.229  -0.054  -3.363  0.00  0.00    -0.032 C 
ATOM     35  H   LIG d   1       5.049   1.734  -3.601  0.00  0.00     0.032 H 
ATOM     36  H   LIG d   1       6.256   1.818  -2.295  0.00  0.00     0.032 H 
ATOM     37  H   LIG d   1       6.716  -0.600  -2.556  0.00  0.00     0.081 H 
ATOM     38  H   LIG d   1       6.975   0.258  -4.093  0.00  0.00     0.081 H 
ATOM     39  H   LIG d   1       4.740  -0.352  -4.749  0.00  0.00     0.204 HD
ENDBRANCH   1  23
TORSDOF 2
ENDMDL
MODEL 6
REMARK VINA RESULT:      -6.1      3.781      5.660
REMARK  2 active torsions:
REMARK  status: ('A' for Active; 'I' for Inactive)
REMARK    1  A    between atoms: C_2  and  C_15 
REMARK    2  A    between atoms: C_15  and  N_38 
ROOT
ATOM      1  C   LIG d   1       8.424  -2.520  -4.775  0.00  0.00    -0.005 C 
ATOM      2  H   LIG d   1       8.612  -1.734  -4.045  0.00  0.00     0.087 H 
ATOM      3  H   LIG d   1       8.620  -2.139  -5.777  0.00  0.00     0.087 H 
ENDROOT
BRANCH   1   4
ATOM      4  C   LIG d   1       6.987  -2.964  -4.679  0.00  0.00     0.015 A 
ATOM      5  C   LIG d   1       6.584  -4.146  -5.214  0.00  0.00     0.032 A 
ATOM      6  C   LIG d   1       5.233  -4.538  -5.110  0.00  0.00     0.338 A 
ATOM      7  H   LIG d   1       7.296  -4.783  -5.717  0.00  0.00     0.069 H 
ATOM      8  O   LIG d   1       4.323  -3.771  -4.492  0.00  0.00    -0.422 OA
ATOM      9  O   LIG d   1       4.885  -5.600  -5.594  0.00  0.00    -0.245 OA
ATOM     10  C   LIG d   1       4.657  -2.584  -3.939  0.00  0.00     0.143 A 
ATOM     11  C   LIG d   1       5.988  -2.136  -4.000  0.00  0.00     0.029 A 
ATOM     12  C   LIG d   1       3.700  -1.805  -3.305  0.00  0.00     0.027 A 
ATOM     13  C   LIG d   1       6.342  -0.909  -3.425  0.00  0.00    -0.005 A 
ATOM     14  C   LIG d   1       5.381  -0.148  -2.795  0.00  0.00     0.167 A 
ATOM     15  H   LIG d   1       7.363  -0.561  -3.473  0.00  0.00     0.066 H 
ATOM     16  O   LIG d   1       5.460   1.062  -2.165  0.00  0.00    -0.453 OA
ATOM     17  C   LIG d   1       4.057  -0.598  -2.730  0.00  0.00     0.170 A 
ATOM     18  C   LIG d   1       4.103   1.537  -2.078  0.00  0.00     0.233 C 
ATOM     19  O   LIG d   1       3.316   0.332  -2.062  0.00  0.00    -0.453 OA
ATOM     20  H   LIG d   1       3.854   2.144  -2.947  0.00  0.00     0.117 H 
ATOM     21  H   LIG d   1       3.952   2.104  -1.160  0.00  0.00     0.117 H 
ATOM     22  H   LIG d   1       2.677  -2.147  -3.251  0.00  0.00     0.069 H 
ENDBRANCH   1   4
BRANCH   1  23
ATOM     23  N   LIG d   1       9.296  -3.676  -4.481  0.00  0.00     0.238 N 
ATOM     24  C   LIG d   1      10.643  -3.450  -5.044  0.00  0.00    -0.032 C 
ATOM     25  C   LIG d   1      11.490  -4.707  -4.830  0.00  0.00    -0.012 C 
ATOM     26  H   LIG d   1      11.124  -2.601  -4.556  0.00  0.00     0.081 H 
ATOM     27  H   LIG d   1      10.553  -3.250  -6.112  0.00  0.00     0.081 H 
ATOM     28  C   LIG d   1      11.598  -4.993  -3.330  0.00  0.00    -0.043 C 
ATOM     29  H   LIG d   1      12.486  -4.550  -5.243  0.00  0.00     0.032 H 
ATOM     30  H   LIG d   1      11.017  -5.553  -5.329  0.00  0.00     0.032 H 
ATOM     31  C   LIG d   1      10.192  -5.153  -2.746  0.00  0.00    -0.012 C 
ATOM     32  H   LIG d   1      12.164  -5.913  -3.176  0.00  0.00     0.027 H 
ATOM     33  H   LIG d   1      12.106  -4.165  -2.837  0.00  0.00     0.027 H 
ATOM     34  C   LIG d   1       9.384  -3.883  -3.020  0.00  0.00    -0.032 C 
ATOM     35  H   LIG d   1       9.699  -6.006  -3.212  0.00  0.00     0.032 H 
ATOM     36  H   LIG d   1      10.261  -5.316  -1.670  0.00  0.00     0.032 H 
ATOM     37  H   LIG d   1       9.870  -3.033  -2.542  0.00  0.00     0.081 H 
ATOM     38  H   LIG d   1       8.378  -3.999  -2.618  0.00  0.00     0.081 H 
ATOM     39  H   LIG d   1       8.892  -4.517  -4.912  0.00  0.00     0.204 HD
ENDBRANCH   1  23
TORSDOF 2
ENDMDL
MODEL 7
REMARK VINA RESULT:      -6.1      2.540      4.160
REMARK  2 active torsions:
REMARK  status: ('A' for Active; 'I' for Inactive)
REMARK    1  A    between atoms: C_2  and  C_15 
REMARK    2  A    between atoms: C_15  and  N_38 
ROOT
ATOM      1  C   LIG d   1       4.066  -0.856  -7.018  0.00  0.00    -0.005 C 
ATOM      2  H   LIG d   1       3.075  -1.286  -7.155  0.00  0.00     0.087 H 
ATOM      3  H   LIG d   1       4.807  -1.486  -7.509  0.00  0.00     0.087 H 
ENDROOT
BRANCH   1   4
ATOM      4  C   LIG d   1       4.378  -0.770  -5.546  0.00  0.00     0.015 A 
ATOM      5  C   LIG d   1       3.579  -0.064  -4.704  0.00  0.00     0.032 A 
ATOM      6  C   LIG d   1       3.892   0.001  -3.330  0.00  0.00     0.338 A 
ATOM      7  H   LIG d   1       2.707   0.447  -5.085  0.00  0.00     0.069 H 
ATOM      8  O   LIG d   1       4.967  -0.620  -2.823  0.00  0.00    -0.422 OA
ATOM      9  O   LIG d   1       3.168   0.638  -2.586  0.00  0.00    -0.245 OA
ATOM     10  C   LIG d   1       5.803  -1.338  -3.606  0.00  0.00     0.143 A 
ATOM     11  C   LIG d   1       5.546  -1.450  -4.983  0.00  0.00     0.029 A 
ATOM     12  C   LIG d   1       6.910  -1.972  -3.061  0.00  0.00     0.027 A 
ATOM     13  C   LIG d   1       6.405  -2.197  -5.799  0.00  0.00    -0.005 A 
ATOM     14  C   LIG d   1       7.498  -2.825  -5.243  0.00  0.00     0.167 A 
ATOM     15  H   LIG d   1       6.211  -2.283  -6.858  0.00  0.00     0.066 H 
ATOM     16  O   LIG d   1       8.474  -3.600  -5.804  0.00  0.00    -0.453 OA
ATOM     17  C   LIG d   1       7.751  -2.717  -3.870  0.00  0.00     0.170 A 
ATOM     18  C   LIG d   1       9.546  -3.621  -4.842  0.00  0.00     0.233 C 
ATOM     19  O   LIG d   1       8.882  -3.423  -3.581  0.00  0.00    -0.453 OA
ATOM     20  H   LIG d   1      10.249  -2.812  -5.036  0.00  0.00     0.117 H 
ATOM     21  H   LIG d   1      10.058  -4.583  -4.858  0.00  0.00     0.117 H 
ATOM     22  H   LIG d   1       7.111  -1.894  -2.003  0.00  0.00     0.069 H 
ENDBRANCH   1   4
BRANCH   1  23
ATOM     23  N   LIG d   1       4.088   0.508  -7.585  0.00  0.00     0.238 N 
ATOM     24  C   LIG d   1       5.176   0.626  -8.578  0.00  0.00    -0.032 C 
ATOM     25  C   LIG d   1       5.254   2.076  -9.062  0.00  0.00    -0.012 C 
ATOM     26  H   LIG d   1       4.992  -0.032  -9.428  0.00  0.00     0.081 H 
ATOM     27  H   LIG d   1       6.119   0.351  -8.104  0.00  0.00     0.081 H 
ATOM     28  C   LIG d   1       3.922   2.463  -9.709  0.00  0.00    -0.043 C 
ATOM     29  H   LIG d   1       6.055   2.173  -9.794  0.00  0.00     0.032 H 
ATOM     30  H   LIG d   1       5.452   2.732  -8.215  0.00  0.00     0.032 H 
ATOM     31  C   LIG d   1       2.793   2.266  -8.693  0.00  0.00    -0.012 C 
ATOM     32  H   LIG d   1       3.957   3.509 -10.017  0.00  0.00     0.027 H 
ATOM     33  H   LIG d   1       3.742   1.833 -10.580  0.00  0.00     0.027 H 
ATOM     34  C   LIG d   1       2.787   0.811  -8.220  0.00  0.00    -0.032 C 
ATOM     35  H   LIG d   1       2.952   2.926  -7.840  0.00  0.00     0.032 H 
ATOM     36  H   LIG d   1       1.837   2.501  -9.162  0.00  0.00     0.032 H 
ATOM     37  H   LIG d   1       2.615   0.153  -9.071  0.00  0.00     0.081 H 
ATOM     38  H   LIG d   1       1.994   0.671  -7.486  0.00  0.00     0.081 H 
ATOM     39  H   LIG d   1       4.253   1.182  -6.828  0.00  0.00     0.204 HD
ENDBRANCH   1  23
TORSDOF 2
ENDMDL
MODEL 8
REMARK VINA RESULT:      -5.6      3.490      4.445
REMARK  2 active torsions:
REMARK  status: ('A' for Active; 'I' for Inactive)
REMARK    1  A    between atoms: C_2  and  C_15 
REMARK    2  A    between atoms: C_15  and  N_38 
ROOT
ATOM      1  C   LIG d   1       8.439  -2.670  -4.303  0.00  0.00    -0.005 C 
ATOM      2  H   LIG d   1       8.975  -3.486  -3.819  0.00  0.00     0.087 H 
ATOM      3  H   LIG d   1       8.543  -1.763  -3.708  0.00  0.00     0.087 H 
ENDROOT
BRANCH   1   4
ATOM      4  C   LIG d   1       6.980  -3.028  -4.422  0.00  0.00     0.015 A 
ATOM      5  C   LIG d   1       6.591  -4.169  -5.048  0.00  0.00     0.032 A 
ATOM      6  C   LIG d   1       5.218  -4.481  -5.146  0.00  0.00     0.338 A 
ATOM      7  H   LIG d   1       7.329  -4.835  -5.469  0.00  0.00     0.069 H 
ATOM      8  O   LIG d   1       4.275  -3.677  -4.635  0.00  0.00    -0.422 OA
ATOM      9  O   LIG d   1       4.882  -5.507  -5.710  0.00  0.00    -0.245 OA
ATOM     10  C   LIG d   1       4.595  -2.527  -4.001  0.00  0.00     0.143 A 
ATOM     11  C   LIG d   1       5.944  -2.158  -3.861  0.00  0.00     0.029 A 
ATOM     12  C   LIG d   1       3.603  -1.708  -3.480  0.00  0.00     0.027 A 
ATOM     13  C   LIG d   1       6.282  -0.971  -3.201  0.00  0.00    -0.005 A 
ATOM     14  C   LIG d   1       5.287  -0.170  -2.684  0.00  0.00     0.167 A 
ATOM     15  H   LIG d   1       7.318  -0.684  -3.094  0.00  0.00     0.066 H 
ATOM     16  O   LIG d   1       5.344   1.016  -2.009  0.00  0.00    -0.453 OA
ATOM     17  C   LIG d   1       3.944  -0.540  -2.820  0.00  0.00     0.170 A 
ATOM     18  C   LIG d   1       4.017   1.570  -2.095  0.00  0.00     0.233 C 
ATOM     19  O   LIG d   1       3.169   0.415  -2.230  0.00  0.00    -0.453 OA
ATOM     20  H   LIG d   1       3.928   2.214  -2.969  0.00  0.00     0.117 H 
ATOM     21  H   LIG d   1       3.771   2.122  -1.188  0.00  0.00     0.117 H 
ATOM     22  H   LIG d   1       2.565  -1.988  -3.580  0.00  0.00     0.069 H 
ENDBRANCH   1   4
BRANCH   1  23
ATOM     23  N   LIG d   1       8.987  -2.465  -5.660  0.00  0.00     0.238 N 
ATOM     24  C   LIG d   1       8.729  -1.079  -6.104  0.00  0.00    -0.032 C 
ATOM     25  C   LIG d   1       9.198  -0.926  -7.553  0.00  0.00    -0.012 C 
ATOM     26  H   LIG d   1       9.263  -0.368  -5.473  0.00  0.00     0.081 H 
ATOM     27  H   LIG d   1       7.658  -0.882  -6.047  0.00  0.00     0.081 H 
ATOM     28  C   LIG d   1      10.698  -1.222  -7.631  0.00  0.00    -0.043 C 
ATOM     29  H   LIG d   1       9.011   0.093  -7.891  0.00  0.00     0.032 H 
ATOM     30  H   LIG d   1       8.655  -1.626  -8.187  0.00  0.00     0.032 H 
ATOM     31  C   LIG d   1      10.960  -2.633  -7.099  0.00  0.00    -0.012 C 
ATOM     32  H   LIG d   1      11.028  -1.157  -8.669  0.00  0.00     0.027 H 
ATOM     33  H   LIG d   1      11.245  -0.498  -7.028  0.00  0.00     0.027 H 
ATOM     34  C   LIG d   1      10.440  -2.737  -5.663  0.00  0.00    -0.032 C 
ATOM     35  H   LIG d   1      10.445  -3.361  -7.726  0.00  0.00     0.032 H 
ATOM     36  H   LIG d   1      12.032  -2.835  -7.113  0.00  0.00     0.032 H 
ATOM     37  H   LIG d   1      10.965  -2.019  -5.035  0.00  0.00     0.081 H 
ATOM     38  H   LIG d   1      10.612  -3.745  -5.287  0.00  0.00     0.081 H 
ATOM     39  H   LIG d   1       8.525  -3.114  -6.307  0.00  0.00     0.204 HD
ENDBRANCH   1  23
TORSDOF 2
ENDMDL
MODEL 9
REMARK VINA RESULT:      -5.4     13.128     15.506
REMARK  2 active torsions:
REMARK  status: ('A' for Active; 'I' for Inactive)
REMARK    1  A    between atoms: C_2  and  C_15 
REMARK    2  A    between atoms: C_15  and  N_38 
ROOT
ATOM      1  C   LIG d   1      -3.673   5.261 -14.242  0.00  0.00    -0.005 C 
ATOM      2  H   LIG d   1      -2.871   5.336 -13.509  0.00  0.00     0.087 H 
ATOM      3  H   LIG d   1      -3.296   4.785 -15.146  0.00  0.00     0.087 H 
ENDROOT
BRANCH   1   4
ATOM      4  C   LIG d   1      -4.180   6.642 -14.575  0.00  0.00     0.015 A 
ATOM      5  C   LIG d   1      -5.510   6.914 -14.580  0.00  0.00     0.032 A 
ATOM      6  C   LIG d   1      -5.958   8.214 -14.895  0.00  0.00     0.338 A 
ATOM      7  H   LIG d   1      -6.223   6.139 -14.343  0.00  0.00     0.069 H 
ATOM      8  O   LIG d   1      -5.101   9.201 -15.195  0.00  0.00    -0.422 OA
ATOM      9  O   LIG d   1      -7.154   8.446 -14.896  0.00  0.00    -0.245 OA
ATOM     10  C   LIG d   1      -3.765   8.996 -15.210  0.00  0.00     0.143 A 
ATOM     11  C   LIG d   1      -3.250   7.726 -14.898  0.00  0.00     0.029 A 
ATOM     12  C   LIG d   1      -2.895  10.031 -15.524  0.00  0.00     0.027 A 
ATOM     13  C   LIG d   1      -1.866   7.509 -14.906  0.00  0.00    -0.005 A 
ATOM     14  C   LIG d   1      -1.015   8.547 -15.215  0.00  0.00     0.167 A 
ATOM     15  H   LIG d   1      -1.468   6.533 -14.669  0.00  0.00     0.066 H 
ATOM     16  O   LIG d   1       0.348   8.601 -15.293  0.00  0.00    -0.453 OA
ATOM     17  C   LIG d   1      -1.529   9.812 -15.521  0.00  0.00     0.170 A 
ATOM     18  C   LIG d   1       0.641   9.793 -16.047  0.00  0.00     0.233 C 
ATOM     19  O   LIG d   1      -0.486  10.650 -15.789  0.00  0.00    -0.453 OA
ATOM     20  H   LIG d   1       0.713   9.565 -17.110  0.00  0.00     0.117 H 
ATOM     21  H   LIG d   1       1.563  10.255 -15.693  0.00  0.00     0.117 H 
ATOM     22  H   LIG d   1      -3.285  11.010 -15.759  0.00  0.00     0.069 H 
ENDBRANCH   1   4
BRANCH   1  23
ATOM     23  N   LIG d   1      -4.786   4.477 -13.668  0.00  0.00     0.238 N 
ATOM     24  C   LIG d   1      -5.254   3.474 -14.647  0.00  0.00    -0.032 C 
ATOM     25  C   LIG d   1      -6.480   2.756 -14.076  0.00  0.00    -0.012 C 
ATOM     26  H   LIG d   1      -4.470   2.745 -14.853  0.00  0.00     0.081 H 
ATOM     27  H   LIG d   1      -5.529   3.982 -15.572  0.00  0.00     0.081 H 
ATOM     28  C   LIG d   1      -6.094   2.060 -12.769  0.00  0.00    -0.043 C 
ATOM     29  H   LIG d   1      -6.834   2.015 -14.792  0.00  0.00     0.032 H 
ATOM     30  H   LIG d   1      -7.269   3.483 -13.883  0.00  0.00     0.032 H 
ATOM     31  C   LIG d   1      -5.541   3.100 -11.790  0.00  0.00    -0.012 C 
ATOM     32  H   LIG d   1      -6.974   1.584 -12.336  0.00  0.00     0.027 H 
ATOM     33  H   LIG d   1      -5.333   1.306 -12.968  0.00  0.00     0.027 H 
ATOM     34  C   LIG d   1      -4.343   3.807 -12.427  0.00  0.00    -0.032 C 
ATOM     35  H   LIG d   1      -6.316   3.831 -11.560  0.00  0.00     0.032 H 
ATOM     36  H   LIG d   1      -5.225   2.603 -10.872  0.00  0.00     0.032 H 
ATOM     37  H   LIG d   1      -3.564   3.077 -12.644  0.00  0.00     0.081 H 
ATOM     38  H   LIG d   1      -3.956   4.558 -11.738  0.00  0.00     0.081 H 
ATOM     39  H   LIG d   1      -5.561   5.112 -13.444  0.00  0.00     0.204 HD
ENDBRANCH   1  23
TORSDOF 2
ENDMDL
