MODEL 1
REMARK VINA RESULT:      -7.6      0.000      0.000
REMARK  5 active torsions:
REMARK  status: ('A' for Active; 'I' for Inactive)
REMARK    1  A    between atoms: C_1  and  O_2 
REMARK    2  A    between atoms: O_2  and  C_3 
REMARK    3  A    between atoms: C_6  and  C_9 
REMARK    4  A    between atoms: N_21  and  C_24 
REMARK    5  A    between atoms: C_24  and  C_25 
ROOT
ATOM      1  C   LIG d   1      10.849   5.649  -2.741  0.00  0.00     0.064 A 
ATOM      2  C   LIG d   1      10.069   4.592  -2.400  0.00  0.00     0.104 A 
ATOM      3  O   LIG d   1       9.510   3.772  -3.284  0.00  0.00    -0.462 OA
ATOM      4  C   LIG d   1       9.675   3.930  -4.610  0.00  0.00     0.150 A 
ATOM      5  C   LIG d   1      10.455   4.980  -5.122  0.00  0.00     0.065 A 
ATOM      6  C   LIG d   1      11.092   5.910  -4.171  0.00  0.00     0.200 A 
ATOM      7  O   LIG d   1      11.781   6.843  -4.547  0.00  0.00    -0.286 OA
ATOM      8  C   LIG d   1      10.619   5.134  -6.499  0.00  0.00    -0.044 A 
ATOM      9  C   LIG d   1      10.017   4.258  -7.354  0.00  0.00    -0.018 A 
ATOM     10  C   LIG d   1       9.239   3.209  -6.860  0.00  0.00     0.138 A 
ATOM     11  C   LIG d   1       9.070   3.045  -5.498  0.00  0.00     0.082 A 
ATOM     12  C   LIG d   1       8.236   1.914  -4.952  0.00  0.00     0.005 C 
ATOM     13  N   LIG d   1       7.381   1.372  -6.018  0.00  0.00     0.268 N 
ATOM     14  C   LIG d   1       8.181   1.108  -7.225  0.00  0.00     0.117 C 
ATOM     15  O   LIG d   1       8.652   2.355  -7.740  0.00  0.00    -0.454 OA
ATOM     16  H   LIG d   1       9.894   4.406  -1.350  0.00  0.00     0.104 H 
ATOM     17  H   LIG d   1      11.220   5.943  -6.887  0.00  0.00     0.063 H 
ATOM     18  H   LIG d   1      10.143   4.375  -8.420  0.00  0.00     0.065 H 
ATOM     19  H   LIG d   1       8.897   1.120  -4.575  0.00  0.00     0.087 H 
ATOM     20  H   LIG d   1       7.605   2.285  -4.131  0.00  0.00     0.087 H 
ATOM     21  H   LIG d   1       9.034   0.464  -6.964  0.00  0.00     0.130 H 
ATOM     22  H   LIG d   1       7.556   0.605  -7.976  0.00  0.00     0.130 H 
ATOM     23  H   LIG d   1       6.613   2.122  -6.262  0.00  0.00     0.207 HD
ENDROOT
BRANCH  13  24
ATOM     24  C   LIG d   1       6.686   0.158  -5.570  0.00  0.00    -0.020 C 
ATOM     25  H   LIG d   1       5.629   0.391  -5.375  0.00  0.00     0.082 H 
ATOM     26  H   LIG d   1       6.754  -0.613  -6.352  0.00  0.00     0.082 H 
BRANCH  24  27
ATOM     27  C   LIG d   1       7.339  -0.358  -4.286  0.00  0.00     0.042 C 
ATOM     28  H   LIG d   1       8.114   0.349  -3.956  0.00  0.00     0.041 H 
ATOM     29  C   LIG d   1       6.271  -0.497  -3.191  0.00  0.00    -0.013 C 
ATOM     30  N   LIG d   1       5.258  -1.478  -3.597  0.00  0.00     0.238 N 
ATOM     31  H   LIG d   1       6.701  -0.881  -2.254  0.00  0.00     0.086 H 
ATOM     32  C   LIG d   1       5.620   0.876  -2.987  0.00  0.00    -0.009 C 
ATOM     33  C   LIG d   1       5.854  -2.800  -3.842  0.00  0.00    -0.032 C 
ATOM     34  C   LIG d   1       4.195  -1.605  -2.586  0.00  0.00    -0.032 C 
ATOM     35  H   LIG d   1       4.819  -1.102  -4.532  0.00  0.00     0.204 HD
ATOM     36  C   LIG d   1       6.886  -2.709  -4.966  0.00  0.00    -0.012 C 
ATOM     37  H   LIG d   1       5.061  -3.506  -4.128  0.00  0.00     0.081 H 
ATOM     38  H   LIG d   1       6.344  -3.152  -2.923  0.00  0.00     0.081 H 
ATOM     39  C   LIG d   1       7.981  -1.720  -4.554  0.00  0.00    -0.035 C 
ATOM     40  H   LIG d   1       6.402  -2.358  -5.889  0.00  0.00     0.032 H 
ATOM     41  H   LIG d   1       7.333  -3.699  -5.141  0.00  0.00     0.032 H 
ATOM     42  H   LIG d   1       8.720  -1.624  -5.363  0.00  0.00     0.027 H 
ATOM     43  H   LIG d   1       8.480  -2.076  -3.641  0.00  0.00     0.027 H 
ATOM     44  C   LIG d   1       3.489  -0.263  -2.395  0.00  0.00    -0.012 C 
ATOM     45  H   LIG d   1       3.461  -2.355  -2.918  0.00  0.00     0.081 H 
ATOM     46  H   LIG d   1       4.635  -1.921  -1.629  0.00  0.00     0.081 H 
ATOM     47  C   LIG d   1       4.516   0.775  -1.933  0.00  0.00    -0.043 C 
ATOM     48  H   LIG d   1       2.700  -0.362  -1.634  0.00  0.00     0.032 H 
ATOM     49  H   LIG d   1       3.042   0.061  -3.346  0.00  0.00     0.032 H 
ATOM     50  H   LIG d   1       4.954   0.466  -0.972  0.00  0.00     0.027 H 
ATOM     51  H   LIG d   1       4.031   1.756  -1.816  0.00  0.00     0.027 H 
ATOM     52  H   LIG d   1       6.381   1.595  -2.650  0.00  0.00     0.032 H 
ATOM     53  H   LIG d   1       5.185   1.220  -3.937  0.00  0.00     0.032 H 
ENDBRANCH  24  27
ENDBRANCH  13  24
BRANCH   1  54
ATOM     54  C   LIG d   1      11.441   6.523  -1.698  0.00  0.00    -0.011 A 
ATOM     55  C   LIG d   1      10.629   7.394  -0.974  0.00  0.00    -0.050 A 
ATOM     56  C   LIG d   1      11.183   8.204  -0.004  0.00  0.00    -0.019 A 
ATOM     57  H   LIG d   1       9.568   7.434  -1.170  0.00  0.00     0.062 H 
ATOM     58  C   LIG d   1      12.547   8.152   0.249  0.00  0.00     0.120 A 
ATOM     59  H   LIG d   1      10.556   8.880   0.558  0.00  0.00     0.065 H 
ATOM     60  C   LIG d   1      13.358   7.287  -0.472  0.00  0.00    -0.019 A 
ATOM     61  C   LIG d   1      12.809   6.470  -1.439  0.00  0.00    -0.050 A 
ATOM     62  H   LIG d   1      14.418   7.248  -0.271  0.00  0.00     0.065 H 
ATOM     63  H   LIG d   1      13.439   5.792  -1.995  0.00  0.00     0.062 H 
BRANCH  58  64
ATOM     64  O   LIG d   1      13.090   8.953   1.204  0.00  0.00    -0.495 OA
BRANCH  64  65
ATOM     65  C   LIG d   1      12.183   9.691   2.025  0.00  0.00     0.079 C 
ATOM     66  H   LIG d   1      11.210   9.176   2.049  0.00  0.00     0.066 H 
ATOM     67  H   LIG d   1      12.053  10.701   1.613  0.00  0.00     0.066 H 
ATOM     68  H   LIG d   1      12.586   9.761   3.047  0.00  0.00     0.066 H 
ENDBRANCH  64  65
ENDBRANCH  58  64
ENDBRANCH   1  54
TORSDOF 5
ENDMDL
MODEL 2
REMARK VINA RESULT:      -7.0      2.915      9.696
REMARK  5 active torsions:
REMARK  status: ('A' for Active; 'I' for Inactive)
REMARK    1  A    between atoms: C_1  and  O_2 
REMARK    2  A    between atoms: O_2  and  C_3 
REMARK    3  A    between atoms: C_6  and  C_9 
REMARK    4  A    between atoms: N_21  and  C_24 
REMARK    5  A    between atoms: C_24  and  C_25 
ROOT
ATOM      1  C   LIG d   1       7.310   0.514  -4.727  0.00  0.00     0.064 A 
ATOM      2  C   LIG d   1       7.444   1.263  -3.604  0.00  0.00     0.104 A 
ATOM      3  O   LIG d   1       8.122   2.406  -3.555  0.00  0.00    -0.462 OA
ATOM      4  C   LIG d   1       8.738   2.917  -4.636  0.00  0.00     0.150 A 
ATOM      5  C   LIG d   1       8.691   2.258  -5.875  0.00  0.00     0.065 A 
ATOM      6  C   LIG d   1       7.949   0.987  -5.968  0.00  0.00     0.200 A 
ATOM      7  O   LIG d   1       7.869   0.363  -7.012  0.00  0.00    -0.286 OA
ATOM      8  C   LIG d   1       9.335   2.798  -6.989  0.00  0.00    -0.044 A 
ATOM      9  C   LIG d   1      10.015   3.976  -6.873  0.00  0.00    -0.018 A 
ATOM     10  C   LIG d   1      10.070   4.642  -5.648  0.00  0.00     0.138 A 
ATOM     11  C   LIG d   1       9.435   4.118  -4.537  0.00  0.00     0.082 A 
ATOM     12  C   LIG d   1       9.484   4.831  -3.210  0.00  0.00     0.005 C 
ATOM     13  N   LIG d   1      10.573   5.817  -3.218  0.00  0.00     0.268 N 
ATOM     14  C   LIG d   1      10.499   6.644  -4.434  0.00  0.00     0.117 C 
ATOM     15  O   LIG d   1      10.758   5.813  -5.567  0.00  0.00    -0.454 OA
ATOM     16  H   LIG d   1       6.974   0.911  -2.697  0.00  0.00     0.104 H 
ATOM     17  H   LIG d   1       9.296   2.287  -7.939  0.00  0.00     0.063 H 
ATOM     18  H   LIG d   1      10.514   4.395  -7.734  0.00  0.00     0.065 H 
ATOM     19  H   LIG d   1       8.527   5.345  -3.034  0.00  0.00     0.087 H 
ATOM     20  H   LIG d   1       9.659   4.100  -2.406  0.00  0.00     0.087 H 
ATOM     21  H   LIG d   1       9.494   7.086  -4.515  0.00  0.00     0.130 H 
ATOM     22  H   LIG d   1      11.249   7.446  -4.378  0.00  0.00     0.130 H 
ATOM     23  H   LIG d   1      11.532   5.276  -3.219  0.00  0.00     0.207 HD
ENDROOT
BRANCH  13  24
ATOM     24  C   LIG d   1      10.538   6.652  -2.010  0.00  0.00    -0.020 C 
ATOM     25  H   LIG d   1      10.206   7.667  -2.275  0.00  0.00     0.082 H 
ATOM     26  H   LIG d   1       9.837   6.215  -1.282  0.00  0.00     0.082 H 
BRANCH  24  27
ATOM     27  C   LIG d   1      11.937   6.717  -1.395  0.00  0.00     0.042 C 
ATOM     28  H   LIG d   1      12.693   6.606  -2.186  0.00  0.00     0.041 H 
ATOM     29  C   LIG d   1      12.122   8.071  -0.693  0.00  0.00    -0.013 C 
ATOM     30  N   LIG d   1      11.153   8.210   0.400  0.00  0.00     0.238 N 
ATOM     31  H   LIG d   1      13.115   8.150  -0.225  0.00  0.00     0.086 H 
ATOM     32  C   LIG d   1      11.905   9.177  -1.732  0.00  0.00    -0.009 C 
ATOM     33  C   LIG d   1      11.306   7.138   1.395  0.00  0.00    -0.032 C 
ATOM     34  C   LIG d   1      11.276   9.516   1.067  0.00  0.00    -0.032 C 
ATOM     35  H   LIG d   1      10.157   8.135  -0.059  0.00  0.00     0.204 HD
ATOM     36  C   LIG d   1      11.074   5.776   0.742  0.00  0.00    -0.012 C 
ATOM     37  H   LIG d   1      10.573   7.288   2.202  0.00  0.00     0.081 H 
ATOM     38  H   LIG d   1      12.323   7.176   1.814  0.00  0.00     0.081 H 
ATOM     39  C   LIG d   1      12.100   5.586  -0.380  0.00  0.00    -0.035 C 
ATOM     40  H   LIG d   1      10.059   5.733   0.322  0.00  0.00     0.032 H 
ATOM     41  H   LIG d   1      11.196   4.979   1.490  0.00  0.00     0.032 H 
ATOM     42  H   LIG d   1      11.931   4.619  -0.878  0.00  0.00     0.027 H 
ATOM     43  H   LIG d   1      13.118   5.610   0.037  0.00  0.00     0.027 H 
ATOM     44  C   LIG d   1      11.013  10.643   0.070  0.00  0.00    -0.012 C 
ATOM     45  H   LIG d   1      10.544   9.579   1.886  0.00  0.00     0.081 H 
ATOM     46  H   LIG d   1      12.292   9.624   1.475  0.00  0.00     0.081 H 
ATOM     47  C   LIG d   1      12.037  10.548  -1.066  0.00  0.00    -0.043 C 
ATOM     48  H   LIG d   1      11.113  11.616   0.573  0.00  0.00     0.032 H 
ATOM     49  H   LIG d   1       9.998  10.546  -0.342  0.00  0.00     0.032 H 
ATOM     50  H   LIG d   1      13.054  10.663  -0.663  0.00  0.00     0.027 H 
ATOM     51  H   LIG d   1      11.845  11.336  -1.809  0.00  0.00     0.027 H 
ATOM     52  H   LIG d   1      12.658   9.086  -2.528  0.00  0.00     0.032 H 
ATOM     53  H   LIG d   1      10.898   9.080  -2.166  0.00  0.00     0.032 H 
ENDBRANCH  24  27
ENDBRANCH  13  24
BRANCH   1  54
ATOM     54  C   LIG d   1       6.538  -0.753  -4.706  0.00  0.00    -0.011 A 
ATOM     55  C   LIG d   1       5.159  -0.734  -4.907  0.00  0.00    -0.050 A 
ATOM     56  C   LIG d   1       4.444  -1.914  -4.887  0.00  0.00    -0.019 A 
ATOM     57  H   LIG d   1       4.650   0.204  -5.079  0.00  0.00     0.062 H 
ATOM     58  C   LIG d   1       5.097  -3.118  -4.666  0.00  0.00     0.120 A 
ATOM     59  H   LIG d   1       3.375  -1.900  -5.042  0.00  0.00     0.065 H 
ATOM     60  C   LIG d   1       6.470  -3.140  -4.465  0.00  0.00    -0.019 A 
ATOM     61  C   LIG d   1       7.191  -1.964  -4.489  0.00  0.00    -0.050 A 
ATOM     62  H   LIG d   1       6.976  -4.080  -4.295  0.00  0.00     0.065 H 
ATOM     63  H   LIG d   1       8.261  -1.983  -4.338  0.00  0.00     0.062 H 
BRANCH  58  64
ATOM     64  O   LIG d   1       4.390  -4.280  -4.646  0.00  0.00    -0.495 OA
BRANCH  64  65
ATOM     65  C   LIG d   1       4.794  -5.301  -5.561  0.00  0.00     0.079 C 
ATOM     66  H   LIG d   1       5.379  -4.850  -6.377  0.00  0.00     0.066 H 
ATOM     67  H   LIG d   1       3.904  -5.793  -5.976  0.00  0.00     0.066 H 
ATOM     68  H   LIG d   1       5.411  -6.043  -5.033  0.00  0.00     0.066 H 
ENDBRANCH  64  65
ENDBRANCH  58  64
ENDBRANCH   1  54
TORSDOF 5
ENDMDL
MODEL 3
REMARK VINA RESULT:      -7.0      2.001      2.544
REMARK  5 active torsions:
REMARK  status: ('A' for Active; 'I' for Inactive)
REMARK    1  A    between atoms: C_1  and  O_2 
REMARK    2  A    between atoms: O_2  and  C_3 
REMARK    3  A    between atoms: C_6  and  C_9 
REMARK    4  A    between atoms: N_21  and  C_24 
REMARK    5  A    between atoms: C_24  and  C_25 
ROOT
ATOM      1  C   LIG d   1      10.886   6.734  -1.305  0.00  0.00     0.064 A 
ATOM      2  C   LIG d   1       9.659   6.264  -1.644  0.00  0.00     0.104 A 
ATOM      3  O   LIG d   1       9.463   5.168  -2.372  0.00  0.00    -0.462 OA
ATOM      4  C   LIG d   1      10.486   4.429  -2.839  0.00  0.00     0.150 A 
ATOM      5  C   LIG d   1      11.818   4.786  -2.573  0.00  0.00     0.065 A 
ATOM      6  C   LIG d   1      12.074   5.995  -1.768  0.00  0.00     0.200 A 
ATOM      7  O   LIG d   1      13.205   6.363  -1.501  0.00  0.00    -0.286 OA
ATOM      8  C   LIG d   1      12.870   4.012  -3.064  0.00  0.00    -0.044 A 
ATOM      9  C   LIG d   1      12.602   2.899  -3.806  0.00  0.00    -0.018 A 
ATOM     10  C   LIG d   1      11.283   2.531  -4.078  0.00  0.00     0.138 A 
ATOM     11  C   LIG d   1      10.232   3.290  -3.597  0.00  0.00     0.082 A 
ATOM     12  C   LIG d   1       8.804   2.900  -3.880  0.00  0.00     0.005 C 
ATOM     13  N   LIG d   1       8.764   1.949  -5.000  0.00  0.00     0.268 N 
ATOM     14  C   LIG d   1       9.735   0.865  -4.778  0.00  0.00     0.117 C 
ATOM     15  O   LIG d   1      11.052   1.417  -4.823  0.00  0.00    -0.454 OA
ATOM     16  H   LIG d   1       8.792   6.809  -1.302  0.00  0.00     0.104 H 
ATOM     17  H   LIG d   1      13.892   4.291  -2.856  0.00  0.00     0.063 H 
ATOM     18  H   LIG d   1      13.415   2.298  -4.186  0.00  0.00     0.065 H 
ATOM     19  H   LIG d   1       8.367   2.430  -2.986  0.00  0.00     0.087 H 
ATOM     20  H   LIG d   1       8.223   3.797  -4.143  0.00  0.00     0.087 H 
ATOM     21  H   LIG d   1       9.554   0.407  -3.795  0.00  0.00     0.130 H 
ATOM     22  H   LIG d   1       9.621   0.105  -5.564  0.00  0.00     0.130 H 
ATOM     23  H   LIG d   1       9.039   2.485  -5.921  0.00  0.00     0.207 HD
ENDROOT
BRANCH  13  24
ATOM     24  C   LIG d   1       7.409   1.413  -5.188  0.00  0.00    -0.020 C 
ATOM     25  H   LIG d   1       6.679   2.088  -4.716  0.00  0.00     0.082 H 
ATOM     26  H   LIG d   1       7.192   1.333  -6.264  0.00  0.00     0.082 H 
BRANCH  24  27
ATOM     27  C   LIG d   1       7.315   0.029  -4.544  0.00  0.00     0.042 C 
ATOM     28  H   LIG d   1       8.165  -0.120  -3.862  0.00  0.00     0.041 H 
ATOM     29  C   LIG d   1       6.000  -0.079  -3.757  0.00  0.00    -0.013 C 
ATOM     30  N   LIG d   1       4.856   0.065  -4.665  0.00  0.00     0.238 N 
ATOM     31  H   LIG d   1       5.889  -1.068  -3.290  0.00  0.00     0.086 H 
ATOM     32  C   LIG d   1       5.982   1.040  -2.709  0.00  0.00    -0.009 C 
ATOM     33  C   LIG d   1       4.865  -0.969  -5.711  0.00  0.00    -0.032 C 
ATOM     34  C   LIG d   1       3.579   0.008  -3.936  0.00  0.00    -0.032 C 
ATOM     35  H   LIG d   1       4.956   1.053  -5.135  0.00  0.00     0.204 HD
ATOM     36  C   LIG d   1       6.137  -0.857  -6.550  0.00  0.00    -0.012 C 
ATOM     37  H   LIG d   1       3.985  -0.835  -6.358  0.00  0.00     0.081 H 
ATOM     38  H   LIG d   1       4.823  -1.961  -5.238  0.00  0.00     0.081 H 
ATOM     39  C   LIG d   1       7.351  -1.043  -5.633  0.00  0.00    -0.035 C 
ATOM     40  H   LIG d   1       6.184   0.133  -7.025  0.00  0.00     0.032 H 
ATOM     41  H   LIG d   1       6.140  -1.637  -7.326  0.00  0.00     0.032 H 
ATOM     42  H   LIG d   1       8.277  -0.941  -6.218  0.00  0.00     0.027 H 
ATOM     43  H   LIG d   1       7.318  -2.040  -5.170  0.00  0.00     0.027 H 
ATOM     44  C   LIG d   1       3.505   1.144  -2.915  0.00  0.00    -0.012 C 
ATOM     45  H   LIG d   1       2.746   0.108  -4.648  0.00  0.00     0.081 H 
ATOM     46  H   LIG d   1       3.499  -0.955  -3.410  0.00  0.00     0.081 H 
ATOM     47  C   LIG d   1       4.667   0.998  -1.928  0.00  0.00    -0.043 C 
ATOM     48  H   LIG d   1       2.552   1.093  -2.369  0.00  0.00     0.032 H 
ATOM     49  H   LIG d   1       3.581   2.112  -3.431  0.00  0.00     0.032 H 
ATOM     50  H   LIG d   1       4.588   0.039  -1.395  0.00  0.00     0.027 H 
ATOM     51  H   LIG d   1       4.647   1.824  -1.202  0.00  0.00     0.027 H 
ATOM     52  H   LIG d   1       6.823   0.903  -2.013  0.00  0.00     0.032 H 
ATOM     53  H   LIG d   1       6.076   2.014  -3.211  0.00  0.00     0.032 H 
ENDBRANCH  24  27
ENDBRANCH  13  24
BRANCH   1  54
ATOM     54  C   LIG d   1      11.027   7.964  -0.488  0.00  0.00    -0.011 A 
ATOM     55  C   LIG d   1      11.419   7.875   0.846  0.00  0.00    -0.050 A 
ATOM     56  C   LIG d   1      11.550   9.022   1.604  0.00  0.00    -0.019 A 
ATOM     57  H   LIG d   1      11.621   6.910   1.288  0.00  0.00     0.062 H 
ATOM     58  C   LIG d   1      11.291  10.262   1.036  0.00  0.00     0.120 A 
ATOM     59  H   LIG d   1      11.853   8.954   2.638  0.00  0.00     0.065 H 
ATOM     60  C   LIG d   1      10.899  10.353  -0.292  0.00  0.00    -0.019 A 
ATOM     61  C   LIG d   1      10.772   9.211  -1.055  0.00  0.00    -0.050 A 
ATOM     62  H   LIG d   1      10.699  11.320  -0.730  0.00  0.00     0.065 H 
ATOM     63  H   LIG d   1      10.473   9.284  -2.090  0.00  0.00     0.062 H 
BRANCH  58  64
ATOM     64  O   LIG d   1      11.419  11.390   1.785  0.00  0.00    -0.495 OA
BRANCH  64  65
ATOM     65  C   LIG d   1      11.886  12.563   1.115  0.00  0.00     0.079 C 
ATOM     66  H   LIG d   1      12.207  12.299   0.096  0.00  0.00     0.066 H 
ATOM     67  H   LIG d   1      12.734  12.988   1.668  0.00  0.00     0.066 H 
ATOM     68  H   LIG d   1      11.074  13.303   1.063  0.00  0.00     0.066 H 
ENDBRANCH  64  65
ENDBRANCH  58  64
ENDBRANCH   1  54
TORSDOF 5
ENDMDL
MODEL 4
REMARK VINA RESULT:      -6.8      3.594      6.995
REMARK  5 active torsions:
REMARK  status: ('A' for Active; 'I' for Inactive)
REMARK    1  A    between atoms: C_1  and  O_2 
REMARK    2  A    between atoms: O_2  and  C_3 
REMARK    3  A    between atoms: C_6  and  C_9 
REMARK    4  A    between atoms: N_21  and  C_24 
REMARK    5  A    between atoms: C_24  and  C_25 
ROOT
ATOM      1  C   LIG d   1       9.947   4.720  -9.777  0.00  0.00     0.064 A 
ATOM      2  C   LIG d   1       8.953   3.813  -9.610  0.00  0.00     0.104 A 
ATOM      3  O   LIG d   1       8.723   3.171  -8.468  0.00  0.00    -0.462 OA
ATOM      4  C   LIG d   1       9.474   3.376  -7.370  0.00  0.00     0.150 A 
ATOM      5  C   LIG d   1      10.543   4.287  -7.384  0.00  0.00     0.065 A 
ATOM      6  C   LIG d   1      10.828   5.017  -8.633  0.00  0.00     0.200 A 
ATOM      7  O   LIG d   1      11.740   5.821  -8.716  0.00  0.00    -0.286 OA
ATOM      8  C   LIG d   1      11.314   4.490  -6.239  0.00  0.00    -0.044 A 
ATOM      9  C   LIG d   1      11.027   3.799  -5.098  0.00  0.00    -0.018 A 
ATOM     10  C   LIG d   1       9.967   2.891  -5.069  0.00  0.00     0.138 A 
ATOM     11  C   LIG d   1       9.195   2.681  -6.196  0.00  0.00     0.082 A 
ATOM     12  C   LIG d   1       8.045   1.707  -6.176  0.00  0.00     0.005 C 
ATOM     13  N   LIG d   1       8.179   0.809  -5.020  0.00  0.00     0.268 N 
ATOM     14  C   LIG d   1       8.432   1.591  -3.798  0.00  0.00     0.117 C 
ATOM     15  O   LIG d   1       9.710   2.218  -3.916  0.00  0.00    -0.454 OA
ATOM     16  H   LIG d   1       8.310   3.599 -10.451  0.00  0.00     0.104 H 
ATOM     17  H   LIG d   1      12.135   5.191  -6.256  0.00  0.00     0.063 H 
ATOM     18  H   LIG d   1      11.623   3.956  -4.211  0.00  0.00     0.065 H 
ATOM     19  H   LIG d   1       7.097   2.260  -6.101  0.00  0.00     0.087 H 
ATOM     20  H   LIG d   1       8.050   1.113  -7.102  0.00  0.00     0.087 H 
ATOM     21  H   LIG d   1       7.648   2.354  -3.684  0.00  0.00     0.130 H 
ATOM     22  H   LIG d   1       8.422   0.921  -2.927  0.00  0.00     0.130 H 
ATOM     23  H   LIG d   1       9.037   0.142  -5.195  0.00  0.00     0.207 HD
ENDROOT
BRANCH  13  24
ATOM     24  C   LIG d   1       6.987  -0.036  -4.868  0.00  0.00    -0.020 C 
ATOM     25  H   LIG d   1       6.087   0.598  -4.869  0.00  0.00     0.082 H 
ATOM     26  H   LIG d   1       6.934  -0.750  -5.703  0.00  0.00     0.082 H 
BRANCH  24  27
ATOM     27  C   LIG d   1       7.070  -0.801  -3.547  0.00  0.00     0.042 C 
ATOM     28  H   LIG d   1       7.832  -0.341  -2.901  0.00  0.00     0.041 H 
ATOM     29  C   LIG d   1       5.705  -0.754  -2.843  0.00  0.00    -0.013 C 
ATOM     30  N   LIG d   1       4.688  -1.412  -3.671  0.00  0.00     0.238 N 
ATOM     31  H   LIG d   1       5.722  -1.308  -1.893  0.00  0.00     0.086 H 
ATOM     32  C   LIG d   1       5.334   0.717  -2.627  0.00  0.00    -0.009 C 
ATOM     33  C   LIG d   1       5.034  -2.817  -3.935  0.00  0.00    -0.032 C 
ATOM     34  C   LIG d   1       3.358  -1.348  -3.045  0.00  0.00    -0.032 C 
ATOM     35  H   LIG d   1       4.662  -0.864  -4.624  0.00  0.00     0.204 HD
ATOM     36  C   LIG d   1       6.364  -2.900  -4.684  0.00  0.00    -0.012 C 
ATOM     37  H   LIG d   1       4.241  -3.276  -4.544  0.00  0.00     0.081 H 
ATOM     38  H   LIG d   1       5.117  -3.354  -2.979  0.00  0.00     0.081 H 
ATOM     39  C   LIG d   1       7.455  -2.254  -3.824  0.00  0.00    -0.035 C 
ATOM     40  H   LIG d   1       6.286  -2.364  -5.641  0.00  0.00     0.032 H 
ATOM     41  H   LIG d   1       6.620  -3.953  -4.872  0.00  0.00     0.032 H 
ATOM     42  H   LIG d   1       8.416  -2.283  -4.359  0.00  0.00     0.027 H 
ATOM     43  H   LIG d   1       7.550  -2.797  -2.872  0.00  0.00     0.027 H 
ATOM     44  C   LIG d   1       2.933   0.108  -2.861  0.00  0.00    -0.012 C 
ATOM     45  H   LIG d   1       2.625  -1.860  -3.687  0.00  0.00     0.081 H 
ATOM     46  H   LIG d   1       3.392  -1.841  -2.062  0.00  0.00     0.081 H 
ATOM     47  C   LIG d   1       3.957   0.814  -1.966  0.00  0.00    -0.043 C 
ATOM     48  H   LIG d   1       1.941   0.150  -2.387  0.00  0.00     0.032 H 
ATOM     49  H   LIG d   1       2.893   0.610  -3.839  0.00  0.00     0.032 H 
ATOM     50  H   LIG d   1       3.990   0.328  -0.980  0.00  0.00     0.027 H 
ATOM     51  H   LIG d   1       3.683   1.872  -1.846  0.00  0.00     0.027 H 
ATOM     52  H   LIG d   1       6.083   1.192  -1.976  0.00  0.00     0.032 H 
ATOM     53  H   LIG d   1       5.309   1.236  -3.597  0.00  0.00     0.032 H 
ENDBRANCH  24  27
ENDBRANCH  13  24
BRANCH   1  54
ATOM     54  C   LIG d   1      10.143   5.398 -11.082  0.00  0.00    -0.011 A 
ATOM     55  C   LIG d   1      11.100   4.924 -11.978  0.00  0.00    -0.050 A 
ATOM     56  C   LIG d   1      11.279   5.557 -13.191  0.00  0.00    -0.019 A 
ATOM     57  H   LIG d   1      11.699   4.063 -11.723  0.00  0.00     0.062 H 
ATOM     58  C   LIG d   1      10.508   6.663 -13.519  0.00  0.00     0.120 A 
ATOM     59  H   LIG d   1      12.020   5.191 -13.886  0.00  0.00     0.065 H 
ATOM     60  C   LIG d   1       9.555   7.138 -12.628  0.00  0.00    -0.019 A 
ATOM     61  C   LIG d   1       9.367   6.506 -11.416  0.00  0.00    -0.050 A 
ATOM     62  H   LIG d   1       8.956   7.998 -12.887  0.00  0.00     0.065 H 
ATOM     63  H   LIG d   1       8.622   6.873 -10.726  0.00  0.00     0.062 H 
BRANCH  58  64
ATOM     64  O   LIG d   1      10.688   7.285 -14.715  0.00  0.00    -0.495 OA
BRANCH  64  65
ATOM     65  C   LIG d   1       9.833   8.393 -15.004  0.00  0.00     0.079 C 
ATOM     66  H   LIG d   1       9.809   9.072 -14.139  0.00  0.00     0.066 H 
ATOM     67  H   LIG d   1       8.818   8.029 -15.214  0.00  0.00     0.066 H 
ATOM     68  H   LIG d   1      10.217   8.933 -15.883  0.00  0.00     0.066 H 
ENDBRANCH  64  65
ENDBRANCH  58  64
ENDBRANCH   1  54
TORSDOF 5
ENDMDL
MODEL 5
REMARK VINA RESULT:      -6.8      1.280      2.215
REMARK  5 active torsions:
REMARK  status: ('A' for Active; 'I' for Inactive)
REMARK    1  A    between atoms: C_1  and  O_2 
REMARK    2  A    between atoms: O_2  and  C_3 
REMARK    3  A    between atoms: C_6  and  C_9 
REMARK    4  A    between atoms: N_21  and  C_24 
REMARK    5  A    between atoms: C_24  and  C_25 
ROOT
ATOM      1  C   LIG d   1      10.967   6.251  -2.526  0.00  0.00     0.064 A 
ATOM      2  C   LIG d   1      10.217   5.288  -1.935  0.00  0.00     0.104 A 
ATOM      3  O   LIG d   1       9.592   4.324  -2.605  0.00  0.00    -0.462 OA
ATOM      4  C   LIG d   1       9.655   4.229  -3.946  0.00  0.00     0.150 A 
ATOM      5  C   LIG d   1      10.393   5.154  -4.703  0.00  0.00     0.065 A 
ATOM      6  C   LIG d   1      11.100   6.237  -3.994  0.00  0.00     0.200 A 
ATOM      7  O   LIG d   1      11.758   7.074  -4.589  0.00  0.00    -0.286 OA
ATOM      8  C   LIG d   1      10.450   5.045  -6.092  0.00  0.00    -0.044 A 
ATOM      9  C   LIG d   1       9.786   4.032  -6.720  0.00  0.00    -0.018 A 
ATOM     10  C   LIG d   1       9.049   3.105  -5.981  0.00  0.00     0.138 A 
ATOM     11  C   LIG d   1       8.984   3.202  -4.603  0.00  0.00     0.082 A 
ATOM     12  C   LIG d   1       8.196   2.204  -3.794  0.00  0.00     0.005 C 
ATOM     13  N   LIG d   1       7.262   1.484  -4.672  0.00  0.00     0.268 N 
ATOM     14  C   LIG d   1       7.968   0.988  -5.864  0.00  0.00     0.117 C 
ATOM     15  O   LIG d   1       8.397   2.110  -6.639  0.00  0.00    -0.454 OA
ATOM     16  H   LIG d   1      10.122   5.303  -0.859  0.00  0.00     0.104 H 
ATOM     17  H   LIG d   1      11.019   5.759  -6.669  0.00  0.00     0.063 H 
ATOM     18  H   LIG d   1       9.830   3.947  -7.796  0.00  0.00     0.065 H 
ATOM     19  H   LIG d   1       8.884   1.485  -3.325  0.00  0.00     0.087 H 
ATOM     20  H   LIG d   1       7.629   2.731  -3.012  0.00  0.00     0.087 H 
ATOM     21  H   LIG d   1       8.839   0.393  -5.553  0.00  0.00     0.130 H 
ATOM     22  H   LIG d   1       7.288   0.361  -6.458  0.00  0.00     0.130 H 
ATOM     23  H   LIG d   1       6.477   2.185  -4.994  0.00  0.00     0.207 HD
ENDROOT
BRANCH  13  24
ATOM     24  C   LIG d   1       6.605   0.385  -3.953  0.00  0.00    -0.020 C 
ATOM     25  H   LIG d   1       6.985  -0.578  -4.329  0.00  0.00     0.082 H 
ATOM     26  H   LIG d   1       6.820   0.469  -2.877  0.00  0.00     0.082 H 
BRANCH  24  27
ATOM     27  C   LIG d   1       5.094   0.460  -4.178  0.00  0.00     0.042 C 
ATOM     28  H   LIG d   1       4.879   1.140  -5.015  0.00  0.00     0.041 H 
ATOM     29  C   LIG d   1       4.557  -0.942  -4.504  0.00  0.00    -0.013 C 
ATOM     30  N   LIG d   1       4.790  -1.847  -3.373  0.00  0.00     0.238 N 
ATOM     31  H   LIG d   1       3.467  -0.930  -4.659  0.00  0.00     0.086 H 
ATOM     32  C   LIG d   1       5.293  -1.454  -5.747  0.00  0.00    -0.009 C 
ATOM     33  C   LIG d   1       4.131  -1.363  -2.150  0.00  0.00    -0.032 C 
ATOM     34  C   LIG d   1       4.324  -3.211  -3.669  0.00  0.00    -0.032 C 
ATOM     35  H   LIG d   1       5.877  -1.868  -3.211  0.00  0.00     0.204 HD
ATOM     36  C   LIG d   1       4.682   0.009  -1.765  0.00  0.00    -0.012 C 
ATOM     37  H   LIG d   1       4.318  -2.076  -1.333  0.00  0.00     0.081 H 
ATOM     38  H   LIG d   1       3.049  -1.287  -2.329  0.00  0.00     0.081 H 
ATOM     39  C   LIG d   1       4.416   0.988  -2.913  0.00  0.00    -0.035 C 
ATOM     40  H   LIG d   1       5.764  -0.060  -1.585  0.00  0.00     0.032 H 
ATOM     41  H   LIG d   1       4.181   0.369  -0.853  0.00  0.00     0.032 H 
ATOM     42  H   LIG d   1       4.829   1.977  -2.662  0.00  0.00     0.027 H 
ATOM     43  H   LIG d   1       3.334   1.076  -3.086  0.00  0.00     0.027 H 
ATOM     44  C   LIG d   1       5.076  -3.774  -4.875  0.00  0.00    -0.012 C 
ATOM     45  H   LIG d   1       4.504  -3.857  -2.797  0.00  0.00     0.081 H 
ATOM     46  H   LIG d   1       3.247  -3.190  -3.893  0.00  0.00     0.081 H 
ATOM     47  C   LIG d   1       4.820  -2.869  -6.084  0.00  0.00    -0.043 C 
ATOM     48  H   LIG d   1       4.719  -4.791  -5.095  0.00  0.00     0.032 H 
ATOM     49  H   LIG d   1       6.154  -3.802  -4.660  0.00  0.00     0.032 H 
ATOM     50  H   LIG d   1       3.745  -2.850  -6.316  0.00  0.00     0.027 H 
ATOM     51  H   LIG d   1       5.377  -3.244  -6.956  0.00  0.00     0.027 H 
ATOM     52  H   LIG d   1       5.083  -0.789  -6.598  0.00  0.00     0.032 H 
ATOM     53  H   LIG d   1       6.375  -1.470  -5.551  0.00  0.00     0.032 H 
ENDBRANCH  24  27
ENDBRANCH  13  24
BRANCH   1  54
ATOM     54  C   LIG d   1      11.636   7.296  -1.713  0.00  0.00    -0.011 A 
ATOM     55  C   LIG d   1      10.978   8.493  -1.435  0.00  0.00    -0.050 A 
ATOM     56  C   LIG d   1      11.603   9.463  -0.679  0.00  0.00    -0.019 A 
ATOM     57  H   LIG d   1       9.979   8.661  -1.811  0.00  0.00     0.062 H 
ATOM     58  C   LIG d   1      12.887   9.246  -0.195  0.00  0.00     0.120 A 
ATOM     59  H   LIG d   1      11.095  10.390  -0.462  0.00  0.00     0.065 H 
ATOM     60  C   LIG d   1      13.545   8.056  -0.471  0.00  0.00    -0.019 A 
ATOM     61  C   LIG d   1      12.922   7.081  -1.223  0.00  0.00    -0.050 A 
ATOM     62  H   LIG d   1      14.543   7.891  -0.092  0.00  0.00     0.065 H 
ATOM     63  H   LIG d   1      13.433   6.152  -1.433  0.00  0.00     0.062 H 
BRANCH  58  64
ATOM     64  O   LIG d   1      13.501  10.204   0.550  0.00  0.00    -0.495 OA
BRANCH  64  65
ATOM     65  C   LIG d   1      13.977  11.359  -0.144  0.00  0.00     0.079 C 
ATOM     66  H   LIG d   1      14.120  11.114  -1.207  0.00  0.00     0.066 H 
ATOM     67  H   LIG d   1      14.934  11.679   0.291  0.00  0.00     0.066 H 
ATOM     68  H   LIG d   1      13.242  12.172  -0.051  0.00  0.00     0.066 H 
ENDBRANCH  64  65
ENDBRANCH  58  64
ENDBRANCH   1  54
TORSDOF 5
ENDMDL
MODEL 6
REMARK VINA RESULT:      -6.7      1.859      3.254
REMARK  5 active torsions:
REMARK  status: ('A' for Active; 'I' for Inactive)
REMARK    1  A    between atoms: C_1  and  O_2 
REMARK    2  A    between atoms: O_2  and  C_3 
REMARK    3  A    between atoms: C_6  and  C_9 
REMARK    4  A    between atoms: N_21  and  C_24 
REMARK    5  A    between atoms: C_24  and  C_25 
ROOT
ATOM      1  C   LIG d   1      10.359   7.691  -1.844  0.00  0.00     0.064 A 
ATOM      2  C   LIG d   1      10.084   6.434  -1.415  0.00  0.00     0.104 A 
ATOM      3  O   LIG d   1       9.840   5.412  -2.231  0.00  0.00    -0.462 OA
ATOM      4  C   LIG d   1       9.846   5.550  -3.569  0.00  0.00     0.150 A 
ATOM      5  C   LIG d   1      10.113   6.792  -4.168  0.00  0.00     0.065 A 
ATOM      6  C   LIG d   1      10.389   7.948  -3.295  0.00  0.00     0.200 A 
ATOM      7  O   LIG d   1      10.628   9.054  -3.748  0.00  0.00    -0.286 OA
ATOM      8  C   LIG d   1      10.115   6.921  -5.557  0.00  0.00    -0.044 A 
ATOM      9  C   LIG d   1       9.856   5.834  -6.339  0.00  0.00    -0.018 A 
ATOM     10  C   LIG d   1       9.589   4.593  -5.758  0.00  0.00     0.138 A 
ATOM     11  C   LIG d   1       9.585   4.451  -4.383  0.00  0.00     0.082 A 
ATOM     12  C   LIG d   1       9.302   3.115  -3.744  0.00  0.00     0.005 C 
ATOM     13  N   LIG d   1       8.665   2.224  -4.724  0.00  0.00     0.268 N 
ATOM     14  C   LIG d   1       9.427   2.229  -5.984  0.00  0.00     0.117 C 
ATOM     15  O   LIG d   1       9.333   3.531  -6.567  0.00  0.00    -0.454 OA
ATOM     16  H   LIG d   1      10.063   6.251  -0.351  0.00  0.00     0.104 H 
ATOM     17  H   LIG d   1      10.322   7.879  -6.012  0.00  0.00     0.063 H 
ATOM     18  H   LIG d   1       9.858   5.933  -7.415  0.00  0.00     0.065 H 
ATOM     19  H   LIG d   1      10.245   2.666  -3.401  0.00  0.00     0.087 H 
ATOM     20  H   LIG d   1       8.629   3.254  -2.885  0.00  0.00     0.087 H 
ATOM     21  H   LIG d   1      10.480   1.987  -5.776  0.00  0.00     0.130 H 
ATOM     22  H   LIG d   1       9.006   1.480  -6.670  0.00  0.00     0.130 H 
ATOM     23  H   LIG d   1       7.650   2.597  -4.926  0.00  0.00     0.207 HD
ENDROOT
BRANCH  13  24
ATOM     24  C   LIG d   1       8.537   0.861  -4.191  0.00  0.00    -0.020 C 
ATOM     25  H   LIG d   1       9.533   0.397  -4.129  0.00  0.00     0.082 H 
ATOM     26  H   LIG d   1       8.088   0.900  -3.188  0.00  0.00     0.082 H 
BRANCH  24  27
ATOM     27  C   LIG d   1       7.645   0.033  -5.118  0.00  0.00     0.042 C 
ATOM     28  H   LIG d   1       7.700   0.437  -6.140  0.00  0.00     0.041 H 
ATOM     29  C   LIG d   1       8.123  -1.426  -5.116  0.00  0.00    -0.013 C 
ATOM     30  N   LIG d   1       8.005  -1.994  -3.768  0.00  0.00     0.238 N 
ATOM     31  H   LIG d   1       7.495  -2.057  -5.762  0.00  0.00     0.086 H 
ATOM     32  C   LIG d   1       9.588  -1.446  -5.568  0.00  0.00    -0.009 C 
ATOM     33  C   LIG d   1       6.617  -1.952  -3.285  0.00  0.00    -0.032 C 
ATOM     34  C   LIG d   1       8.495  -3.381  -3.721  0.00  0.00    -0.032 C 
ATOM     35  H   LIG d   1       8.632  -1.371  -3.114  0.00  0.00     0.204 HD
ATOM     36  C   LIG d   1       6.125  -0.506  -3.223  0.00  0.00    -0.012 C 
ATOM     37  H   LIG d   1       6.570  -2.399  -2.280  0.00  0.00     0.081 H 
ATOM     38  H   LIG d   1       5.978  -2.528  -3.971  0.00  0.00     0.081 H 
ATOM     39  C   LIG d   1       6.199   0.101  -4.627  0.00  0.00    -0.035 C 
ATOM     40  H   LIG d   1       6.760   0.074  -2.538  0.00  0.00     0.032 H 
ATOM     41  H   LIG d   1       5.084  -0.482  -2.867  0.00  0.00     0.032 H 
ATOM     42  H   LIG d   1       5.872   1.151  -4.596  0.00  0.00     0.027 H 
ATOM     43  H   LIG d   1       5.551  -0.465  -5.313  0.00  0.00     0.027 H 
ATOM     44  C   LIG d   1       9.970  -3.431  -4.117  0.00  0.00    -0.012 C 
ATOM     45  H   LIG d   1       8.381  -3.776  -2.701  0.00  0.00     0.081 H 
ATOM     46  H   LIG d   1       7.913  -3.998  -4.421  0.00  0.00     0.081 H 
ATOM     47  C   LIG d   1      10.121  -2.880  -5.539  0.00  0.00    -0.043 C 
ATOM     48  H   LIG d   1      10.329  -4.470  -4.087  0.00  0.00     0.032 H 
ATOM     49  H   LIG d   1      10.563  -2.818  -3.421  0.00  0.00     0.032 H 
ATOM     50  H   LIG d   1       9.545  -3.499  -6.242  0.00  0.00     0.027 H 
ATOM     51  H   LIG d   1      11.181  -2.882  -5.830  0.00  0.00     0.027 H 
ATOM     52  H   LIG d   1       9.661  -1.052  -6.592  0.00  0.00     0.032 H 
ATOM     53  H   LIG d   1      10.189  -0.822  -4.890  0.00  0.00     0.032 H 
ENDBRANCH  24  27
ENDBRANCH  13  24
BRANCH   1  54
ATOM     54  C   LIG d   1      10.622   8.783  -0.874  0.00  0.00    -0.011 A 
ATOM     55  C   LIG d   1      11.879   8.905  -0.285  0.00  0.00    -0.050 A 
ATOM     56  C   LIG d   1      12.121   9.922   0.616  0.00  0.00    -0.019 A 
ATOM     57  H   LIG d   1      12.664   8.207  -0.535  0.00  0.00     0.062 H 
ATOM     58  C   LIG d   1      11.112  10.820   0.936  0.00  0.00     0.120 A 
ATOM     59  H   LIG d   1      13.094  10.018   1.073  0.00  0.00     0.065 H 
ATOM     60  C   LIG d   1       9.859  10.700   0.352  0.00  0.00    -0.019 A 
ATOM     61  C   LIG d   1       9.613   9.689  -0.554  0.00  0.00    -0.050 A 
ATOM     62  H   LIG d   1       9.077  11.401   0.603  0.00  0.00     0.065 H 
ATOM     63  H   LIG d   1       8.639   9.599  -1.012  0.00  0.00     0.062 H 
BRANCH  58  64
ATOM     64  O   LIG d   1      11.352  11.821   1.826  0.00  0.00    -0.495 OA
BRANCH  64  65
ATOM     65  C   LIG d   1      12.090  12.948   1.350  0.00  0.00     0.079 C 
ATOM     66  H   LIG d   1      11.715  13.237   0.356  0.00  0.00     0.066 H 
ATOM     67  H   LIG d   1      13.154  12.686   1.278  0.00  0.00     0.066 H 
ATOM     68  H   LIG d   1      11.965  13.789   2.048  0.00  0.00     0.066 H 
ENDBRANCH  64  65
ENDBRANCH  58  64
ENDBRANCH   1  54
TORSDOF 5
ENDMDL
MODEL 7
REMARK VINA RESULT:      -6.7      5.022     10.693
REMARK  5 active torsions:
REMARK  status: ('A' for Active; 'I' for Inactive)
REMARK    1  A    between atoms: C_1  and  O_2 
REMARK    2  A    between atoms: O_2  and  C_3 
REMARK    3  A    between atoms: C_6  and  C_9 
REMARK    4  A    between atoms: N_21  and  C_24 
REMARK    5  A    between atoms: C_24  and  C_25 
ROOT
ATOM      1  C   LIG d   1       9.933   6.494  -7.280  0.00  0.00     0.064 A 
ATOM      2  C   LIG d   1       9.885   7.746  -6.760  0.00  0.00     0.104 A 
ATOM      3  O   LIG d   1       9.848   8.004  -5.456  0.00  0.00    -0.462 OA
ATOM      4  C   LIG d   1       9.853   7.023  -4.535  0.00  0.00     0.150 A 
ATOM      5  C   LIG d   1       9.899   5.672  -4.915  0.00  0.00     0.065 A 
ATOM      6  C   LIG d   1       9.942   5.348  -6.353  0.00  0.00     0.200 A 
ATOM      7  O   LIG d   1       9.982   4.197  -6.753  0.00  0.00    -0.286 OA
ATOM      8  C   LIG d   1       9.903   4.665  -3.950  0.00  0.00    -0.044 A 
ATOM      9  C   LIG d   1       9.862   4.995  -2.627  0.00  0.00    -0.018 A 
ATOM     10  C   LIG d   1       9.817   6.334  -2.233  0.00  0.00     0.138 A 
ATOM     11  C   LIG d   1       9.813   7.342  -3.180  0.00  0.00     0.082 A 
ATOM     12  C   LIG d   1       9.768   8.791  -2.768  0.00  0.00     0.005 C 
ATOM     13  N   LIG d   1       9.324   8.893  -1.370  0.00  0.00     0.268 N 
ATOM     14  C   LIG d   1      10.095   7.967  -0.525  0.00  0.00     0.117 C 
ATOM     15  O   LIG d   1       9.775   6.628  -0.906  0.00  0.00    -0.454 OA
ATOM     16  H   LIG d   1       9.878   8.582  -7.445  0.00  0.00     0.104 H 
ATOM     17  H   LIG d   1       9.939   3.628  -4.248  0.00  0.00     0.063 H 
ATOM     18  H   LIG d   1       9.866   4.217  -1.878  0.00  0.00     0.065 H 
ATOM     19  H   LIG d   1      10.771   9.231  -2.865  0.00  0.00     0.087 H 
ATOM     20  H   LIG d   1       9.065   9.335  -3.415  0.00  0.00     0.087 H 
ATOM     21  H   LIG d   1      11.170   8.151  -0.667  0.00  0.00     0.130 H 
ATOM     22  H   LIG d   1       9.831   8.129   0.530  0.00  0.00     0.130 H 
ATOM     23  H   LIG d   1       8.261   8.611  -1.322  0.00  0.00     0.207 HD
ENDROOT
BRANCH  13  24
ATOM     24  C   LIG d   1       9.438  10.273  -0.881  0.00  0.00    -0.020 C 
ATOM     25  H   LIG d   1       8.594  10.868  -1.263  0.00  0.00     0.082 H 
ATOM     26  H   LIG d   1       9.420  10.275   0.219  0.00  0.00     0.082 H 
BRANCH  24  27
ATOM     27  C   LIG d   1      10.753  10.881  -1.370  0.00  0.00     0.042 C 
ATOM     28  H   LIG d   1      11.174  10.254  -2.171  0.00  0.00     0.041 H 
ATOM     29  C   LIG d   1      10.493  12.295  -1.910  0.00  0.00    -0.013 C 
ATOM     30  N   LIG d   1       9.980  13.157  -0.838  0.00  0.00     0.238 N 
ATOM     31  H   LIG d   1      11.421  12.771  -2.259  0.00  0.00     0.086 H 
ATOM     32  C   LIG d   1       9.460  12.189  -3.038  0.00  0.00    -0.009 C 
ATOM     33  C   LIG d   1      10.930  13.247   0.281  0.00  0.00    -0.032 C 
ATOM     34  C   LIG d   1       9.680  14.510  -1.332  0.00  0.00    -0.032 C 
ATOM     35  H   LIG d   1       9.050  12.691  -0.484  0.00  0.00     0.204 HD
ATOM     36  C   LIG d   1      11.172  11.862   0.878  0.00  0.00    -0.012 C 
ATOM     37  H   LIG d   1      10.515  13.913   1.053  0.00  0.00     0.081 H 
ATOM     38  H   LIG d   1      11.881  13.661  -0.085  0.00  0.00     0.081 H 
ATOM     39  C   LIG d   1      11.746  10.948  -0.210  0.00  0.00    -0.035 C 
ATOM     40  H   LIG d   1      10.224  11.443   1.246  0.00  0.00     0.032 H 
ATOM     41  H   LIG d   1      11.888  11.935   1.711  0.00  0.00     0.032 H 
ATOM     42  H   LIG d   1      11.903   9.938   0.198  0.00  0.00     0.027 H 
ATOM     43  H   LIG d   1      12.704  11.352  -0.568  0.00  0.00     0.027 H 
ATOM     44  C   LIG d   1       8.613  14.447  -2.424  0.00  0.00    -0.012 C 
ATOM     45  H   LIG d   1       9.310  15.130  -0.501  0.00  0.00     0.081 H 
ATOM     46  H   LIG d   1      10.594  14.960  -1.746  0.00  0.00     0.081 H 
ATOM     47  C   LIG d   1       9.136  13.583  -3.577  0.00  0.00    -0.043 C 
ATOM     48  H   LIG d   1       8.397  15.460  -2.794  0.00  0.00     0.032 H 
ATOM     49  H   LIG d   1       7.693  14.000  -2.020  0.00  0.00     0.032 H 
ATOM     50  H   LIG d   1      10.046  14.034  -3.999  0.00  0.00     0.027 H 
ATOM     51  H   LIG d   1       8.369  13.503  -4.362  0.00  0.00     0.027 H 
ATOM     52  H   LIG d   1       9.867  11.570  -3.851  0.00  0.00     0.032 H 
ATOM     53  H   LIG d   1       8.540  11.726  -2.650  0.00  0.00     0.032 H 
ENDBRANCH  24  27
ENDBRANCH  13  24
BRANCH   1  54
ATOM     54  C   LIG d   1       9.973   6.284  -8.749  0.00  0.00    -0.011 A 
ATOM     55  C   LIG d   1       8.786   6.189  -9.473  0.00  0.00    -0.050 A 
ATOM     56  C   LIG d   1       8.827   5.994 -10.838  0.00  0.00    -0.019 A 
ATOM     57  H   LIG d   1       7.835   6.270  -8.967  0.00  0.00     0.062 H 
ATOM     58  C   LIG d   1      10.049   5.891 -11.489  0.00  0.00     0.120 A 
ATOM     59  H   LIG d   1       7.909   5.920 -11.401  0.00  0.00     0.065 H 
ATOM     60  C   LIG d   1      11.233   5.983 -10.770  0.00  0.00    -0.019 A 
ATOM     61  C   LIG d   1      11.198   6.184  -9.405  0.00  0.00    -0.050 A 
ATOM     62  H   LIG d   1      12.182   5.904 -11.279  0.00  0.00     0.065 H 
ATOM     63  H   LIG d   1      12.119   6.262  -8.847  0.00  0.00     0.062 H 
BRANCH  58  64
ATOM     64  O   LIG d   1      10.087   5.697 -12.835  0.00  0.00    -0.495 OA
BRANCH  64  65
ATOM     65  C   LIG d   1       8.906   6.024 -13.570  0.00  0.00     0.079 C 
ATOM     66  H   LIG d   1       8.757   7.114 -13.557  0.00  0.00     0.066 H 
ATOM     67  H   LIG d   1       8.039   5.530 -13.110  0.00  0.00     0.066 H 
ATOM     68  H   LIG d   1       9.015   5.681 -14.609  0.00  0.00     0.066 H 
ENDBRANCH  64  65
ENDBRANCH  58  64
ENDBRANCH   1  54
TORSDOF 5
ENDMDL
MODEL 8
REMARK VINA RESULT:      -6.5      4.212      7.289
REMARK  5 active torsions:
REMARK  status: ('A' for Active; 'I' for Inactive)
REMARK    1  A    between atoms: C_1  and  O_2 
REMARK    2  A    between atoms: O_2  and  C_3 
REMARK    3  A    between atoms: C_6  and  C_9 
REMARK    4  A    between atoms: N_21  and  C_24 
REMARK    5  A    between atoms: C_24  and  C_25 
ROOT
ATOM      1  C   LIG d   1       8.107   1.023  -4.292  0.00  0.00     0.064 A 
ATOM      2  C   LIG d   1       8.619  -0.035  -4.968  0.00  0.00     0.104 A 
ATOM      3  O   LIG d   1       7.991  -1.199  -5.103  0.00  0.00    -0.462 OA
ATOM      4  C   LIG d   1       6.777  -1.421  -4.569  0.00  0.00     0.150 A 
ATOM      5  C   LIG d   1       6.113  -0.422  -3.838  0.00  0.00     0.065 A 
ATOM      6  C   LIG d   1       6.779   0.883  -3.667  0.00  0.00     0.200 A 
ATOM      7  O   LIG d   1       6.261   1.794  -3.044  0.00  0.00    -0.286 OA
ATOM      8  C   LIG d   1       4.854  -0.665  -3.289  0.00  0.00    -0.044 A 
ATOM      9  C   LIG d   1       4.263  -1.882  -3.463  0.00  0.00    -0.018 A 
ATOM     10  C   LIG d   1       4.910  -2.885  -4.187  0.00  0.00     0.138 A 
ATOM     11  C   LIG d   1       6.157  -2.657  -4.738  0.00  0.00     0.082 A 
ATOM     12  C   LIG d   1       6.864  -3.730  -5.525  0.00  0.00     0.005 C 
ATOM     13  N   LIG d   1       6.253  -5.036  -5.239  0.00  0.00     0.268 N 
ATOM     14  C   LIG d   1       4.789  -4.949  -5.366  0.00  0.00     0.117 C 
ATOM     15  O   LIG d   1       4.293  -4.087  -4.340  0.00  0.00    -0.454 OA
ATOM     16  H   LIG d   1       9.593   0.074  -5.423  0.00  0.00     0.104 H 
ATOM     17  H   LIG d   1       4.349   0.107  -2.728  0.00  0.00     0.063 H 
ATOM     18  H   LIG d   1       3.288  -2.072  -3.038  0.00  0.00     0.065 H 
ATOM     19  H   LIG d   1       6.777  -3.514  -6.601  0.00  0.00     0.087 H 
ATOM     20  H   LIG d   1       7.927  -3.754  -5.243  0.00  0.00     0.087 H 
ATOM     21  H   LIG d   1       4.531  -4.541  -6.355  0.00  0.00     0.130 H 
ATOM     22  H   LIG d   1       4.352  -5.952  -5.257  0.00  0.00     0.130 H 
ATOM     23  H   LIG d   1       6.500  -5.316  -4.204  0.00  0.00     0.207 HD
ENDROOT
BRANCH  13  24
ATOM     24  C   LIG d   1       6.798  -6.077  -6.121  0.00  0.00    -0.020 C 
ATOM     25  H   LIG d   1       5.974  -6.570  -6.658  0.00  0.00     0.082 H 
ATOM     26  H   LIG d   1       7.487  -5.620  -6.846  0.00  0.00     0.082 H 
BRANCH  24  27
ATOM     27  C   LIG d   1       7.551  -7.111  -5.283  0.00  0.00     0.042 C 
ATOM     28  H   LIG d   1       7.550  -6.802  -4.227  0.00  0.00     0.041 H 
ATOM     29  C   LIG d   1       6.862  -8.477  -5.418  0.00  0.00    -0.013 C 
ATOM     30  N   LIG d   1       6.902  -8.926  -6.814  0.00  0.00     0.238 N 
ATOM     31  H   LIG d   1       7.385  -9.252  -4.839  0.00  0.00     0.086 H 
ATOM     32  C   LIG d   1       5.407  -8.322  -4.958  0.00  0.00    -0.009 C 
ATOM     33  C   LIG d   1       8.285  -9.046  -7.302  0.00  0.00    -0.032 C 
ATOM     34  C   LIG d   1       6.212 -10.215  -6.987  0.00  0.00    -0.032 C 
ATOM     35  H   LIG d   1       6.379  -8.159  -7.402  0.00  0.00     0.204 HD
ATOM     36  C   LIG d   1       8.986  -7.690  -7.232  0.00  0.00    -0.012 C 
ATOM     37  H   LIG d   1       8.270  -9.398  -8.344  0.00  0.00     0.081 H 
ATOM     38  H   LIG d   1       8.826  -9.772  -6.678  0.00  0.00     0.081 H 
ATOM     39  C   LIG d   1       8.994  -7.213  -5.776  0.00  0.00    -0.035 C 
ATOM     40  H   LIG d   1       8.448  -6.960  -7.854  0.00  0.00     0.032 H 
ATOM     41  H   LIG d   1      10.021  -7.787  -7.592  0.00  0.00     0.032 H 
ATOM     42  H   LIG d   1       9.474  -6.225  -5.712  0.00  0.00     0.027 H 
ATOM     43  H   LIG d   1       9.547  -7.930  -5.152  0.00  0.00     0.027 H 
ATOM     44  C   LIG d   1       4.744 -10.083  -6.586  0.00  0.00    -0.012 C 
ATOM     45  H   LIG d   1       6.273 -10.525  -8.041  0.00  0.00     0.081 H 
ATOM     46  H   LIG d   1       6.692 -10.975  -6.353  0.00  0.00     0.081 H 
ATOM     47  C   LIG d   1       4.668  -9.651  -5.118  0.00  0.00    -0.043 C 
ATOM     48  H   LIG d   1       4.235 -11.050  -6.711  0.00  0.00     0.032 H 
ATOM     49  H   LIG d   1       4.253  -9.326  -7.216  0.00  0.00     0.032 H 
ATOM     50  H   LIG d   1       5.141 -10.412  -4.480  0.00  0.00     0.027 H 
ATOM     51  H   LIG d   1       3.617  -9.524  -4.819  0.00  0.00     0.027 H 
ATOM     52  H   LIG d   1       5.387  -8.019  -3.901  0.00  0.00     0.032 H 
ATOM     53  H   LIG d   1       4.910  -7.554  -5.570  0.00  0.00     0.032 H 
ENDBRANCH  24  27
ENDBRANCH  13  24
BRANCH   1  54
ATOM     54  C   LIG d   1       8.866   2.294  -4.183  0.00  0.00    -0.011 A 
ATOM     55  C   LIG d   1       9.657   2.540  -3.062  0.00  0.00    -0.050 A 
ATOM     56  C   LIG d   1      10.363   3.722  -2.964  0.00  0.00    -0.019 A 
ATOM     57  H   LIG d   1       9.719   1.806  -2.272  0.00  0.00     0.062 H 
ATOM     58  C   LIG d   1      10.284   4.664  -3.980  0.00  0.00     0.120 A 
ATOM     59  H   LIG d   1      10.976   3.914  -2.096  0.00  0.00     0.065 H 
ATOM     60  C   LIG d   1       9.496   4.422  -5.097  0.00  0.00    -0.019 A 
ATOM     61  C   LIG d   1       8.793   3.240  -5.203  0.00  0.00    -0.050 A 
ATOM     62  H   LIG d   1       9.438   5.157  -5.886  0.00  0.00     0.065 H 
ATOM     63  H   LIG d   1       8.185   3.050  -6.075  0.00  0.00     0.062 H 
BRANCH  58  64
ATOM     64  O   LIG d   1      10.980   5.828  -3.880  0.00  0.00    -0.495 OA
BRANCH  64  65
ATOM     65  C   LIG d   1      10.288   6.952  -3.332  0.00  0.00     0.079 C 
ATOM     66  H   LIG d   1      10.221   7.746  -4.090  0.00  0.00     0.066 H 
ATOM     67  H   LIG d   1      10.834   7.327  -2.455  0.00  0.00     0.066 H 
ATOM     68  H   LIG d   1       9.275   6.647  -3.029  0.00  0.00     0.066 H 
ENDBRANCH  64  65
ENDBRANCH  58  64
ENDBRANCH   1  54
TORSDOF 5
ENDMDL
MODEL 9
REMARK VINA RESULT:      -6.4      2.046      2.774
REMARK  5 active torsions:
REMARK  status: ('A' for Active; 'I' for Inactive)
REMARK    1  A    between atoms: C_1  and  O_2 
REMARK    2  A    between atoms: O_2  and  C_3 
REMARK    3  A    between atoms: C_6  and  C_9 
REMARK    4  A    between atoms: N_21  and  C_24 
REMARK    5  A    between atoms: C_24  and  C_25 
ROOT
ATOM      1  C   LIG d   1      10.184   4.626  -3.255  0.00  0.00     0.064 A 
ATOM      2  C   LIG d   1       9.601   3.420  -3.041  0.00  0.00     0.104 A 
ATOM      3  O   LIG d   1       9.134   2.642  -4.013  0.00  0.00    -0.462 OA
ATOM      4  C   LIG d   1       9.205   2.999  -5.309  0.00  0.00     0.150 A 
ATOM      5  C   LIG d   1       9.782   4.221  -5.693  0.00  0.00     0.065 A 
ATOM      6  C   LIG d   1      10.310   5.110  -4.641  0.00  0.00     0.200 A 
ATOM      7  O   LIG d   1      10.822   6.184  -4.904  0.00  0.00    -0.286 OA
ATOM      8  C   LIG d   1       9.848   4.579  -7.039  0.00  0.00    -0.044 A 
ATOM      9  C   LIG d   1       9.351   3.737  -7.990  0.00  0.00    -0.018 A 
ATOM     10  C   LIG d   1       8.775   2.519  -7.624  0.00  0.00     0.138 A 
ATOM     11  C   LIG d   1       8.704   2.151  -6.293  0.00  0.00     0.082 A 
ATOM     12  C   LIG d   1       8.089   0.837  -5.885  0.00  0.00     0.005 C 
ATOM     13  N   LIG d   1       7.277   0.308  -6.990  0.00  0.00     0.268 N 
ATOM     14  C   LIG d   1       8.047   0.340  -8.245  0.00  0.00     0.117 C 
ATOM     15  O   LIG d   1       8.287   1.704  -8.596  0.00  0.00    -0.454 OA
ATOM     16  H   LIG d   1       9.511   3.071  -2.022  0.00  0.00     0.104 H 
ATOM     17  H   LIG d   1      10.293   5.520  -7.329  0.00  0.00     0.063 H 
ATOM     18  H   LIG d   1       9.402   4.013  -9.033  0.00  0.00     0.065 H 
ATOM     19  H   LIG d   1       8.885   0.119  -5.640  0.00  0.00     0.087 H 
ATOM     20  H   LIG d   1       7.449   0.988  -5.003  0.00  0.00     0.087 H 
ATOM     21  H   LIG d   1       9.004  -0.184  -8.100  0.00  0.00     0.130 H 
ATOM     22  H   LIG d   1       7.473  -0.156  -9.040  0.00  0.00     0.130 H 
ATOM     23  H   LIG d   1       6.389   0.946  -7.106  0.00  0.00     0.207 HD
ENDROOT
BRANCH  13  24
ATOM     24  C   LIG d   1       6.808  -1.053  -6.695  0.00  0.00    -0.020 C 
ATOM     25  H   LIG d   1       6.675  -1.607  -7.636  0.00  0.00     0.082 H 
ATOM     26  H   LIG d   1       7.550  -1.569  -6.067  0.00  0.00     0.082 H 
BRANCH  24  27
ATOM     27  C   LIG d   1       5.473  -0.981  -5.952  0.00  0.00     0.042 C 
ATOM     28  H   LIG d   1       5.069   0.040  -6.016  0.00  0.00     0.041 H 
ATOM     29  C   LIG d   1       4.482  -1.966  -6.589  0.00  0.00    -0.013 C 
ATOM     30  N   LIG d   1       4.984  -3.339  -6.462  0.00  0.00     0.238 N 
ATOM     31  H   LIG d   1       3.511  -1.954  -6.071  0.00  0.00     0.086 H 
ATOM     32  C   LIG d   1       4.331  -1.596  -8.069  0.00  0.00    -0.009 C 
ATOM     33  C   LIG d   1       5.181  -3.714  -5.054  0.00  0.00    -0.032 C 
ATOM     34  C   LIG d   1       4.076  -4.306  -7.101  0.00  0.00    -0.032 C 
ATOM     35  H   LIG d   1       5.953  -3.364  -6.980  0.00  0.00     0.204 HD
ATOM     36  C   LIG d   1       6.204  -2.785  -4.401  0.00  0.00    -0.012 C 
ATOM     37  H   LIG d   1       5.542  -4.752  -5.004  0.00  0.00     0.081 H 
ATOM     38  H   LIG d   1       4.222  -3.635  -4.522  0.00  0.00     0.081 H 
ATOM     39  C   LIG d   1       5.687  -1.345  -4.483  0.00  0.00    -0.035 C 
ATOM     40  H   LIG d   1       7.166  -2.861  -4.930  0.00  0.00     0.032 H 
ATOM     41  H   LIG d   1       6.343  -3.067  -3.347  0.00  0.00     0.032 H 
ATOM     42  H   LIG d   1       6.425  -0.660  -4.039  0.00  0.00     0.027 H 
ATOM     43  H   LIG d   1       4.735  -1.260  -3.940  0.00  0.00     0.027 H 
ATOM     44  C   LIG d   1       3.943  -3.998  -8.592  0.00  0.00    -0.012 C 
ATOM     45  H   LIG d   1       4.478  -5.323  -6.976  0.00  0.00     0.081 H 
ATOM     46  H   LIG d   1       3.084  -4.244  -6.629  0.00  0.00     0.081 H 
ATOM     47  C   LIG d   1       3.383  -2.582  -8.756  0.00  0.00    -0.043 C 
ATOM     48  H   LIG d   1       3.259  -4.720  -9.062  0.00  0.00     0.032 H 
ATOM     49  H   LIG d   1       4.930  -4.060  -9.074  0.00  0.00     0.032 H 
ATOM     50  H   LIG d   1       2.388  -2.517  -8.292  0.00  0.00     0.027 H 
ATOM     51  H   LIG d   1       3.307  -2.332  -9.824  0.00  0.00     0.027 H 
ATOM     52  H   LIG d   1       3.921  -0.579  -8.153  0.00  0.00     0.032 H 
ATOM     53  H   LIG d   1       5.315  -1.637  -8.559  0.00  0.00     0.032 H 
ENDBRANCH  24  27
ENDBRANCH  13  24
BRANCH   1  54
ATOM     54  C   LIG d   1      10.682   5.440  -2.118  0.00  0.00    -0.011 A 
ATOM     55  C   LIG d   1       9.892   6.459  -1.590  0.00  0.00    -0.050 A 
ATOM     56  C   LIG d   1      10.358   7.213  -0.533  0.00  0.00    -0.019 A 
ATOM     57  H   LIG d   1       8.915   6.657  -2.007  0.00  0.00     0.062 H 
ATOM     58  C   LIG d   1      11.613   6.958   0.003  0.00  0.00     0.120 A 
ATOM     59  H   LIG d   1       9.747   8.003  -0.122  0.00  0.00     0.065 H 
ATOM     60  C   LIG d   1      12.402   5.944  -0.522  0.00  0.00    -0.019 A 
ATOM     61  C   LIG d   1      11.939   5.183  -1.575  0.00  0.00    -0.050 A 
ATOM     62  H   LIG d   1      13.378   5.747  -0.102  0.00  0.00     0.065 H 
ATOM     63  H   LIG d   1      12.552   4.391  -1.979  0.00  0.00     0.062 H 
BRANCH  58  64
ATOM     64  O   LIG d   1      12.070   7.703   1.044  0.00  0.00    -0.495 OA
BRANCH  64  65
ATOM     65  C   LIG d   1      12.407   9.064   0.768  0.00  0.00     0.079 C 
ATOM     66  H   LIG d   1      12.797   9.537   1.682  0.00  0.00     0.066 H 
ATOM     67  H   LIG d   1      11.510   9.603   0.431  0.00  0.00     0.066 H 
ATOM     68  H   LIG d   1      13.174   9.100  -0.019  0.00  0.00     0.066 H 
ENDBRANCH  64  65
ENDBRANCH  58  64
ENDBRANCH   1  54
TORSDOF 5
ENDMDL
MODEL 10
REMARK VINA RESULT:      -6.3      2.908      9.322
REMARK  5 active torsions:
REMARK  status: ('A' for Active; 'I' for Inactive)
REMARK    1  A    between atoms: C_1  and  O_2 
REMARK    2  A    between atoms: O_2  and  C_3 
REMARK    3  A    between atoms: C_6  and  C_9 
REMARK    4  A    between atoms: N_21  and  C_24 
REMARK    5  A    between atoms: C_24  and  C_25 
ROOT
ATOM      1  C   LIG d   1       7.660   0.954  -4.980  0.00  0.00     0.064 A 
ATOM      2  C   LIG d   1       7.994   1.747  -3.931  0.00  0.00     0.104 A 
ATOM      3  O   LIG d   1       8.725   2.852  -4.044  0.00  0.00    -0.462 OA
ATOM      4  C   LIG d   1       9.200   3.276  -5.229  0.00  0.00     0.150 A 
ATOM      5  C   LIG d   1       8.939   2.563  -6.410  0.00  0.00     0.065 A 
ATOM      6  C   LIG d   1       8.132   1.332  -6.324  0.00  0.00     0.200 A 
ATOM      7  O   LIG d   1       7.868   0.664  -7.310  0.00  0.00    -0.286 OA
ATOM      8  C   LIG d   1       9.437   3.013  -7.633  0.00  0.00    -0.044 A 
ATOM      9  C   LIG d   1      10.183   4.155  -7.682  0.00  0.00    -0.018 A 
ATOM     10  C   LIG d   1      10.449   4.875  -6.516  0.00  0.00     0.138 A 
ATOM     11  C   LIG d   1       9.961   4.440  -5.298  0.00  0.00     0.082 A 
ATOM     12  C   LIG d   1      10.238   5.211  -4.033  0.00  0.00     0.005 C 
ATOM     13  N   LIG d   1      11.360   6.134  -4.253  0.00  0.00     0.268 N 
ATOM     14  C   LIG d   1      11.147   6.905  -5.489  0.00  0.00     0.117 C 
ATOM     15  O   LIG d   1      11.196   6.008  -6.600  0.00  0.00    -0.454 OA
ATOM     16  H   LIG d   1       7.646   1.465  -2.948  0.00  0.00     0.104 H 
ATOM     17  H   LIG d   1       9.234   2.461  -8.538  0.00  0.00     0.063 H 
ATOM     18  H   LIG d   1      10.568   4.505  -8.628  0.00  0.00     0.065 H 
ATOM     19  H   LIG d   1       9.344   5.785  -3.749  0.00  0.00     0.087 H 
ATOM     20  H   LIG d   1      10.494   4.511  -3.224  0.00  0.00     0.087 H 
ATOM     21  H   LIG d   1      10.164   7.398  -5.447  0.00  0.00     0.130 H 
ATOM     22  H   LIG d   1      11.935   7.666  -5.586  0.00  0.00     0.130 H 
ATOM     23  H   LIG d   1      12.282   5.541  -4.363  0.00  0.00     0.207 HD
ENDROOT
BRANCH  13  24
ATOM     24  C   LIG d   1      11.544   7.026  -3.100  0.00  0.00    -0.020 C 
ATOM     25  H   LIG d   1      12.116   6.502  -2.320  0.00  0.00     0.082 H 
ATOM     26  H   LIG d   1      12.092   7.926  -3.415  0.00  0.00     0.082 H 
BRANCH  24  27
ATOM     27  C   LIG d   1      10.177   7.429  -2.546  0.00  0.00     0.042 C 
ATOM     28  H   LIG d   1       9.418   6.700  -2.866  0.00  0.00     0.041 H 
ATOM     29  C   LIG d   1      10.239   7.465  -1.011  0.00  0.00    -0.013 C 
ATOM     30  N   LIG d   1      11.210   8.473  -0.569  0.00  0.00     0.238 N 
ATOM     31  H   LIG d   1       9.275   7.767  -0.575  0.00  0.00     0.086 H 
ATOM     32  C   LIG d   1      10.665   6.076  -0.522  0.00  0.00    -0.009 C 
ATOM     33  C   LIG d   1      10.854   9.814  -1.058  0.00  0.00    -0.032 C 
ATOM     34  C   LIG d   1      11.325   8.504   0.897  0.00  0.00    -0.032 C 
ATOM     35  H   LIG d   1      12.179   8.180  -0.998  0.00  0.00     0.204 HD
ATOM     36  C   LIG d   1      10.836   9.829  -2.586  0.00  0.00    -0.012 C 
ATOM     37  H   LIG d   1      11.597  10.540  -0.693  0.00  0.00     0.081 H 
ATOM     38  H   LIG d   1       9.860  10.086  -0.676  0.00  0.00     0.081 H 
ATOM     39  C   LIG d   1       9.800   8.812  -3.077  0.00  0.00    -0.035 C 
ATOM     40  H   LIG d   1      11.828   9.558  -2.973  0.00  0.00     0.032 H 
ATOM     41  H   LIG d   1      10.563  10.833  -2.945  0.00  0.00     0.032 H 
ATOM     42  H   LIG d   1       9.791   8.792  -4.177  0.00  0.00     0.027 H 
ATOM     43  H   LIG d   1       8.802   9.089  -2.707  0.00  0.00     0.027 H 
ATOM     44  C   LIG d   1      11.799   7.147   1.417  0.00  0.00    -0.012 C 
ATOM     45  H   LIG d   1      12.051   9.277   1.191  0.00  0.00     0.081 H 
ATOM     46  H   LIG d   1      10.344   8.737   1.337  0.00  0.00     0.081 H 
ATOM     47  C   LIG d   1      10.783   6.077   1.004  0.00  0.00    -0.043 C 
ATOM     48  H   LIG d   1      11.877   7.175   2.514  0.00  0.00     0.032 H 
ATOM     49  H   LIG d   1      12.781   6.906   0.985  0.00  0.00     0.032 H 
ATOM     50  H   LIG d   1       9.802   6.302   1.447  0.00  0.00     0.027 H 
ATOM     51  H   LIG d   1      11.122   5.088   1.345  0.00  0.00     0.027 H 
ATOM     52  H   LIG d   1       9.913   5.334  -0.827  0.00  0.00     0.032 H 
ATOM     53  H   LIG d   1      11.639   5.815  -0.961  0.00  0.00     0.032 H 
ENDBRANCH  24  27
ENDBRANCH  13  24
BRANCH   1  54
ATOM     54  C   LIG d   1       6.840  -0.265  -4.778  0.00  0.00    -0.011 A 
ATOM     55  C   LIG d   1       5.461  -0.219  -4.972  0.00  0.00    -0.050 A 
ATOM     56  C   LIG d   1       4.701  -1.356  -4.784  0.00  0.00    -0.019 A 
ATOM     57  H   LIG d   1       4.987   0.704  -5.271  0.00  0.00     0.062 H 
ATOM     58  C   LIG d   1       5.309  -2.543  -4.400  0.00  0.00     0.120 A 
ATOM     59  H   LIG d   1       3.632  -1.321  -4.934  0.00  0.00     0.065 H 
ATOM     60  C   LIG d   1       6.683  -2.591  -4.205  0.00  0.00    -0.019 A 
ATOM     61  C   LIG d   1       7.448  -1.460  -4.397  0.00  0.00    -0.050 A 
ATOM     62  H   LIG d   1       7.153  -3.517  -3.908  0.00  0.00     0.065 H 
ATOM     63  H   LIG d   1       8.518  -1.500  -4.250  0.00  0.00     0.062 H 
BRANCH  58  64
ATOM     64  O   LIG d   1       4.558  -3.661  -4.214  0.00  0.00    -0.495 OA
BRANCH  64  65
ATOM     65  C   LIG d   1       4.685  -4.697  -5.190  0.00  0.00     0.079 C 
ATOM     66  H   LIG d   1       5.430  -5.431  -4.850  0.00  0.00     0.066 H 
ATOM     67  H   LIG d   1       5.008  -4.262  -6.146  0.00  0.00     0.066 H 
ATOM     68  H   LIG d   1       3.713  -5.195  -5.324  0.00  0.00     0.066 H 
ENDBRANCH  64  65
ENDBRANCH  58  64
ENDBRANCH   1  54
TORSDOF 5
ENDMDL
