MODEL 1
REMARK VINA RESULT:      -6.4      0.000      0.000
REMARK  11 active torsions:
REMARK  status: ('A' for Active; 'I' for Inactive)
REMARK    1  A    between atoms: C_1  and  C_2 
REMARK    2  A    between atoms: C_5  and  C_8 
REMARK    3  A    between atoms: C_8  and  C_18 
REMARK    4  A    between atoms: C_12  and  C_15 
REMARK    5  A    between atoms: C_15  and  C_16 
REMARK    6  A    between atoms: C_15  and  C_17 
REMARK    7  A    between atoms: C_18  and  C_19 
REMARK    8  A    between atoms: C_19  and  N_20 
REMARK    9  A    between atoms: N_20  and  C_21 
REMARK       I    between atoms: N_20  and  C_28 
REMARK   10  A    between atoms: C_21  and  C_22 
REMARK   11  A    between atoms: C_28  and  C_30 
ROOT
ATOM      1  C   LIG d   1       5.610  -1.627  -5.950  0.00  0.00     0.002 C 
ATOM      2  C   LIG d   1       5.776  -3.114  -5.620  0.00  0.00    -0.020 C 
ATOM      3  C   LIG d   1       4.484  -3.636  -4.988  0.00  0.00     0.049 C 
ATOM      4  O   LIG d   1       4.181  -2.869  -3.821  0.00  0.00    -0.376 OA
ATOM      5  C   LIG d   1       3.969  -1.479  -4.076  0.00  0.00     0.062 C 
ATOM      6  H   LIG d   1       3.146  -1.360  -4.779  0.00  0.00     0.060 H 
ATOM      7  C   LIG d   1       5.242  -0.870  -4.671  0.00  0.00    -0.017 C 
ATOM      8  H   LIG d   1       5.984  -3.670  -6.535  0.00  0.00     0.030 H 
ATOM      9  H   LIG d   1       6.602  -3.242  -4.921  0.00  0.00     0.030 H 
ATOM     10  H   LIG d   1       3.666  -3.546  -5.704  0.00  0.00     0.056 H 
ATOM     11  H   LIG d   1       4.611  -4.682  -4.713  0.00  0.00     0.056 H 
ATOM     12  H   LIG d   1       6.056  -0.953  -3.951  0.00  0.00     0.030 H 
ATOM     13  H   LIG d   1       5.067   0.180  -4.907  0.00  0.00     0.030 H 
ENDROOT
BRANCH   1  14
ATOM     14  C   LIG d   1       4.514  -1.457  -6.970  0.00  0.00    -0.041 A 
ATOM     15  C   LIG d   1       4.412  -2.339  -8.030  0.00  0.00    -0.058 A 
ATOM     16  C   LIG d   1       3.404  -2.186  -8.963  0.00  0.00    -0.059 A 
ATOM     17  H   LIG d   1       5.117  -3.152  -8.126  0.00  0.00     0.062 H 
ATOM     18  C   LIG d   1       2.504  -1.143  -8.842  0.00  0.00    -0.050 A 
ATOM     19  H   LIG d   1       3.321  -2.878  -9.787  0.00  0.00     0.062 H 
ATOM     20  C   LIG d   1       2.607  -0.261  -7.784  0.00  0.00    -0.059 A 
ATOM     21  C   LIG d   1       3.612  -0.417  -6.848  0.00  0.00    -0.058 A 
ATOM     22  H   LIG d   1       1.901   0.552  -7.688  0.00  0.00     0.062 H 
ATOM     23  H   LIG d   1       3.692   0.272  -6.020  0.00  0.00     0.062 H 
BRANCH  18  24
ATOM     24  C   LIG d   1       1.408  -0.972  -9.863  0.00  0.00    -0.040 C 
ATOM     25  H   LIG d   1       0.835  -0.074  -9.634  0.00  0.00     0.028 H 
ATOM     26  H   LIG d   1       0.749  -1.841  -9.837  0.00  0.00     0.028 H 
ATOM     27  H   LIG d   1       1.847  -0.880 -10.856  0.00  0.00     0.028 H 
ENDBRANCH  18  24
ENDBRANCH   1  14
BRANCH   1  28
ATOM     28  C   LIG d   1       6.923  -1.079  -6.513  0.00  0.00    -0.027 C 
ATOM     29  H   LIG d   1       7.759  -1.476  -5.939  0.00  0.00     0.029 H 
ATOM     30  H   LIG d   1       7.024  -1.377  -7.557  0.00  0.00     0.029 H 
BRANCH  28  31
ATOM     31  C   LIG d   1       6.920   0.449  -6.418  0.00  0.00     0.016 C 
ATOM     32  H   LIG d   1       5.892   0.811  -6.427  0.00  0.00     0.046 H 
ATOM     33  H   LIG d   1       7.405   0.755  -5.491  0.00  0.00     0.046 H 
BRANCH  31  34
ATOM     34  N   LIG d   1       7.647   1.010  -7.559  0.00  0.00    -0.297 N 
ATOM     35  C   LIG d   1       8.506   2.032  -7.375  0.00  0.00     0.213 C 
ATOM     36  O   LIG d   1       9.036   2.559  -8.330  0.00  0.00    -0.276 OA
BRANCH  34  37
ATOM     37  C   LIG d   1       7.440   0.460  -8.902  0.00  0.00     0.040 C 
ATOM     38  H   LIG d   1       8.258   0.770  -9.551  0.00  0.00     0.051 H 
ATOM     39  H   LIG d   1       7.411  -0.628  -8.848  0.00  0.00     0.051 H 
BRANCH  37  40
ATOM     40  C   LIG d   1       6.135   0.970  -9.458  0.00  0.00    -0.030 A 
ATOM     41  C   LIG d   1       5.551   0.339 -10.540  0.00  0.00    -0.057 A 
ATOM     42  C   LIG d   1       4.355   0.808 -11.051  0.00  0.00    -0.061 A 
ATOM     43  H   LIG d   1       6.029  -0.519 -10.987  0.00  0.00     0.062 H 
ATOM     44  C   LIG d   1       3.742   1.908 -10.478  0.00  0.00    -0.062 A 
ATOM     45  H   LIG d   1       3.898   0.315 -11.896  0.00  0.00     0.062 H 
ATOM     46  C   LIG d   1       4.326   2.538  -9.396  0.00  0.00    -0.061 A 
ATOM     47  H   LIG d   1       2.808   2.274 -10.877  0.00  0.00     0.062 H 
ATOM     48  C   LIG d   1       5.520   2.067  -8.883  0.00  0.00    -0.057 A 
ATOM     49  H   LIG d   1       3.848   3.398  -8.949  0.00  0.00     0.062 H 
ATOM     50  H   LIG d   1       5.975   2.558  -8.034  0.00  0.00     0.062 H 
ENDBRANCH  37  40
ENDBRANCH  34  37
BRANCH  35  51
ATOM     51  C   LIG d   1       8.808   2.519  -5.982  0.00  0.00     0.012 C 
ATOM     52  H   LIG d   1       7.876   2.754  -5.468  0.00  0.00     0.032 H 
ATOM     53  H   LIG d   1       9.340   1.742  -5.433  0.00  0.00     0.032 H 
ATOM     54  H   LIG d   1       9.428   3.415  -6.037  0.00  0.00     0.032 H 
ENDBRANCH  35  51
ENDBRANCH  31  34
ENDBRANCH  28  31
ENDBRANCH   1  28
BRANCH   5  55
ATOM     55  C   LIG d   1       3.628  -0.767  -2.765  0.00  0.00    -0.020 C 
ATOM     56  H   LIG d   1       2.606  -1.010  -2.476  0.00  0.00     0.032 H 
BRANCH  55  57
ATOM     57  C   LIG d   1       4.592  -1.226  -1.670  0.00  0.00    -0.060 C 
ATOM     58  H   LIG d   1       5.601  -1.291  -2.076  0.00  0.00     0.023 H 
ATOM     59  H   LIG d   1       4.576  -0.510  -0.848  0.00  0.00     0.023 H 
ATOM     60  H   LIG d   1       4.285  -2.206  -1.303  0.00  0.00     0.023 H 
ENDBRANCH  55  57
BRANCH  55  61
ATOM     61  C   LIG d   1       3.757   0.746  -2.957  0.00  0.00    -0.060 C 
ATOM     62  H   LIG d   1       3.218   1.045  -3.856  0.00  0.00     0.023 H 
ATOM     63  H   LIG d   1       3.336   1.259  -2.092  0.00  0.00     0.023 H 
ATOM     64  H   LIG d   1       4.810   1.011  -3.060  0.00  0.00     0.023 H 
ENDBRANCH  55  61
ENDBRANCH   5  55
TORSDOF 11
ENDMDL
MODEL 2
REMARK VINA RESULT:      -5.6      2.577      4.927
REMARK  11 active torsions:
REMARK  status: ('A' for Active; 'I' for Inactive)
REMARK    1  A    between atoms: C_1  and  C_2 
REMARK    2  A    between atoms: C_5  and  C_8 
REMARK    3  A    between atoms: C_8  and  C_18 
REMARK    4  A    between atoms: C_12  and  C_15 
REMARK    5  A    between atoms: C_15  and  C_16 
REMARK    6  A    between atoms: C_15  and  C_17 
REMARK    7  A    between atoms: C_18  and  C_19 
REMARK    8  A    between atoms: C_19  and  N_20 
REMARK    9  A    between atoms: N_20  and  C_21 
REMARK       I    between atoms: N_20  and  C_28 
REMARK   10  A    between atoms: C_21  and  C_22 
REMARK   11  A    between atoms: C_28  and  C_30 
ROOT
ATOM      1  C   LIG d   1       6.556  -0.323  -5.332  0.00  0.00     0.002 C 
ATOM      2  C   LIG d   1       7.208   1.064  -5.336  0.00  0.00    -0.020 C 
ATOM      3  C   LIG d   1       7.664   1.409  -3.916  0.00  0.00     0.049 C 
ATOM      4  O   LIG d   1       6.543   1.357  -3.031  0.00  0.00    -0.376 OA
ATOM      5  C   LIG d   1       5.922   0.072  -2.950  0.00  0.00     0.062 C 
ATOM      6  H   LIG d   1       6.652  -0.663  -2.613  0.00  0.00     0.060 H 
ATOM      7  C   LIG d   1       5.396  -0.327  -4.331  0.00  0.00    -0.017 C 
ATOM      8  H   LIG d   1       8.069   1.060  -6.004  0.00  0.00     0.030 H 
ATOM      9  H   LIG d   1       6.485   1.804  -5.677  0.00  0.00     0.030 H 
ATOM     10  H   LIG d   1       8.417   0.691  -3.591  0.00  0.00     0.056 H 
ATOM     11  H   LIG d   1       8.090   2.412  -3.905  0.00  0.00     0.056 H 
ATOM     12  H   LIG d   1       4.637   0.387  -4.652  0.00  0.00     0.030 H 
ATOM     13  H   LIG d   1       4.962  -1.326  -4.281  0.00  0.00     0.030 H 
ENDROOT
BRANCH   1  14
ATOM     14  C   LIG d   1       7.575  -1.357  -4.926  0.00  0.00    -0.041 A 
ATOM     15  C   LIG d   1       7.263  -2.292  -3.957  0.00  0.00    -0.058 A 
ATOM     16  C   LIG d   1       8.195  -3.243  -3.587  0.00  0.00    -0.059 A 
ATOM     17  H   LIG d   1       6.288  -2.282  -3.491  0.00  0.00     0.062 H 
ATOM     18  C   LIG d   1       9.444  -3.252  -4.180  0.00  0.00    -0.050 A 
ATOM     19  H   LIG d   1       7.950  -3.977  -2.834  0.00  0.00     0.062 H 
ATOM     20  C   LIG d   1       9.756  -2.317  -5.148  0.00  0.00    -0.059 A 
ATOM     21  C   LIG d   1       8.822  -1.369  -5.521  0.00  0.00    -0.058 A 
ATOM     22  H   LIG d   1      10.732  -2.327  -5.614  0.00  0.00     0.062 H 
ATOM     23  H   LIG d   1       9.066  -0.638  -6.278  0.00  0.00     0.062 H 
BRANCH  18  24
ATOM     24  C   LIG d   1      10.463  -4.286  -3.774  0.00  0.00    -0.040 C 
ATOM     25  H   LIG d   1      11.414  -3.796  -3.566  0.00  0.00     0.028 H 
ATOM     26  H   LIG d   1      10.593  -5.006  -4.583  0.00  0.00     0.028 H 
ATOM     27  H   LIG d   1      10.118  -4.804  -2.879  0.00  0.00     0.028 H 
ENDBRANCH  18  24
ENDBRANCH   1  14
BRANCH   1  28
ATOM     28  C   LIG d   1       6.029  -0.645  -6.731  0.00  0.00    -0.027 C 
ATOM     29  H   LIG d   1       5.687   0.272  -7.211  0.00  0.00     0.029 H 
ATOM     30  H   LIG d   1       6.828  -1.090  -7.327  0.00  0.00     0.029 H 
BRANCH  28  31
ATOM     31  C   LIG d   1       4.864  -1.630  -6.624  0.00  0.00     0.016 C 
ATOM     32  H   LIG d   1       5.159  -2.476  -6.004  0.00  0.00     0.046 H 
ATOM     33  H   LIG d   1       4.007  -1.130  -6.172  0.00  0.00     0.046 H 
BRANCH  31  34
ATOM     34  N   LIG d   1       4.502  -2.106  -7.962  0.00  0.00    -0.297 N 
ATOM     35  C   LIG d   1       5.324  -2.945  -8.623  0.00  0.00     0.213 C 
ATOM     36  O   LIG d   1       5.073  -3.263  -9.766  0.00  0.00    -0.276 OA
BRANCH  34  37
ATOM     37  C   LIG d   1       3.248  -1.668  -8.581  0.00  0.00     0.040 C 
ATOM     38  H   LIG d   1       3.044  -2.281  -9.459  0.00  0.00     0.051 H 
ATOM     39  H   LIG d   1       2.433  -1.776  -7.865  0.00  0.00     0.051 H 
BRANCH  37  40
ATOM     40  C   LIG d   1       3.368  -0.224  -8.992  0.00  0.00    -0.030 A 
ATOM     41  C   LIG d   1       3.997   0.107 -10.178  0.00  0.00    -0.057 A 
ATOM     42  C   LIG d   1       4.108   1.432 -10.556  0.00  0.00    -0.061 A 
ATOM     43  H   LIG d   1       4.403  -0.670 -10.809  0.00  0.00     0.062 H 
ATOM     44  C   LIG d   1       3.588   2.427  -9.748  0.00  0.00    -0.062 A 
ATOM     45  H   LIG d   1       4.600   1.691 -11.481  0.00  0.00     0.062 H 
ATOM     46  C   LIG d   1       2.958   2.096  -8.563  0.00  0.00    -0.061 A 
ATOM     47  H   LIG d   1       3.675   3.462 -10.043  0.00  0.00     0.062 H 
ATOM     48  C   LIG d   1       2.845   0.771  -8.187  0.00  0.00    -0.057 A 
ATOM     49  H   LIG d   1       2.553   2.873  -7.931  0.00  0.00     0.062 H 
ATOM     50  H   LIG d   1       2.349   0.512  -7.262  0.00  0.00     0.062 H 
ENDBRANCH  37  40
ENDBRANCH  34  37
BRANCH  35  51
ATOM     51  C   LIG d   1       6.554  -3.487  -7.943  0.00  0.00     0.012 C 
ATOM     52  H   LIG d   1       7.148  -2.661  -7.554  0.00  0.00     0.032 H 
ATOM     53  H   LIG d   1       6.256  -4.140  -7.122  0.00  0.00     0.032 H 
ATOM     54  H   LIG d   1       7.146  -4.054  -8.662  0.00  0.00     0.032 H 
ENDBRANCH  35  51
ENDBRANCH  31  34
ENDBRANCH  28  31
ENDBRANCH   1  28
BRANCH   5  55
ATOM     55  C   LIG d   1       4.759   0.129  -1.958  0.00  0.00    -0.020 C 
ATOM     56  H   LIG d   1       5.144   0.335  -0.959  0.00  0.00     0.032 H 
BRANCH  55  57
ATOM     57  C   LIG d   1       3.791   1.240  -2.370  0.00  0.00    -0.060 C 
ATOM     58  H   LIG d   1       4.352   2.068  -2.806  0.00  0.00     0.023 H 
ATOM     59  H   LIG d   1       3.086   0.853  -3.105  0.00  0.00     0.023 H 
ATOM     60  H   LIG d   1       3.247   1.591  -1.494  0.00  0.00     0.023 H 
ENDBRANCH  55  57
BRANCH  55  61
ATOM     61  C   LIG d   1       4.024  -1.212  -1.955  0.00  0.00    -0.060 C 
ATOM     62  H   LIG d   1       4.407  -1.839  -2.761  0.00  0.00     0.023 H 
ATOM     63  H   LIG d   1       4.183  -1.712  -0.999  0.00  0.00     0.023 H 
ATOM     64  H   LIG d   1       2.957  -1.043  -2.104  0.00  0.00     0.023 H 
ENDBRANCH  55  61
ENDBRANCH   5  55
TORSDOF 11
ENDMDL
MODEL 3
REMARK VINA RESULT:      -5.5      2.675      5.980
REMARK  11 active torsions:
REMARK  status: ('A' for Active; 'I' for Inactive)
REMARK    1  A    between atoms: C_1  and  C_2 
REMARK    2  A    between atoms: C_5  and  C_8 
REMARK    3  A    between atoms: C_8  and  C_18 
REMARK    4  A    between atoms: C_12  and  C_15 
REMARK    5  A    between atoms: C_15  and  C_16 
REMARK    6  A    between atoms: C_15  and  C_17 
REMARK    7  A    between atoms: C_18  and  C_19 
REMARK    8  A    between atoms: C_19  and  N_20 
REMARK    9  A    between atoms: N_20  and  C_21 
REMARK       I    between atoms: N_20  and  C_28 
REMARK   10  A    between atoms: C_21  and  C_22 
REMARK   11  A    between atoms: C_28  and  C_30 
ROOT
ATOM      1  C   LIG d   1       6.660  -0.268  -5.367  0.00  0.00     0.002 C 
ATOM      2  C   LIG d   1       7.391   1.078  -5.364  0.00  0.00    -0.020 C 
ATOM      3  C   LIG d   1       7.841   1.404  -3.937  0.00  0.00     0.049 C 
ATOM      4  O   LIG d   1       6.703   1.421  -3.073  0.00  0.00    -0.376 OA
ATOM      5  C   LIG d   1       6.007   0.175  -2.999  0.00  0.00     0.062 C 
ATOM      6  H   LIG d   1       6.686  -0.600  -2.645  0.00  0.00     0.060 H 
ATOM      7  C   LIG d   1       5.484  -0.199  -4.388  0.00  0.00    -0.017 C 
ATOM      8  H   LIG d   1       8.264   1.021  -6.016  0.00  0.00     0.030 H 
ATOM      9  H   LIG d   1       6.720   1.858  -5.722  0.00  0.00     0.030 H 
ATOM     10  H   LIG d   1       8.545   0.644  -3.595  0.00  0.00     0.056 H 
ATOM     11  H   LIG d   1       8.324   2.379  -3.922  0.00  0.00     0.056 H 
ATOM     12  H   LIG d   1       4.773   0.556  -4.725  0.00  0.00     0.030 H 
ATOM     13  H   LIG d   1       4.991  -1.171  -4.342  0.00  0.00     0.030 H 
ENDROOT
BRANCH   1  14
ATOM     14  C   LIG d   1       7.609  -1.358  -4.938  0.00  0.00    -0.041 A 
ATOM     15  C   LIG d   1       8.848  -1.472  -5.540  0.00  0.00    -0.058 A 
ATOM     16  C   LIG d   1       9.720  -2.468  -5.144  0.00  0.00    -0.059 A 
ATOM     17  H   LIG d   1       9.137  -0.778  -6.317  0.00  0.00     0.062 H 
ATOM     18  C   LIG d   1       9.348  -3.358  -4.154  0.00  0.00    -0.050 A 
ATOM     19  H   LIG d   1      10.690  -2.554  -5.611  0.00  0.00     0.062 H 
ATOM     20  C   LIG d   1       8.109  -3.244  -3.553  0.00  0.00    -0.059 A 
ATOM     21  C   LIG d   1       7.239  -2.244  -3.945  0.00  0.00    -0.058 A 
ATOM     22  H   LIG d   1       7.820  -3.938  -2.775  0.00  0.00     0.062 H 
ATOM     23  H   LIG d   1       6.271  -2.156  -3.475  0.00  0.00     0.062 H 
BRANCH  18  24
ATOM     24  C   LIG d   1      10.297  -4.448  -3.726  0.00  0.00    -0.040 C 
ATOM     25  H   LIG d   1       9.737  -5.248  -3.242  0.00  0.00     0.028 H 
ATOM     26  H   LIG d   1      11.028  -4.040  -3.026  0.00  0.00     0.028 H 
ATOM     27  H   LIG d   1      10.813  -4.844  -4.599  0.00  0.00     0.028 H 
ENDBRANCH  18  24
ENDBRANCH   1  14
BRANCH   1  28
ATOM     28  C   LIG d   1       6.141  -0.565  -6.774  0.00  0.00    -0.027 C 
ATOM     29  H   LIG d   1       6.139   0.352  -7.362  0.00  0.00     0.029 H 
ATOM     30  H   LIG d   1       6.789  -1.302  -7.252  0.00  0.00     0.029 H 
BRANCH  28  31
ATOM     31  C   LIG d   1       4.717  -1.118  -6.688  0.00  0.00     0.016 C 
ATOM     32  H   LIG d   1       4.652  -1.825  -5.860  0.00  0.00     0.046 H 
ATOM     33  H   LIG d   1       4.019  -0.298  -6.521  0.00  0.00     0.046 H 
BRANCH  31  34
ATOM     34  N   LIG d   1       4.381  -1.799  -7.940  0.00  0.00    -0.297 N 
ATOM     35  C   LIG d   1       3.268  -1.455  -8.617  0.00  0.00     0.213 C 
ATOM     36  O   LIG d   1       2.938  -2.082  -9.601  0.00  0.00    -0.276 OA
BRANCH  34  37
ATOM     37  C   LIG d   1       5.256  -2.856  -8.457  0.00  0.00     0.040 C 
ATOM     38  H   LIG d   1       4.838  -3.253  -9.382  0.00  0.00     0.051 H 
ATOM     39  H   LIG d   1       6.245  -2.445  -8.653  0.00  0.00     0.051 H 
BRANCH  37  40
ATOM     40  C   LIG d   1       5.363  -3.962  -7.439  0.00  0.00    -0.030 A 
ATOM     41  C   LIG d   1       4.222  -4.590  -6.977  0.00  0.00    -0.057 A 
ATOM     42  C   LIG d   1       4.320  -5.604  -6.042  0.00  0.00    -0.061 A 
ATOM     43  H   LIG d   1       3.253  -4.288  -7.345  0.00  0.00     0.062 H 
ATOM     44  C   LIG d   1       5.561  -5.991  -5.570  0.00  0.00    -0.062 A 
ATOM     45  H   LIG d   1       3.429  -6.094  -5.681  0.00  0.00     0.062 H 
ATOM     46  C   LIG d   1       6.702  -5.363  -6.033  0.00  0.00    -0.061 A 
ATOM     47  H   LIG d   1       5.638  -6.783  -4.841  0.00  0.00     0.062 H 
ATOM     48  C   LIG d   1       6.604  -4.352  -6.970  0.00  0.00    -0.057 A 
ATOM     49  H   LIG d   1       7.672  -5.665  -5.664  0.00  0.00     0.062 H 
ATOM     50  H   LIG d   1       7.497  -3.864  -7.335  0.00  0.00     0.062 H 
ENDBRANCH  37  40
ENDBRANCH  34  37
BRANCH  35  51
ATOM     51  C   LIG d   1       2.432  -0.292  -8.150  0.00  0.00     0.012 C 
ATOM     52  H   LIG d   1       1.408  -0.626  -7.977  0.00  0.00     0.032 H 
ATOM     53  H   LIG d   1       2.847   0.104  -7.223  0.00  0.00     0.032 H 
ATOM     54  H   LIG d   1       2.436   0.487  -8.913  0.00  0.00     0.032 H 
ENDBRANCH  35  51
ENDBRANCH  31  34
ENDBRANCH  28  31
ENDBRANCH   1  28
BRANCH   5  55
ATOM     55  C   LIG d   1       4.831   0.305  -2.029  0.00  0.00    -0.020 C 
ATOM     56  H   LIG d   1       5.203   0.590  -1.044  0.00  0.00     0.032 H 
BRANCH  55  57
ATOM     57  C   LIG d   1       3.865   1.376  -2.539  0.00  0.00    -0.060 C 
ATOM     58  H   LIG d   1       4.428   2.169  -3.031  0.00  0.00     0.023 H 
ATOM     59  H   LIG d   1       3.170   0.929  -3.250  0.00  0.00     0.023 H 
ATOM     60  H   LIG d   1       3.309   1.792  -1.699  0.00  0.00     0.023 H 
ENDBRANCH  55  57
BRANCH  55  61
ATOM     61  C   LIG d   1       4.100  -1.036  -1.929  0.00  0.00    -0.060 C 
ATOM     62  H   LIG d   1       4.825  -1.833  -1.765  0.00  0.00     0.023 H 
ATOM     63  H   LIG d   1       3.397  -1.006  -1.097  0.00  0.00     0.023 H 
ATOM     64  H   LIG d   1       3.558  -1.224  -2.857  0.00  0.00     0.023 H 
ENDBRANCH  55  61
ENDBRANCH   5  55
TORSDOF 11
ENDMDL
MODEL 4
REMARK VINA RESULT:      -5.4      1.905      5.775
REMARK  11 active torsions:
REMARK  status: ('A' for Active; 'I' for Inactive)
REMARK    1  A    between atoms: C_1  and  C_2 
REMARK    2  A    between atoms: C_5  and  C_8 
REMARK    3  A    between atoms: C_8  and  C_18 
REMARK    4  A    between atoms: C_12  and  C_15 
REMARK    5  A    between atoms: C_15  and  C_16 
REMARK    6  A    between atoms: C_15  and  C_17 
REMARK    7  A    between atoms: C_18  and  C_19 
REMARK    8  A    between atoms: C_19  and  N_20 
REMARK    9  A    between atoms: N_20  and  C_21 
REMARK       I    between atoms: N_20  and  C_28 
REMARK   10  A    between atoms: C_21  and  C_22 
REMARK   11  A    between atoms: C_28  and  C_30 
ROOT
ATOM      1  C   LIG d   1       3.323   0.386  -7.641  0.00  0.00     0.002 C 
ATOM      2  C   LIG d   1       2.793   1.774  -8.017  0.00  0.00    -0.020 C 
ATOM      3  C   LIG d   1       3.335   2.163  -9.394  0.00  0.00     0.049 C 
ATOM      4  O   LIG d   1       4.763   2.134  -9.369  0.00  0.00    -0.376 OA
ATOM      5  C   LIG d   1       5.316   0.851  -9.069  0.00  0.00     0.062 C 
ATOM      6  H   LIG d   1       4.978   0.128  -9.810  0.00  0.00     0.060 H 
ATOM      7  C   LIG d   1       4.854   0.409  -7.678  0.00  0.00    -0.017 C 
ATOM      8  H   LIG d   1       1.703   1.751  -8.047  0.00  0.00     0.030 H 
ATOM      9  H   LIG d   1       3.122   2.502  -7.276  0.00  0.00     0.030 H 
ATOM     10  H   LIG d   1       2.971   1.456 -10.141  0.00  0.00     0.056 H 
ATOM     11  H   LIG d   1       2.995   3.166  -9.648  0.00  0.00     0.056 H 
ATOM     12  H   LIG d   1       5.226   1.111  -6.931  0.00  0.00     0.030 H 
ATOM     13  H   LIG d   1       5.238  -0.589  -7.466  0.00  0.00     0.030 H 
ENDROOT
BRANCH   1  14
ATOM     14  C   LIG d   1       2.810  -0.633  -8.626  0.00  0.00    -0.041 A 
ATOM     15  C   LIG d   1       1.761  -0.315  -9.467  0.00  0.00    -0.058 A 
ATOM     16  C   LIG d   1       1.293  -1.247 -10.374  0.00  0.00    -0.059 A 
ATOM     17  H   LIG d   1       1.308   0.666  -9.419  0.00  0.00     0.062 H 
ATOM     18  C   LIG d   1       1.869  -2.503 -10.432  0.00  0.00    -0.050 A 
ATOM     19  H   LIG d   1       0.477  -0.997 -11.034  0.00  0.00     0.062 H 
ATOM     20  C   LIG d   1       2.918  -2.821  -9.590  0.00  0.00    -0.059 A 
ATOM     21  C   LIG d   1       3.389  -1.886  -8.687  0.00  0.00    -0.058 A 
ATOM     22  H   LIG d   1       3.371  -3.801  -9.639  0.00  0.00     0.062 H 
ATOM     23  H   LIG d   1       4.208  -2.135  -8.029  0.00  0.00     0.062 H 
BRANCH  18  24
ATOM     24  C   LIG d   1       1.356  -3.522 -11.417  0.00  0.00    -0.040 C 
ATOM     25  H   LIG d   1       1.338  -3.085 -12.415  0.00  0.00     0.028 H 
ATOM     26  H   LIG d   1       0.347  -3.824 -11.134  0.00  0.00     0.028 H 
ATOM     27  H   LIG d   1       2.011  -4.392 -11.413  0.00  0.00     0.028 H 
ENDBRANCH  18  24
ENDBRANCH   1  14
BRANCH   1  28
ATOM     28  C   LIG d   1       2.848   0.021  -6.233  0.00  0.00    -0.027 C 
ATOM     29  H   LIG d   1       2.170   0.791  -5.867  0.00  0.00     0.029 H 
ATOM     30  H   LIG d   1       2.327  -0.937  -6.262  0.00  0.00     0.029 H 
BRANCH  28  31
ATOM     31  C   LIG d   1       4.054  -0.083  -5.298  0.00  0.00     0.016 C 
ATOM     32  H   LIG d   1       4.972  -0.060  -5.885  0.00  0.00     0.046 H 
ATOM     33  H   LIG d   1       4.047   0.756  -4.602  0.00  0.00     0.046 H 
BRANCH  31  34
ATOM     34  N   LIG d   1       3.984  -1.340  -4.549  0.00  0.00    -0.297 N 
ATOM     35  C   LIG d   1       3.512  -1.347  -3.287  0.00  0.00     0.213 C 
ATOM     36  O   LIG d   1       3.543  -2.368  -2.633  0.00  0.00    -0.276 OA
BRANCH  34  37
ATOM     37  C   LIG d   1       4.429  -2.590  -5.172  0.00  0.00     0.040 C 
ATOM     38  H   LIG d   1       4.185  -3.427  -4.519  0.00  0.00     0.051 H 
ATOM     39  H   LIG d   1       3.925  -2.717  -6.130  0.00  0.00     0.051 H 
BRANCH  37  40
ATOM     40  C   LIG d   1       5.919  -2.540  -5.390  0.00  0.00    -0.030 A 
ATOM     41  C   LIG d   1       6.435  -2.658  -6.667  0.00  0.00    -0.057 A 
ATOM     42  C   LIG d   1       7.802  -2.614  -6.868  0.00  0.00    -0.061 A 
ATOM     43  H   LIG d   1       5.770  -2.786  -7.509  0.00  0.00     0.062 H 
ATOM     44  C   LIG d   1       8.654  -2.450  -5.790  0.00  0.00    -0.062 A 
ATOM     45  H   LIG d   1       8.205  -2.706  -7.865  0.00  0.00     0.062 H 
ATOM     46  C   LIG d   1       8.137  -2.331  -4.514  0.00  0.00    -0.061 A 
ATOM     47  H   LIG d   1       9.721  -2.415  -5.947  0.00  0.00     0.062 H 
ATOM     48  C   LIG d   1       6.770  -2.372  -4.314  0.00  0.00    -0.057 A 
ATOM     49  H   LIG d   1       8.803  -2.204  -3.672  0.00  0.00     0.062 H 
ATOM     50  H   LIG d   1       6.367  -2.275  -3.316  0.00  0.00     0.062 H 
ENDBRANCH  37  40
ENDBRANCH  34  37
BRANCH  35  51
ATOM     51  C   LIG d   1       2.947  -0.086  -2.687  0.00  0.00     0.012 C 
ATOM     52  H   LIG d   1       3.697   0.383  -2.050  0.00  0.00     0.032 H 
ATOM     53  H   LIG d   1       2.666   0.602  -3.485  0.00  0.00     0.032 H 
ATOM     54  H   LIG d   1       2.066  -0.330  -2.091  0.00  0.00     0.032 H 
ENDBRANCH  35  51
ENDBRANCH  31  34
ENDBRANCH  28  31
ENDBRANCH   1  28
BRANCH   5  55
ATOM     55  C   LIG d   1       6.843   0.935  -9.096  0.00  0.00    -0.020 C 
ATOM     56  H   LIG d   1       7.148   1.827  -9.642  0.00  0.00     0.032 H 
BRANCH  55  57
ATOM     57  C   LIG d   1       7.376   1.007  -7.664  0.00  0.00    -0.060 C 
ATOM     58  H   LIG d   1       6.927   1.858  -7.151  0.00  0.00     0.023 H 
ATOM     59  H   LIG d   1       7.121   0.088  -7.135  0.00  0.00     0.023 H 
ATOM     60  H   LIG d   1       8.459   1.125  -7.685  0.00  0.00     0.023 H 
ENDBRANCH  55  57
BRANCH  55  61
ATOM     61  C   LIG d   1       7.411  -0.305  -9.789  0.00  0.00    -0.060 C 
ATOM     62  H   LIG d   1       8.255  -0.016 -10.416  0.00  0.00     0.023 H 
ATOM     63  H   LIG d   1       7.745  -1.022  -9.039  0.00  0.00     0.023 H 
ATOM     64  H   LIG d   1       6.638  -0.761 -10.409  0.00  0.00     0.023 H 
ENDBRANCH  55  61
ENDBRANCH   5  55
TORSDOF 11
ENDMDL
MODEL 5
REMARK VINA RESULT:      -5.3      1.899      6.056
REMARK  11 active torsions:
REMARK  status: ('A' for Active; 'I' for Inactive)
REMARK    1  A    between atoms: C_1  and  C_2 
REMARK    2  A    between atoms: C_5  and  C_8 
REMARK    3  A    between atoms: C_8  and  C_18 
REMARK    4  A    between atoms: C_12  and  C_15 
REMARK    5  A    between atoms: C_15  and  C_16 
REMARK    6  A    between atoms: C_15  and  C_17 
REMARK    7  A    between atoms: C_18  and  C_19 
REMARK    8  A    between atoms: C_19  and  N_20 
REMARK    9  A    between atoms: N_20  and  C_21 
REMARK       I    between atoms: N_20  and  C_28 
REMARK   10  A    between atoms: C_21  and  C_22 
REMARK   11  A    between atoms: C_28  and  C_30 
ROOT
ATOM      1  C   LIG d   1       3.887  -0.117  -7.959  0.00  0.00     0.002 C 
ATOM      2  C   LIG d   1       3.150   1.170  -7.575  0.00  0.00    -0.020 C 
ATOM      3  C   LIG d   1       3.378   2.223  -8.662  0.00  0.00     0.049 C 
ATOM      4  O   LIG d   1       4.780   2.447  -8.821  0.00  0.00    -0.376 OA
ATOM      5  C   LIG d   1       5.514   1.289  -9.226  0.00  0.00     0.062 C 
ATOM      6  H   LIG d   1       5.121   0.924 -10.174  0.00  0.00     0.060 H 
ATOM      7  C   LIG d   1       5.372   0.198  -8.161  0.00  0.00    -0.017 C 
ATOM      8  H   LIG d   1       2.083   0.965  -7.483  0.00  0.00     0.030 H 
ATOM      9  H   LIG d   1       3.533   1.538  -6.623  0.00  0.00     0.030 H 
ATOM     10  H   LIG d   1       2.957   1.870  -9.604  0.00  0.00     0.056 H 
ATOM     11  H   LIG d   1       2.891   3.154  -8.373  0.00  0.00     0.056 H 
ATOM     12  H   LIG d   1       5.801   0.549  -7.221  0.00  0.00     0.030 H 
ATOM     13  H   LIG d   1       5.894  -0.701  -8.488  0.00  0.00     0.030 H 
ENDROOT
BRANCH   1  14
ATOM     14  C   LIG d   1       3.310  -0.665  -9.239  0.00  0.00    -0.041 A 
ATOM     15  C   LIG d   1       4.120  -1.348 -10.127  0.00  0.00    -0.058 A 
ATOM     16  C   LIG d   1       3.591  -1.854 -11.299  0.00  0.00    -0.059 A 
ATOM     17  H   LIG d   1       5.168  -1.489  -9.902  0.00  0.00     0.062 H 
ATOM     18  C   LIG d   1       2.252  -1.668 -11.588  0.00  0.00    -0.050 A 
ATOM     19  H   LIG d   1       4.223  -2.391 -11.989  0.00  0.00     0.062 H 
ATOM     20  C   LIG d   1       1.442  -0.985 -10.701  0.00  0.00    -0.059 A 
ATOM     21  C   LIG d   1       1.970  -0.483  -9.527  0.00  0.00    -0.058 A 
ATOM     22  H   LIG d   1       0.394  -0.843 -10.926  0.00  0.00     0.062 H 
ATOM     23  H   LIG d   1       1.337   0.051  -8.833  0.00  0.00     0.062 H 
BRANCH  18  24
ATOM     24  C   LIG d   1       1.675  -2.215 -12.869  0.00  0.00    -0.040 C 
ATOM     25  H   LIG d   1       0.587  -2.173 -12.824  0.00  0.00     0.028 H 
ATOM     26  H   LIG d   1       1.995  -3.250 -12.998  0.00  0.00     0.028 H 
ATOM     27  H   LIG d   1       2.027  -1.619 -13.710  0.00  0.00     0.028 H 
ENDBRANCH  18  24
ENDBRANCH   1  14
BRANCH   1  28
ATOM     28  C   LIG d   1       3.728  -1.151  -6.842  0.00  0.00    -0.027 C 
ATOM     29  H   LIG d   1       3.279  -0.677  -5.970  0.00  0.00     0.029 H 
ATOM     30  H   LIG d   1       3.084  -1.962  -7.186  0.00  0.00     0.029 H 
BRANCH  28  31
ATOM     31  C   LIG d   1       5.101  -1.713  -6.468  0.00  0.00     0.016 C 
ATOM     32  H   LIG d   1       5.627  -2.019  -7.372  0.00  0.00     0.046 H 
ATOM     33  H   LIG d   1       5.679  -0.946  -5.953  0.00  0.00     0.046 H 
BRANCH  31  34
ATOM     34  N   LIG d   1       4.930  -2.871  -5.586  0.00  0.00    -0.297 N 
ATOM     35  C   LIG d   1       4.373  -4.003  -6.060  0.00  0.00     0.213 C 
ATOM     36  O   LIG d   1       4.144  -4.927  -5.309  0.00  0.00    -0.276 OA
BRANCH  34  37
ATOM     37  C   LIG d   1       5.363  -2.796  -4.188  0.00  0.00     0.040 C 
ATOM     38  H   LIG d   1       5.022  -3.684  -3.655  0.00  0.00     0.051 H 
ATOM     39  H   LIG d   1       6.450  -2.743  -4.147  0.00  0.00     0.051 H 
BRANCH  37  40
ATOM     40  C   LIG d   1       4.775  -1.567  -3.545  0.00  0.00    -0.030 A 
ATOM     41  C   LIG d   1       3.414  -1.489  -3.317  0.00  0.00    -0.057 A 
ATOM     42  C   LIG d   1       2.874  -0.362  -2.728  0.00  0.00    -0.061 A 
ATOM     43  H   LIG d   1       2.771  -2.310  -3.601  0.00  0.00     0.062 H 
ATOM     44  C   LIG d   1       3.697   0.689  -2.364  0.00  0.00    -0.062 A 
ATOM     45  H   LIG d   1       1.811  -0.300  -2.550  0.00  0.00     0.062 H 
ATOM     46  C   LIG d   1       5.058   0.611  -2.591  0.00  0.00    -0.061 A 
ATOM     47  H   LIG d   1       3.276   1.570  -1.904  0.00  0.00     0.062 H 
ATOM     48  C   LIG d   1       5.598  -0.518  -3.177  0.00  0.00    -0.057 A 
ATOM     49  H   LIG d   1       5.701   1.432  -2.308  0.00  0.00     0.062 H 
ATOM     50  H   LIG d   1       6.663  -0.581  -3.351  0.00  0.00     0.062 H 
ENDBRANCH  37  40
ENDBRANCH  34  37
BRANCH  35  51
ATOM     51  C   LIG d   1       4.036  -4.121  -7.524  0.00  0.00     0.012 C 
ATOM     52  H   LIG d   1       3.950  -3.125  -7.959  0.00  0.00     0.032 H 
ATOM     53  H   LIG d   1       4.825  -4.674  -8.035  0.00  0.00     0.032 H 
ATOM     54  H   LIG d   1       3.089  -4.650  -7.637  0.00  0.00     0.032 H 
ENDBRANCH  35  51
ENDBRANCH  31  34
ENDBRANCH  28  31
ENDBRANCH   1  28
BRANCH   5  55
ATOM     55  C   LIG d   1       6.990   1.653  -9.390  0.00  0.00    -0.020 C 
ATOM     56  H   LIG d   1       7.076   2.564  -9.982  0.00  0.00     0.032 H 
BRANCH  55  57
ATOM     57  C   LIG d   1       7.616   1.880  -8.012  0.00  0.00    -0.060 C 
ATOM     58  H   LIG d   1       8.331   2.700  -8.068  0.00  0.00     0.023 H 
ATOM     59  H   LIG d   1       6.834   2.127  -7.294  0.00  0.00     0.023 H 
ATOM     60  H   LIG d   1       8.129   0.972  -7.693  0.00  0.00     0.023 H 
ENDBRANCH  55  57
BRANCH  55  61
ATOM     61  C   LIG d   1       7.722   0.513 -10.101  0.00  0.00    -0.060 C 
ATOM     62  H   LIG d   1       8.592   0.217  -9.513  0.00  0.00     0.023 H 
ATOM     63  H   LIG d   1       7.050  -0.339 -10.210  0.00  0.00     0.023 H 
ATOM     64  H   LIG d   1       8.047   0.848 -11.086  0.00  0.00     0.023 H 
ENDBRANCH  55  61
ENDBRANCH   5  55
TORSDOF 11
ENDMDL
MODEL 6
REMARK VINA RESULT:      -5.3      2.053      4.278
REMARK  11 active torsions:
REMARK  status: ('A' for Active; 'I' for Inactive)
REMARK    1  A    between atoms: C_1  and  C_2 
REMARK    2  A    between atoms: C_5  and  C_8 
REMARK    3  A    between atoms: C_8  and  C_18 
REMARK    4  A    between atoms: C_12  and  C_15 
REMARK    5  A    between atoms: C_15  and  C_16 
REMARK    6  A    between atoms: C_15  and  C_17 
REMARK    7  A    between atoms: C_18  and  C_19 
REMARK    8  A    between atoms: C_19  and  N_20 
REMARK    9  A    between atoms: N_20  and  C_21 
REMARK       I    between atoms: N_20  and  C_28 
REMARK   10  A    between atoms: C_21  and  C_22 
REMARK   11  A    between atoms: C_28  and  C_30 
ROOT
ATOM      1  C   LIG d   1       5.406  -0.880  -5.851  0.00  0.00     0.002 C 
ATOM      2  C   LIG d   1       6.692  -0.069  -5.662  0.00  0.00    -0.020 C 
ATOM      3  C   LIG d   1       7.279  -0.371  -4.281  0.00  0.00     0.049 C 
ATOM      4  O   LIG d   1       6.310  -0.064  -3.275  0.00  0.00    -0.376 OA
ATOM      5  C   LIG d   1       5.105  -0.826  -3.374  0.00  0.00     0.062 C 
ATOM      6  H   LIG d   1       5.340  -1.887  -3.302  0.00  0.00     0.060 H 
ATOM      7  C   LIG d   1       4.431  -0.542  -4.719  0.00  0.00    -0.017 C 
ATOM      8  H   LIG d   1       7.413  -0.345  -6.432  0.00  0.00     0.030 H 
ATOM      9  H   LIG d   1       6.466   0.994  -5.738  0.00  0.00     0.030 H 
ATOM     10  H   LIG d   1       7.542  -1.428  -4.220  0.00  0.00     0.056 H 
ATOM     11  H   LIG d   1       8.170   0.235  -4.125  0.00  0.00     0.056 H 
ATOM     12  H   LIG d   1       4.160   0.513  -4.775  0.00  0.00     0.030 H 
ATOM     13  H   LIG d   1       3.535  -1.155  -4.814  0.00  0.00     0.030 H 
ENDROOT
BRANCH   1  14
ATOM     14  C   LIG d   1       5.728  -2.352  -5.814  0.00  0.00    -0.041 A 
ATOM     15  C   LIG d   1       6.992  -2.792  -6.163  0.00  0.00    -0.058 A 
ATOM     16  C   LIG d   1       7.289  -4.141  -6.125  0.00  0.00    -0.059 A 
ATOM     17  H   LIG d   1       7.749  -2.080  -6.460  0.00  0.00     0.062 H 
ATOM     18  C   LIG d   1       6.319  -5.052  -5.750  0.00  0.00    -0.050 A 
ATOM     19  H   LIG d   1       8.278  -4.484  -6.392  0.00  0.00     0.062 H 
ATOM     20  C   LIG d   1       5.056  -4.612  -5.403  0.00  0.00    -0.059 A 
ATOM     21  C   LIG d   1       4.760  -3.262  -5.435  0.00  0.00    -0.058 A 
ATOM     22  H   LIG d   1       4.299  -5.324  -5.106  0.00  0.00     0.062 H 
ATOM     23  H   LIG d   1       3.773  -2.919  -5.164  0.00  0.00     0.062 H 
BRANCH  18  24
ATOM     24  C   LIG d   1       6.642  -6.524  -5.715  0.00  0.00    -0.040 C 
ATOM     25  H   LIG d   1       7.664  -6.663  -5.362  0.00  0.00     0.028 H 
ATOM     26  H   LIG d   1       6.542  -6.942  -6.717  0.00  0.00     0.028 H 
ATOM     27  H   LIG d   1       5.953  -7.031  -5.040  0.00  0.00     0.028 H 
ENDBRANCH  18  24
ENDBRANCH   1  14
BRANCH   1  28
ATOM     28  C   LIG d   1       4.772  -0.528  -7.198  0.00  0.00    -0.027 C 
ATOM     29  H   LIG d   1       4.426  -1.439  -7.685  0.00  0.00     0.029 H 
ATOM     30  H   LIG d   1       3.926   0.142  -7.037  0.00  0.00     0.029 H 
BRANCH  28  31
ATOM     31  C   LIG d   1       5.809   0.163  -8.085  0.00  0.00     0.016 C 
ATOM     32  H   LIG d   1       5.922   1.200  -7.771  0.00  0.00     0.046 H 
ATOM     33  H   LIG d   1       6.766  -0.351  -7.993  0.00  0.00     0.046 H 
BRANCH  31  34
ATOM     34  N   LIG d   1       5.364   0.120  -9.480  0.00  0.00    -0.297 N 
ATOM     35  C   LIG d   1       4.631   1.132  -9.985  0.00  0.00     0.213 C 
ATOM     36  O   LIG d   1       4.181   1.053 -11.109  0.00  0.00    -0.276 OA
BRANCH  34  37
ATOM     37  C   LIG d   1       5.714  -1.024 -10.326  0.00  0.00     0.040 C 
ATOM     38  H   LIG d   1       5.463  -0.800 -11.362  0.00  0.00     0.051 H 
ATOM     39  H   LIG d   1       6.783  -1.221 -10.245  0.00  0.00     0.051 H 
BRANCH  37  40
ATOM     40  C   LIG d   1       4.945  -2.238  -9.874  0.00  0.00    -0.030 A 
ATOM     41  C   LIG d   1       3.562  -2.218  -9.870  0.00  0.00    -0.057 A 
ATOM     42  C   LIG d   1       2.856  -3.331  -9.454  0.00  0.00    -0.061 A 
ATOM     43  H   LIG d   1       3.034  -1.332 -10.191  0.00  0.00     0.062 H 
ATOM     44  C   LIG d   1       3.532  -4.466  -9.044  0.00  0.00    -0.062 A 
ATOM     45  H   LIG d   1       1.776  -3.316  -9.451  0.00  0.00     0.062 H 
ATOM     46  C   LIG d   1       4.914  -4.486  -9.049  0.00  0.00    -0.061 A 
ATOM     47  H   LIG d   1       2.980  -5.335  -8.719  0.00  0.00     0.062 H 
ATOM     48  C   LIG d   1       5.620  -3.374  -9.467  0.00  0.00    -0.057 A 
ATOM     49  H   LIG d   1       5.443  -5.371  -8.727  0.00  0.00     0.062 H 
ATOM     50  H   LIG d   1       6.701  -3.391  -9.474  0.00  0.00     0.062 H 
ENDBRANCH  37  40
ENDBRANCH  34  37
BRANCH  35  51
ATOM     51  C   LIG d   1       4.369   2.361  -9.154  0.00  0.00     0.012 C 
ATOM     52  H   LIG d   1       4.936   3.200  -9.557  0.00  0.00     0.032 H 
ATOM     53  H   LIG d   1       3.305   2.596  -9.178  0.00  0.00     0.032 H 
ATOM     54  H   LIG d   1       4.678   2.175  -8.124  0.00  0.00     0.032 H 
ENDBRANCH  35  51
ENDBRANCH  31  34
ENDBRANCH  28  31
ENDBRANCH   1  28
BRANCH   5  55
ATOM     55  C   LIG d   1       4.160  -0.433  -2.237  0.00  0.00    -0.020 C 
ATOM     56  H   LIG d   1       4.245  -1.158  -1.427  0.00  0.00     0.032 H 
BRANCH  55  57
ATOM     57  C   LIG d   1       4.535   0.957  -1.719  0.00  0.00    -0.060 C 
ATOM     58  H   LIG d   1       5.528   1.224  -2.079  0.00  0.00     0.023 H 
ATOM     59  H   LIG d   1       3.809   1.687  -2.079  0.00  0.00     0.023 H 
ATOM     60  H   LIG d   1       4.534   0.951  -0.629  0.00  0.00     0.023 H 
ENDBRANCH  55  57
BRANCH  55  61
ATOM     61  C   LIG d   1       2.720  -0.413  -2.753  0.00  0.00    -0.060 C 
ATOM     62  H   LIG d   1       2.698  -0.774  -3.782  0.00  0.00     0.023 H 
ATOM     63  H   LIG d   1       2.101  -1.057  -2.129  0.00  0.00     0.023 H 
ATOM     64  H   LIG d   1       2.335   0.607  -2.718  0.00  0.00     0.023 H 
ENDBRANCH  55  61
ENDBRANCH   5  55
TORSDOF 11
ENDMDL
MODEL 7
REMARK VINA RESULT:      -5.3      2.019      6.829
REMARK  11 active torsions:
REMARK  status: ('A' for Active; 'I' for Inactive)
REMARK    1  A    between atoms: C_1  and  C_2 
REMARK    2  A    between atoms: C_5  and  C_8 
REMARK    3  A    between atoms: C_8  and  C_18 
REMARK    4  A    between atoms: C_12  and  C_15 
REMARK    5  A    between atoms: C_15  and  C_16 
REMARK    6  A    between atoms: C_15  and  C_17 
REMARK    7  A    between atoms: C_18  and  C_19 
REMARK    8  A    between atoms: C_19  and  N_20 
REMARK    9  A    between atoms: N_20  and  C_21 
REMARK       I    between atoms: N_20  and  C_28 
REMARK   10  A    between atoms: C_21  and  C_22 
REMARK   11  A    between atoms: C_28  and  C_30 
ROOT
ATOM      1  C   LIG d   1       6.688  -1.012  -8.072  0.00  0.00     0.002 C 
ATOM      2  C   LIG d   1       7.416  -1.058  -9.419  0.00  0.00    -0.020 C 
ATOM      3  C   LIG d   1       7.616   0.370  -9.932  0.00  0.00     0.049 C 
ATOM      4  O   LIG d   1       6.346   1.018 -10.041  0.00  0.00    -0.376 OA
ATOM      5  C   LIG d   1       5.640   1.132  -8.804  0.00  0.00     0.062 C 
ATOM      6  H   LIG d   1       6.244   1.693  -8.092  0.00  0.00     0.060 H 
ATOM      7  C   LIG d   1       5.361  -0.266  -8.246  0.00  0.00    -0.017 C 
ATOM      8  H   LIG d   1       8.387  -1.539  -9.292  0.00  0.00     0.030 H 
ATOM      9  H   LIG d   1       6.821  -1.623 -10.135  0.00  0.00     0.030 H 
ATOM     10  H   LIG d   1       8.246   0.923  -9.234  0.00  0.00     0.056 H 
ATOM     11  H   LIG d   1       8.095   0.341 -10.909  0.00  0.00     0.056 H 
ATOM     12  H   LIG d   1       4.724  -0.815  -8.940  0.00  0.00     0.030 H 
ATOM     13  H   LIG d   1       4.862  -0.180  -7.280  0.00  0.00     0.030 H 
ENDROOT
BRANCH   1  14
ATOM     14  C   LIG d   1       7.543  -0.290  -7.062  0.00  0.00    -0.041 A 
ATOM     15  C   LIG d   1       7.054   0.830  -6.416  0.00  0.00    -0.058 A 
ATOM     16  C   LIG d   1       7.835   1.490  -5.487  0.00  0.00    -0.059 A 
ATOM     17  H   LIG d   1       6.058   1.188  -6.636  0.00  0.00     0.062 H 
ATOM     18  C   LIG d   1       9.111   1.035  -5.211  0.00  0.00    -0.050 A 
ATOM     19  H   LIG d   1       7.451   2.362  -4.979  0.00  0.00     0.062 H 
ATOM     20  C   LIG d   1       9.600  -0.085  -5.856  0.00  0.00    -0.059 A 
ATOM     21  C   LIG d   1       8.816  -0.747  -6.782  0.00  0.00    -0.058 A 
ATOM     22  H   LIG d   1      10.597  -0.442  -5.637  0.00  0.00     0.062 H 
ATOM     23  H   LIG d   1       9.199  -1.623  -7.286  0.00  0.00     0.062 H 
BRANCH  18  24
ATOM     24  C   LIG d   1       9.966   1.757  -4.201  0.00  0.00    -0.040 C 
ATOM     25  H   LIG d   1      10.915   1.234  -4.087  0.00  0.00     0.028 H 
ATOM     26  H   LIG d   1       9.449   1.786  -3.241  0.00  0.00     0.028 H 
ATOM     27  H   LIG d   1      10.152   2.775  -4.543  0.00  0.00     0.028 H 
ENDBRANCH  18  24
ENDBRANCH   1  14
BRANCH   1  28
ATOM     28  C   LIG d   1       6.417  -2.437  -7.587  0.00  0.00    -0.027 C 
ATOM     29  H   LIG d   1       6.364  -3.108  -8.444  0.00  0.00     0.029 H 
ATOM     30  H   LIG d   1       7.224  -2.756  -6.926  0.00  0.00     0.029 H 
BRANCH  28  31
ATOM     31  C   LIG d   1       5.089  -2.475  -6.827  0.00  0.00     0.016 C 
ATOM     32  H   LIG d   1       4.946  -1.532  -6.300  0.00  0.00     0.046 H 
ATOM     33  H   LIG d   1       4.272  -2.625  -7.532  0.00  0.00     0.046 H 
BRANCH  31  34
ATOM     34  N   LIG d   1       5.111  -3.577  -5.862  0.00  0.00    -0.297 N 
ATOM     35  C   LIG d   1       4.367  -4.679  -6.081  0.00  0.00     0.213 C 
ATOM     36  O   LIG d   1       4.309  -5.549  -5.238  0.00  0.00    -0.276 OA
BRANCH  34  37
ATOM     37  C   LIG d   1       5.940  -3.480  -4.658  0.00  0.00     0.040 C 
ATOM     38  H   LIG d   1       5.891  -4.419  -4.107  0.00  0.00     0.051 H 
ATOM     39  H   LIG d   1       6.973  -3.280  -4.944  0.00  0.00     0.051 H 
BRANCH  37  40
ATOM     40  C   LIG d   1       5.434  -2.359  -3.787  0.00  0.00    -0.030 A 
ATOM     41  C   LIG d   1       4.188  -2.452  -3.196  0.00  0.00    -0.057 A 
ATOM     42  C   LIG d   1       3.723  -1.424  -2.398  0.00  0.00    -0.061 A 
ATOM     43  H   LIG d   1       3.577  -3.328  -3.358  0.00  0.00     0.062 H 
ATOM     44  C   LIG d   1       4.505  -0.302  -2.191  0.00  0.00    -0.062 A 
ATOM     45  H   LIG d   1       2.750  -1.495  -1.936  0.00  0.00     0.062 H 
ATOM     46  C   LIG d   1       5.751  -0.210  -2.781  0.00  0.00    -0.061 A 
ATOM     47  H   LIG d   1       4.142   0.502  -1.567  0.00  0.00     0.062 H 
ATOM     48  C   LIG d   1       6.218  -1.240  -3.576  0.00  0.00    -0.057 A 
ATOM     49  H   LIG d   1       6.362   0.667  -2.620  0.00  0.00     0.062 H 
ATOM     50  H   LIG d   1       7.194  -1.169  -4.035  0.00  0.00     0.062 H 
ENDBRANCH  37  40
ENDBRANCH  34  37
BRANCH  35  51
ATOM     51  C   LIG d   1       3.606  -4.830  -7.373  0.00  0.00     0.012 C 
ATOM     52  H   LIG d   1       2.583  -5.140  -7.159  0.00  0.00     0.032 H 
ATOM     53  H   LIG d   1       3.594  -3.876  -7.900  0.00  0.00     0.032 H 
ATOM     54  H   LIG d   1       4.092  -5.583  -7.994  0.00  0.00     0.032 H 
ENDBRANCH  35  51
ENDBRANCH  31  34
ENDBRANCH  28  31
ENDBRANCH   1  28
BRANCH   5  55
ATOM     55  C   LIG d   1       4.316   1.861  -9.038  0.00  0.00    -0.020 C 
ATOM     56  H   LIG d   1       4.443   2.922  -8.821  0.00  0.00     0.032 H 
BRANCH  55  57
ATOM     57  C   LIG d   1       3.888   1.686 -10.496  0.00  0.00    -0.060 C 
ATOM     58  H   LIG d   1       4.111   0.670 -10.821  0.00  0.00     0.023 H 
ATOM     59  H   LIG d   1       2.818   1.870 -10.585  0.00  0.00     0.023 H 
ATOM     60  H   LIG d   1       4.432   2.395 -11.121  0.00  0.00     0.023 H 
ENDBRANCH  55  57
BRANCH  55  61
ATOM     61  C   LIG d   1       3.242   1.277  -8.118  0.00  0.00    -0.060 C 
ATOM     62  H   LIG d   1       2.504   2.046  -7.888  0.00  0.00     0.023 H 
ATOM     63  H   LIG d   1       2.752   0.441  -8.616  0.00  0.00     0.023 H 
ATOM     64  H   LIG d   1       3.704   0.930  -7.193  0.00  0.00     0.023 H 
ENDBRANCH  55  61
ENDBRANCH   5  55
TORSDOF 11
ENDMDL
MODEL 8
REMARK VINA RESULT:      -5.2      3.533      8.135
REMARK  11 active torsions:
REMARK  status: ('A' for Active; 'I' for Inactive)
REMARK    1  A    between atoms: C_1  and  C_2 
REMARK    2  A    between atoms: C_5  and  C_8 
REMARK    3  A    between atoms: C_8  and  C_18 
REMARK    4  A    between atoms: C_12  and  C_15 
REMARK    5  A    between atoms: C_15  and  C_16 
REMARK    6  A    between atoms: C_15  and  C_17 
REMARK    7  A    between atoms: C_18  and  C_19 
REMARK    8  A    between atoms: C_19  and  N_20 
REMARK    9  A    between atoms: N_20  and  C_21 
REMARK       I    between atoms: N_20  and  C_28 
REMARK   10  A    between atoms: C_21  and  C_22 
REMARK   11  A    between atoms: C_28  and  C_30 
ROOT
ATOM      1  C   LIG d   1       9.442   2.561  -4.611  0.00  0.00     0.002 C 
ATOM      2  C   LIG d   1      10.767   1.795  -4.532  0.00  0.00    -0.020 C 
ATOM      3  C   LIG d   1      11.833   2.550  -5.328  0.00  0.00     0.049 C 
ATOM      4  O   LIG d   1      11.396   2.706  -6.680  0.00  0.00    -0.376 OA
ATOM      5  C   LIG d   1      10.187   3.455  -6.819  0.00  0.00     0.062 C 
ATOM      6  H   LIG d   1      10.324   4.449  -6.393  0.00  0.00     0.060 H 
ATOM      7  C   LIG d   1       9.054   2.736  -6.082  0.00  0.00    -0.017 C 
ATOM      8  H   LIG d   1      11.079   1.714  -3.490  0.00  0.00     0.030 H 
ATOM      9  H   LIG d   1      10.636   0.797  -4.951  0.00  0.00     0.030 H 
ATOM     10  H   LIG d   1      11.992   3.533  -4.883  0.00  0.00     0.056 H 
ATOM     11  H   LIG d   1      12.766   1.988  -5.310  0.00  0.00     0.056 H 
ATOM     12  H   LIG d   1       8.889   1.757  -6.534  0.00  0.00     0.030 H 
ATOM     13  H   LIG d   1       8.141   3.328  -6.150  0.00  0.00     0.030 H 
ENDROOT
BRANCH   1  14
ATOM     14  C   LIG d   1       9.604   3.915  -3.968  0.00  0.00    -0.041 A 
ATOM     15  C   LIG d   1      10.156   4.019  -2.705  0.00  0.00    -0.058 A 
ATOM     16  C   LIG d   1      10.309   5.261  -2.117  0.00  0.00    -0.059 A 
ATOM     17  H   LIG d   1      10.473   3.130  -2.179  0.00  0.00     0.062 H 
ATOM     18  C   LIG d   1       9.899   6.397  -2.789  0.00  0.00    -0.050 A 
ATOM     19  H   LIG d   1      10.745   5.343  -1.133  0.00  0.00     0.062 H 
ATOM     20  C   LIG d   1       9.347   6.293  -4.051  0.00  0.00    -0.059 A 
ATOM     21  C   LIG d   1       9.199   5.052  -4.641  0.00  0.00    -0.058 A 
ATOM     22  H   LIG d   1       9.030   7.183  -4.578  0.00  0.00     0.062 H 
ATOM     23  H   LIG d   1       8.767   4.970  -5.628  0.00  0.00     0.062 H 
BRANCH  18  24
ATOM     24  C   LIG d   1      10.061   7.751  -2.146  0.00  0.00    -0.040 C 
ATOM     25  H   LIG d   1       9.814   8.529  -2.869  0.00  0.00     0.028 H 
ATOM     26  H   LIG d   1      11.093   7.875  -1.815  0.00  0.00     0.028 H 
ATOM     27  H   LIG d   1       9.393   7.828  -1.289  0.00  0.00     0.028 H 
ENDBRANCH  18  24
ENDBRANCH   1  14
BRANCH   1  28
ATOM     28  C   LIG d   1       8.352   1.775  -3.881  0.00  0.00    -0.027 C 
ATOM     29  H   LIG d   1       8.813   1.050  -3.211  0.00  0.00     0.029 H 
ATOM     30  H   LIG d   1       7.734   2.463  -3.302  0.00  0.00     0.029 H 
BRANCH  28  31
ATOM     31  C   LIG d   1       7.480   1.042  -4.903  0.00  0.00     0.016 C 
ATOM     32  H   LIG d   1       6.466   1.439  -4.866  0.00  0.00     0.046 H 
ATOM     33  H   LIG d   1       7.891   1.188  -5.902  0.00  0.00     0.046 H 
BRANCH  31  34
ATOM     34  N   LIG d   1       7.457  -0.388  -4.588  0.00  0.00    -0.297 N 
ATOM     35  C   LIG d   1       7.788  -1.291  -5.532  0.00  0.00     0.213 C 
ATOM     36  O   LIG d   1       7.678  -2.477  -5.302  0.00  0.00    -0.276 OA
BRANCH  34  37
ATOM     37  C   LIG d   1       7.072  -0.837  -3.247  0.00  0.00     0.040 C 
ATOM     38  H   LIG d   1       7.299  -1.898  -3.140  0.00  0.00     0.051 H 
ATOM     39  H   LIG d   1       7.628  -0.270  -2.501  0.00  0.00     0.051 H 
BRANCH  37  40
ATOM     40  C   LIG d   1       5.595  -0.616  -3.047  0.00  0.00    -0.030 A 
ATOM     41  C   LIG d   1       4.689  -1.566  -3.482  0.00  0.00    -0.057 A 
ATOM     42  C   LIG d   1       3.334  -1.363  -3.300  0.00  0.00    -0.061 A 
ATOM     43  H   LIG d   1       5.040  -2.466  -3.965  0.00  0.00     0.062 H 
ATOM     44  C   LIG d   1       2.884  -0.211  -2.681  0.00  0.00    -0.062 A 
ATOM     45  H   LIG d   1       2.626  -2.105  -3.639  0.00  0.00     0.062 H 
ATOM     46  C   LIG d   1       3.790   0.738  -2.246  0.00  0.00    -0.061 A 
ATOM     47  H   LIG d   1       1.826  -0.053  -2.539  0.00  0.00     0.062 H 
ATOM     48  C   LIG d   1       5.145   0.534  -2.425  0.00  0.00    -0.057 A 
ATOM     49  H   LIG d   1       3.439   1.639  -1.764  0.00  0.00     0.062 H 
ATOM     50  H   LIG d   1       5.854   1.274  -2.081  0.00  0.00     0.062 H 
ENDBRANCH  37  40
ENDBRANCH  34  37
BRANCH  35  51
ATOM     51  C   LIG d   1       8.296  -0.828  -6.872  0.00  0.00     0.012 C 
ATOM     52  H   LIG d   1       7.688   0.006  -7.223  0.00  0.00     0.032 H 
ATOM     53  H   LIG d   1       9.333  -0.507  -6.776  0.00  0.00     0.032 H 
ATOM     54  H   LIG d   1       8.234  -1.649  -7.587  0.00  0.00     0.032 H 
ENDBRANCH  35  51
ENDBRANCH  31  34
ENDBRANCH  28  31
ENDBRANCH   1  28
BRANCH   5  55
ATOM     55  C   LIG d   1       9.832   3.580  -8.302  0.00  0.00    -0.020 C 
ATOM     56  H   LIG d   1      10.681   3.259  -8.906  0.00  0.00     0.032 H 
BRANCH  55  57
ATOM     57  C   LIG d   1       8.622   2.698  -8.613  0.00  0.00    -0.060 C 
ATOM     58  H   LIG d   1       7.807   2.946  -7.933  0.00  0.00     0.023 H 
ATOM     59  H   LIG d   1       8.302   2.870  -9.641  0.00  0.00     0.023 H 
ATOM     60  H   LIG d   1       8.894   1.651  -8.487  0.00  0.00     0.023 H 
ENDBRANCH  55  57
BRANCH  55  61
ATOM     61  C   LIG d   1       9.499   5.037  -8.627  0.00  0.00    -0.060 C 
ATOM     62  H   LIG d   1       8.634   5.351  -8.041  0.00  0.00     0.023 H 
ATOM     63  H   LIG d   1      10.352   5.670  -8.382  0.00  0.00     0.023 H 
ATOM     64  H   LIG d   1       9.271   5.130  -9.689  0.00  0.00     0.023 H 
ENDBRANCH  55  61
ENDBRANCH   5  55
TORSDOF 11
ENDMDL
MODEL 9
REMARK VINA RESULT:      -5.1      4.134      9.146
REMARK  11 active torsions:
REMARK  status: ('A' for Active; 'I' for Inactive)
REMARK    1  A    between atoms: C_1  and  C_2 
REMARK    2  A    between atoms: C_5  and  C_8 
REMARK    3  A    between atoms: C_8  and  C_18 
REMARK    4  A    between atoms: C_12  and  C_15 
REMARK    5  A    between atoms: C_15  and  C_16 
REMARK    6  A    between atoms: C_15  and  C_17 
REMARK    7  A    between atoms: C_18  and  C_19 
REMARK    8  A    between atoms: C_19  and  N_20 
REMARK    9  A    between atoms: N_20  and  C_21 
REMARK       I    between atoms: N_20  and  C_28 
REMARK   10  A    between atoms: C_21  and  C_22 
REMARK   11  A    between atoms: C_28  and  C_30 
ROOT
ATOM      1  C   LIG d   1      10.113   4.071  -3.832  0.00  0.00     0.002 C 
ATOM      2  C   LIG d   1      11.435   3.659  -4.489  0.00  0.00    -0.020 C 
ATOM      3  C   LIG d   1      12.187   4.915  -4.935  0.00  0.00     0.049 C 
ATOM      4  O   LIG d   1      11.366   5.667  -5.831  0.00  0.00    -0.376 OA
ATOM      5  C   LIG d   1      10.138   6.120  -5.257  0.00  0.00     0.062 C 
ATOM      6  H   LIG d   1      10.350   6.744  -4.391  0.00  0.00     0.060 H 
ATOM      7  C   LIG d   1       9.303   4.911  -4.824  0.00  0.00    -0.017 C 
ATOM      8  H   LIG d   1      12.042   3.107  -3.770  0.00  0.00     0.030 H 
ATOM      9  H   LIG d   1      11.231   3.029  -5.353  0.00  0.00     0.030 H 
ATOM     10  H   LIG d   1      12.426   5.525  -4.063  0.00  0.00     0.056 H 
ATOM     11  H   LIG d   1      13.108   4.627  -5.440  0.00  0.00     0.056 H 
ATOM     12  H   LIG d   1       9.056   4.307  -5.697  0.00  0.00     0.030 H 
ATOM     13  H   LIG d   1       8.386   5.255  -4.346  0.00  0.00     0.030 H 
ENDROOT
BRANCH   1  14
ATOM     14  C   LIG d   1      10.397   4.885  -2.596  0.00  0.00    -0.041 A 
ATOM     15  C   LIG d   1       9.686   6.046  -2.354  0.00  0.00    -0.058 A 
ATOM     16  C   LIG d   1       9.943   6.791  -1.218  0.00  0.00    -0.059 A 
ATOM     17  H   LIG d   1       8.927   6.369  -3.052  0.00  0.00     0.062 H 
ATOM     18  C   LIG d   1      10.918   6.379  -0.329  0.00  0.00    -0.050 A 
ATOM     19  H   LIG d   1       9.385   7.695  -1.027  0.00  0.00     0.062 H 
ATOM     20  C   LIG d   1      11.629   5.219  -0.571  0.00  0.00    -0.059 A 
ATOM     21  C   LIG d   1      11.368   4.471  -1.704  0.00  0.00    -0.058 A 
ATOM     22  H   LIG d   1      12.388   4.895   0.127  0.00  0.00     0.062 H 
ATOM     23  H   LIG d   1      11.924   3.564  -1.893  0.00  0.00     0.062 H 
BRANCH  18  24
ATOM     24  C   LIG d   1      11.202   7.194   0.907  0.00  0.00    -0.040 C 
ATOM     25  H   LIG d   1      12.063   7.838   0.728  0.00  0.00     0.028 H 
ATOM     26  H   LIG d   1      11.415   6.525   1.742  0.00  0.00     0.028 H 
ATOM     27  H   LIG d   1      10.333   7.807   1.146  0.00  0.00     0.028 H 
ENDBRANCH  18  24
ENDBRANCH   1  14
BRANCH   1  28
ATOM     28  C   LIG d   1       9.320   2.820  -3.450  0.00  0.00    -0.027 C 
ATOM     29  H   LIG d   1       9.935   1.936  -3.612  0.00  0.00     0.029 H 
ATOM     30  H   LIG d   1       9.035   2.877  -2.399  0.00  0.00     0.029 H 
BRANCH  28  31
ATOM     31  C   LIG d   1       8.061   2.730  -4.316  0.00  0.00     0.016 C 
ATOM     32  H   LIG d   1       7.196   3.047  -3.733  0.00  0.00     0.046 H 
ATOM     33  H   LIG d   1       8.171   3.378  -5.185  0.00  0.00     0.046 H 
BRANCH  31  34
ATOM     34  N   LIG d   1       7.871   1.346  -4.759  0.00  0.00    -0.297 N 
ATOM     35  C   LIG d   1       8.068   1.020  -6.052  0.00  0.00     0.213 C 
ATOM     36  O   LIG d   1       7.819  -0.102  -6.438  0.00  0.00    -0.276 OA
BRANCH  34  37
ATOM     37  C   LIG d   1       7.467   0.318  -3.796  0.00  0.00     0.040 C 
ATOM     38  H   LIG d   1       7.715  -0.667  -4.192  0.00  0.00     0.051 H 
ATOM     39  H   LIG d   1       7.993   0.474  -2.855  0.00  0.00     0.051 H 
BRANCH  37  40
ATOM     40  C   LIG d   1       5.981   0.405  -3.562  0.00  0.00    -0.030 A 
ATOM     41  C   LIG d   1       5.493   1.106  -2.475  0.00  0.00    -0.057 A 
ATOM     42  C   LIG d   1       4.130   1.185  -2.259  0.00  0.00    -0.061 A 
ATOM     43  H   LIG d   1       6.176   1.590  -1.793  0.00  0.00     0.062 H 
ATOM     44  C   LIG d   1       3.254   0.565  -3.131  0.00  0.00    -0.062 A 
ATOM     45  H   LIG d   1       3.748   1.732  -1.410  0.00  0.00     0.062 H 
ATOM     46  C   LIG d   1       3.743  -0.135  -4.219  0.00  0.00    -0.061 A 
ATOM     47  H   LIG d   1       2.190   0.627  -2.963  0.00  0.00     0.062 H 
ATOM     48  C   LIG d   1       5.105  -0.211  -4.436  0.00  0.00    -0.057 A 
ATOM     49  H   LIG d   1       3.059  -0.620  -4.900  0.00  0.00     0.062 H 
ATOM     50  H   LIG d   1       5.487  -0.755  -5.289  0.00  0.00     0.062 H 
ENDBRANCH  37  40
ENDBRANCH  34  37
BRANCH  35  51
ATOM     51  C   LIG d   1       8.596   2.049  -7.016  0.00  0.00     0.012 C 
ATOM     52  H   LIG d   1       9.679   1.954  -7.094  0.00  0.00     0.032 H 
ATOM     53  H   LIG d   1       8.146   1.892  -7.997  0.00  0.00     0.032 H 
ATOM     54  H   LIG d   1       8.344   3.048  -6.656  0.00  0.00     0.032 H 
ENDBRANCH  35  51
ENDBRANCH  31  34
ENDBRANCH  28  31
ENDBRANCH   1  28
BRANCH   5  55
ATOM     55  C   LIG d   1       9.359   6.932  -6.294  0.00  0.00    -0.020 C 
ATOM     56  H   LIG d   1       8.322   6.597  -6.313  0.00  0.00     0.032 H 
BRANCH  55  57
ATOM     57  C   LIG d   1       9.411   8.415  -5.924  0.00  0.00    -0.060 C 
ATOM     58  H   LIG d   1       9.365   9.018  -6.831  0.00  0.00     0.023 H 
ATOM     59  H   LIG d   1       8.565   8.659  -5.282  0.00  0.00     0.023 H 
ATOM     60  H   LIG d   1      10.341   8.625  -5.395  0.00  0.00     0.023 H 
ENDBRANCH  55  57
BRANCH  55  61
ATOM     61  C   LIG d   1       9.985   6.729  -7.676  0.00  0.00    -0.060 C 
ATOM     62  H   LIG d   1       9.210   6.805  -8.440  0.00  0.00     0.023 H 
ATOM     63  H   LIG d   1      10.742   7.494  -7.849  0.00  0.00     0.023 H 
ATOM     64  H   LIG d   1      10.447   5.742  -7.725  0.00  0.00     0.023 H 
ENDBRANCH  55  61
ENDBRANCH   5  55
TORSDOF 11
ENDMDL
