MODEL 1
REMARK VINA RESULT:      -6.4      0.000      0.000
REMARK  7 active torsions:
REMARK  status: ('A' for Active; 'I' for Inactive)
REMARK    1  A    between atoms: C_1  and  C_2 
REMARK    2  A    between atoms: C_4  and  C_25 
REMARK    3  A    between atoms: C_8  and  C_13 
REMARK    4  A    between atoms: C_13  and  N_14 
REMARK       I    between atoms: N_14  and  C_15 
REMARK    5  A    between atoms: C_15  and  C_17 
REMARK    6  A    between atoms: C_20  and  O_23 
REMARK    7  A    between atoms: O_23  and  C_24 
ROOT
ATOM      1  C   LIG d   1       9.938   5.714  -7.222  0.00  0.00    -0.049 A 
ATOM      2  C   LIG d   1       9.704   7.056  -6.960  0.00  0.00    -0.052 A 
ATOM      3  C   LIG d   1       9.607   7.514  -5.662  0.00  0.00    -0.007 A 
ATOM      4  C   LIG d   1       9.743   6.624  -4.605  0.00  0.00     0.142 A 
ATOM      5  C   LIG d   1       9.980   5.265  -4.874  0.00  0.00     0.023 A 
ATOM      6  C   LIG d   1      10.070   4.820  -6.196  0.00  0.00    -0.048 A 
ATOM      7  C   LIG d   1      10.123   4.332  -3.752  0.00  0.00    -0.013 A 
ATOM      8  C   LIG d   1      10.019   4.826  -2.492  0.00  0.00     0.028 A 
ATOM      9  C   LIG d   1       9.781   6.203  -2.294  0.00  0.00     0.338 A 
ATOM     10  O   LIG d   1       9.690   6.633  -1.159  0.00  0.00    -0.245 OA
ATOM     11  O   LIG d   1       9.651   7.050  -3.327  0.00  0.00    -0.422 OA
ATOM     12  H   LIG d   1       9.599   7.751  -7.780  0.00  0.00     0.062 H 
ATOM     13  H   LIG d   1      10.248   3.776  -6.407  0.00  0.00     0.063 H 
ATOM     14  H   LIG d   1      10.119   4.166  -1.642  0.00  0.00     0.069 H 
ENDROOT
BRANCH   7  15
ATOM     15  C   LIG d   1      10.377   2.866  -3.990  0.00  0.00     0.038 C 
ATOM     16  H   LIG d   1      10.460   2.682  -5.061  0.00  0.00     0.051 H 
ATOM     17  H   LIG d   1      11.304   2.573  -3.498  0.00  0.00     0.051 H 
BRANCH  15  18
ATOM     18  N   LIG d   1       9.265   2.083  -3.445  0.00  0.00    -0.307 N 
ATOM     19  C   LIG d   1       8.331   1.574  -4.272  0.00  0.00     0.244 C 
ATOM     20  O   LIG d   1       8.409   1.765  -5.469  0.00  0.00    -0.270 OA
ATOM     21  H   LIG d   1       9.202   1.930  -2.489  0.00  0.00     0.149 HD
BRANCH  19  22
ATOM     22  C   LIG d   1       7.211   0.785  -3.722  0.00  0.00     0.037 A 
ATOM     23  C   LIG d   1       7.238  -0.611  -3.789  0.00  0.00    -0.046 A 
ATOM     24  C   LIG d   1       6.194  -1.344  -3.271  0.00  0.00    -0.019 A 
ATOM     25  H   LIG d   1       8.078  -1.114  -4.246  0.00  0.00     0.063 H 
ATOM     26  C   LIG d   1       5.110  -0.697  -2.690  0.00  0.00     0.120 A 
ATOM     27  H   LIG d   1       6.217  -2.423  -3.319  0.00  0.00     0.065 H 
ATOM     28  C   LIG d   1       5.077   0.691  -2.625  0.00  0.00    -0.019 A 
ATOM     29  C   LIG d   1       6.119   1.431  -3.137  0.00  0.00    -0.046 A 
ATOM     30  H   LIG d   1       4.232   1.189  -2.173  0.00  0.00     0.065 H 
ATOM     31  H   LIG d   1       6.093   2.509  -3.085  0.00  0.00     0.063 H 
BRANCH  26  32
ATOM     32  O   LIG d   1       4.080  -1.423  -2.184  0.00  0.00    -0.495 OA
BRANCH  32  33
ATOM     33  C   LIG d   1       2.796  -1.228  -2.779  0.00  0.00     0.079 C 
ATOM     34  H   LIG d   1       2.826  -1.548  -3.821  0.00  0.00     0.066 H 
ATOM     35  H   LIG d   1       2.052  -1.815  -2.240  0.00  0.00     0.066 H 
ATOM     36  H   LIG d   1       2.530  -0.172  -2.730  0.00  0.00     0.066 H 
ENDBRANCH  32  33
ENDBRANCH  26  32
ENDBRANCH  19  22
ENDBRANCH  15  18
ENDBRANCH   7  15
BRANCH   3  37
ATOM     37  C   LIG d   1       9.353   8.975  -5.393  0.00  0.00    -0.036 C 
ATOM     38  H   LIG d   1       8.339   9.230  -5.700  0.00  0.00     0.028 H 
ATOM     39  H   LIG d   1       9.472   9.174  -4.328  0.00  0.00     0.028 H 
ATOM     40  H   LIG d   1      10.066   9.577  -5.957  0.00  0.00     0.028 H 
ENDBRANCH   3  37
BRANCH   1  41
ATOM     41  C   LIG d   1      10.041   5.237  -8.648  0.00  0.00    -0.040 C 
ATOM     42  H   LIG d   1      10.859   5.755  -9.146  0.00  0.00     0.028 H 
ATOM     43  H   LIG d   1      10.228   4.164  -8.659  0.00  0.00     0.028 H 
ATOM     44  H   LIG d   1       9.106   5.449  -9.169  0.00  0.00     0.028 H 
ENDBRANCH   1  41
TORSDOF 7
ENDMDL
MODEL 2
REMARK VINA RESULT:      -6.0      2.193      3.630
REMARK  7 active torsions:
REMARK  status: ('A' for Active; 'I' for Inactive)
REMARK    1  A    between atoms: C_1  and  C_2 
REMARK    2  A    between atoms: C_4  and  C_25 
REMARK    3  A    between atoms: C_8  and  C_13 
REMARK    4  A    between atoms: C_13  and  N_14 
REMARK       I    between atoms: N_14  and  C_15 
REMARK    5  A    between atoms: C_15  and  C_17 
REMARK    6  A    between atoms: C_20  and  O_23 
REMARK    7  A    between atoms: O_23  and  C_24 
ROOT
ATOM      1  C   LIG d   1       9.810   6.355  -3.709  0.00  0.00    -0.049 A 
ATOM      2  C   LIG d   1      10.023   6.989  -4.925  0.00  0.00    -0.052 A 
ATOM      3  C   LIG d   1       9.936   6.287  -6.109  0.00  0.00    -0.007 A 
ATOM      4  C   LIG d   1       9.634   4.932  -6.088  0.00  0.00     0.142 A 
ATOM      5  C   LIG d   1       9.419   4.293  -4.855  0.00  0.00     0.023 A 
ATOM      6  C   LIG d   1       9.516   5.021  -3.665  0.00  0.00    -0.048 A 
ATOM      7  C   LIG d   1       9.099   2.862  -4.841  0.00  0.00    -0.013 A 
ATOM      8  C   LIG d   1       9.024   2.211  -6.030  0.00  0.00     0.028 A 
ATOM      9  C   LIG d   1       9.251   2.916  -7.231  0.00  0.00     0.338 A 
ATOM     10  O   LIG d   1       9.181   2.321  -8.291  0.00  0.00    -0.245 OA
ATOM     11  O   LIG d   1       9.543   4.226  -7.235  0.00  0.00    -0.422 OA
ATOM     12  H   LIG d   1      10.258   8.043  -4.945  0.00  0.00     0.062 H 
ATOM     13  H   LIG d   1       9.356   4.532  -2.715  0.00  0.00     0.063 H 
ATOM     14  H   LIG d   1       8.791   1.157  -6.055  0.00  0.00     0.069 H 
ENDROOT
BRANCH   7  15
ATOM     15  C   LIG d   1       8.862   2.134  -3.543  0.00  0.00     0.038 C 
ATOM     16  H   LIG d   1       9.817   1.942  -3.055  0.00  0.00     0.051 H 
ATOM     17  H   LIG d   1       8.237   2.747  -2.892  0.00  0.00     0.051 H 
BRANCH  15  18
ATOM     18  N   LIG d   1       8.186   0.862  -3.812  0.00  0.00    -0.307 N 
ATOM     19  C   LIG d   1       6.874   0.725  -3.535  0.00  0.00     0.244 C 
ATOM     20  O   LIG d   1       6.252   1.655  -3.062  0.00  0.00    -0.270 OA
ATOM     21  H   LIG d   1       8.683   0.119  -4.189  0.00  0.00     0.149 HD
BRANCH  19  22
ATOM     22  C   LIG d   1       6.194  -0.557  -3.805  0.00  0.00     0.037 A 
ATOM     23  C   LIG d   1       6.511  -1.290  -4.952  0.00  0.00    -0.046 A 
ATOM     24  C   LIG d   1       5.878  -2.488  -5.199  0.00  0.00    -0.019 A 
ATOM     25  H   LIG d   1       7.253  -0.918  -5.643  0.00  0.00     0.063 H 
ATOM     26  C   LIG d   1       4.918  -2.964  -4.313  0.00  0.00     0.120 A 
ATOM     27  H   LIG d   1       6.126  -3.056  -6.083  0.00  0.00     0.065 H 
ATOM     28  C   LIG d   1       4.596  -2.235  -3.174  0.00  0.00    -0.019 A 
ATOM     29  C   LIG d   1       5.228  -1.039  -2.917  0.00  0.00    -0.046 A 
ATOM     30  H   LIG d   1       3.850  -2.608  -2.489  0.00  0.00     0.065 H 
ATOM     31  H   LIG d   1       4.979  -0.475  -2.031  0.00  0.00     0.063 H 
BRANCH  26  32
ATOM     32  O   LIG d   1       4.293  -4.142  -4.562  0.00  0.00    -0.495 OA
BRANCH  32  33
ATOM     33  C   LIG d   1       4.915  -5.020  -5.503  0.00  0.00     0.079 C 
ATOM     34  H   LIG d   1       4.460  -6.008  -5.434  0.00  0.00     0.066 H 
ATOM     35  H   LIG d   1       4.779  -4.627  -6.511  0.00  0.00     0.066 H 
ATOM     36  H   LIG d   1       5.980  -5.093  -5.283  0.00  0.00     0.066 H 
ENDBRANCH  32  33
ENDBRANCH  26  32
ENDBRANCH  19  22
ENDBRANCH  15  18
ENDBRANCH   7  15
BRANCH   3  37
ATOM     37  C   LIG d   1      10.169   6.989  -7.422  0.00  0.00    -0.036 C 
ATOM     38  H   LIG d   1      10.956   7.733  -7.302  0.00  0.00     0.028 H 
ATOM     39  H   LIG d   1      10.470   6.261  -8.175  0.00  0.00     0.028 H 
ATOM     40  H   LIG d   1       9.250   7.481  -7.739  0.00  0.00     0.028 H 
ENDBRANCH   3  37
BRANCH   1  41
ATOM     41  C   LIG d   1       9.911   7.142  -2.428  0.00  0.00    -0.040 C 
ATOM     42  H   LIG d   1      10.087   6.461  -1.596  0.00  0.00     0.028 H 
ATOM     43  H   LIG d   1      10.738   7.849  -2.500  0.00  0.00     0.028 H 
ATOM     44  H   LIG d   1       8.981   7.686  -2.262  0.00  0.00     0.028 H 
ENDBRANCH   1  41
TORSDOF 7
ENDMDL
MODEL 3
REMARK VINA RESULT:      -5.9      6.395     11.530
REMARK  7 active torsions:
REMARK  status: ('A' for Active; 'I' for Inactive)
REMARK    1  A    between atoms: C_1  and  C_2 
REMARK    2  A    between atoms: C_4  and  C_25 
REMARK    3  A    between atoms: C_8  and  C_13 
REMARK    4  A    between atoms: C_13  and  N_14 
REMARK       I    between atoms: N_14  and  C_15 
REMARK    5  A    between atoms: C_15  and  C_17 
REMARK    6  A    between atoms: C_20  and  O_23 
REMARK    7  A    between atoms: O_23  and  C_24 
ROOT
ATOM      1  C   LIG d   1       9.539  -7.389  -4.080  0.00  0.00    -0.049 A 
ATOM      2  C   LIG d   1       9.434  -8.607  -3.423  0.00  0.00    -0.052 A 
ATOM      3  C   LIG d   1       8.252  -9.318  -3.442  0.00  0.00    -0.007 A 
ATOM      4  C   LIG d   1       7.153  -8.812  -4.124  0.00  0.00     0.142 A 
ATOM      5  C   LIG d   1       7.262  -7.578  -4.788  0.00  0.00     0.023 A 
ATOM      6  C   LIG d   1       8.468  -6.870  -4.753  0.00  0.00    -0.048 A 
ATOM      7  C   LIG d   1       6.098  -7.051  -5.506  0.00  0.00    -0.013 A 
ATOM      8  C   LIG d   1       4.955  -7.783  -5.498  0.00  0.00     0.028 A 
ATOM      9  C   LIG d   1       4.916  -9.016  -4.811  0.00  0.00     0.338 A 
ATOM     10  O   LIG d   1       3.885  -9.663  -4.811  0.00  0.00    -0.245 OA
ATOM     11  O   LIG d   1       5.987  -9.491  -4.156  0.00  0.00    -0.422 OA
ATOM     12  H   LIG d   1      10.287  -9.003  -2.893  0.00  0.00     0.062 H 
ATOM     13  H   LIG d   1       8.554  -5.920  -5.258  0.00  0.00     0.063 H 
ATOM     14  H   LIG d   1       4.078  -7.424  -6.016  0.00  0.00     0.069 H 
ENDROOT
BRANCH   7  15
ATOM     15  C   LIG d   1       6.167  -5.732  -6.231  0.00  0.00     0.038 C 
ATOM     16  H   LIG d   1       7.204  -5.506  -6.477  0.00  0.00     0.051 H 
ATOM     17  H   LIG d   1       5.581  -5.791  -7.150  0.00  0.00     0.051 H 
BRANCH  15  18
ATOM     18  N   LIG d   1       5.626  -4.674  -5.375  0.00  0.00    -0.307 N 
ATOM     19  C   LIG d   1       6.424  -3.672  -4.957  0.00  0.00     0.244 C 
ATOM     20  O   LIG d   1       7.592  -3.645  -5.291  0.00  0.00    -0.270 OA
ATOM     21  H   LIG d   1       4.693  -4.695  -5.108  0.00  0.00     0.149 HD
BRANCH  19  22
ATOM     22  C   LIG d   1       5.879  -2.606  -4.093  0.00  0.00     0.037 A 
ATOM     23  C   LIG d   1       6.645  -1.471  -3.812  0.00  0.00    -0.046 A 
ATOM     24  C   LIG d   1       6.131  -0.477  -3.010  0.00  0.00    -0.019 A 
ATOM     25  H   LIG d   1       7.638  -1.374  -4.225  0.00  0.00     0.063 H 
ATOM     26  C   LIG d   1       4.856  -0.605  -2.473  0.00  0.00     0.120 A 
ATOM     27  H   LIG d   1       6.722   0.402  -2.796  0.00  0.00     0.065 H 
ATOM     28  C   LIG d   1       4.092  -1.734  -2.747  0.00  0.00    -0.019 A 
ATOM     29  C   LIG d   1       4.597  -2.730  -3.552  0.00  0.00    -0.046 A 
ATOM     30  H   LIG d   1       3.102  -1.829  -2.327  0.00  0.00     0.065 H 
ATOM     31  H   LIG d   1       4.002  -3.606  -3.764  0.00  0.00     0.063 H 
BRANCH  26  32
ATOM     32  O   LIG d   1       4.354   0.375  -1.680  0.00  0.00    -0.495 OA
BRANCH  32  33
ATOM     33  C   LIG d   1       3.643   1.433  -2.326  0.00  0.00     0.079 C 
ATOM     34  H   LIG d   1       3.753   1.338  -3.406  0.00  0.00     0.066 H 
ATOM     35  H   LIG d   1       2.587   1.377  -2.062  0.00  0.00     0.066 H 
ATOM     36  H   LIG d   1       4.047   2.393  -2.003  0.00  0.00     0.066 H 
ENDBRANCH  32  33
ENDBRANCH  26  32
ENDBRANCH  19  22
ENDBRANCH  15  18
ENDBRANCH   7  15
BRANCH   3  37
ATOM     37  C   LIG d   1       8.154 -10.640  -2.725  0.00  0.00    -0.036 C 
ATOM     38  H   LIG d   1       8.010 -10.465  -1.659  0.00  0.00     0.028 H 
ATOM     39  H   LIG d   1       7.308 -11.204  -3.118  0.00  0.00     0.028 H 
ATOM     40  H   LIG d   1       9.072 -11.206  -2.879  0.00  0.00     0.028 H 
ENDBRANCH   3  37
BRANCH   1  41
ATOM     41  C   LIG d   1      10.840  -6.630  -4.045  0.00  0.00    -0.040 C 
ATOM     42  H   LIG d   1      11.523  -7.045  -4.785  0.00  0.00     0.028 H 
ATOM     43  H   LIG d   1      10.654  -5.580  -4.270  0.00  0.00     0.028 H 
ATOM     44  H   LIG d   1      11.284  -6.717  -3.053  0.00  0.00     0.028 H 
ENDBRANCH   1  41
TORSDOF 7
ENDMDL
MODEL 4
REMARK VINA RESULT:      -5.7      1.922      8.072
REMARK  7 active torsions:
REMARK  status: ('A' for Active; 'I' for Inactive)
REMARK    1  A    between atoms: C_1  and  C_2 
REMARK    2  A    between atoms: C_4  and  C_25 
REMARK    3  A    between atoms: C_8  and  C_13 
REMARK    4  A    between atoms: C_13  and  N_14 
REMARK       I    between atoms: N_14  and  C_15 
REMARK    5  A    between atoms: C_15  and  C_17 
REMARK    6  A    between atoms: C_20  and  O_23 
REMARK    7  A    between atoms: O_23  and  C_24 
ROOT
ATOM      1  C   LIG d   1       7.780  -2.906  -5.005  0.00  0.00    -0.049 A 
ATOM      2  C   LIG d   1       6.533  -3.355  -4.592  0.00  0.00    -0.052 A 
ATOM      3  C   LIG d   1       5.643  -2.496  -3.982  0.00  0.00    -0.007 A 
ATOM      4  C   LIG d   1       5.995  -1.168  -3.777  0.00  0.00     0.142 A 
ATOM      5  C   LIG d   1       7.258  -0.717  -4.197  0.00  0.00     0.023 A 
ATOM      6  C   LIG d   1       8.148  -1.605  -4.809  0.00  0.00    -0.048 A 
ATOM      7  C   LIG d   1       7.621   0.686  -3.978  0.00  0.00    -0.013 A 
ATOM      8  C   LIG d   1       6.714   1.495  -3.374  0.00  0.00     0.028 A 
ATOM      9  C   LIG d   1       5.463   0.976  -2.979  0.00  0.00     0.338 A 
ATOM     10  O   LIG d   1       4.658   1.712  -2.438  0.00  0.00    -0.245 OA
ATOM     11  O   LIG d   1       5.138  -0.310  -3.183  0.00  0.00    -0.422 OA
ATOM     12  H   LIG d   1       6.257  -4.387  -4.750  0.00  0.00     0.062 H 
ATOM     13  H   LIG d   1       9.121  -1.263  -5.129  0.00  0.00     0.063 H 
ATOM     14  H   LIG d   1       6.950   2.535  -3.197  0.00  0.00     0.069 H 
ENDROOT
BRANCH   7  15
ATOM     15  C   LIG d   1       8.964   1.215  -4.410  0.00  0.00     0.038 C 
ATOM     16  H   LIG d   1       9.747   0.756  -3.806  0.00  0.00     0.051 H 
ATOM     17  H   LIG d   1       9.129   0.975  -5.461  0.00  0.00     0.051 H 
BRANCH  15  18
ATOM     18  N   LIG d   1       8.999   2.669  -4.230  0.00  0.00    -0.307 N 
ATOM     19  C   LIG d   1       9.867   3.219  -3.358  0.00  0.00     0.244 C 
ATOM     20  O   LIG d   1      10.621   2.510  -2.722  0.00  0.00    -0.270 OA
ATOM     21  H   LIG d   1       8.396   3.235  -4.738  0.00  0.00     0.149 HD
BRANCH  19  22
ATOM     22  C   LIG d   1       9.901   4.684  -3.177  0.00  0.00     0.037 A 
ATOM     23  C   LIG d   1      10.253   5.229  -1.939  0.00  0.00    -0.046 A 
ATOM     24  C   LIG d   1      10.289   6.595  -1.775  0.00  0.00    -0.019 A 
ATOM     25  H   LIG d   1      10.500   4.578  -1.113  0.00  0.00     0.063 H 
ATOM     26  C   LIG d   1       9.965   7.433  -2.836  0.00  0.00     0.120 A 
ATOM     27  H   LIG d   1      10.565   7.016  -0.820  0.00  0.00     0.065 H 
ATOM     28  C   LIG d   1       9.609   6.895  -4.068  0.00  0.00    -0.019 A 
ATOM     29  C   LIG d   1       9.576   5.529  -4.242  0.00  0.00    -0.046 A 
ATOM     30  H   LIG d   1       9.358   7.549  -4.889  0.00  0.00     0.065 H 
ATOM     31  H   LIG d   1       9.301   5.113  -5.199  0.00  0.00     0.063 H 
BRANCH  26  32
ATOM     32  O   LIG d   1       9.997   8.779  -2.670  0.00  0.00    -0.495 OA
BRANCH  32  33
ATOM     33  C   LIG d   1       9.680   9.279  -1.369  0.00  0.00     0.079 C 
ATOM     34  H   LIG d   1      10.364   8.849  -0.638  0.00  0.00     0.066 H 
ATOM     35  H   LIG d   1       9.777  10.364  -1.363  0.00  0.00     0.066 H 
ATOM     36  H   LIG d   1       8.656   9.005  -1.114  0.00  0.00     0.066 H 
ENDBRANCH  32  33
ENDBRANCH  26  32
ENDBRANCH  19  22
ENDBRANCH  15  18
ENDBRANCH   7  15
BRANCH   3  37
ATOM     37  C   LIG d   1       4.292  -2.997  -3.540  0.00  0.00    -0.036 C 
ATOM     38  H   LIG d   1       3.907  -2.354  -2.748  0.00  0.00     0.028 H 
ATOM     39  H   LIG d   1       3.605  -2.984  -4.386  0.00  0.00     0.028 H 
ATOM     40  H   LIG d   1       4.388  -4.016  -3.165  0.00  0.00     0.028 H 
ENDBRANCH   3  37
BRANCH   1  41
ATOM     41  C   LIG d   1       8.736  -3.863  -5.669  0.00  0.00    -0.040 C 
ATOM     42  H   LIG d   1       8.179  -4.559  -6.294  0.00  0.00     0.028 H 
ATOM     43  H   LIG d   1       9.440  -3.304  -6.285  0.00  0.00     0.028 H 
ATOM     44  H   LIG d   1       9.283  -4.418  -4.905  0.00  0.00     0.028 H 
ENDBRANCH   1  41
TORSDOF 7
ENDMDL
MODEL 5
REMARK VINA RESULT:      -5.6     12.160     15.076
REMARK  7 active torsions:
REMARK  status: ('A' for Active; 'I' for Inactive)
REMARK    1  A    between atoms: C_1  and  C_2 
REMARK    2  A    between atoms: C_4  and  C_25 
REMARK    3  A    between atoms: C_8  and  C_13 
REMARK    4  A    between atoms: C_13  and  N_14 
REMARK       I    between atoms: N_14  and  C_15 
REMARK    5  A    between atoms: C_15  and  C_17 
REMARK    6  A    between atoms: C_20  and  O_23 
REMARK    7  A    between atoms: O_23  and  C_24 
ROOT
ATOM      1  C   LIG d   1       6.145  -8.493  -4.757  0.00  0.00    -0.049 A 
ATOM      2  C   LIG d   1       4.962  -9.218  -4.746  0.00  0.00    -0.052 A 
ATOM      3  C   LIG d   1       4.731 -10.175  -3.781  0.00  0.00    -0.007 A 
ATOM      4  C   LIG d   1       5.692 -10.420  -2.808  0.00  0.00     0.142 A 
ATOM      5  C   LIG d   1       6.889  -9.684  -2.821  0.00  0.00     0.023 A 
ATOM      6  C   LIG d   1       7.106  -8.721  -3.812  0.00  0.00    -0.048 A 
ATOM      7  C   LIG d   1       7.898  -9.947  -1.790  0.00  0.00    -0.013 A 
ATOM      8  C   LIG d   1       7.629 -10.898  -0.860  0.00  0.00     0.028 A 
ATOM      9  C   LIG d   1       6.404 -11.599  -0.906  0.00  0.00     0.338 A 
ATOM     10  O   LIG d   1       6.176 -12.450  -0.065  0.00  0.00    -0.245 OA
ATOM     11  O   LIG d   1       5.486 -11.352  -1.853  0.00  0.00    -0.422 OA
ATOM     12  H   LIG d   1       4.212  -9.030  -5.501  0.00  0.00     0.062 H 
ATOM     13  H   LIG d   1       8.026  -8.157  -3.828  0.00  0.00     0.063 H 
ATOM     14  H   LIG d   1       8.350 -11.118  -0.087  0.00  0.00     0.069 H 
ENDROOT
BRANCH   7  15
ATOM     15  C   LIG d   1       9.197  -9.185  -1.765  0.00  0.00     0.038 C 
ATOM     16  H   LIG d   1       9.873  -9.595  -2.515  0.00  0.00     0.051 H 
ATOM     17  H   LIG d   1       9.006  -8.134  -1.984  0.00  0.00     0.051 H 
BRANCH  15  18
ATOM     18  N   LIG d   1       9.808  -9.303  -0.439  0.00  0.00    -0.307 N 
ATOM     19  C   LIG d   1      11.021  -8.764  -0.206  0.00  0.00     0.244 C 
ATOM     20  O   LIG d   1      11.607  -8.179  -1.095  0.00  0.00    -0.270 OA
ATOM     21  H   LIG d   1       9.340  -9.771   0.271  0.00  0.00     0.149 HD
BRANCH  19  22
ATOM     22  C   LIG d   1      11.637  -8.884   1.130  0.00  0.00     0.037 A 
ATOM     23  C   LIG d   1      12.851  -9.560   1.284  0.00  0.00    -0.046 A 
ATOM     24  C   LIG d   1      13.425  -9.666   2.530  0.00  0.00    -0.019 A 
ATOM     25  H   LIG d   1      13.339  -9.997   0.424  0.00  0.00     0.063 H 
ATOM     26  C   LIG d   1      12.794  -9.110   3.638  0.00  0.00     0.120 A 
ATOM     27  H   LIG d   1      14.365 -10.185   2.649  0.00  0.00     0.065 H 
ATOM     28  C   LIG d   1      11.584  -8.442   3.490  0.00  0.00    -0.019 A 
ATOM     29  C   LIG d   1      11.006  -8.327   2.246  0.00  0.00    -0.046 A 
ATOM     30  H   LIG d   1      11.097  -8.012   4.352  0.00  0.00     0.065 H 
ATOM     31  H   LIG d   1      10.067  -7.806   2.132  0.00  0.00     0.063 H 
BRANCH  26  32
ATOM     32  O   LIG d   1      13.360  -9.221   4.866  0.00  0.00    -0.495 OA
BRANCH  32  33
ATOM     33  C   LIG d   1      14.037 -10.445   5.160  0.00  0.00     0.079 C 
ATOM     34  H   LIG d   1      14.344 -10.923   4.230  0.00  0.00     0.066 H 
ATOM     35  H   LIG d   1      14.917 -10.237   5.769  0.00  0.00     0.066 H 
ATOM     36  H   LIG d   1      13.366 -11.108   5.706  0.00  0.00     0.066 H 
ENDBRANCH  32  33
ENDBRANCH  26  32
ENDBRANCH  19  22
ENDBRANCH  15  18
ENDBRANCH   7  15
BRANCH   3  37
ATOM     37  C   LIG d   1       3.441 -10.954  -3.781  0.00  0.00    -0.036 C 
ATOM     38  H   LIG d   1       3.589 -11.904  -3.268  0.00  0.00     0.028 H 
ATOM     39  H   LIG d   1       2.670 -10.379  -3.268  0.00  0.00     0.028 H 
ATOM     40  H   LIG d   1       3.130 -11.141  -4.809  0.00  0.00     0.028 H 
ENDBRANCH   3  37
BRANCH   1  41
ATOM     41  C   LIG d   1       6.375  -7.453  -5.823  0.00  0.00    -0.040 C 
ATOM     42  H   LIG d   1       5.595  -7.529  -6.579  0.00  0.00     0.028 H 
ATOM     43  H   LIG d   1       6.350  -6.460  -5.373  0.00  0.00     0.028 H 
ATOM     44  H   LIG d   1       7.348  -7.617  -6.286  0.00  0.00     0.028 H 
ENDBRANCH   1  41
TORSDOF 7
ENDMDL
MODEL 6
REMARK VINA RESULT:      -5.5      6.964      9.297
REMARK  7 active torsions:
REMARK  status: ('A' for Active; 'I' for Inactive)
REMARK    1  A    between atoms: C_1  and  C_2 
REMARK    2  A    between atoms: C_4  and  C_25 
REMARK    3  A    between atoms: C_8  and  C_13 
REMARK    4  A    between atoms: C_13  and  N_14 
REMARK       I    between atoms: N_14  and  C_15 
REMARK    5  A    between atoms: C_15  and  C_17 
REMARK    6  A    between atoms: C_20  and  O_23 
REMARK    7  A    between atoms: O_23  and  C_24 
ROOT
ATOM      1  C   LIG d   1       1.920  -0.763 -10.216  0.00  0.00    -0.049 A 
ATOM      2  C   LIG d   1       2.040   0.562  -9.824  0.00  0.00    -0.052 A 
ATOM      3  C   LIG d   1       2.800   0.905  -8.725  0.00  0.00    -0.007 A 
ATOM      4  C   LIG d   1       3.451  -0.084  -8.000  0.00  0.00     0.142 A 
ATOM      5  C   LIG d   1       3.327  -1.426  -8.400  0.00  0.00     0.023 A 
ATOM      6  C   LIG d   1       2.548  -1.753  -9.514  0.00  0.00    -0.048 A 
ATOM      7  C   LIG d   1       4.019  -2.465  -7.631  0.00  0.00    -0.013 A 
ATOM      8  C   LIG d   1       4.755  -2.082  -6.556  0.00  0.00     0.028 A 
ATOM      9  C   LIG d   1       4.837  -0.716  -6.212  0.00  0.00     0.338 A 
ATOM     10  O   LIG d   1       5.500  -0.385  -5.246  0.00  0.00    -0.245 OA
ATOM     11  O   LIG d   1       4.201   0.229  -6.922  0.00  0.00    -0.422 OA
ATOM     12  H   LIG d   1       1.535   1.334 -10.386  0.00  0.00     0.062 H 
ATOM     13  H   LIG d   1       2.447  -2.784  -9.822  0.00  0.00     0.063 H 
ATOM     14  H   LIG d   1       5.277  -2.821  -5.967  0.00  0.00     0.069 H 
ENDROOT
BRANCH   7  15
ATOM     15  C   LIG d   1       3.914  -3.916  -8.020  0.00  0.00     0.038 C 
ATOM     16  H   LIG d   1       2.949  -4.309  -7.702  0.00  0.00     0.051 H 
ATOM     17  H   LIG d   1       4.005  -4.009  -9.103  0.00  0.00     0.051 H 
BRANCH  15  18
ATOM     18  N   LIG d   1       4.987  -4.675  -7.373  0.00  0.00    -0.307 N 
ATOM     19  C   LIG d   1       4.696  -5.550  -6.391  0.00  0.00     0.244 C 
ATOM     20  O   LIG d   1       3.543  -5.710  -6.042  0.00  0.00    -0.270 OA
ATOM     21  H   LIG d   1       5.908  -4.547  -7.651  0.00  0.00     0.149 HD
BRANCH  19  22
ATOM     22  C   LIG d   1       5.777  -6.314  -5.738  0.00  0.00     0.037 A 
ATOM     23  C   LIG d   1       7.033  -5.730  -5.550  0.00  0.00    -0.046 A 
ATOM     24  C   LIG d   1       8.038  -6.443  -4.937  0.00  0.00    -0.019 A 
ATOM     25  H   LIG d   1       7.213  -4.718  -5.883  0.00  0.00     0.063 H 
ATOM     26  C   LIG d   1       7.808  -7.748  -4.514  0.00  0.00     0.120 A 
ATOM     27  H   LIG d   1       9.007  -5.990  -4.787  0.00  0.00     0.065 H 
ATOM     28  C   LIG d   1       6.562  -8.335  -4.704  0.00  0.00    -0.019 A 
ATOM     29  C   LIG d   1       5.550  -7.626  -5.312  0.00  0.00    -0.046 A 
ATOM     30  H   LIG d   1       6.388  -9.348  -4.375  0.00  0.00     0.065 H 
ATOM     31  H   LIG d   1       4.583  -8.082  -5.458  0.00  0.00     0.063 H 
BRANCH  26  32
ATOM     32  O   LIG d   1       8.802  -8.450  -3.914  0.00  0.00    -0.495 OA
BRANCH  32  33
ATOM     33  C   LIG d   1      10.036  -7.764  -3.689  0.00  0.00     0.079 C 
ATOM     34  H   LIG d   1      10.815  -8.486  -3.450  0.00  0.00     0.066 H 
ATOM     35  H   LIG d   1      10.314  -7.212  -4.586  0.00  0.00     0.066 H 
ATOM     36  H   LIG d   1       9.917  -7.068  -2.858  0.00  0.00     0.066 H 
ENDBRANCH  32  33
ENDBRANCH  26  32
ENDBRANCH  19  22
ENDBRANCH  15  18
ENDBRANCH   7  15
BRANCH   3  37
ATOM     37  C   LIG d   1       2.922   2.349  -8.312  0.00  0.00    -0.036 C 
ATOM     38  H   LIG d   1       2.232   2.955  -8.899  0.00  0.00     0.028 H 
ATOM     39  H   LIG d   1       2.680   2.446  -7.253  0.00  0.00     0.028 H 
ATOM     40  H   LIG d   1       3.942   2.692  -8.484  0.00  0.00     0.028 H 
ENDBRANCH   3  37
BRANCH   1  41
ATOM     41  C   LIG d   1       1.084  -1.114 -11.420  0.00  0.00    -0.040 C 
ATOM     42  H   LIG d   1       0.030  -1.109 -11.144  0.00  0.00     0.028 H 
ATOM     43  H   LIG d   1       1.257  -0.381 -12.208  0.00  0.00     0.028 H 
ATOM     44  H   LIG d   1       1.362  -2.105 -11.778  0.00  0.00     0.028 H 
ENDBRANCH   1  41
TORSDOF 7
ENDMDL
MODEL 7
REMARK VINA RESULT:      -5.5      5.681      7.670
REMARK  7 active torsions:
REMARK  status: ('A' for Active; 'I' for Inactive)
REMARK    1  A    between atoms: C_1  and  C_2 
REMARK    2  A    between atoms: C_4  and  C_25 
REMARK    3  A    between atoms: C_8  and  C_13 
REMARK    4  A    between atoms: C_13  and  N_14 
REMARK       I    between atoms: N_14  and  C_15 
REMARK    5  A    between atoms: C_15  and  C_17 
REMARK    6  A    between atoms: C_20  and  O_23 
REMARK    7  A    between atoms: O_23  and  C_24 
ROOT
ATOM      1  C   LIG d   1       6.234   0.073  -7.852  0.00  0.00    -0.049 A 
ATOM      2  C   LIG d   1       4.909   0.070  -8.261  0.00  0.00    -0.052 A 
ATOM      3  C   LIG d   1       3.892  -0.144  -7.354  0.00  0.00    -0.007 A 
ATOM      4  C   LIG d   1       4.195  -0.360  -6.016  0.00  0.00     0.142 A 
ATOM      5  C   LIG d   1       5.539  -0.356  -5.604  0.00  0.00     0.023 A 
ATOM      6  C   LIG d   1       6.555  -0.143  -6.540  0.00  0.00    -0.048 A 
ATOM      7  C   LIG d   1       5.850  -0.584  -4.190  0.00  0.00    -0.013 A 
ATOM      8  C   LIG d   1       4.819  -0.791  -3.332  0.00  0.00     0.028 A 
ATOM      9  C   LIG d   1       3.492  -0.780  -3.814  0.00  0.00     0.338 A 
ATOM     10  O   LIG d   1       2.576  -0.966  -3.035  0.00  0.00    -0.245 OA
ATOM     11  O   LIG d   1       3.215  -0.570  -5.111  0.00  0.00    -0.422 OA
ATOM     12  H   LIG d   1       4.670   0.238  -9.301  0.00  0.00     0.062 H 
ATOM     13  H   LIG d   1       7.589  -0.144  -6.229  0.00  0.00     0.063 H 
ATOM     14  H   LIG d   1       5.013  -0.962  -2.284  0.00  0.00     0.069 H 
ENDROOT
BRANCH   7  15
ATOM     15  C   LIG d   1       7.276  -0.591  -3.702  0.00  0.00     0.038 C 
ATOM     16  H   LIG d   1       7.937  -0.273  -4.508  0.00  0.00     0.051 H 
ATOM     17  H   LIG d   1       7.375   0.095  -2.860  0.00  0.00     0.051 H 
BRANCH  15  18
ATOM     18  N   LIG d   1       7.640  -1.944  -3.275  0.00  0.00    -0.307 N 
ATOM     19  C   LIG d   1       8.531  -2.659  -3.991  0.00  0.00     0.244 C 
ATOM     20  O   LIG d   1       9.032  -2.181  -4.989  0.00  0.00    -0.270 OA
ATOM     21  H   LIG d   1       7.240  -2.325  -2.478  0.00  0.00     0.149 HD
BRANCH  19  22
ATOM     22  C   LIG d   1       8.898  -4.023  -3.561  0.00  0.00     0.037 A 
ATOM     23  C   LIG d   1       9.518  -4.225  -2.325  0.00  0.00    -0.046 A 
ATOM     24  C   LIG d   1       9.854  -5.498  -1.925  0.00  0.00    -0.019 A 
ATOM     25  H   LIG d   1       9.732  -3.382  -1.684  0.00  0.00     0.063 H 
ATOM     26  C   LIG d   1       9.585  -6.582  -2.753  0.00  0.00     0.120 A 
ATOM     27  H   LIG d   1      10.330  -5.655  -0.968  0.00  0.00     0.065 H 
ATOM     28  C   LIG d   1       8.972  -6.385  -3.985  0.00  0.00    -0.019 A 
ATOM     29  C   LIG d   1       8.629  -5.115  -4.390  0.00  0.00    -0.046 A 
ATOM     30  H   LIG d   1       8.766  -7.230  -4.625  0.00  0.00     0.065 H 
ATOM     31  H   LIG d   1       8.152  -4.963  -5.347  0.00  0.00     0.063 H 
BRANCH  26  32
ATOM     32  O   LIG d   1       9.922  -7.836  -2.357  0.00  0.00    -0.495 OA
BRANCH  32  33
ATOM     33  C   LIG d   1      10.653  -7.955  -1.135  0.00  0.00     0.079 C 
ATOM     34  H   LIG d   1      11.040  -6.979  -0.846  0.00  0.00     0.066 H 
ATOM     35  H   LIG d   1       9.995  -8.332  -0.352  0.00  0.00     0.066 H 
ATOM     36  H   LIG d   1      11.483  -8.649  -1.275  0.00  0.00     0.066 H 
ENDBRANCH  32  33
ENDBRANCH  26  32
ENDBRANCH  19  22
ENDBRANCH  15  18
ENDBRANCH   7  15
BRANCH   3  37
ATOM     37  C   LIG d   1       2.457  -0.143  -7.813  0.00  0.00    -0.036 C 
ATOM     38  H   LIG d   1       1.900   0.617  -7.266  0.00  0.00     0.028 H 
ATOM     39  H   LIG d   1       2.417   0.076  -8.881  0.00  0.00     0.028 H 
ATOM     40  H   LIG d   1       2.015  -1.122  -7.627  0.00  0.00     0.028 H 
ENDBRANCH   3  37
BRANCH   1  41
ATOM     41  C   LIG d   1       7.328   0.308  -8.861  0.00  0.00    -0.040 C 
ATOM     42  H   LIG d   1       7.158   1.257  -9.367  0.00  0.00     0.028 H 
ATOM     43  H   LIG d   1       8.292   0.335  -8.353  0.00  0.00     0.028 H 
ATOM     44  H   LIG d   1       7.326  -0.500  -9.593  0.00  0.00     0.028 H 
ENDBRANCH   1  41
TORSDOF 7
ENDMDL
MODEL 8
REMARK VINA RESULT:      -5.4     12.089     14.554
REMARK  7 active torsions:
REMARK  status: ('A' for Active; 'I' for Inactive)
REMARK    1  A    between atoms: C_1  and  C_2 
REMARK    2  A    between atoms: C_4  and  C_25 
REMARK    3  A    between atoms: C_8  and  C_13 
REMARK    4  A    between atoms: C_13  and  N_14 
REMARK       I    between atoms: N_14  and  C_15 
REMARK    5  A    between atoms: C_15  and  C_17 
REMARK    6  A    between atoms: C_20  and  O_23 
REMARK    7  A    between atoms: O_23  and  C_24 
ROOT
ATOM      1  C   LIG d   1       8.043  -8.481  -5.484  0.00  0.00    -0.049 A 
ATOM      2  C   LIG d   1       7.095  -7.544  -5.867  0.00  0.00    -0.052 A 
ATOM      3  C   LIG d   1       5.779  -7.672  -5.471  0.00  0.00    -0.007 A 
ATOM      4  C   LIG d   1       5.398  -8.748  -4.681  0.00  0.00     0.142 A 
ATOM      5  C   LIG d   1       6.361  -9.696  -4.295  0.00  0.00     0.023 A 
ATOM      6  C   LIG d   1       7.688  -9.552  -4.712  0.00  0.00    -0.048 A 
ATOM      7  C   LIG d   1       5.951 -10.829  -3.461  0.00  0.00    -0.013 A 
ATOM      8  C   LIG d   1       4.646 -10.915  -3.095  0.00  0.00     0.028 A 
ATOM      9  C   LIG d   1       3.732  -9.927  -3.518  0.00  0.00     0.338 A 
ATOM     10  O   LIG d   1       2.565 -10.015  -3.183  0.00  0.00    -0.245 OA
ATOM     11  O   LIG d   1       4.116  -8.892  -4.282  0.00  0.00    -0.422 OA
ATOM     12  H   LIG d   1       7.389  -6.705  -6.481  0.00  0.00     0.062 H 
ATOM     13  H   LIG d   1       8.431 -10.280  -4.420  0.00  0.00     0.063 H 
ATOM     14  H   LIG d   1       4.309 -11.738  -2.481  0.00  0.00     0.069 H 
ENDROOT
BRANCH   7  15
ATOM     15  C   LIG d   1       6.947 -11.871  -3.024  0.00  0.00     0.038 C 
ATOM     16  H   LIG d   1       6.430 -12.809  -2.826  0.00  0.00     0.051 H 
ATOM     17  H   LIG d   1       7.685 -12.022  -3.813  0.00  0.00     0.051 H 
BRANCH  15  18
ATOM     18  N   LIG d   1       7.623 -11.420  -1.804  0.00  0.00    -0.307 N 
ATOM     19  C   LIG d   1       8.964 -11.504  -1.708  0.00  0.00     0.244 C 
ATOM     20  O   LIG d   1       9.614 -11.952  -2.631  0.00  0.00    -0.270 OA
ATOM     21  H   LIG d   1       7.104 -11.062  -1.067  0.00  0.00     0.149 HD
BRANCH  19  22
ATOM     22  C   LIG d   1       9.645 -11.050  -0.478  0.00  0.00     0.037 A 
ATOM     23  C   LIG d   1       9.971  -9.701  -0.315  0.00  0.00    -0.046 A 
ATOM     24  C   LIG d   1      10.600  -9.280   0.834  0.00  0.00    -0.019 A 
ATOM     25  H   LIG d   1       9.726  -8.988  -1.090  0.00  0.00     0.063 H 
ATOM     26  C   LIG d   1      10.921 -10.198   1.829  0.00  0.00     0.120 A 
ATOM     27  H   LIG d   1      10.849  -8.237   0.962  0.00  0.00     0.065 H 
ATOM     28  C   LIG d   1      10.603 -11.542   1.668  0.00  0.00    -0.019 A 
ATOM     29  C   LIG d   1       9.968 -11.969   0.523  0.00  0.00    -0.046 A 
ATOM     30  H   LIG d   1      10.854 -12.251   2.442  0.00  0.00     0.065 H 
ATOM     31  H   LIG d   1       9.721 -13.013   0.400  0.00  0.00     0.063 H 
BRANCH  26  32
ATOM     32  O   LIG d   1      11.546  -9.781   2.958  0.00  0.00    -0.495 OA
BRANCH  32  33
ATOM     33  C   LIG d   1      11.423  -8.397   3.294  0.00  0.00     0.079 C 
ATOM     34  H   LIG d   1      11.157  -8.300   4.346  0.00  0.00     0.066 H 
ATOM     35  H   LIG d   1      12.372  -7.893   3.111  0.00  0.00     0.066 H 
ATOM     36  H   LIG d   1      10.647  -7.942   2.678  0.00  0.00     0.066 H 
ENDBRANCH  32  33
ENDBRANCH  26  32
ENDBRANCH  19  22
ENDBRANCH  15  18
ENDBRANCH   7  15
BRANCH   3  37
ATOM     37  C   LIG d   1       4.760  -6.645  -5.894  0.00  0.00    -0.036 C 
ATOM     38  H   LIG d   1       5.155  -5.645  -5.714  0.00  0.00     0.028 H 
ATOM     39  H   LIG d   1       4.543  -6.764  -6.955  0.00  0.00     0.028 H 
ATOM     40  H   LIG d   1       3.845  -6.783  -5.318  0.00  0.00     0.028 H 
ENDBRANCH   3  37
BRANCH   1  41
ATOM     41  C   LIG d   1       9.474  -8.322  -5.930  0.00  0.00    -0.040 C 
ATOM     42  H   LIG d   1       9.965  -9.294  -5.932  0.00  0.00     0.028 H 
ATOM     43  H   LIG d   1       9.497  -7.900  -6.935  0.00  0.00     0.028 H 
ATOM     44  H   LIG d   1       9.995  -7.653  -5.244  0.00  0.00     0.028 H 
ENDBRANCH   1  41
TORSDOF 7
ENDMDL
MODEL 9
REMARK VINA RESULT:      -5.3      4.130      8.334
REMARK  7 active torsions:
REMARK  status: ('A' for Active; 'I' for Inactive)
REMARK    1  A    between atoms: C_1  and  C_2 
REMARK    2  A    between atoms: C_4  and  C_25 
REMARK    3  A    between atoms: C_8  and  C_13 
REMARK    4  A    between atoms: C_13  and  N_14 
REMARK       I    between atoms: N_14  and  C_15 
REMARK    5  A    between atoms: C_15  and  C_17 
REMARK    6  A    between atoms: C_20  and  O_23 
REMARK    7  A    between atoms: O_23  and  C_24 
ROOT
ATOM      1  C   LIG d   1       9.663   3.602  -6.159  0.00  0.00    -0.049 A 
ATOM      2  C   LIG d   1       9.712   4.031  -7.477  0.00  0.00    -0.052 A 
ATOM      3  C   LIG d   1       9.740   5.377  -7.779  0.00  0.00    -0.007 A 
ATOM      4  C   LIG d   1       9.719   6.315  -6.754  0.00  0.00     0.142 A 
ATOM      5  C   LIG d   1       9.669   5.876  -5.420  0.00  0.00     0.023 A 
ATOM      6  C   LIG d   1       9.636   4.508  -5.135  0.00  0.00    -0.048 A 
ATOM      7  C   LIG d   1       9.648   6.872  -4.344  0.00  0.00    -0.013 A 
ATOM      8  C   LIG d   1       9.677   8.185  -4.687  0.00  0.00     0.028 A 
ATOM      9  C   LIG d   1       9.727   8.555  -6.048  0.00  0.00     0.338 A 
ATOM     10  O   LIG d   1       9.752   9.736  -6.342  0.00  0.00    -0.245 OA
ATOM     11  O   LIG d   1       9.746   7.637  -7.027  0.00  0.00    -0.422 OA
ATOM     12  H   LIG d   1       9.729   3.305  -8.276  0.00  0.00     0.062 H 
ATOM     13  H   LIG d   1       9.594   4.167  -4.111  0.00  0.00     0.063 H 
ATOM     14  H   LIG d   1       9.661   8.945  -3.919  0.00  0.00     0.069 H 
ENDROOT
BRANCH   7  15
ATOM     15  C   LIG d   1       9.594   6.450  -2.899  0.00  0.00     0.038 C 
ATOM     16  H   LIG d   1       8.555   6.327  -2.595  0.00  0.00     0.051 H 
ATOM     17  H   LIG d   1      10.122   5.504  -2.776  0.00  0.00     0.051 H 
BRANCH  15  18
ATOM     18  N   LIG d   1      10.228   7.475  -2.066  0.00  0.00    -0.307 N 
ATOM     19  C   LIG d   1       9.530   8.065  -1.076  0.00  0.00     0.244 C 
ATOM     20  O   LIG d   1       8.375   7.747  -0.873  0.00  0.00    -0.270 OA
ATOM     21  H   LIG d   1      11.151   7.728  -2.227  0.00  0.00     0.149 HD
BRANCH  19  22
ATOM     22  C   LIG d   1      10.170   9.098  -0.237  0.00  0.00     0.037 A 
ATOM     23  C   LIG d   1      11.186   8.745   0.656  0.00  0.00    -0.046 A 
ATOM     24  C   LIG d   1      11.784   9.712   1.433  0.00  0.00    -0.019 A 
ATOM     25  H   LIG d   1      11.504   7.716   0.733  0.00  0.00     0.063 H 
ATOM     26  C   LIG d   1      11.371  11.036   1.337  0.00  0.00     0.120 A 
ATOM     27  H   LIG d   1      12.572   9.440   2.119  0.00  0.00     0.065 H 
ATOM     28  C   LIG d   1      10.357  11.390   0.455  0.00  0.00    -0.019 A 
ATOM     29  C   LIG d   1       9.757  10.430  -0.330  0.00  0.00    -0.046 A 
ATOM     30  H   LIG d   1      10.039  12.419   0.384  0.00  0.00     0.065 H 
ATOM     31  H   LIG d   1       8.971  10.706  -1.016  0.00  0.00     0.063 H 
BRANCH  26  32
ATOM     32  O   LIG d   1      11.959  11.985   2.108  0.00  0.00    -0.495 OA
BRANCH  32  33
ATOM     33  C   LIG d   1      12.227  13.246   1.491  0.00  0.00     0.079 C 
ATOM     34  H   LIG d   1      13.005  13.125   0.739  0.00  0.00     0.066 H 
ATOM     35  H   LIG d   1      11.319  13.620   1.018  0.00  0.00     0.066 H 
ATOM     36  H   LIG d   1      12.560  13.957   2.248  0.00  0.00     0.066 H 
ENDBRANCH  32  33
ENDBRANCH  26  32
ENDBRANCH  19  22
ENDBRANCH  15  18
ENDBRANCH   7  15
BRANCH   3  37
ATOM     37  C   LIG d   1       9.794   5.828  -9.216  0.00  0.00    -0.036 C 
ATOM     38  H   LIG d   1      10.651   6.486  -9.358  0.00  0.00     0.028 H 
ATOM     39  H   LIG d   1       9.890   4.959  -9.866  0.00  0.00     0.028 H 
ATOM     40  H   LIG d   1       8.878   6.367  -9.462  0.00  0.00     0.028 H 
ENDBRANCH   3  37
BRANCH   1  41
ATOM     41  C   LIG d   1       9.632   2.126  -5.854  0.00  0.00    -0.040 C 
ATOM     42  H   LIG d   1       9.206   1.969  -4.864  0.00  0.00     0.028 H 
ATOM     43  H   LIG d   1       9.023   1.614  -6.598  0.00  0.00     0.028 H 
ATOM     44  H   LIG d   1      10.648   1.730  -5.879  0.00  0.00     0.028 H 
ENDBRANCH   1  41
TORSDOF 7
ENDMDL
MODEL 10
REMARK VINA RESULT:      -5.3      6.581     10.299
REMARK  7 active torsions:
REMARK  status: ('A' for Active; 'I' for Inactive)
REMARK    1  A    between atoms: C_1  and  C_2 
REMARK    2  A    between atoms: C_4  and  C_25 
REMARK    3  A    between atoms: C_8  and  C_13 
REMARK    4  A    between atoms: C_13  and  N_14 
REMARK       I    between atoms: N_14  and  C_15 
REMARK    5  A    between atoms: C_15  and  C_17 
REMARK    6  A    between atoms: C_20  and  O_23 
REMARK    7  A    between atoms: O_23  and  C_24 
ROOT
ATOM      1  C   LIG d   1       2.730  -0.560  -8.984  0.00  0.00    -0.049 A 
ATOM      2  C   LIG d   1       1.862  -0.399 -10.055  0.00  0.00    -0.052 A 
ATOM      3  C   LIG d   1       1.472  -1.483 -10.813  0.00  0.00    -0.007 A 
ATOM      4  C   LIG d   1       1.951  -2.750 -10.505  0.00  0.00     0.142 A 
ATOM      5  C   LIG d   1       2.829  -2.909  -9.419  0.00  0.00     0.023 A 
ATOM      6  C   LIG d   1       3.218  -1.797  -8.666  0.00  0.00    -0.048 A 
ATOM      7  C   LIG d   1       3.330  -4.250  -9.099  0.00  0.00    -0.013 A 
ATOM      8  C   LIG d   1       2.919  -5.287  -9.873  0.00  0.00     0.028 A 
ATOM      9  C   LIG d   1       2.034  -5.055 -10.947  0.00  0.00     0.338 A 
ATOM     10  O   LIG d   1       1.674  -5.994 -11.633  0.00  0.00    -0.245 OA
ATOM     11  O   LIG d   1       1.581  -3.825 -11.233  0.00  0.00    -0.422 OA
ATOM     12  H   LIG d   1       1.488   0.584 -10.297  0.00  0.00     0.062 H 
ATOM     13  H   LIG d   1       3.896  -1.915  -7.834  0.00  0.00     0.063 H 
ATOM     14  H   LIG d   1       3.270  -6.288  -9.665  0.00  0.00     0.069 H 
ENDROOT
BRANCH   7  15
ATOM     15  C   LIG d   1       4.275  -4.469  -7.947  0.00  0.00     0.038 C 
ATOM     16  H   LIG d   1       4.126  -5.470  -7.541  0.00  0.00     0.051 H 
ATOM     17  H   LIG d   1       5.303  -4.368  -8.296  0.00  0.00     0.051 H 
BRANCH  15  18
ATOM     18  N   LIG d   1       4.013  -3.475  -6.903  0.00  0.00    -0.307 N 
ATOM     19  C   LIG d   1       4.711  -3.508  -5.751  0.00  0.00     0.244 C 
ATOM     20  O   LIG d   1       5.558  -4.361  -5.578  0.00  0.00    -0.270 OA
ATOM     21  H   LIG d   1       3.336  -2.794  -7.042  0.00  0.00     0.149 HD
BRANCH  19  22
ATOM     22  C   LIG d   1       4.447  -2.506  -4.700  0.00  0.00     0.037 A 
ATOM     23  C   LIG d   1       4.330  -1.154  -5.034  0.00  0.00    -0.046 A 
ATOM     24  C   LIG d   1       4.078  -0.223  -4.051  0.00  0.00    -0.019 A 
ATOM     25  H   LIG d   1       4.435  -0.840  -6.062  0.00  0.00     0.063 H 
ATOM     26  C   LIG d   1       3.949  -0.625  -2.727  0.00  0.00     0.120 A 
ATOM     27  H   LIG d   1       3.984   0.821  -4.310  0.00  0.00     0.065 H 
ATOM     28  C   LIG d   1       4.069  -1.969  -2.390  0.00  0.00    -0.019 A 
ATOM     29  C   LIG d   1       4.316  -2.907  -3.367  0.00  0.00    -0.046 A 
ATOM     30  H   LIG d   1       3.969  -2.277  -1.360  0.00  0.00     0.065 H 
ATOM     31  H   LIG d   1       4.408  -3.950  -3.105  0.00  0.00     0.063 H 
BRANCH  26  32
ATOM     32  O   LIG d   1       3.705   0.295  -1.760  0.00  0.00    -0.495 OA
BRANCH  32  33
ATOM     33  C   LIG d   1       4.389   1.545  -1.869  0.00  0.00     0.079 C 
ATOM     34  H   LIG d   1       3.744   2.346  -1.509  0.00  0.00     0.066 H 
ATOM     35  H   LIG d   1       5.299   1.515  -1.270  0.00  0.00     0.066 H 
ATOM     36  H   LIG d   1       4.648   1.728  -2.912  0.00  0.00     0.066 H 
ENDBRANCH  32  33
ENDBRANCH  26  32
ENDBRANCH  19  22
ENDBRANCH  15  18
ENDBRANCH   7  15
BRANCH   3  37
ATOM     37  C   LIG d   1       0.528  -1.294 -11.972  0.00  0.00    -0.036 C 
ATOM     38  H   LIG d   1      -0.433  -1.751 -11.737  0.00  0.00     0.028 H 
ATOM     39  H   LIG d   1       0.388  -0.228 -12.156  0.00  0.00     0.028 H 
ATOM     40  H   LIG d   1       0.946  -1.764 -12.862  0.00  0.00     0.028 H 
ENDBRANCH   3  37
BRANCH   1  41
ATOM     41  C   LIG d   1       3.144   0.639  -8.170  0.00  0.00    -0.040 C 
ATOM     42  H   LIG d   1       4.131   0.972  -8.489  0.00  0.00     0.028 H 
ATOM     43  H   LIG d   1       2.424   1.444  -8.317  0.00  0.00     0.028 H 
ATOM     44  H   LIG d   1       3.174   0.368  -7.115  0.00  0.00     0.028 H 
ENDBRANCH   1  41
TORSDOF 7
ENDMDL
