MODEL 1
REMARK VINA RESULT:      -4.7      0.000      0.000
REMARK  1 active torsions:
REMARK  status: ('A' for Active; 'I' for Inactive)
REMARK    1  A    between atoms: C_6  and  C_7 
REMARK       I    between atoms: C_7  and  N_9 
ROOT
ATOM      1  C   LIG d   1       3.279  -1.236  -3.504  0.00  0.00    -0.032 A 
ATOM      2  C   LIG d   1       3.868  -1.720  -2.352  0.00  0.00     0.028 A 
ATOM      3  N   LIG d   1       4.478  -0.908  -1.511  0.00  0.00    -0.263 NA
ATOM      4  C   LIG d   1       4.551   0.390  -1.721  0.00  0.00     0.028 A 
ATOM      5  C   LIG d   1       3.984   0.960  -2.845  0.00  0.00    -0.032 A 
ATOM      6  C   LIG d   1       3.327   0.136  -3.764  0.00  0.00     0.039 A 
ATOM      7  H   LIG d   1       2.785  -1.908  -4.191  0.00  0.00     0.064 H 
ATOM      8  H   LIG d   1       3.834  -2.779  -2.140  0.00  0.00     0.083 H 
ATOM      9  H   LIG d   1       5.061   1.018  -1.006  0.00  0.00     0.083 H 
ATOM     10  H   LIG d   1       4.048   2.025  -3.011  0.00  0.00     0.064 H 
ENDROOT
BRANCH   6  11
ATOM     11  C   LIG d   1       2.705   0.702  -4.984  0.00  0.00     0.242 C 
ATOM     12  O   LIG d   1       2.429   1.884  -5.033  0.00  0.00    -0.270 OA
ATOM     13  N   LIG d   1       2.444  -0.096  -6.039  0.00  0.00    -0.325 N 
ATOM     14  H   LIG d   1       2.664  -1.039  -6.000  0.00  0.00     0.145 HD
ATOM     15  H   LIG d   1       2.036   0.276  -6.837  0.00  0.00     0.145 HD
ENDBRANCH   6  11
TORSDOF 1
ENDMDL
MODEL 2
REMARK VINA RESULT:      -4.5      2.787      3.212
REMARK  1 active torsions:
REMARK  status: ('A' for Active; 'I' for Inactive)
REMARK    1  A    between atoms: C_6  and  C_7 
REMARK       I    between atoms: C_7  and  N_9 
ROOT
ATOM      1  C   LIG d   1       5.880  -0.555  -3.620  0.00  0.00    -0.032 A 
ATOM      2  C   LIG d   1       6.379   0.720  -3.441  0.00  0.00     0.028 A 
ATOM      3  N   LIG d   1       5.696   1.627  -2.770  0.00  0.00    -0.263 NA
ATOM      4  C   LIG d   1       4.519   1.364  -2.239  0.00  0.00     0.028 A 
ATOM      5  C   LIG d   1       3.947   0.112  -2.366  0.00  0.00    -0.032 A 
ATOM      6  C   LIG d   1       4.637  -0.880  -3.069  0.00  0.00     0.039 A 
ATOM      7  H   LIG d   1       6.444  -1.291  -4.174  0.00  0.00     0.064 H 
ATOM      8  H   LIG d   1       7.341   0.980  -3.859  0.00  0.00     0.083 H 
ATOM      9  H   LIG d   1       3.994   2.137  -1.699  0.00  0.00     0.083 H 
ATOM     10  H   LIG d   1       2.982  -0.096  -1.929  0.00  0.00     0.064 H 
ENDROOT
BRANCH   6  11
ATOM     11  C   LIG d   1       4.064  -2.237  -3.231  0.00  0.00     0.242 C 
ATOM     12  O   LIG d   1       3.583  -2.811  -2.275  0.00  0.00    -0.270 OA
ATOM     13  N   LIG d   1       4.077  -2.833  -4.440  0.00  0.00    -0.325 N 
ATOM     14  H   LIG d   1       4.462  -2.375  -5.203  0.00  0.00     0.145 HD
ATOM     15  H   LIG d   1       3.702  -3.722  -4.545  0.00  0.00     0.145 HD
ENDBRANCH   6  11
TORSDOF 1
ENDMDL
MODEL 3
REMARK VINA RESULT:      -4.3      2.453      2.977
REMARK  1 active torsions:
REMARK  status: ('A' for Active; 'I' for Inactive)
REMARK    1  A    between atoms: C_6  and  C_7 
REMARK       I    between atoms: C_7  and  N_9 
ROOT
ATOM      1  C   LIG d   1       4.534  -0.513  -4.389  0.00  0.00    -0.032 A 
ATOM      2  C   LIG d   1       4.510  -1.817  -4.844  0.00  0.00     0.028 A 
ATOM      3  N   LIG d   1       4.272  -2.818  -4.020  0.00  0.00    -0.263 NA
ATOM      4  C   LIG d   1       4.043  -2.628  -2.736  0.00  0.00     0.028 A 
ATOM      5  C   LIG d   1       4.042  -1.355  -2.197  0.00  0.00    -0.032 A 
ATOM      6  C   LIG d   1       4.290  -0.264  -3.035  0.00  0.00     0.039 A 
ATOM      7  H   LIG d   1       4.733   0.302  -5.069  0.00  0.00     0.064 H 
ATOM      8  H   LIG d   1       4.693  -2.019  -5.889  0.00  0.00     0.083 H 
ATOM      9  H   LIG d   1       3.854  -3.478  -2.097  0.00  0.00     0.083 H 
ATOM     10  H   LIG d   1       3.855  -1.207  -1.144  0.00  0.00     0.064 H 
ENDROOT
BRANCH   6  11
ATOM     11  C   LIG d   1       4.300   1.118  -2.501  0.00  0.00     0.242 C 
ATOM     12  O   LIG d   1       4.771   1.342  -1.403  0.00  0.00    -0.270 OA
ATOM     13  N   LIG d   1       3.787   2.127  -3.233  0.00  0.00    -0.325 N 
ATOM     14  H   LIG d   1       3.412   1.948  -4.110  0.00  0.00     0.145 HD
ATOM     15  H   LIG d   1       3.794   3.032  -2.883  0.00  0.00     0.145 HD
ENDBRANCH   6  11
TORSDOF 1
ENDMDL
MODEL 4
REMARK VINA RESULT:      -4.2      2.779      3.431
REMARK  1 active torsions:
REMARK  status: ('A' for Active; 'I' for Inactive)
REMARK    1  A    between atoms: C_6  and  C_7 
REMARK       I    between atoms: C_7  and  N_9 
ROOT
ATOM      1  C   LIG d   1       5.787  -1.754  -4.248  0.00  0.00    -0.032 A 
ATOM      2  C   LIG d   1       4.949  -2.850  -4.172  0.00  0.00     0.028 A 
ATOM      3  N   LIG d   1       4.035  -2.939  -3.226  0.00  0.00    -0.263 NA
ATOM      4  C   LIG d   1       3.872  -1.997  -2.319  0.00  0.00     0.028 A 
ATOM      5  C   LIG d   1       4.663  -0.864  -2.324  0.00  0.00    -0.032 A 
ATOM      6  C   LIG d   1       5.646  -0.727  -3.309  0.00  0.00     0.039 A 
ATOM      7  H   LIG d   1       6.536  -1.689  -5.023  0.00  0.00     0.064 H 
ATOM      8  H   LIG d   1       5.048  -3.646  -4.895  0.00  0.00     0.083 H 
ATOM      9  H   LIG d   1       3.111  -2.113  -1.562  0.00  0.00     0.083 H 
ATOM     10  H   LIG d   1       4.525  -0.096  -1.577  0.00  0.00     0.064 H 
ENDROOT
BRANCH   6  11
ATOM     11  C   LIG d   1       6.518   0.470  -3.354  0.00  0.00     0.242 C 
ATOM     12  O   LIG d   1       6.060   1.565  -3.093  0.00  0.00    -0.270 OA
ATOM     13  N   LIG d   1       7.818   0.344  -3.684  0.00  0.00    -0.325 N 
ATOM     14  H   LIG d   1       8.184  -0.530  -3.892  0.00  0.00     0.145 HD
ATOM     15  H   LIG d   1       8.389   1.128  -3.713  0.00  0.00     0.145 HD
ENDBRANCH   6  11
TORSDOF 1
ENDMDL
MODEL 5
REMARK VINA RESULT:      -4.1      2.940      3.496
REMARK  1 active torsions:
REMARK  status: ('A' for Active; 'I' for Inactive)
REMARK    1  A    between atoms: C_6  and  C_7 
REMARK       I    between atoms: C_7  and  N_9 
ROOT
ATOM      1  C   LIG d   1       6.102  -1.000  -3.237  0.00  0.00    -0.032 A 
ATOM      2  C   LIG d   1       5.025  -1.527  -2.551  0.00  0.00     0.028 A 
ATOM      3  N   LIG d   1       4.181  -0.742  -1.909  0.00  0.00    -0.263 NA
ATOM      4  C   LIG d   1       4.318   0.568  -1.894  0.00  0.00     0.028 A 
ATOM      5  C   LIG d   1       5.364   1.180  -2.559  0.00  0.00    -0.032 A 
ATOM      6  C   LIG d   1       6.282   0.387  -3.253  0.00  0.00     0.039 A 
ATOM      7  H   LIG d   1       6.790  -1.648  -3.758  0.00  0.00     0.064 H 
ATOM      8  H   LIG d   1       4.874  -2.596  -2.536  0.00  0.00     0.083 H 
ATOM      9  H   LIG d   1       3.604   1.172  -1.354  0.00  0.00     0.083 H 
ATOM     10  H   LIG d   1       5.470   2.255  -2.541  0.00  0.00     0.064 H 
ENDROOT
BRANCH   6  11
ATOM     11  C   LIG d   1       7.419   0.998  -3.979  0.00  0.00     0.242 C 
ATOM     12  O   LIG d   1       7.311   2.113  -4.450  0.00  0.00    -0.270 OA
ATOM     13  N   LIG d   1       8.574   0.316  -4.119  0.00  0.00    -0.325 N 
ATOM     14  H   LIG d   1       8.660  -0.574  -3.744  0.00  0.00     0.145 HD
ATOM     15  H   LIG d   1       9.318   0.717  -4.596  0.00  0.00     0.145 HD
ENDBRANCH   6  11
TORSDOF 1
ENDMDL
MODEL 6
REMARK VINA RESULT:      -4.1      2.758      3.529
REMARK  1 active torsions:
REMARK  status: ('A' for Active; 'I' for Inactive)
REMARK    1  A    between atoms: C_6  and  C_7 
REMARK       I    between atoms: C_7  and  N_9 
ROOT
ATOM      1  C   LIG d   1       3.837  -1.424  -3.181  0.00  0.00    -0.032 A 
ATOM      2  C   LIG d   1       2.880  -0.520  -2.762  0.00  0.00     0.028 A 
ATOM      3  N   LIG d   1       3.225   0.659  -2.283  0.00  0.00    -0.263 NA
ATOM      4  C   LIG d   1       4.485   1.032  -2.185  0.00  0.00     0.028 A 
ATOM      5  C   LIG d   1       5.507   0.193  -2.586  0.00  0.00    -0.032 A 
ATOM      6  C   LIG d   1       5.187  -1.067  -3.101  0.00  0.00     0.039 A 
ATOM      7  H   LIG d   1       3.547  -2.389  -3.569  0.00  0.00     0.064 H 
ATOM      8  H   LIG d   1       1.834  -0.784  -2.824  0.00  0.00     0.083 H 
ATOM      9  H   LIG d   1       4.722   2.007  -1.786  0.00  0.00     0.083 H 
ATOM     10  H   LIG d   1       6.537   0.505  -2.502  0.00  0.00     0.064 H 
ENDROOT
BRANCH   6  11
ATOM     11  C   LIG d   1       6.248  -2.001  -3.542  0.00  0.00     0.242 C 
ATOM     12  O   LIG d   1       5.957  -2.991  -4.185  0.00  0.00    -0.270 OA
ATOM     13  N   LIG d   1       7.536  -1.755  -3.230  0.00  0.00    -0.325 N 
ATOM     14  H   LIG d   1       7.768  -0.965  -2.717  0.00  0.00     0.145 HD
ATOM     15  H   LIG d   1       8.230  -2.367  -3.519  0.00  0.00     0.145 HD
ENDBRANCH   6  11
TORSDOF 1
ENDMDL
MODEL 7
REMARK VINA RESULT:      -3.6     10.426     11.205
REMARK  1 active torsions:
REMARK  status: ('A' for Active; 'I' for Inactive)
REMARK    1  A    between atoms: C_6  and  C_7 
REMARK       I    between atoms: C_7  and  N_9 
ROOT
ATOM      1  C   LIG d   1       5.945 -11.577  -3.874  0.00  0.00    -0.032 A 
ATOM      2  C   LIG d   1       7.158 -12.080  -3.444  0.00  0.00     0.028 A 
ATOM      3  N   LIG d   1       7.620 -11.797  -2.242  0.00  0.00    -0.263 NA
ATOM      4  C   LIG d   1       6.956 -11.033  -1.399  0.00  0.00     0.028 A 
ATOM      5  C   LIG d   1       5.731 -10.493  -1.745  0.00  0.00    -0.032 A 
ATOM      6  C   LIG d   1       5.203 -10.767  -3.010  0.00  0.00     0.039 A 
ATOM      7  H   LIG d   1       5.575 -11.810  -4.861  0.00  0.00     0.064 H 
ATOM      8  H   LIG d   1       7.738 -12.710  -4.103  0.00  0.00     0.083 H 
ATOM      9  H   LIG d   1       7.373 -10.827  -0.425  0.00  0.00     0.083 H 
ATOM     10  H   LIG d   1       5.192  -9.867  -1.049  0.00  0.00     0.064 H 
ENDROOT
BRANCH   6  11
ATOM     11  C   LIG d   1       3.895 -10.209  -3.426  0.00  0.00     0.242 C 
ATOM     12  O   LIG d   1       3.853  -9.218  -4.128  0.00  0.00    -0.270 OA
ATOM     13  N   LIG d   1       2.752 -10.801  -3.024  0.00  0.00    -0.325 N 
ATOM     14  H   LIG d   1       2.786 -11.592  -2.464  0.00  0.00     0.145 HD
ATOM     15  H   LIG d   1       1.896 -10.434  -3.297  0.00  0.00     0.145 HD
ENDBRANCH   6  11
TORSDOF 1
ENDMDL
MODEL 8
REMARK VINA RESULT:      -3.6     13.232     14.551
REMARK  1 active torsions:
REMARK  status: ('A' for Active; 'I' for Inactive)
REMARK    1  A    between atoms: C_6  and  C_7 
REMARK       I    between atoms: C_7  and  N_9 
ROOT
ATOM      1  C   LIG d   1      11.654 -10.818   3.814  0.00  0.00    -0.032 A 
ATOM      2  C   LIG d   1      11.589 -12.184   3.618  0.00  0.00     0.028 A 
ATOM      3  N   LIG d   1      11.146 -12.684   2.481  0.00  0.00    -0.263 NA
ATOM      4  C   LIG d   1      10.752 -11.916   1.485  0.00  0.00     0.028 A 
ATOM      5  C   LIG d   1      10.790 -10.539   1.594  0.00  0.00    -0.032 A 
ATOM      6  C   LIG d   1      11.253  -9.965   2.782  0.00  0.00     0.039 A 
ATOM      7  H   LIG d   1      12.015 -10.416   4.749  0.00  0.00     0.064 H 
ATOM      8  H   LIG d   1      11.900 -12.852   4.408  0.00  0.00     0.083 H 
ATOM      9  H   LIG d   1      10.396 -12.369   0.572  0.00  0.00     0.083 H 
ATOM     10  H   LIG d   1      10.465  -9.916   0.774  0.00  0.00     0.064 H 
ENDROOT
BRANCH   6  11
ATOM     11  C   LIG d   1      11.310  -8.494   2.945  0.00  0.00     0.242 C 
ATOM     12  O   LIG d   1      11.555  -8.013   4.034  0.00  0.00    -0.270 OA
ATOM     13  N   LIG d   1      11.090  -7.690   1.886  0.00  0.00    -0.325 N 
ATOM     14  H   LIG d   1      10.895  -8.074   1.017  0.00  0.00     0.145 HD
ATOM     15  H   LIG d   1      11.127  -6.726   1.994  0.00  0.00     0.145 HD
ENDBRANCH   6  11
TORSDOF 1
ENDMDL
MODEL 9
REMARK VINA RESULT:      -3.6      2.197      2.655
REMARK  1 active torsions:
REMARK  status: ('A' for Active; 'I' for Inactive)
REMARK    1  A    between atoms: C_6  and  C_7 
REMARK       I    between atoms: C_7  and  N_9 
ROOT
ATOM      1  C   LIG d   1       4.357  -0.776  -5.830  0.00  0.00    -0.032 A 
ATOM      2  C   LIG d   1       4.672  -1.159  -4.540  0.00  0.00     0.028 A 
ATOM      3  N   LIG d   1       3.928  -0.779  -3.520  0.00  0.00    -0.263 NA
ATOM      4  C   LIG d   1       2.856  -0.029  -3.677  0.00  0.00     0.028 A 
ATOM      5  C   LIG d   1       2.465   0.395  -4.933  0.00  0.00    -0.032 A 
ATOM      6  C   LIG d   1       3.225   0.016  -6.044  0.00  0.00     0.039 A 
ATOM      7  H   LIG d   1       4.974  -1.087  -6.660  0.00  0.00     0.064 H 
ATOM      8  H   LIG d   1       5.542  -1.774  -4.365  0.00  0.00     0.083 H 
ATOM      9  H   LIG d   1       2.276   0.259  -2.813  0.00  0.00     0.083 H 
ATOM     10  H   LIG d   1       1.586   1.011  -5.054  0.00  0.00     0.064 H 
ENDROOT
BRANCH   6  11
ATOM     11  C   LIG d   1       2.845   0.447  -7.409  0.00  0.00     0.242 C 
ATOM     12  O   LIG d   1       2.281  -0.328  -8.155  0.00  0.00    -0.270 OA
ATOM     13  N   LIG d   1       3.127   1.699  -7.823  0.00  0.00    -0.325 N 
ATOM     14  H   LIG d   1       3.577   2.317  -7.227  0.00  0.00     0.145 HD
ATOM     15  H   LIG d   1       2.878   1.980  -8.718  0.00  0.00     0.145 HD
ENDBRANCH   6  11
TORSDOF 1
ENDMDL
MODEL 10
REMARK VINA RESULT:      -3.5      2.577      3.153
REMARK  1 active torsions:
REMARK  status: ('A' for Active; 'I' for Inactive)
REMARK    1  A    between atoms: C_6  and  C_7 
REMARK       I    between atoms: C_7  and  N_9 
ROOT
ATOM      1  C   LIG d   1       5.758  -0.822  -3.083  0.00  0.00    -0.032 A 
ATOM      2  C   LIG d   1       6.879  -1.580  -3.361  0.00  0.00     0.028 A 
ATOM      3  N   LIG d   1       6.784  -2.703  -4.046  0.00  0.00    -0.263 NA
ATOM      4  C   LIG d   1       5.631  -3.151  -4.499  0.00  0.00     0.028 A 
ATOM      5  C   LIG d   1       4.460  -2.453  -4.272  0.00  0.00    -0.032 A 
ATOM      6  C   LIG d   1       4.514  -1.257  -3.550  0.00  0.00     0.039 A 
ATOM      7  H   LIG d   1       5.842   0.094  -2.519  0.00  0.00     0.064 H 
ATOM      8  H   LIG d   1       7.846  -1.251  -3.008  0.00  0.00     0.083 H 
ATOM      9  H   LIG d   1       5.600  -4.077  -5.054  0.00  0.00     0.083 H 
ATOM     10  H   LIG d   1       3.518  -2.827  -4.645  0.00  0.00     0.064 H 
ENDROOT
BRANCH   6  11
ATOM     11  C   LIG d   1       3.285  -0.474  -3.281  0.00  0.00     0.242 C 
ATOM     12  O   LIG d   1       3.262   0.326  -2.367  0.00  0.00    -0.270 OA
ATOM     13  N   LIG d   1       2.192  -0.651  -4.050  0.00  0.00    -0.325 N 
ATOM     14  H   LIG d   1       2.210  -1.289  -4.780  0.00  0.00     0.145 HD
ATOM     15  H   LIG d   1       1.387  -0.138  -3.873  0.00  0.00     0.145 HD
ENDBRANCH   6  11
TORSDOF 1
ENDMDL
