MODEL 1
REMARK VINA RESULT:      -6.7      0.000      0.000
REMARK  6 active torsions:
REMARK  status: ('A' for Active; 'I' for Inactive)
REMARK    1  A    between atoms: C_1  and  C_2 
REMARK    2  A    between atoms: C_19  and  C_21 
REMARK    3  A    between atoms: C_21  and  N_22 
REMARK    4  A    between atoms: N_25  and  C_28 
REMARK    5  A    between atoms: C_28  and  C_29 
REMARK    6  A    between atoms: C_29  and  O_30 
ROOT
ATOM      1  C   LIG d   1       6.050  -0.046  -4.000  0.00  0.00    -0.022 C 
ATOM      2  C   LIG d   1       5.875   1.183  -3.097  0.00  0.00    -0.047 C 
ATOM      3  C   LIG d   1       4.478   1.158  -2.471  0.00  0.00    -0.049 C 
ATOM      4  C   LIG d   1       4.337  -0.070  -1.567  0.00  0.00    -0.032 C 
ATOM      5  C   LIG d   1       4.703  -1.307  -2.360  0.00  0.00    -0.073 C 
ATOM      6  C   LIG d   1       3.910  -2.349  -2.392  0.00  0.00    -0.099 C 
ATOM      7  C   LIG d   1       6.011  -1.298  -3.114  0.00  0.00    -0.014 C 
ATOM      8  H   LIG d   1       6.837  -1.302  -2.388  0.00  0.00     0.035 H 
ATOM      9  C   LIG d   1       6.142  -2.538  -3.982  0.00  0.00    -0.039 C 
ATOM     10  C   LIG d   1       5.000  -2.640  -4.995  0.00  0.00     0.011 C 
ATOM     11  H   LIG d   1       4.088  -2.904  -4.441  0.00  0.00     0.035 H 
ATOM     12  C   LIG d   1       4.886  -1.338  -5.813  0.00  0.00     0.107 C 
ATOM     13  H   LIG d   1       3.953  -1.240  -6.389  0.00  0.00     0.074 H 
ATOM     14  C   LIG d   1       4.866  -0.097  -4.961  0.00  0.00    -0.009 C 
ATOM     15  O   LIG d   1       6.019  -1.407  -6.722  0.00  0.00    -0.461 OA
ATOM     16  C   LIG d   1       6.101  -2.684  -7.157  0.00  0.00     0.312 C 
ATOM     17  O   LIG d   1       6.581  -3.035  -8.209  0.00  0.00    -0.251 OA
ATOM     18  C   LIG d   1       5.495  -3.606  -6.115  0.00  0.00     0.075 C 
ATOM     19  H   LIG d   1       4.701  -4.235  -6.542  0.00  0.00     0.043 H 
ATOM     20  H   LIG d   1       6.635   1.164  -2.301  0.00  0.00     0.027 H 
ATOM     21  H   LIG d   1       5.993   2.098  -3.696  0.00  0.00     0.027 H 
ATOM     22  H   LIG d   1       4.329   2.070  -1.873  0.00  0.00     0.027 H 
ATOM     23  H   LIG d   1       3.721   1.114  -3.266  0.00  0.00     0.027 H 
ATOM     24  H   LIG d   1       5.009   0.031  -0.703  0.00  0.00     0.031 H 
ATOM     25  H   LIG d   1       3.297  -0.148  -1.216  0.00  0.00     0.031 H 
ATOM     26  H   LIG d   1       4.194  -3.239  -2.973  0.00  0.00     0.053 H 
ATOM     27  H   LIG d   1       2.961  -2.335  -1.836  0.00  0.00     0.053 H 
ATOM     28  H   LIG d   1       7.093  -2.501  -4.535  0.00  0.00     0.028 H 
ATOM     29  H   LIG d   1       6.123  -3.436  -3.347  0.00  0.00     0.028 H 
ATOM     30  H   LIG d   1       3.928  -0.086  -4.387  0.00  0.00     0.031 H 
ATOM     31  H   LIG d   1       4.897   0.779  -5.626  0.00  0.00     0.031 H 
ENDROOT
BRANCH  18  32
ATOM     32  C   LIG d   1       6.553  -4.565  -5.567  0.00  0.00     0.012 C 
ATOM     33  H   LIG d   1       7.546  -4.266  -5.937  0.00  0.00     0.043 H 
ATOM     34  H   LIG d   1       6.546  -4.529  -4.468  0.00  0.00     0.043 H 
BRANCH  32  35
ATOM     35  N   LIG d   1       6.255  -5.931  -6.015  0.00  0.00    -0.299 N 
ATOM     36  C   LIG d   1       6.909  -6.924  -5.149  0.00  0.00     0.012 C 
ATOM     37  C   LIG d   1       6.639  -8.328  -5.695  0.00  0.00     0.012 C 
ATOM     38  H   LIG d   1       7.993  -6.737  -5.133  0.00  0.00     0.044 H 
ATOM     39  H   LIG d   1       6.506  -6.842  -4.129  0.00  0.00     0.044 H 
ATOM     40  N   LIG d   1       5.189  -8.558  -5.752  0.00  0.00    -0.298 N 
ATOM     41  H   LIG d   1       7.103  -9.074  -5.032  0.00  0.00     0.044 H 
ATOM     42  H   LIG d   1       7.066  -8.419  -6.704  0.00  0.00     0.044 H 
ATOM     43  C   LIG d   1       4.536  -7.566  -6.618  0.00  0.00     0.012 C 
ATOM     44  C   LIG d   1       4.805  -6.162  -6.072  0.00  0.00     0.012 C 
ATOM     45  H   LIG d   1       3.451  -7.751  -6.635  0.00  0.00     0.044 H 
ATOM     46  H   LIG d   1       4.938  -7.647  -7.638  0.00  0.00     0.044 H 
ATOM     47  H   LIG d   1       4.378  -6.071  -5.063  0.00  0.00     0.044 H 
ATOM     48  H   LIG d   1       4.341  -5.416  -6.735  0.00  0.00     0.044 H 
BRANCH  40  49
ATOM     49  C   LIG d   1       4.890  -9.925  -6.200  0.00  0.00     0.022 C 
ATOM     50  H   LIG d   1       4.162  -9.890  -7.024  0.00  0.00     0.045 H 
ATOM     51  H   LIG d   1       5.815 -10.407  -6.549  0.00  0.00     0.045 H 
BRANCH  49  52
ATOM     52  C   LIG d   1       4.306 -10.728  -5.036  0.00  0.00     0.057 C 
ATOM     53  H   LIG d   1       3.654 -11.521  -5.429  0.00  0.00     0.057 H 
ATOM     54  H   LIG d   1       5.123 -11.178  -4.455  0.00  0.00     0.057 H 
BRANCH  52  55
ATOM     55  O   LIG d   1       3.544  -9.859  -4.194  0.00  0.00    -0.394 OA
ATOM     56  H   LIG d   1       2.733 -10.266  -3.574  0.00  0.00     0.209 HD
ENDBRANCH  52  55
ENDBRANCH  49  52
ENDBRANCH  40  49
ENDBRANCH  32  35
ENDBRANCH  18  32
BRANCH   1  57
ATOM     57  C   LIG d   1       7.368   0.024  -4.774  0.00  0.00    -0.059 C 
ATOM     58  H   LIG d   1       8.022  -0.803  -4.460  0.00  0.00     0.024 H 
ATOM     59  H   LIG d   1       7.864   0.983  -4.567  0.00  0.00     0.024 H 
ATOM     60  H   LIG d   1       7.164  -0.059  -5.852  0.00  0.00     0.024 H 
ENDBRANCH   1  57
TORSDOF 6
ENDMDL
MODEL 2
REMARK VINA RESULT:      -6.1      2.726      3.440
REMARK  6 active torsions:
REMARK  status: ('A' for Active; 'I' for Inactive)
REMARK    1  A    between atoms: C_1  and  C_2 
REMARK    2  A    between atoms: C_19  and  C_21 
REMARK    3  A    between atoms: C_21  and  N_22 
REMARK    4  A    between atoms: N_25  and  C_28 
REMARK    5  A    between atoms: C_28  and  C_29 
REMARK    6  A    between atoms: C_29  and  O_30 
ROOT
ATOM      1  C   LIG d   1       4.426  -0.273  -2.758  0.00  0.00    -0.022 C 
ATOM      2  C   LIG d   1       3.635   0.923  -2.209  0.00  0.00    -0.047 C 
ATOM      3  C   LIG d   1       3.420   1.946  -3.328  0.00  0.00    -0.049 C 
ATOM      4  C   LIG d   1       2.563   1.329  -4.438  0.00  0.00    -0.032 C 
ATOM      5  C   LIG d   1       3.195   0.025  -4.877  0.00  0.00    -0.073 C 
ATOM      6  C   LIG d   1       3.422  -0.223  -6.143  0.00  0.00    -0.099 C 
ATOM      7  C   LIG d   1       3.557  -0.978  -3.808  0.00  0.00    -0.014 C 
ATOM      8  H   LIG d   1       2.631  -1.371  -3.364  0.00  0.00     0.035 H 
ATOM      9  C   LIG d   1       4.327  -2.146  -4.402  0.00  0.00    -0.039 C 
ATOM     10  C   LIG d   1       5.614  -1.682  -5.087  0.00  0.00     0.011 C 
ATOM     11  H   LIG d   1       5.329  -1.165  -6.014  0.00  0.00     0.035 H 
ATOM     12  C   LIG d   1       6.461  -0.826  -4.124  0.00  0.00     0.107 C 
ATOM     13  H   LIG d   1       7.275  -0.264  -4.606  0.00  0.00     0.074 H 
ATOM     14  C   LIG d   1       5.676   0.266  -3.447  0.00  0.00    -0.009 C 
ATOM     15  O   LIG d   1       7.019  -1.803  -3.202  0.00  0.00    -0.461 OA
ATOM     16  C   LIG d   1       7.385  -2.878  -3.936  0.00  0.00     0.312 C 
ATOM     17  O   LIG d   1       8.255  -3.663  -3.641  0.00  0.00    -0.251 OA
ATOM     18  C   LIG d   1       6.531  -2.939  -5.189  0.00  0.00     0.075 C 
ATOM     19  H   LIG d   1       7.147  -2.967  -6.100  0.00  0.00     0.043 H 
ATOM     20  H   LIG d   1       2.659   0.576  -1.836  0.00  0.00     0.027 H 
ATOM     21  H   LIG d   1       4.198   1.390  -1.388  0.00  0.00     0.027 H 
ATOM     22  H   LIG d   1       2.907   2.830  -2.921  0.00  0.00     0.027 H 
ATOM     23  H   LIG d   1       4.393   2.245  -3.743  0.00  0.00     0.027 H 
ATOM     24  H   LIG d   1       1.549   1.141  -4.056  0.00  0.00     0.031 H 
ATOM     25  H   LIG d   1       2.512   2.023  -5.289  0.00  0.00     0.031 H 
ATOM     26  H   LIG d   1       3.882  -1.177  -6.443  0.00  0.00     0.053 H 
ATOM     27  H   LIG d   1       3.151   0.521  -6.907  0.00  0.00     0.053 H 
ATOM     28  H   LIG d   1       4.595  -2.853  -3.603  0.00  0.00     0.028 H 
ATOM     29  H   LIG d   1       3.702  -2.657  -5.149  0.00  0.00     0.028 H 
ATOM     30  H   LIG d   1       5.384   1.005  -4.209  0.00  0.00     0.031 H 
ATOM     31  H   LIG d   1       6.326   0.748  -2.702  0.00  0.00     0.031 H 
ENDROOT
BRANCH  18  32
ATOM     32  C   LIG d   1       5.690  -4.217  -5.202  0.00  0.00     0.012 C 
ATOM     33  H   LIG d   1       6.263  -5.038  -4.747  0.00  0.00     0.043 H 
ATOM     34  H   LIG d   1       4.766  -4.053  -4.628  0.00  0.00     0.043 H 
BRANCH  32  35
ATOM     35  N   LIG d   1       5.350  -4.566  -6.587  0.00  0.00    -0.299 N 
ATOM     36  C   LIG d   1       6.164  -5.695  -7.061  0.00  0.00     0.012 C 
ATOM     37  C   LIG d   1       5.836  -5.975  -8.530  0.00  0.00     0.012 C 
ATOM     38  H   LIG d   1       7.230  -5.445  -6.963  0.00  0.00     0.044 H 
ATOM     39  H   LIG d   1       5.939  -6.587  -6.458  0.00  0.00     0.044 H 
ATOM     40  N   LIG d   1       4.402  -6.271  -8.662  0.00  0.00    -0.298 N 
ATOM     41  H   LIG d   1       6.422  -6.838  -8.878  0.00  0.00     0.044 H 
ATOM     42  H   LIG d   1       6.086  -5.093  -9.137  0.00  0.00     0.044 H 
ATOM     43  C   LIG d   1       3.590  -5.142  -8.188  0.00  0.00     0.012 C 
ATOM     44  C   LIG d   1       3.917  -4.862  -6.719  0.00  0.00     0.012 C 
ATOM     45  H   LIG d   1       2.522  -5.392  -8.285  0.00  0.00     0.044 H 
ATOM     46  H   LIG d   1       3.814  -4.249  -8.790  0.00  0.00     0.044 H 
ATOM     47  H   LIG d   1       3.667  -5.744  -6.112  0.00  0.00     0.044 H 
ATOM     48  H   LIG d   1       3.331  -3.999  -6.371  0.00  0.00     0.044 H 
BRANCH  40  49
ATOM     49  C   LIG d   1       4.062  -6.620 -10.048  0.00  0.00     0.022 C 
ATOM     50  H   LIG d   1       4.560  -5.919 -10.735  0.00  0.00     0.045 H 
ATOM     51  H   LIG d   1       4.400  -7.644 -10.261  0.00  0.00     0.045 H 
BRANCH  49  52
ATOM     52  C   LIG d   1       2.547  -6.532 -10.238  0.00  0.00     0.057 C 
ATOM     53  H   LIG d   1       2.161  -5.648  -9.710  0.00  0.00     0.057 H 
ATOM     54  H   LIG d   1       2.317  -6.450 -11.310  0.00  0.00     0.057 H 
BRANCH  52  55
ATOM     55  O   LIG d   1       1.931  -7.709  -9.708  0.00  0.00    -0.394 OA
ATOM     56  H   LIG d   1       2.284  -8.702 -10.021  0.00  0.00     0.209 HD
ENDBRANCH  52  55
ENDBRANCH  49  52
ENDBRANCH  40  49
ENDBRANCH  32  35
ENDBRANCH  18  32
BRANCH   1  57
ATOM     57  C   LIG d   1       4.806  -1.241  -1.636  0.00  0.00    -0.059 C 
ATOM     58  H   LIG d   1       5.881  -1.149  -1.421  0.00  0.00     0.024 H 
ATOM     59  H   LIG d   1       4.581  -2.272  -1.950  0.00  0.00     0.024 H 
ATOM     60  H   LIG d   1       4.228  -0.999  -0.732  0.00  0.00     0.024 H 
ENDBRANCH   1  57
TORSDOF 6
ENDMDL
MODEL 3
REMARK VINA RESULT:      -6.0      4.978      9.277
REMARK  6 active torsions:
REMARK  status: ('A' for Active; 'I' for Inactive)
REMARK    1  A    between atoms: C_1  and  C_2 
REMARK    2  A    between atoms: C_19  and  C_21 
REMARK    3  A    between atoms: C_21  and  N_22 
REMARK    4  A    between atoms: N_25  and  C_28 
REMARK    5  A    between atoms: C_28  and  C_29 
REMARK    6  A    between atoms: C_29  and  O_30 
ROOT
ATOM      1  C   LIG d   1       5.446  -1.679  -4.436  0.00  0.00    -0.022 C 
ATOM      2  C   LIG d   1       4.234  -2.553  -4.084  0.00  0.00    -0.047 C 
ATOM      3  C   LIG d   1       3.877  -2.356  -2.608  0.00  0.00    -0.049 C 
ATOM      4  C   LIG d   1       3.453  -0.904  -2.366  0.00  0.00    -0.032 C 
ATOM      5  C   LIG d   1       4.534   0.016  -2.890  0.00  0.00    -0.073 C 
ATOM      6  C   LIG d   1       5.025   0.975  -2.146  0.00  0.00    -0.099 C 
ATOM      7  C   LIG d   1       5.029  -0.209  -4.299  0.00  0.00    -0.014 C 
ATOM      8  H   LIG d   1       4.223   0.047  -5.002  0.00  0.00     0.035 H 
ATOM      9  C   LIG d   1       6.219   0.686  -4.603  0.00  0.00    -0.039 C 
ATOM     10  C   LIG d   1       7.377   0.431  -3.637  0.00  0.00     0.011 C 
ATOM     11  H   LIG d   1       7.089   0.841  -2.658  0.00  0.00     0.035 H 
ATOM     12  C   LIG d   1       7.738  -1.068  -3.610  0.00  0.00     0.107 C 
ATOM     13  H   LIG d   1       8.391  -1.366  -2.775  0.00  0.00     0.074 H 
ATOM     14  C   LIG d   1       6.545  -1.967  -3.418  0.00  0.00    -0.009 C 
ATOM     15  O   LIG d   1       8.430  -1.274  -4.872  0.00  0.00    -0.461 OA
ATOM     16  C   LIG d   1       9.235  -0.205  -5.062  0.00  0.00     0.312 C 
ATOM     17  O   LIG d   1      10.255  -0.203  -5.711  0.00  0.00    -0.251 OA
ATOM     18  C   LIG d   1       8.656   0.992  -4.330  0.00  0.00     0.075 C 
ATOM     19  H   LIG d   1       9.382   1.433  -3.633  0.00  0.00     0.043 H 
ATOM     20  H   LIG d   1       3.377  -2.262  -4.711  0.00  0.00     0.027 H 
ATOM     21  H   LIG d   1       4.479  -3.610  -4.264  0.00  0.00     0.027 H 
ATOM     22  H   LIG d   1       3.048  -3.028  -2.339  0.00  0.00     0.027 H 
ATOM     23  H   LIG d   1       4.753  -2.588  -1.986  0.00  0.00     0.027 H 
ATOM     24  H   LIG d   1       2.508  -0.707  -2.892  0.00  0.00     0.031 H 
ATOM     25  H   LIG d   1       3.314  -0.739  -1.287  0.00  0.00     0.031 H 
ATOM     26  H   LIG d   1       5.810   1.635  -2.545  0.00  0.00     0.053 H 
ATOM     27  H   LIG d   1       4.651   1.123  -1.122  0.00  0.00     0.053 H 
ATOM     28  H   LIG d   1       6.572   0.492  -5.627  0.00  0.00     0.028 H 
ATOM     29  H   LIG d   1       5.919   1.740  -4.514  0.00  0.00     0.028 H 
ATOM     30  H   LIG d   1       6.153  -1.811  -2.402  0.00  0.00     0.031 H 
ATOM     31  H   LIG d   1       6.878  -3.010  -3.524  0.00  0.00     0.031 H 
ENDROOT
BRANCH  18  32
ATOM     32  C   LIG d   1       8.287   2.098  -5.321  0.00  0.00     0.012 C 
ATOM     33  H   LIG d   1       8.750   1.887  -6.296  0.00  0.00     0.043 H 
ATOM     34  H   LIG d   1       7.194   2.139  -5.435  0.00  0.00     0.043 H 
BRANCH  32  35
ATOM     35  N   LIG d   1       8.774   3.389  -4.817  0.00  0.00    -0.299 N 
ATOM     36  C   LIG d   1       9.477   3.224  -3.536  0.00  0.00     0.012 C 
ATOM     37  C   LIG d   1       9.898   4.597  -3.008  0.00  0.00     0.012 C 
ATOM     38  H   LIG d   1       8.807   2.740  -2.811  0.00  0.00     0.044 H 
ATOM     39  H   LIG d   1      10.369   2.598  -3.686  0.00  0.00     0.044 H 
ATOM     40  N   LIG d   1      10.761   5.257  -3.998  0.00  0.00    -0.298 N 
ATOM     41  H   LIG d   1      10.449   4.474  -2.065  0.00  0.00     0.044 H 
ATOM     42  H   LIG d   1       9.004   5.213  -2.832  0.00  0.00     0.044 H 
ATOM     43  C   LIG d   1      10.057   5.422  -5.278  0.00  0.00     0.012 C 
ATOM     44  C   LIG d   1       9.637   4.048  -5.807  0.00  0.00     0.012 C 
ATOM     45  H   LIG d   1      10.727   5.905  -6.005  0.00  0.00     0.044 H 
ATOM     46  H   LIG d   1       9.165   6.047  -5.129  0.00  0.00     0.044 H 
ATOM     47  H   LIG d   1      10.531   3.432  -5.982  0.00  0.00     0.044 H 
ATOM     48  H   LIG d   1       9.086   4.172  -6.750  0.00  0.00     0.044 H 
BRANCH  40  49
ATOM     49  C   LIG d   1      11.248   6.548  -3.494  0.00  0.00     0.022 C 
ATOM     50  H   LIG d   1      12.223   6.407  -3.006  0.00  0.00     0.045 H 
ATOM     51  H   LIG d   1      11.356   7.251  -4.333  0.00  0.00     0.045 H 
BRANCH  49  52
ATOM     52  C   LIG d   1      10.247   7.112  -2.483  0.00  0.00     0.057 C 
ATOM     53  H   LIG d   1       9.535   6.324  -2.195  0.00  0.00     0.057 H 
ATOM     54  H   LIG d   1      10.787   7.464  -1.592  0.00  0.00     0.057 H 
BRANCH  52  55
ATOM     55  O   LIG d   1       9.538   8.204  -3.073  0.00  0.00    -0.394 OA
ATOM     56  H   LIG d   1       8.627   8.015  -3.659  0.00  0.00     0.209 HD
ENDBRANCH  52  55
ENDBRANCH  49  52
ENDBRANCH  40  49
ENDBRANCH  32  35
ENDBRANCH  18  32
BRANCH   1  57
ATOM     57  C   LIG d   1       5.937  -1.969  -5.856  0.00  0.00    -0.059 C 
ATOM     58  H   LIG d   1       6.665  -2.794  -5.830  0.00  0.00     0.024 H 
ATOM     59  H   LIG d   1       6.416  -1.069  -6.269  0.00  0.00     0.024 H 
ATOM     60  H   LIG d   1       5.083  -2.253  -6.488  0.00  0.00     0.024 H 
ENDBRANCH   1  57
TORSDOF 6
ENDMDL
MODEL 4
REMARK VINA RESULT:      -5.9      4.305      8.188
REMARK  6 active torsions:
REMARK  status: ('A' for Active; 'I' for Inactive)
REMARK    1  A    between atoms: C_1  and  C_2 
REMARK    2  A    between atoms: C_19  and  C_21 
REMARK    3  A    between atoms: C_21  and  N_22 
REMARK    4  A    between atoms: N_25  and  C_28 
REMARK    5  A    between atoms: C_28  and  C_29 
REMARK    6  A    between atoms: C_29  and  O_30 
ROOT
ATOM      1  C   LIG d   1       5.108  -1.989  -3.921  0.00  0.00    -0.022 C 
ATOM      2  C   LIG d   1       4.090  -2.200  -2.791  0.00  0.00    -0.047 C 
ATOM      3  C   LIG d   1       4.483  -1.339  -1.588  0.00  0.00    -0.049 C 
ATOM      4  C   LIG d   1       4.413   0.143  -1.965  0.00  0.00    -0.032 C 
ATOM      5  C   LIG d   1       5.243   0.371  -3.210  0.00  0.00    -0.073 C 
ATOM      6  C   LIG d   1       6.143   1.321  -3.259  0.00  0.00    -0.099 C 
ATOM      7  C   LIG d   1       5.000  -0.534  -4.395  0.00  0.00    -0.014 C 
ATOM      8  H   LIG d   1       4.002  -0.318  -4.805  0.00  0.00     0.035 H 
ATOM      9  C   LIG d   1       6.023  -0.279  -5.488  0.00  0.00    -0.039 C 
ATOM     10  C   LIG d   1       7.451  -0.509  -4.989  0.00  0.00     0.011 C 
ATOM     11  H   LIG d   1       7.702   0.320  -4.311  0.00  0.00     0.035 H 
ATOM     12  C   LIG d   1       7.582  -1.906  -4.352  0.00  0.00     0.107 C 
ATOM     13  H   LIG d   1       8.500  -2.056  -3.763  0.00  0.00     0.074 H 
ATOM     14  C   LIG d   1       6.504  -2.207  -3.344  0.00  0.00    -0.009 C 
ATOM     15  O   LIG d   1       7.581  -2.804  -5.496  0.00  0.00    -0.461 OA
ATOM     16  C   LIG d   1       8.343  -2.226  -6.453  0.00  0.00     0.312 C 
ATOM     17  O   LIG d   1       8.940  -2.816  -7.323  0.00  0.00    -0.251 OA
ATOM     18  C   LIG d   1       8.329  -0.721  -6.260  0.00  0.00     0.075 C 
ATOM     19  H   LIG d   1       9.346  -0.313  -6.171  0.00  0.00     0.043 H 
ATOM     20  H   LIG d   1       3.089  -1.908  -3.141  0.00  0.00     0.027 H 
ATOM     21  H   LIG d   1       4.083  -3.260  -2.498  0.00  0.00     0.027 H 
ATOM     22  H   LIG d   1       3.790  -1.536  -0.756  0.00  0.00     0.027 H 
ATOM     23  H   LIG d   1       5.507  -1.588  -1.278  0.00  0.00     0.027 H 
ATOM     24  H   LIG d   1       3.367   0.424  -2.158  0.00  0.00     0.031 H 
ATOM     25  H   LIG d   1       4.809   0.751  -1.138  0.00  0.00     0.031 H 
ATOM     26  H   LIG d   1       6.737   1.472  -4.173  0.00  0.00     0.053 H 
ATOM     27  H   LIG d   1       6.306   1.970  -2.385  0.00  0.00     0.053 H 
ATOM     28  H   LIG d   1       5.837  -0.960  -6.332  0.00  0.00     0.028 H 
ATOM     29  H   LIG d   1       5.940   0.762  -5.835  0.00  0.00     0.028 H 
ATOM     30  H   LIG d   1       6.648  -1.548  -2.476  0.00  0.00     0.031 H 
ATOM     31  H   LIG d   1       6.609  -3.256  -3.029  0.00  0.00     0.031 H 
ENDROOT
BRANCH  18  32
ATOM     32  C   LIG d   1       7.696  -0.032  -7.471  0.00  0.00     0.012 C 
ATOM     33  H   LIG d   1       7.603  -0.753  -8.296  0.00  0.00     0.043 H 
ATOM     34  H   LIG d   1       6.699   0.344  -7.199  0.00  0.00     0.043 H 
BRANCH  32  35
ATOM     35  N   LIG d   1       8.543   1.090  -7.894  0.00  0.00    -0.299 N 
ATOM     36  C   LIG d   1       8.157   1.568  -9.229  0.00  0.00     0.012 C 
ATOM     37  C   LIG d   1       9.112   2.682  -9.665  0.00  0.00     0.012 C 
ATOM     38  H   LIG d   1       8.211   0.735  -9.946  0.00  0.00     0.044 H 
ATOM     39  H   LIG d   1       7.129   1.958  -9.195  0.00  0.00     0.044 H 
ATOM     40  N   LIG d   1       9.067   3.775  -8.685  0.00  0.00    -0.298 N 
ATOM     41  H   LIG d   1       8.807   3.061 -10.652  0.00  0.00     0.044 H 
ATOM     42  H   LIG d   1      10.136   2.285  -9.726  0.00  0.00     0.044 H 
ATOM     43  C   LIG d   1       9.454   3.297  -7.350  0.00  0.00     0.012 C 
ATOM     44  C   LIG d   1       8.498   2.184  -6.913  0.00  0.00     0.012 C 
ATOM     45  H   LIG d   1       9.399   4.129  -6.632  0.00  0.00     0.044 H 
ATOM     46  H   LIG d   1      10.481   2.907  -7.383  0.00  0.00     0.044 H 
ATOM     47  H   LIG d   1       7.474   2.580  -6.853  0.00  0.00     0.044 H 
ATOM     48  H   LIG d   1       8.803   1.805  -5.927  0.00  0.00     0.044 H 
BRANCH  40  49
ATOM     49  C   LIG d   1       9.915   4.898  -9.108  0.00  0.00     0.022 C 
ATOM     50  H   LIG d   1      10.000   5.623  -8.285  0.00  0.00     0.045 H 
ATOM     51  H   LIG d   1      10.915   4.523  -9.371  0.00  0.00     0.045 H 
BRANCH  49  52
ATOM     52  C   LIG d   1       9.289   5.579 -10.326  0.00  0.00     0.057 C 
ATOM     53  H   LIG d   1       9.981   6.340 -10.716  0.00  0.00     0.057 H 
ATOM     54  H   LIG d   1       9.093   4.828 -11.105  0.00  0.00     0.057 H 
BRANCH  52  55
ATOM     55  O   LIG d   1       8.060   6.202  -9.945  0.00  0.00    -0.394 OA
ATOM     56  H   LIG d   1       7.366   5.681  -9.270  0.00  0.00     0.209 HD
ENDBRANCH  52  55
ENDBRANCH  49  52
ENDBRANCH  40  49
ENDBRANCH  32  35
ENDBRANCH  18  32
BRANCH   1  57
ATOM     57  C   LIG d   1       4.849  -2.953  -5.081  0.00  0.00    -0.059 C 
ATOM     58  H   LIG d   1       4.070  -2.535  -5.737  0.00  0.00     0.024 H 
ATOM     59  H   LIG d   1       4.513  -3.922  -4.684  0.00  0.00     0.024 H 
ATOM     60  H   LIG d   1       5.776  -3.092  -5.655  0.00  0.00     0.024 H 
ENDBRANCH   1  57
TORSDOF 6
ENDMDL
MODEL 5
REMARK VINA RESULT:      -5.8      4.111      5.699
REMARK  6 active torsions:
REMARK  status: ('A' for Active; 'I' for Inactive)
REMARK    1  A    between atoms: C_1  and  C_2 
REMARK    2  A    between atoms: C_19  and  C_21 
REMARK    3  A    between atoms: C_21  and  N_22 
REMARK    4  A    between atoms: N_25  and  C_28 
REMARK    5  A    between atoms: C_28  and  C_29 
REMARK    6  A    between atoms: C_29  and  O_30 
ROOT
ATOM      1  C   LIG d   1       5.341  -1.036  -3.425  0.00  0.00    -0.022 C 
ATOM      2  C   LIG d   1       5.167  -0.570  -1.973  0.00  0.00    -0.047 C 
ATOM      3  C   LIG d   1       4.482   0.799  -1.958  0.00  0.00    -0.049 C 
ATOM      4  C   LIG d   1       3.074   0.682  -2.549  0.00  0.00    -0.032 C 
ATOM      5  C   LIG d   1       3.168   0.030  -3.912  0.00  0.00    -0.073 C 
ATOM      6  C   LIG d   1       2.595   0.567  -4.960  0.00  0.00    -0.099 C 
ATOM      7  C   LIG d   1       3.946  -1.260  -4.024  0.00  0.00    -0.014 C 
ATOM      8  H   LIG d   1       3.401  -2.050  -3.488  0.00  0.00     0.035 H 
ATOM      9  C   LIG d   1       4.081  -1.685  -5.477  0.00  0.00    -0.039 C 
ATOM     10  C   LIG d   1       4.789  -0.618  -6.313  0.00  0.00     0.011 C 
ATOM     11  H   LIG d   1       4.092   0.224  -6.436  0.00  0.00     0.035 H 
ATOM     12  C   LIG d   1       6.135  -0.232  -5.668  0.00  0.00     0.107 C 
ATOM     13  H   LIG d   1       6.589   0.686  -6.072  0.00  0.00     0.074 H 
ATOM     14  C   LIG d   1       6.026   0.085  -4.200  0.00  0.00    -0.009 C 
ATOM     15  O   LIG d   1       6.991  -1.372  -5.960  0.00  0.00    -0.461 OA
ATOM     16  C   LIG d   1       6.730  -1.749  -7.232  0.00  0.00     0.312 C 
ATOM     17  O   LIG d   1       7.503  -2.319  -7.965  0.00  0.00    -0.251 OA
ATOM     18  C   LIG d   1       5.313  -1.342  -7.591  0.00  0.00     0.075 C 
ATOM     19  H   LIG d   1       5.286  -0.719  -8.497  0.00  0.00     0.043 H 
ATOM     20  H   LIG d   1       4.547  -1.296  -1.426  0.00  0.00     0.027 H 
ATOM     21  H   LIG d   1       6.153  -0.492  -1.492  0.00  0.00     0.027 H 
ATOM     22  H   LIG d   1       4.413   1.162  -0.922  0.00  0.00     0.027 H 
ATOM     23  H   LIG d   1       5.070   1.509  -2.556  0.00  0.00     0.027 H 
ATOM     24  H   LIG d   1       2.448   0.069  -1.885  0.00  0.00     0.031 H 
ATOM     25  H   LIG d   1       2.633   1.685  -2.646  0.00  0.00     0.031 H 
ATOM     26  H   LIG d   1       2.674   0.078  -5.942  0.00  0.00     0.053 H 
ATOM     27  H   LIG d   1       2.033   1.507  -4.858  0.00  0.00     0.053 H 
ATOM     28  H   LIG d   1       4.665  -2.615  -5.535  0.00  0.00     0.028 H 
ATOM     29  H   LIG d   1       3.082  -1.854  -5.905  0.00  0.00     0.028 H 
ATOM     30  H   LIG d   1       5.448   1.014  -4.089  0.00  0.00     0.031 H 
ATOM     31  H   LIG d   1       7.041   0.237  -3.804  0.00  0.00     0.031 H 
ENDROOT
BRANCH  18  32
ATOM     32  C   LIG d   1       4.462  -2.576  -7.895  0.00  0.00     0.012 C 
ATOM     33  H   LIG d   1       5.051  -3.485  -7.701  0.00  0.00     0.043 H 
ATOM     34  H   LIG d   1       3.570  -2.574  -7.252  0.00  0.00     0.043 H 
BRANCH  32  35
ATOM     35  N   LIG d   1       4.049  -2.552  -9.304  0.00  0.00    -0.299 N 
ATOM     36  C   LIG d   1       2.870  -3.403  -9.523  0.00  0.00     0.012 C 
ATOM     37  C   LIG d   1       2.522  -3.413 -11.013  0.00  0.00     0.012 C 
ATOM     38  H   LIG d   1       3.091  -4.428  -9.189  0.00  0.00     0.044 H 
ATOM     39  H   LIG d   1       2.021  -3.005  -8.949  0.00  0.00     0.044 H 
ATOM     40  N   LIG d   1       2.266  -2.038 -11.464  0.00  0.00    -0.298 N 
ATOM     41  H   LIG d   1       1.622  -4.025 -11.175  0.00  0.00     0.044 H 
ATOM     42  H   LIG d   1       3.361  -3.836 -11.584  0.00  0.00     0.044 H 
ATOM     43  C   LIG d   1       3.446  -1.189 -11.245  0.00  0.00     0.012 C 
ATOM     44  C   LIG d   1       3.794  -1.177  -9.755  0.00  0.00     0.012 C 
ATOM     45  H   LIG d   1       3.226  -0.163 -11.578  0.00  0.00     0.044 H 
ATOM     46  H   LIG d   1       4.296  -1.586 -11.818  0.00  0.00     0.044 H 
ATOM     47  H   LIG d   1       2.955  -0.754  -9.184  0.00  0.00     0.044 H 
ATOM     48  H   LIG d   1       4.693  -0.565  -9.593  0.00  0.00     0.044 H 
BRANCH  40  49
ATOM     49  C   LIG d   1       1.854  -2.014 -12.874  0.00  0.00     0.022 C 
ATOM     50  H   LIG d   1       2.222  -1.091 -13.347  0.00  0.00     0.045 H 
ATOM     51  H   LIG d   1       2.277  -2.886 -13.394  0.00  0.00     0.045 H 
BRANCH  49  52
ATOM     52  C   LIG d   1       0.327  -2.059 -12.960  0.00  0.00     0.057 C 
ATOM     53  H   LIG d   1       0.012  -1.839 -13.990  0.00  0.00     0.057 H 
ATOM     54  H   LIG d   1      -0.026  -3.060 -12.673  0.00  0.00     0.057 H 
BRANCH  52  55
ATOM     55  O   LIG d   1      -0.229  -1.086 -12.072  0.00  0.00    -0.394 OA
ATOM     56  H   LIG d   1      -1.292  -0.817 -12.148  0.00  0.00     0.209 HD
ENDBRANCH  52  55
ENDBRANCH  49  52
ENDBRANCH  40  49
ENDBRANCH  32  35
ENDBRANCH  18  32
BRANCH   1  57
ATOM     57  C   LIG d   1       6.168  -2.322  -3.493  0.00  0.00    -0.059 C 
ATOM     58  H   LIG d   1       5.548  -3.135  -3.899  0.00  0.00     0.024 H 
ATOM     59  H   LIG d   1       6.512  -2.590  -2.484  0.00  0.00     0.024 H 
ATOM     60  H   LIG d   1       7.038  -2.163  -4.148  0.00  0.00     0.024 H 
ENDBRANCH   1  57
TORSDOF 6
ENDMDL
MODEL 6
REMARK VINA RESULT:      -5.5      5.970      6.752
REMARK  6 active torsions:
REMARK  status: ('A' for Active; 'I' for Inactive)
REMARK    1  A    between atoms: C_1  and  C_2 
REMARK    2  A    between atoms: C_19  and  C_21 
REMARK    3  A    between atoms: C_21  and  N_22 
REMARK    4  A    between atoms: N_25  and  C_28 
REMARK    5  A    between atoms: C_28  and  C_29 
REMARK    6  A    between atoms: C_29  and  O_30 
ROOT
ATOM      1  C   LIG d   1       4.918   0.401 -10.068  0.00  0.00    -0.022 C 
ATOM      2  C   LIG d   1       5.153   1.768  -9.410  0.00  0.00    -0.047 C 
ATOM      3  C   LIG d   1       3.852   2.574  -9.435  0.00  0.00    -0.049 C 
ATOM      4  C   LIG d   1       2.786   1.865  -8.595  0.00  0.00    -0.032 C 
ATOM      5  C   LIG d   1       2.659   0.433  -9.072  0.00  0.00    -0.073 C 
ATOM      6  C   LIG d   1       1.491  -0.081  -9.365  0.00  0.00    -0.099 C 
ATOM      7  C   LIG d   1       3.924  -0.381  -9.198  0.00  0.00    -0.014 C 
ATOM      8  H   LIG d   1       4.329  -0.565  -8.192  0.00  0.00     0.035 H 
ATOM      9  C   LIG d   1       3.638  -1.727  -9.843  0.00  0.00    -0.039 C 
ATOM     10  C   LIG d   1       3.024  -1.567 -11.235  0.00  0.00     0.011 C 
ATOM     11  H   LIG d   1       1.993  -1.207 -11.103  0.00  0.00     0.035 H 
ATOM     12  C   LIG d   1       3.903  -0.651 -12.110  0.00  0.00     0.107 C 
ATOM     13  H   LIG d   1       3.418  -0.297 -13.033  0.00  0.00     0.074 H 
ATOM     14  C   LIG d   1       4.282   0.639 -11.434  0.00  0.00    -0.009 C 
ATOM     15  O   LIG d   1       5.041  -1.493 -12.446  0.00  0.00    -0.461 OA
ATOM     16  C   LIG d   1       4.556  -2.726 -12.717  0.00  0.00     0.312 C 
ATOM     17  O   LIG d   1       5.080  -3.540 -13.440  0.00  0.00    -0.251 OA
ATOM     18  C   LIG d   1       3.250  -2.923 -11.971  0.00  0.00     0.075 C 
ATOM     19  H   LIG d   1       2.431  -3.202 -12.649  0.00  0.00     0.043 H 
ATOM     20  H   LIG d   1       5.475   1.623  -8.368  0.00  0.00     0.027 H 
ATOM     21  H   LIG d   1       5.933   2.312  -9.963  0.00  0.00     0.027 H 
ATOM     22  H   LIG d   1       4.034   3.577  -9.020  0.00  0.00     0.027 H 
ATOM     23  H   LIG d   1       3.498   2.666 -10.471  0.00  0.00     0.027 H 
ATOM     24  H   LIG d   1       3.083   1.880  -7.536  0.00  0.00     0.031 H 
ATOM     25  H   LIG d   1       1.822   2.383  -8.713  0.00  0.00     0.031 H 
ATOM     26  H   LIG d   1       1.419  -1.123  -9.710  0.00  0.00     0.053 H 
ATOM     27  H   LIG d   1       0.581   0.529  -9.266  0.00  0.00     0.053 H 
ATOM     28  H   LIG d   1       4.575  -2.295  -9.941  0.00  0.00     0.028 H 
ATOM     29  H   LIG d   1       2.932  -2.292  -9.216  0.00  0.00     0.028 H 
ATOM     30  H   LIG d   1       3.373   1.247 -11.313  0.00  0.00     0.031 H 
ATOM     31  H   LIG d   1       4.994   1.172 -12.081  0.00  0.00     0.031 H 
ENDROOT
BRANCH  18  32
ATOM     32  C   LIG d   1       3.377  -4.066 -10.961  0.00  0.00     0.012 C 
ATOM     33  H   LIG d   1       4.313  -4.614 -11.144  0.00  0.00     0.043 H 
ATOM     34  H   LIG d   1       3.385  -3.655  -9.941  0.00  0.00     0.043 H 
BRANCH  32  35
ATOM     35  N   LIG d   1       2.238  -4.980 -11.111  0.00  0.00    -0.299 N 
ATOM     36  C   LIG d   1       2.354  -6.122 -10.193  0.00  0.00     0.012 C 
ATOM     37  C   LIG d   1       1.193  -7.088 -10.435  0.00  0.00     0.012 C 
ATOM     38  H   LIG d   1       3.308  -6.641 -10.372  0.00  0.00     0.044 H 
ATOM     39  H   LIG d   1       2.322  -5.762  -9.154  0.00  0.00     0.044 H 
ATOM     40  N   LIG d   1      -0.080  -6.382 -10.233  0.00  0.00    -0.298 N 
ATOM     41  H   LIG d   1       1.262  -7.929  -9.729  0.00  0.00     0.044 H 
ATOM     42  H   LIG d   1       1.241  -7.470 -11.466  0.00  0.00     0.044 H 
ATOM     43  C   LIG d   1      -0.196  -5.241 -11.151  0.00  0.00     0.012 C 
ATOM     44  C   LIG d   1       0.965  -4.274 -10.908  0.00  0.00     0.012 C 
ATOM     45  H   LIG d   1      -1.150  -4.721 -10.972  0.00  0.00     0.044 H 
ATOM     46  H   LIG d   1      -0.164  -5.600 -12.190  0.00  0.00     0.044 H 
ATOM     47  H   LIG d   1       0.917  -3.892  -9.878  0.00  0.00     0.044 H 
ATOM     48  H   LIG d   1       0.896  -3.433 -11.614  0.00  0.00     0.044 H 
BRANCH  40  49
ATOM     49  C   LIG d   1      -1.220  -7.297 -10.383  0.00  0.00     0.022 C 
ATOM     50  H   LIG d   1      -1.888  -6.922 -11.173  0.00  0.00     0.045 H 
ATOM     51  H   LIG d   1      -0.853  -8.297 -10.656  0.00  0.00     0.045 H 
BRANCH  49  52
ATOM     52  C   LIG d   1      -1.986  -7.378  -9.061  0.00  0.00     0.057 C 
ATOM     53  H   LIG d   1      -3.064  -7.280  -9.256  0.00  0.00     0.057 H 
ATOM     54  H   LIG d   1      -1.787  -8.347  -8.581  0.00  0.00     0.057 H 
BRANCH  52  55
ATOM     55  O   LIG d   1      -1.560  -6.322  -8.197  0.00  0.00    -0.394 OA
ATOM     56  H   LIG d   1      -0.496  -6.050  -8.145  0.00  0.00     0.209 HD
ENDBRANCH  52  55
ENDBRANCH  49  52
ENDBRANCH  40  49
ENDBRANCH  32  35
ENDBRANCH  18  32
BRANCH   1  57
ATOM     57  C   LIG d   1       6.230  -0.372 -10.212  0.00  0.00    -0.059 C 
ATOM     58  H   LIG d   1       6.557  -0.728  -9.224  0.00  0.00     0.024 H 
ATOM     59  H   LIG d   1       7.000   0.289 -10.637  0.00  0.00     0.024 H 
ATOM     60  H   LIG d   1       6.076  -1.232 -10.880  0.00  0.00     0.024 H 
ENDBRANCH   1  57
TORSDOF 6
ENDMDL
MODEL 7
REMARK VINA RESULT:      -5.4     10.982     13.025
REMARK  6 active torsions:
REMARK  status: ('A' for Active; 'I' for Inactive)
REMARK    1  A    between atoms: C_1  and  C_2 
REMARK    2  A    between atoms: C_19  and  C_21 
REMARK    3  A    between atoms: C_21  and  N_22 
REMARK    4  A    between atoms: N_25  and  C_28 
REMARK    5  A    between atoms: C_28  and  C_29 
REMARK    6  A    between atoms: C_29  and  O_30 
ROOT
ATOM      1  C   LIG d   1      11.314   7.438   0.550  0.00  0.00    -0.022 C 
ATOM      2  C   LIG d   1      11.465   8.241   1.849  0.00  0.00    -0.047 C 
ATOM      3  C   LIG d   1      11.918   9.665   1.516  0.00  0.00    -0.049 C 
ATOM      4  C   LIG d   1      10.839  10.372   0.689  0.00  0.00    -0.032 C 
ATOM      5  C   LIG d   1      10.500   9.514  -0.510  0.00  0.00    -0.073 C 
ATOM      6  C   LIG d   1      10.491  10.015  -1.720  0.00  0.00    -0.099 C 
ATOM      7  C   LIG d   1      10.172   8.060  -0.265  0.00  0.00    -0.014 C 
ATOM      8  H   LIG d   1       9.215   7.999   0.273  0.00  0.00     0.035 H 
ATOM      9  C   LIG d   1      10.021   7.312  -1.580  0.00  0.00    -0.039 C 
ATOM     10  C   LIG d   1      11.297   7.386  -2.420  0.00  0.00     0.011 C 
ATOM     11  H   LIG d   1      11.381   8.412  -2.806  0.00  0.00     0.035 H 
ATOM     12  C   LIG d   1      12.515   6.922  -1.596  0.00  0.00     0.107 C 
ATOM     13  H   LIG d   1      13.490   7.167  -2.043  0.00  0.00     0.074 H 
ATOM     14  C   LIG d   1      12.609   7.580  -0.245  0.00  0.00    -0.009 C 
ATOM     15  O   LIG d   1      12.353   5.477  -1.534  0.00  0.00    -0.461 OA
ATOM     16  C   LIG d   1      11.944   5.072  -2.757  0.00  0.00     0.312 C 
ATOM     17  O   LIG d   1      12.131   3.974  -3.228  0.00  0.00    -0.251 OA
ATOM     18  C   LIG d   1      11.215   6.212  -3.443  0.00  0.00     0.075 C 
ATOM     19  H   LIG d   1      11.655   6.445  -4.423  0.00  0.00     0.043 H 
ATOM     20  H   LIG d   1      10.498   8.276   2.373  0.00  0.00     0.027 H 
ATOM     21  H   LIG d   1      12.215   7.759   2.493  0.00  0.00     0.027 H 
ATOM     22  H   LIG d   1      12.086  10.223   2.449  0.00  0.00     0.027 H 
ATOM     23  H   LIG d   1      12.852   9.626   0.939  0.00  0.00     0.027 H 
ATOM     24  H   LIG d   1       9.943  10.521   1.308  0.00  0.00     0.031 H 
ATOM     25  H   LIG d   1      11.219  11.349   0.353  0.00  0.00     0.031 H 
ATOM     26  H   LIG d   1      10.241   9.375  -2.579  0.00  0.00     0.053 H 
ATOM     27  H   LIG d   1      10.733  11.076  -1.877  0.00  0.00     0.053 H 
ATOM     28  H   LIG d   1       9.801   6.253  -1.376  0.00  0.00     0.028 H 
ATOM     29  H   LIG d   1       9.197   7.751  -2.160  0.00  0.00     0.028 H 
ATOM     30  H   LIG d   1      12.831   8.647  -0.395  0.00  0.00     0.031 H 
ATOM     31  H   LIG d   1      13.433   7.110   0.312  0.00  0.00     0.031 H 
ENDROOT
BRANCH  18  32
ATOM     32  C   LIG d   1       9.757   5.832  -3.708  0.00  0.00     0.012 C 
ATOM     33  H   LIG d   1       9.606   4.768  -3.473  0.00  0.00     0.043 H 
ATOM     34  H   LIG d   1       9.098   6.445  -3.074  0.00  0.00     0.043 H 
BRANCH  32  35
ATOM     35  N   LIG d   1       9.437   6.072  -5.121  0.00  0.00    -0.299 N 
ATOM     36  C   LIG d   1       9.717   7.466  -5.496  0.00  0.00     0.012 C 
ATOM     37  C   LIG d   1       9.297   7.694  -6.950  0.00  0.00     0.012 C 
ATOM     38  H   LIG d   1       9.151   8.142  -4.839  0.00  0.00     0.044 H 
ATOM     39  H   LIG d   1      10.793   7.664  -5.388  0.00  0.00     0.044 H 
ATOM     40  N   LIG d   1      10.026   6.761  -7.820  0.00  0.00    -0.298 N 
ATOM     41  H   LIG d   1       9.532   8.728  -7.241  0.00  0.00     0.044 H 
ATOM     42  H   LIG d   1       8.215   7.521  -7.051  0.00  0.00     0.044 H 
ATOM     43  C   LIG d   1       9.745   5.368  -7.445  0.00  0.00     0.012 C 
ATOM     44  C   LIG d   1      10.166   5.139  -5.991  0.00  0.00     0.012 C 
ATOM     45  H   LIG d   1      10.311   4.690  -8.101  0.00  0.00     0.044 H 
ATOM     46  H   LIG d   1       8.669   5.168  -7.552  0.00  0.00     0.044 H 
ATOM     47  H   LIG d   1      11.247   5.312  -5.890  0.00  0.00     0.044 H 
ATOM     48  H   LIG d   1       9.930   4.105  -5.699  0.00  0.00     0.044 H 
BRANCH  40  49
ATOM     49  C   LIG d   1       9.705   7.000  -9.234  0.00  0.00     0.022 C 
ATOM     50  H   LIG d   1       9.276   8.007  -9.347  0.00  0.00     0.045 H 
ATOM     51  H   LIG d   1      10.623   6.923  -9.835  0.00  0.00     0.045 H 
BRANCH  49  52
ATOM     52  C   LIG d   1       8.693   5.957  -9.711  0.00  0.00     0.057 C 
ATOM     53  H   LIG d   1       9.124   4.951  -9.600  0.00  0.00     0.057 H 
ATOM     54  H   LIG d   1       7.777   6.033  -9.109  0.00  0.00     0.057 H 
BRANCH  52  55
ATOM     55  O   LIG d   1       8.381   6.191 -11.087  0.00  0.00    -0.394 OA
ATOM     56  H   LIG d   1       7.498   6.789 -11.355  0.00  0.00     0.209 HD
ENDBRANCH  52  55
ENDBRANCH  49  52
ENDBRANCH  40  49
ENDBRANCH  32  35
ENDBRANCH  18  32
BRANCH   1  57
ATOM     57  C   LIG d   1      11.023   5.965   0.845  0.00  0.00    -0.059 C 
ATOM     58  H   LIG d   1      11.830   5.550   1.468  0.00  0.00     0.024 H 
ATOM     59  H   LIG d   1      10.965   5.406  -0.100  0.00  0.00     0.024 H 
ATOM     60  H   LIG d   1      10.066   5.881   1.380  0.00  0.00     0.024 H 
ENDBRANCH   1  57
TORSDOF 6
ENDMDL
MODEL 8
REMARK VINA RESULT:      -5.3     10.072     14.090
REMARK  6 active torsions:
REMARK  status: ('A' for Active; 'I' for Inactive)
REMARK    1  A    between atoms: C_1  and  C_2 
REMARK    2  A    between atoms: C_19  and  C_21 
REMARK    3  A    between atoms: C_21  and  N_22 
REMARK    4  A    between atoms: N_25  and  C_28 
REMARK    5  A    between atoms: C_28  and  C_29 
REMARK    6  A    between atoms: C_29  and  O_30 
ROOT
ATOM      1  C   LIG d   1      11.031   3.532  -5.015  0.00  0.00    -0.022 C 
ATOM      2  C   LIG d   1      10.799   2.618  -6.227  0.00  0.00    -0.047 C 
ATOM      3  C   LIG d   1       9.541   3.072  -6.972  0.00  0.00    -0.049 C 
ATOM      4  C   LIG d   1       9.747   4.485  -7.525  0.00  0.00    -0.032 C 
ATOM      5  C   LIG d   1      10.183   5.394  -6.396  0.00  0.00    -0.073 C 
ATOM      6  C   LIG d   1       9.579   6.535  -6.174  0.00  0.00    -0.099 C 
ATOM      7  C   LIG d   1      11.338   4.943  -5.534  0.00  0.00    -0.014 C 
ATOM      8  H   LIG d   1      12.257   4.957  -6.138  0.00  0.00     0.035 H 
ATOM      9  C   LIG d   1      11.534   5.885  -4.358  0.00  0.00    -0.039 C 
ATOM     10  C   LIG d   1      10.281   5.964  -3.485  0.00  0.00     0.011 C 
ATOM     11  H   LIG d   1       9.522   6.531  -4.044  0.00  0.00     0.035 H 
ATOM     12  C   LIG d   1       9.826   4.553  -3.062  0.00  0.00     0.107 C 
ATOM     13  H   LIG d   1       8.812   4.507  -2.637  0.00  0.00     0.074 H 
ATOM     14  C   LIG d   1       9.736   3.584  -4.210  0.00  0.00    -0.009 C 
ATOM     15  O   LIG d   1      10.799   4.172  -2.049  0.00  0.00    -0.461 OA
ATOM     16  C   LIG d   1      11.022   5.264  -1.283  0.00  0.00     0.312 C 
ATOM     17  O   LIG d   1      11.383   5.247  -0.130  0.00  0.00    -0.251 OA
ATOM     18  C   LIG d   1      10.747   6.512  -2.101  0.00  0.00     0.075 C 
ATOM     19  H   LIG d   1      10.010   7.165  -1.611  0.00  0.00     0.043 H 
ATOM     20  H   LIG d   1      11.667   2.676  -6.901  0.00  0.00     0.027 H 
ATOM     21  H   LIG d   1      10.669   1.581  -5.885  0.00  0.00     0.027 H 
ATOM     22  H   LIG d   1       9.339   2.381  -7.804  0.00  0.00     0.027 H 
ATOM     23  H   LIG d   1       8.686   3.073  -6.280  0.00  0.00     0.027 H 
ATOM     24  H   LIG d   1      10.520   4.463  -8.307  0.00  0.00     0.031 H 
ATOM     25  H   LIG d   1       8.802   4.851  -7.954  0.00  0.00     0.031 H 
ATOM     26  H   LIG d   1       9.911   7.182  -5.349  0.00  0.00     0.053 H 
ATOM     27  H   LIG d   1       8.739   6.846  -6.813  0.00  0.00     0.053 H 
ATOM     28  H   LIG d   1      12.368   5.526  -3.736  0.00  0.00     0.028 H 
ATOM     29  H   LIG d   1      11.763   6.894  -4.729  0.00  0.00     0.028 H 
ATOM     30  H   LIG d   1       8.910   3.900  -4.865  0.00  0.00     0.031 H 
ATOM     31  H   LIG d   1       9.517   2.586  -3.803  0.00  0.00     0.031 H 
ENDROOT
BRANCH  18  32
ATOM     32  C   LIG d   1      12.021   7.343  -2.255  0.00  0.00     0.012 C 
ATOM     33  H   LIG d   1      12.740   7.061  -1.471  0.00  0.00     0.043 H 
ATOM     34  H   LIG d   1      12.465   7.155  -3.244  0.00  0.00     0.043 H 
BRANCH  32  35
ATOM     35  N   LIG d   1      11.694   8.769  -2.129  0.00  0.00    -0.299 N 
ATOM     36  C   LIG d   1      11.557   9.397  -3.451  0.00  0.00     0.012 C 
ATOM     37  C   LIG d   1      11.296  10.895  -3.276  0.00  0.00     0.012 C 
ATOM     38  H   LIG d   1      12.485   9.250  -4.024  0.00  0.00     0.044 H 
ATOM     39  H   LIG d   1      10.716   8.938  -3.989  0.00  0.00     0.044 H 
ATOM     40  N   LIG d   1      10.078  11.088  -2.476  0.00  0.00    -0.298 N 
ATOM     41  H   LIG d   1      11.164  11.362  -4.263  0.00  0.00     0.044 H 
ATOM     42  H   LIG d   1      12.150  11.360  -2.762  0.00  0.00     0.044 H 
ATOM     43  C   LIG d   1      10.216  10.460  -1.155  0.00  0.00     0.012 C 
ATOM     44  C   LIG d   1      10.477   8.962  -1.329  0.00  0.00     0.012 C 
ATOM     45  H   LIG d   1       9.289  10.606  -0.581  0.00  0.00     0.044 H 
ATOM     46  H   LIG d   1      11.058  10.919  -0.616  0.00  0.00     0.044 H 
ATOM     47  H   LIG d   1       9.623   8.497  -1.843  0.00  0.00     0.044 H 
ATOM     48  H   LIG d   1      10.609   8.495  -0.342  0.00  0.00     0.044 H 
BRANCH  40  49
ATOM     49  C   LIG d   1       9.752  12.515  -2.350  0.00  0.00     0.022 C 
ATOM     50  H   LIG d   1       9.614  12.766  -1.287  0.00  0.00     0.045 H 
ATOM     51  H   LIG d   1      10.572  13.117  -2.766  0.00  0.00     0.045 H 
BRANCH  49  52
ATOM     52  C   LIG d   1       8.461  12.812  -3.116  0.00  0.00     0.057 C 
ATOM     53  H   LIG d   1       7.942  13.659  -2.644  0.00  0.00     0.057 H 
ATOM     54  H   LIG d   1       8.704  13.065  -4.158  0.00  0.00     0.057 H 
BRANCH  52  55
ATOM     55  O   LIG d   1       7.615  11.660  -3.090  0.00  0.00    -0.394 OA
ATOM     56  H   LIG d   1       6.930  11.462  -3.926  0.00  0.00     0.209 HD
ENDBRANCH  52  55
ENDBRANCH  49  52
ENDBRANCH  40  49
ENDBRANCH  32  35
ENDBRANCH  18  32
BRANCH   1  57
ATOM     57  C   LIG d   1      12.182   3.015  -4.150  0.00  0.00    -0.059 C 
ATOM     58  H   LIG d   1      11.852   2.950  -3.102  0.00  0.00     0.024 H 
ATOM     59  H   LIG d   1      13.035   3.705  -4.223  0.00  0.00     0.024 H 
ATOM     60  H   LIG d   1      12.485   2.018  -4.502  0.00  0.00     0.024 H 
ENDBRANCH   1  57
TORSDOF 6
ENDMDL
MODEL 9
REMARK VINA RESULT:      -5.3      4.114      5.222
REMARK  6 active torsions:
REMARK  status: ('A' for Active; 'I' for Inactive)
REMARK    1  A    between atoms: C_1  and  C_2 
REMARK    2  A    between atoms: C_19  and  C_21 
REMARK    3  A    between atoms: C_21  and  N_22 
REMARK    4  A    between atoms: N_25  and  C_28 
REMARK    5  A    between atoms: C_28  and  C_29 
REMARK    6  A    between atoms: C_29  and  O_30 
ROOT
ATOM      1  C   LIG d   1       6.413  -0.645  -5.825  0.00  0.00    -0.022 C 
ATOM      2  C   LIG d   1       7.412  -0.683  -4.661  0.00  0.00    -0.047 C 
ATOM      3  C   LIG d   1       6.918  -1.670  -3.600  0.00  0.00    -0.049 C 
ATOM      4  C   LIG d   1       6.879  -3.085  -4.186  0.00  0.00    -0.032 C 
ATOM      5  C   LIG d   1       6.069  -3.063  -5.465  0.00  0.00    -0.073 C 
ATOM      6  C   LIG d   1       5.097  -3.918  -5.664  0.00  0.00    -0.099 C 
ATOM      7  C   LIG d   1       6.418  -2.023  -6.502  0.00  0.00    -0.014 C 
ATOM      8  H   LIG d   1       7.406  -2.260  -6.923  0.00  0.00     0.035 H 
ATOM      9  C   LIG d   1       5.408  -2.033  -7.638  0.00  0.00    -0.039 C 
ATOM     10  C   LIG d   1       3.990  -1.759  -7.134  0.00  0.00     0.011 C 
ATOM     11  H   LIG d   1       3.654  -2.651  -6.587  0.00  0.00     0.035 H 
ATOM     12  C   LIG d   1       3.954  -0.460  -6.304  0.00  0.00     0.107 C 
ATOM     13  H   LIG d   1       3.035  -0.320  -5.715  0.00  0.00     0.074 H 
ATOM     14  C   LIG d   1       5.023  -0.396  -5.246  0.00  0.00    -0.009 C 
ATOM     15  O   LIG d   1       4.058   0.588  -7.307  0.00  0.00    -0.461 OA
ATOM     16  C   LIG d   1       3.280   0.218  -8.349  0.00  0.00     0.312 C 
ATOM     17  O   LIG d   1       2.758   0.973  -9.135  0.00  0.00    -0.251 OA
ATOM     18  C   LIG d   1       3.168  -1.295  -8.375  0.00  0.00     0.075 C 
ATOM     19  H   LIG d   1       2.119  -1.626  -8.363  0.00  0.00     0.043 H 
ATOM     20  H   LIG d   1       8.396  -1.005  -5.032  0.00  0.00     0.027 H 
ATOM     21  H   LIG d   1       7.496   0.320  -4.217  0.00  0.00     0.027 H 
ATOM     22  H   LIG d   1       7.601  -1.653  -2.737  0.00  0.00     0.027 H 
ATOM     23  H   LIG d   1       5.908  -1.384  -3.274  0.00  0.00     0.027 H 
ATOM     24  H   LIG d   1       7.904  -3.421  -4.400  0.00  0.00     0.031 H 
ATOM     25  H   LIG d   1       6.413  -3.769  -3.461  0.00  0.00     0.031 H 
ATOM     26  H   LIG d   1       4.520  -3.887  -6.600  0.00  0.00     0.053 H 
ATOM     27  H   LIG d   1       4.859  -4.669  -4.896  0.00  0.00     0.053 H 
ATOM     28  H   LIG d   1       5.672  -1.256  -8.371  0.00  0.00     0.028 H 
ATOM     29  H   LIG d   1       5.417  -3.017  -8.129  0.00  0.00     0.028 H 
ATOM     30  H   LIG d   1       4.803  -1.158  -4.484  0.00  0.00     0.031 H 
ATOM     31  H   LIG d   1       4.993   0.602  -4.785  0.00  0.00     0.031 H 
ENDROOT
BRANCH  18  32
ATOM     32  C   LIG d   1       3.778  -1.855  -9.662  0.00  0.00     0.012 C 
ATOM     33  H   LIG d   1       3.926  -1.038 -10.384  0.00  0.00     0.043 H 
ATOM     34  H   LIG d   1       4.747  -2.324  -9.435  0.00  0.00     0.043 H 
BRANCH  32  35
ATOM     35  N   LIG d   1       2.872  -2.859 -10.237  0.00  0.00    -0.299 N 
ATOM     36  C   LIG d   1       3.022  -4.154  -9.557  0.00  0.00     0.012 C 
ATOM     37  C   LIG d   1       2.121  -5.189 -10.236  0.00  0.00     0.012 C 
ATOM     38  H   LIG d   1       4.070  -4.481  -9.619  0.00  0.00     0.044 H 
ATOM     39  H   LIG d   1       2.731  -4.049  -8.502  0.00  0.00     0.044 H 
ATOM     40  N   LIG d   1       0.726  -4.729 -10.187  0.00  0.00    -0.298 N 
ATOM     41  H   LIG d   1       2.209  -6.152  -9.711  0.00  0.00     0.044 H 
ATOM     42  H   LIG d   1       2.430  -5.313 -11.284  0.00  0.00     0.044 H 
ATOM     43  C   LIG d   1       0.578  -3.435 -10.866  0.00  0.00     0.012 C 
ATOM     44  C   LIG d   1       1.477  -2.399 -10.187  0.00  0.00     0.012 C 
ATOM     45  H   LIG d   1      -0.471  -3.106 -10.805  0.00  0.00     0.044 H 
ATOM     46  H   LIG d   1       0.868  -3.538 -11.922  0.00  0.00     0.044 H 
ATOM     47  H   LIG d   1       1.169  -2.275  -9.139  0.00  0.00     0.044 H 
ATOM     48  H   LIG d   1       1.389  -1.436 -10.712  0.00  0.00     0.044 H 
BRANCH  40  49
ATOM     49  C   LIG d   1      -0.179  -5.733 -10.762  0.00  0.00     0.022 C 
ATOM     50  H   LIG d   1      -0.337  -5.515 -11.829  0.00  0.00     0.045 H 
ATOM     51  H   LIG d   1       0.266  -6.733 -10.654  0.00  0.00     0.045 H 
BRANCH  49  52
ATOM     52  C   LIG d   1      -1.521  -5.690 -10.028  0.00  0.00     0.057 C 
ATOM     53  H   LIG d   1      -1.923  -4.667 -10.060  0.00  0.00     0.057 H 
ATOM     54  H   LIG d   1      -2.227  -6.378 -10.515  0.00  0.00     0.057 H 
BRANCH  52  55
ATOM     55  O   LIG d   1      -1.332  -6.085  -8.667  0.00  0.00    -0.394 OA
ATOM     56  H   LIG d   1      -1.590  -5.393  -7.853  0.00  0.00     0.209 HD
ENDBRANCH  52  55
ENDBRANCH  49  52
ENDBRANCH  40  49
ENDBRANCH  32  35
ENDBRANCH  18  32
BRANCH   1  57
ATOM     57  C   LIG d   1       6.781   0.448  -6.830  0.00  0.00    -0.059 C 
ATOM     58  H   LIG d   1       7.826   0.755  -6.671  0.00  0.00     0.024 H 
ATOM     59  H   LIG d   1       6.119   1.315  -6.688  0.00  0.00     0.024 H 
ATOM     60  H   LIG d   1       6.665   0.060  -7.852  0.00  0.00     0.024 H 
ENDBRANCH   1  57
TORSDOF 6
ENDMDL
MODEL 10
REMARK VINA RESULT:      -5.2     11.031     15.402
REMARK  6 active torsions:
REMARK  status: ('A' for Active; 'I' for Inactive)
REMARK    1  A    between atoms: C_1  and  C_2 
REMARK    2  A    between atoms: C_19  and  C_21 
REMARK    3  A    between atoms: C_21  and  N_22 
REMARK    4  A    between atoms: N_25  and  C_28 
REMARK    5  A    between atoms: C_28  and  C_29 
REMARK    6  A    between atoms: C_29  and  O_30 
ROOT
ATOM      1  C   LIG d   1      11.394   5.162  -2.560  0.00  0.00    -0.022 C 
ATOM      2  C   LIG d   1      11.445   3.734  -3.121  0.00  0.00    -0.047 C 
ATOM      3  C   LIG d   1      10.139   3.432  -3.859  0.00  0.00    -0.049 C 
ATOM      4  C   LIG d   1       9.995   4.368  -5.063  0.00  0.00    -0.032 C 
ATOM      5  C   LIG d   1      10.146   5.798  -4.592  0.00  0.00    -0.073 C 
ATOM      6  C   LIG d   1       9.262   6.711  -4.910  0.00  0.00    -0.099 C 
ATOM      7  C   LIG d   1      11.348   6.138  -3.744  0.00  0.00    -0.014 C 
ATOM      8  H   LIG d   1      12.252   6.059  -4.364  0.00  0.00     0.035 H 
ATOM      9  C   LIG d   1      11.256   7.562  -3.223  0.00  0.00    -0.039 C 
ATOM     10  C   LIG d   1       9.995   7.776  -2.384  0.00  0.00     0.011 C 
ATOM     11  H   LIG d   1       9.137   7.781  -3.071  0.00  0.00     0.035 H 
ATOM     12  C   LIG d   1       9.903   6.717  -1.268  0.00  0.00     0.107 C 
ATOM     13  H   LIG d   1       8.920   6.655  -0.776  0.00  0.00     0.074 H 
ATOM     14  C   LIG d   1      10.102   5.308  -1.762  0.00  0.00    -0.009 C 
ATOM     15  O   LIG d   1      10.906   7.148  -0.306  0.00  0.00    -0.461 OA
ATOM     16  C   LIG d   1      10.816   8.494  -0.216  0.00  0.00     0.312 C 
ATOM     17  O   LIG d   1      11.130   9.154   0.747  0.00  0.00    -0.251 OA
ATOM     18  C   LIG d   1      10.258   9.044  -1.516  0.00  0.00     0.075 C 
ATOM     19  H   LIG d   1       9.363   9.660  -1.346  0.00  0.00     0.043 H 
ATOM     20  H   LIG d   1      12.291   3.644  -3.819  0.00  0.00     0.027 H 
ATOM     21  H   LIG d   1      11.573   3.020  -2.294  0.00  0.00     0.027 H 
ATOM     22  H   LIG d   1      10.149   2.388  -4.208  0.00  0.00     0.027 H 
ATOM     23  H   LIG d   1       9.290   3.582  -3.178  0.00  0.00     0.027 H 
ATOM     24  H   LIG d   1      10.774   4.135  -5.804  0.00  0.00     0.031 H 
ATOM     25  H   LIG d   1       9.003   4.228  -5.518  0.00  0.00     0.031 H 
ATOM     26  H   LIG d   1       9.389   7.746  -4.559  0.00  0.00     0.053 H 
ATOM     27  H   LIG d   1       8.393   6.444  -5.529  0.00  0.00     0.053 H 
ATOM     28  H   LIG d   1      12.132   7.780  -2.594  0.00  0.00     0.028 H 
ATOM     29  H   LIG d   1      11.232   8.263  -4.071  0.00  0.00     0.028 H 
ATOM     30  H   LIG d   1       9.246   5.041  -2.398  0.00  0.00     0.031 H 
ATOM     31  H   LIG d   1      10.133   4.638  -0.890  0.00  0.00     0.031 H 
ENDROOT
BRANCH  18  32
ATOM     32  C   LIG d   1      11.282   9.956  -2.195  0.00  0.00     0.012 C 
ATOM     33  H   LIG d   1      11.714  10.641  -1.450  0.00  0.00     0.043 H 
ATOM     34  H   LIG d   1      12.082   9.344  -2.636  0.00  0.00     0.043 H 
BRANCH  32  35
ATOM     35  N   LIG d   1      10.622  10.733  -3.251  0.00  0.00    -0.299 N 
ATOM     36  C   LIG d   1      10.043  11.972  -2.710  0.00  0.00     0.012 C 
ATOM     37  C   LIG d   1       9.298  12.711  -3.824  0.00  0.00     0.012 C 
ATOM     38  H   LIG d   1       9.342  11.724  -1.899  0.00  0.00     0.044 H 
ATOM     39  H   LIG d   1      10.847  12.611  -2.318  0.00  0.00     0.044 H 
ATOM     40  N   LIG d   1      10.229  13.005  -4.922  0.00  0.00    -0.298 N 
ATOM     41  H   LIG d   1       8.888  13.653  -3.428  0.00  0.00     0.044 H 
ATOM     42  H   LIG d   1       8.476  12.083  -4.197  0.00  0.00     0.044 H 
ATOM     43  C   LIG d   1      10.807  11.767  -5.462  0.00  0.00     0.012 C 
ATOM     44  C   LIG d   1      11.553  11.027  -4.349  0.00  0.00     0.012 C 
ATOM     45  H   LIG d   1      11.509  12.013  -6.273  0.00  0.00     0.044 H 
ATOM     46  H   LIG d   1      10.004  11.126  -5.855  0.00  0.00     0.044 H 
ATOM     47  H   LIG d   1      12.374  11.656  -3.976  0.00  0.00     0.044 H 
ATOM     48  H   LIG d   1      11.963  10.086  -4.744  0.00  0.00     0.044 H 
BRANCH  40  49
ATOM     49  C   LIG d   1       9.568  13.783  -5.979  0.00  0.00     0.022 C 
ATOM     50  H   LIG d   1       8.476  13.704  -5.864  0.00  0.00     0.045 H 
ATOM     51  H   LIG d   1       9.869  14.837  -5.901  0.00  0.00     0.045 H 
BRANCH  49  52
ATOM     52  C   LIG d   1       9.978  13.235  -7.347  0.00  0.00     0.057 C 
ATOM     53  H   LIG d   1      10.578  13.988  -7.878  0.00  0.00     0.057 H 
ATOM     54  H   LIG d   1      10.573  12.320  -7.213  0.00  0.00     0.057 H 
BRANCH  52  55
ATOM     55  O   LIG d   1       8.807  12.934  -8.111  0.00  0.00    -0.394 OA
ATOM     56  H   LIG d   1       8.067  12.220  -7.723  0.00  0.00     0.209 HD
ENDBRANCH  52  55
ENDBRANCH  49  52
ENDBRANCH  40  49
ENDBRANCH  32  35
ENDBRANCH  18  32
BRANCH   1  57
ATOM     57  C   LIG d   1      12.609   5.448  -1.675  0.00  0.00    -0.059 C 
ATOM     58  H   LIG d   1      12.275   5.633  -0.643  0.00  0.00     0.024 H 
ATOM     59  H   LIG d   1      13.138   6.335  -2.054  0.00  0.00     0.024 H 
ATOM     60  H   LIG d   1      13.286   4.582  -1.692  0.00  0.00     0.024 H 
ENDBRANCH   1  57
TORSDOF 6
ENDMDL
