MODEL 1
REMARK VINA RESULT:      -6.3      0.000      0.000
REMARK  5 active torsions:
REMARK  status: ('A' for Active; 'I' for Inactive)
REMARK    1  A    between atoms: C_1  and  C_2 
REMARK    2  A    between atoms: C_2  and  O_3 
REMARK    3  A    between atoms: O_3  and  C_4 
REMARK    4  A    between atoms: C_7  and  C_10 
REMARK    5  A    between atoms: C_16  and  C_19 
ROOT
ATOM      1  C   LIG d   1       5.384  -0.555  -2.477  0.00  0.00     0.120 A 
ATOM      2  C   LIG d   1       6.368  -1.167  -3.239  0.00  0.00    -0.019 A 
ATOM      3  C   LIG d   1       7.252  -0.402  -3.972  0.00  0.00    -0.048 A 
ATOM      4  C   LIG d   1       7.154   0.990  -3.944  0.00  0.00     0.021 A 
ATOM      5  C   LIG d   1       6.166   1.603  -3.171  0.00  0.00    -0.048 A 
ATOM      6  C   LIG d   1       5.284   0.830  -2.446  0.00  0.00    -0.019 A 
ATOM      7  H   LIG d   1       6.443  -2.245  -3.260  0.00  0.00     0.065 H 
ATOM      8  H   LIG d   1       8.016  -0.880  -4.565  0.00  0.00     0.063 H 
ATOM      9  H   LIG d   1       6.090   2.679  -3.145  0.00  0.00     0.063 H 
ATOM     10  H   LIG d   1       4.517   1.303  -1.852  0.00  0.00     0.065 H 
ENDROOT
BRANCH   4  11
ATOM     11  C   LIG d   1       8.098   1.814  -4.729  0.00  0.00     0.179 A 
ATOM     12  N   LIG d   1       9.129   2.599  -4.214  0.00  0.00    -0.231 N 
ATOM     13  C   LIG d   1       9.699   3.148  -5.329  0.00  0.00     0.208 A 
ATOM     14  N   LIG d   1       9.624   2.898  -2.984  0.00  0.00    -0.204 NA
ATOM     15  N   LIG d   1       9.068   2.726  -6.386  0.00  0.00    -0.121 NA
ATOM     16  S   LIG d   1      11.022   4.162  -4.710  0.00  0.00    -0.056 SA
ATOM     17  N   LIG d   1       8.118   1.934  -6.032  0.00  0.00    -0.127 NA
ATOM     18  C   LIG d   1      10.776   3.820  -2.924  0.00  0.00     0.138 A 
ATOM     19  H   LIG d   1      11.649   3.332  -2.491  0.00  0.00     0.068 H 
ATOM     20  H   LIG d   1       9.803   2.059  -2.453  0.00  0.00     0.149 HD
BRANCH  18  21
ATOM     21  C   LIG d   1      10.429   5.078  -2.170  0.00  0.00     0.134 A 
ATOM     22  O   LIG d   1      10.816   5.375  -0.919  0.00  0.00    -0.465 OA
ATOM     23  C   LIG d   1      10.326   6.576  -0.573  0.00  0.00     0.092 A 
ATOM     24  C   LIG d   1       9.612   7.058  -1.605  0.00  0.00    -0.024 A 
ATOM     25  H   LIG d   1      10.479   7.072   0.375  0.00  0.00     0.103 H 
ATOM     26  C   LIG d   1       9.680   6.093  -2.636  0.00  0.00    -0.018 A 
ATOM     27  H   LIG d   1       9.089   8.002  -1.641  0.00  0.00     0.065 H 
ATOM     28  H   LIG d   1       9.221   6.159  -3.611  0.00  0.00     0.065 H 
ENDBRANCH  18  21
ENDBRANCH   4  11
BRANCH   1  29
ATOM     29  O   LIG d   1       4.516  -1.312  -1.756  0.00  0.00    -0.492 OA
BRANCH  29  30
ATOM     30  C   LIG d   1       3.485  -1.987  -2.481  0.00  0.00     0.087 C 
ATOM     31  H   LIG d   1       3.935  -2.611  -3.254  0.00  0.00     0.069 H 
ATOM     32  H   LIG d   1       2.910  -2.612  -1.799  0.00  0.00     0.069 H 
BRANCH  30  33
ATOM     33  C   LIG d   1       2.560  -0.957  -3.132  0.00  0.00    -0.031 C 
ATOM     34  H   LIG d   1       3.090  -0.009  -3.238  0.00  0.00     0.026 H 
ATOM     35  H   LIG d   1       2.254  -1.314  -4.115  0.00  0.00     0.026 H 
ATOM     36  H   LIG d   1       1.680  -0.814  -2.507  0.00  0.00     0.026 H 
ENDBRANCH  30  33
ENDBRANCH  29  30
ENDBRANCH   1  29
TORSDOF 5
ENDMDL
MODEL 2
REMARK VINA RESULT:      -5.9      6.239      7.538
REMARK  5 active torsions:
REMARK  status: ('A' for Active; 'I' for Inactive)
REMARK    1  A    between atoms: C_1  and  C_2 
REMARK    2  A    between atoms: C_2  and  O_3 
REMARK    3  A    between atoms: O_3  and  C_4 
REMARK    4  A    between atoms: C_7  and  C_10 
REMARK    5  A    between atoms: C_16  and  C_19 
ROOT
ATOM      1  C   LIG d   1       7.951  -4.258  -4.569  0.00  0.00     0.120 A 
ATOM      2  C   LIG d   1       6.688  -4.445  -5.113  0.00  0.00    -0.019 A 
ATOM      3  C   LIG d   1       5.697  -3.510  -4.900  0.00  0.00    -0.048 A 
ATOM      4  C   LIG d   1       5.967  -2.373  -4.136  0.00  0.00     0.021 A 
ATOM      5  C   LIG d   1       7.241  -2.185  -3.596  0.00  0.00    -0.048 A 
ATOM      6  C   LIG d   1       8.224  -3.128  -3.809  0.00  0.00    -0.019 A 
ATOM      7  H   LIG d   1       6.480  -5.326  -5.704  0.00  0.00     0.065 H 
ATOM      8  H   LIG d   1       4.715  -3.657  -5.323  0.00  0.00     0.063 H 
ATOM      9  H   LIG d   1       7.454  -1.306  -3.008  0.00  0.00     0.063 H 
ATOM     10  H   LIG d   1       9.208  -2.986  -3.388  0.00  0.00     0.065 H 
ENDROOT
BRANCH   4  11
ATOM     11  C   LIG d   1       4.908  -1.368  -3.903  0.00  0.00     0.179 A 
ATOM     12  N   LIG d   1       4.094  -0.792  -4.877  0.00  0.00    -0.231 N 
ATOM     13  C   LIG d   1       3.293   0.056  -4.162  0.00  0.00     0.208 A 
ATOM     14  N   LIG d   1       3.948  -0.884  -6.225  0.00  0.00    -0.204 NA
ATOM     15  N   LIG d   1       3.607  -0.019  -2.902  0.00  0.00    -0.121 NA
ATOM     16  S   LIG d   1       2.238   0.815  -5.375  0.00  0.00    -0.056 SA
ATOM     17  N   LIG d   1       4.564  -0.864  -2.746  0.00  0.00    -0.127 NA
ATOM     18  C   LIG d   1       2.909  -0.042  -6.853  0.00  0.00     0.138 A 
ATOM     19  H   LIG d   1       2.146  -0.653  -7.336  0.00  0.00     0.068 H 
ATOM     20  H   LIG d   1       3.858  -1.846  -6.515  0.00  0.00     0.149 HD
BRANCH  18  21
ATOM     21  C   LIG d   1       3.514   0.938  -7.824  0.00  0.00     0.134 A 
ATOM     22  O   LIG d   1       4.819   1.043  -8.123  0.00  0.00    -0.465 OA
ATOM     23  C   LIG d   1       4.994   2.019  -9.028  0.00  0.00     0.092 A 
ATOM     24  C   LIG d   1       3.794   2.555  -9.312  0.00  0.00    -0.024 A 
ATOM     25  H   LIG d   1       5.938   2.323  -9.455  0.00  0.00     0.103 H 
ATOM     26  C   LIG d   1       2.840   1.856  -8.538  0.00  0.00    -0.018 A 
ATOM     27  H   LIG d   1       3.596   3.362 -10.003  0.00  0.00     0.065 H 
ATOM     28  H   LIG d   1       1.773   2.026  -8.524  0.00  0.00     0.065 H 
ENDBRANCH  18  21
ENDBRANCH   4  11
BRANCH   1  29
ATOM     29  O   LIG d   1       8.925  -5.182  -4.783  0.00  0.00    -0.492 OA
BRANCH  29  30
ATOM     30  C   LIG d   1       9.904  -5.342  -3.754  0.00  0.00     0.087 C 
ATOM     31  H   LIG d   1      10.877  -5.535  -4.207  0.00  0.00     0.069 H 
ATOM     32  H   LIG d   1       9.956  -4.432  -3.157  0.00  0.00     0.069 H 
BRANCH  30  33
ATOM     33  C   LIG d   1       9.516  -6.520  -2.858  0.00  0.00    -0.031 C 
ATOM     34  H   LIG d   1      10.141  -6.517  -1.964  0.00  0.00     0.026 H 
ATOM     35  H   LIG d   1       8.469  -6.428  -2.571  0.00  0.00     0.026 H 
ATOM     36  H   LIG d   1       9.664  -7.453  -3.402  0.00  0.00     0.026 H 
ENDBRANCH  30  33
ENDBRANCH  29  30
ENDBRANCH   1  29
TORSDOF 5
ENDMDL
MODEL 3
REMARK VINA RESULT:      -5.8      4.901      6.554
REMARK  5 active torsions:
REMARK  status: ('A' for Active; 'I' for Inactive)
REMARK    1  A    between atoms: C_1  and  C_2 
REMARK    2  A    between atoms: C_2  and  O_3 
REMARK    3  A    between atoms: O_3  and  C_4 
REMARK    4  A    between atoms: C_7  and  C_10 
REMARK    5  A    between atoms: C_16  and  C_19 
ROOT
ATOM      1  C   LIG d   1       4.152   0.561 -10.898  0.00  0.00     0.120 A 
ATOM      2  C   LIG d   1       5.206  -0.311 -10.664  0.00  0.00    -0.019 A 
ATOM      3  C   LIG d   1       6.162  -0.004  -9.720  0.00  0.00    -0.048 A 
ATOM      4  C   LIG d   1       6.069   1.188  -8.998  0.00  0.00     0.021 A 
ATOM      5  C   LIG d   1       5.004   2.060  -9.232  0.00  0.00    -0.048 A 
ATOM      6  C   LIG d   1       4.055   1.747 -10.182  0.00  0.00    -0.019 A 
ATOM      7  H   LIG d   1       5.278  -1.233 -11.223  0.00  0.00     0.065 H 
ATOM      8  H   LIG d   1       6.982  -0.682  -9.540  0.00  0.00     0.063 H 
ATOM      9  H   LIG d   1       4.926   2.980  -8.673  0.00  0.00     0.063 H 
ATOM     10  H   LIG d   1       3.234   2.423 -10.367  0.00  0.00     0.065 H 
ENDROOT
BRANCH   4  11
ATOM     11  C   LIG d   1       7.093   1.523  -7.986  0.00  0.00     0.179 A 
ATOM     12  N   LIG d   1       7.175   1.000  -6.696  0.00  0.00    -0.231 N 
ATOM     13  C   LIG d   1       8.278   1.616  -6.172  0.00  0.00     0.208 A 
ATOM     14  N   LIG d   1       6.473   0.114  -5.941  0.00  0.00    -0.204 NA
ATOM     15  N   LIG d   1       8.787   2.415  -7.064  0.00  0.00    -0.121 NA
ATOM     16  S   LIG d   1       8.416   0.974  -4.520  0.00  0.00    -0.056 SA
ATOM     17  N   LIG d   1       8.086   2.361  -8.141  0.00  0.00    -0.127 NA
ATOM     18  C   LIG d   1       6.955  -0.135  -4.568  0.00  0.00     0.138 A 
ATOM     19  H   LIG d   1       7.246  -1.177  -4.435  0.00  0.00     0.068 H 
ATOM     20  H   LIG d   1       6.331  -0.752  -6.439  0.00  0.00     0.149 HD
BRANCH  18  21
ATOM     21  C   LIG d   1       5.925   0.274  -3.546  0.00  0.00     0.134 A 
ATOM     22  O   LIG d   1       5.380   1.496  -3.426  0.00  0.00    -0.465 OA
ATOM     23  C   LIG d   1       4.500   1.496  -2.412  0.00  0.00     0.092 A 
ATOM     24  C   LIG d   1       4.480   0.267  -1.866  0.00  0.00    -0.024 A 
ATOM     25  H   LIG d   1       3.910   2.340  -2.088  0.00  0.00     0.103 H 
ATOM     26  C   LIG d   1       5.397  -0.521  -2.599  0.00  0.00    -0.018 A 
ATOM     27  H   LIG d   1       3.877  -0.057  -1.031  0.00  0.00     0.065 H 
ATOM     28  H   LIG d   1       5.628  -1.563  -2.432  0.00  0.00     0.065 H 
ENDBRANCH  18  21
ENDBRANCH   4  11
BRANCH   1  29
ATOM     29  O   LIG d   1       3.211   0.253 -11.829  0.00  0.00    -0.492 OA
BRANCH  29  30
ATOM     30  C   LIG d   1       2.492  -0.969 -11.647  0.00  0.00     0.087 C 
ATOM     31  H   LIG d   1       1.991  -1.237 -12.577  0.00  0.00     0.069 H 
ATOM     32  H   LIG d   1       3.187  -1.760 -11.368  0.00  0.00     0.069 H 
BRANCH  30  33
ATOM     33  C   LIG d   1       1.452  -0.788 -10.540  0.00  0.00    -0.031 C 
ATOM     34  H   LIG d   1       0.578  -1.403 -10.760  0.00  0.00     0.026 H 
ATOM     35  H   LIG d   1       1.880  -1.093  -9.586  0.00  0.00     0.026 H 
ATOM     36  H   LIG d   1       1.155   0.259 -10.488  0.00  0.00     0.026 H 
ENDBRANCH  30  33
ENDBRANCH  29  30
ENDBRANCH   1  29
TORSDOF 5
ENDMDL
MODEL 4
REMARK VINA RESULT:      -5.8      2.022      7.079
REMARK  5 active torsions:
REMARK  status: ('A' for Active; 'I' for Inactive)
REMARK    1  A    between atoms: C_1  and  C_2 
REMARK    2  A    between atoms: C_2  and  O_3 
REMARK    3  A    between atoms: O_3  and  C_4 
REMARK    4  A    between atoms: C_7  and  C_10 
REMARK    5  A    between atoms: C_16  and  C_19 
ROOT
ATOM      1  C   LIG d   1       9.805   6.779  -2.805  0.00  0.00     0.120 A 
ATOM      2  C   LIG d   1      10.279   5.807  -1.936  0.00  0.00    -0.019 A 
ATOM      3  C   LIG d   1      10.318   4.486  -2.330  0.00  0.00    -0.048 A 
ATOM      4  C   LIG d   1       9.880   4.128  -3.606  0.00  0.00     0.021 A 
ATOM      5  C   LIG d   1       9.410   5.110  -4.480  0.00  0.00    -0.048 A 
ATOM      6  C   LIG d   1       9.369   6.427  -4.076  0.00  0.00    -0.019 A 
ATOM      7  H   LIG d   1      10.618   6.084  -0.948  0.00  0.00     0.065 H 
ATOM      8  H   LIG d   1      10.686   3.730  -1.652  0.00  0.00     0.063 H 
ATOM      9  H   LIG d   1       9.073   4.838  -5.469  0.00  0.00     0.063 H 
ATOM     10  H   LIG d   1       9.001   7.187  -4.749  0.00  0.00     0.065 H 
ENDROOT
BRANCH   4  11
ATOM     11  C   LIG d   1       9.918   2.713  -4.033  0.00  0.00     0.179 A 
ATOM     12  N   LIG d   1       8.813   1.898  -4.279  0.00  0.00    -0.231 N 
ATOM     13  C   LIG d   1       9.373   0.704  -4.641  0.00  0.00     0.208 A 
ATOM     14  N   LIG d   1       7.461   2.027  -4.237  0.00  0.00    -0.204 NA
ATOM     15  N   LIG d   1      10.669   0.810  -4.611  0.00  0.00    -0.121 NA
ATOM     16  S   LIG d   1       7.990  -0.366  -4.961  0.00  0.00    -0.056 SA
ATOM     17  N   LIG d   1      10.994   2.002  -4.251  0.00  0.00    -0.127 NA
ATOM     18  C   LIG d   1       6.657   0.841  -4.594  0.00  0.00     0.138 A 
ATOM     19  H   LIG d   1       6.043   1.031  -5.474  0.00  0.00     0.068 H 
ATOM     20  H   LIG d   1       7.159   2.839  -4.755  0.00  0.00     0.149 HD
BRANCH  18  21
ATOM     21  C   LIG d   1       5.812   0.385  -3.432  0.00  0.00     0.134 A 
ATOM     22  O   LIG d   1       5.346   1.167  -2.445  0.00  0.00    -0.465 OA
ATOM     23  C   LIG d   1       4.630   0.425  -1.586  0.00  0.00     0.092 A 
ATOM     24  C   LIG d   1       4.639  -0.850  -2.014  0.00  0.00    -0.024 A 
ATOM     25  H   LIG d   1       4.132   0.789  -0.699  0.00  0.00     0.103 H 
ATOM     26  C   LIG d   1       5.400  -0.875  -3.206  0.00  0.00    -0.018 A 
ATOM     27  H   LIG d   1       4.155  -1.692  -1.542  0.00  0.00     0.065 H 
ATOM     28  H   LIG d   1       5.607  -1.740  -3.819  0.00  0.00     0.065 H 
ENDBRANCH  18  21
ENDBRANCH   4  11
BRANCH   1  29
ATOM     29  O   LIG d   1       9.769   8.080  -2.413  0.00  0.00    -0.492 OA
BRANCH  29  30
ATOM     30  C   LIG d   1       9.629   8.332  -1.013  0.00  0.00     0.087 C 
ATOM     31  H   LIG d   1       9.195   7.457  -0.528  0.00  0.00     0.069 H 
ATOM     32  H   LIG d   1      10.608   8.537  -0.581  0.00  0.00     0.069 H 
BRANCH  30  33
ATOM     33  C   LIG d   1       8.715   9.540  -0.801  0.00  0.00    -0.031 C 
ATOM     34  H   LIG d   1       8.008   9.324   0.000  0.00  0.00     0.026 H 
ATOM     35  H   LIG d   1       9.316  10.408  -0.531  0.00  0.00     0.026 H 
ATOM     36  H   LIG d   1       8.169   9.748  -1.721  0.00  0.00     0.026 H 
ENDBRANCH  30  33
ENDBRANCH  29  30
ENDBRANCH   1  29
TORSDOF 5
ENDMDL
MODEL 5
REMARK VINA RESULT:      -5.8      2.080      7.056
REMARK  5 active torsions:
REMARK  status: ('A' for Active; 'I' for Inactive)
REMARK    1  A    between atoms: C_1  and  C_2 
REMARK    2  A    between atoms: C_2  and  O_3 
REMARK    3  A    between atoms: O_3  and  C_4 
REMARK    4  A    between atoms: C_7  and  C_10 
REMARK    5  A    between atoms: C_16  and  C_19 
ROOT
ATOM      1  C   LIG d   1       9.883   5.864  -3.067  0.00  0.00     0.120 A 
ATOM      2  C   LIG d   1       9.399   5.595  -4.340  0.00  0.00    -0.019 A 
ATOM      3  C   LIG d   1       9.335   4.296  -4.796  0.00  0.00    -0.048 A 
ATOM      4  C   LIG d   1       9.759   3.249  -3.975  0.00  0.00     0.021 A 
ATOM      5  C   LIG d   1      10.240   3.523  -2.693  0.00  0.00    -0.048 A 
ATOM      6  C   LIG d   1      10.306   4.825  -2.247  0.00  0.00    -0.019 A 
ATOM      7  H   LIG d   1       9.071   6.406  -4.975  0.00  0.00     0.065 H 
ATOM      8  H   LIG d   1       8.959   4.088  -5.786  0.00  0.00     0.063 H 
ATOM      9  H   LIG d   1      10.565   2.716  -2.054  0.00  0.00     0.063 H 
ATOM     10  H   LIG d   1      10.682   5.038  -1.258  0.00  0.00     0.065 H 
ENDROOT
BRANCH   4  11
ATOM     11  C   LIG d   1       9.694   1.854  -4.460  0.00  0.00     0.179 A 
ATOM     12  N   LIG d   1       8.535   1.103  -4.651  0.00  0.00    -0.231 N 
ATOM     13  C   LIG d   1       9.005  -0.099  -5.105  0.00  0.00     0.208 A 
ATOM     14  N   LIG d   1       7.198   1.293  -4.498  0.00  0.00    -0.204 NA
ATOM     15  N   LIG d   1      10.303  -0.054  -5.172  0.00  0.00    -0.121 NA
ATOM     16  S   LIG d   1       7.550  -1.088  -5.359  0.00  0.00    -0.056 SA
ATOM     17  N   LIG d   1      10.714   1.104  -4.791  0.00  0.00    -0.127 NA
ATOM     18  C   LIG d   1       6.311   0.162  -4.839  0.00  0.00     0.138 A 
ATOM     19  H   LIG d   1       5.641   0.419  -5.659  0.00  0.00     0.068 H 
ATOM     20  H   LIG d   1       6.897   2.139  -4.958  0.00  0.00     0.149 HD
BRANCH  18  21
ATOM     21  C   LIG d   1       5.536  -0.306  -3.633  0.00  0.00     0.134 A 
ATOM     22  O   LIG d   1       5.135  -1.566  -3.398  0.00  0.00    -0.465 OA
ATOM     23  C   LIG d   1       4.475  -1.615  -2.230  0.00  0.00     0.092 A 
ATOM     24  C   LIG d   1       4.442  -0.376  -1.708  0.00  0.00    -0.024 A 
ATOM     25  H   LIG d   1       4.043  -2.499  -1.786  0.00  0.00     0.103 H 
ATOM     26  C   LIG d   1       5.129   0.467  -2.612  0.00  0.00    -0.018 A 
ATOM     27  H   LIG d   1       3.983  -0.082  -0.776  0.00  0.00     0.065 H 
ATOM     28  H   LIG d   1       5.295   1.529  -2.502  0.00  0.00     0.065 H 
ENDBRANCH  18  21
ENDBRANCH   4  11
BRANCH   1  29
ATOM     29  O   LIG d   1       9.944   7.146  -2.621  0.00  0.00    -0.492 OA
BRANCH  29  30
ATOM     30  C   LIG d   1       9.811   7.351  -1.213  0.00  0.00     0.087 C 
ATOM     31  H   LIG d   1       9.175   6.572  -0.791  0.00  0.00     0.069 H 
ATOM     32  H   LIG d   1      10.794   7.308  -0.745  0.00  0.00     0.069 H 
BRANCH  30  33
ATOM     33  C   LIG d   1       9.180   8.720  -0.953  0.00  0.00    -0.031 C 
ATOM     34  H   LIG d   1       8.820   9.138  -1.894  0.00  0.00     0.026 H 
ATOM     35  H   LIG d   1       8.347   8.611  -0.261  0.00  0.00     0.026 H 
ATOM     36  H   LIG d   1       9.927   9.387  -0.522  0.00  0.00     0.026 H 
ENDBRANCH  30  33
ENDBRANCH  29  30
ENDBRANCH   1  29
TORSDOF 5
ENDMDL
MODEL 6
REMARK VINA RESULT:      -5.7      5.506      7.785
REMARK  5 active torsions:
REMARK  status: ('A' for Active; 'I' for Inactive)
REMARK    1  A    between atoms: C_1  and  C_2 
REMARK    2  A    between atoms: C_2  and  O_3 
REMARK    3  A    between atoms: O_3  and  C_4 
REMARK    4  A    between atoms: C_7  and  C_10 
REMARK    5  A    between atoms: C_16  and  C_19 
ROOT
ATOM      1  C   LIG d   1       2.016  -0.601 -10.628  0.00  0.00     0.120 A 
ATOM      2  C   LIG d   1       3.269  -0.388 -11.185  0.00  0.00    -0.019 A 
ATOM      3  C   LIG d   1       4.341  -0.076 -10.377  0.00  0.00    -0.048 A 
ATOM      4  C   LIG d   1       4.165   0.027  -8.996  0.00  0.00     0.021 A 
ATOM      5  C   LIG d   1       2.904  -0.194  -8.439  0.00  0.00    -0.048 A 
ATOM      6  C   LIG d   1       1.836  -0.501  -9.254  0.00  0.00    -0.019 A 
ATOM      7  H   LIG d   1       3.405  -0.468 -12.254  0.00  0.00     0.065 H 
ATOM      8  H   LIG d   1       5.316   0.090 -10.812  0.00  0.00     0.063 H 
ATOM      9  H   LIG d   1       2.764  -0.119  -7.371  0.00  0.00     0.063 H 
ATOM     10  H   LIG d   1       0.860  -0.667  -8.825  0.00  0.00     0.065 H 
ENDROOT
BRANCH   4  11
ATOM     11  C   LIG d   1       5.312   0.363  -8.125  0.00  0.00     0.179 A 
ATOM     12  N   LIG d   1       5.724  -0.346  -6.998  0.00  0.00    -0.231 N 
ATOM     13  C   LIG d   1       6.809   0.360  -6.557  0.00  0.00     0.208 A 
ATOM     14  N   LIG d   1       5.320  -1.457  -6.327  0.00  0.00    -0.204 NA
ATOM     15  N   LIG d   1       7.010   1.375  -7.346  0.00  0.00    -0.121 NA
ATOM     16  S   LIG d   1       7.364  -0.516  -5.113  0.00  0.00    -0.056 SA
ATOM     17  N   LIG d   1       6.123   1.378  -8.277  0.00  0.00    -0.127 NA
ATOM     18  C   LIG d   1       6.097  -1.844  -5.132  0.00  0.00     0.138 A 
ATOM     19  H   LIG d   1       6.555  -2.825  -5.260  0.00  0.00     0.068 H 
ATOM     20  H   LIG d   1       5.208  -2.238  -6.955  0.00  0.00     0.149 HD
BRANCH  18  21
ATOM     21  C   LIG d   1       5.245  -1.802  -3.889  0.00  0.00     0.134 A 
ATOM     22  O   LIG d   1       4.203  -2.608  -3.624  0.00  0.00    -0.465 OA
ATOM     23  C   LIG d   1       3.684  -2.288  -2.428  0.00  0.00     0.092 A 
ATOM     24  C   LIG d   1       4.388  -1.262  -1.919  0.00  0.00    -0.024 A 
ATOM     25  H   LIG d   1       2.841  -2.771  -1.957  0.00  0.00     0.103 H 
ATOM     26  C   LIG d   1       5.397  -0.951  -2.860  0.00  0.00    -0.018 A 
ATOM     27  H   LIG d   1       4.220  -0.773  -0.971  0.00  0.00     0.065 H 
ATOM     28  H   LIG d   1       6.147  -0.179  -2.768  0.00  0.00     0.065 H 
ENDBRANCH  18  21
ENDBRANCH   4  11
BRANCH   1  29
ATOM     29  O   LIG d   1       0.962  -0.910 -11.428  0.00  0.00    -0.492 OA
BRANCH  29  30
ATOM     30  C   LIG d   1       1.109  -2.041 -12.289  0.00  0.00     0.087 C 
ATOM     31  H   LIG d   1       0.388  -1.974 -13.104  0.00  0.00     0.069 H 
ATOM     32  H   LIG d   1       2.119  -2.056 -12.699  0.00  0.00     0.069 H 
BRANCH  30  33
ATOM     33  C   LIG d   1       0.862  -3.324 -11.493  0.00  0.00    -0.031 C 
ATOM     34  H   LIG d   1      -0.140  -3.297 -11.063  0.00  0.00     0.026 H 
ATOM     35  H   LIG d   1       0.950  -4.185 -12.155  0.00  0.00     0.026 H 
ATOM     36  H   LIG d   1       1.598  -3.403 -10.694  0.00  0.00     0.026 H 
ENDBRANCH  30  33
ENDBRANCH  29  30
ENDBRANCH   1  29
TORSDOF 5
ENDMDL
MODEL 7
REMARK VINA RESULT:      -5.6      5.523      7.648
REMARK  5 active torsions:
REMARK  status: ('A' for Active; 'I' for Inactive)
REMARK    1  A    between atoms: C_1  and  C_2 
REMARK    2  A    between atoms: C_2  and  O_3 
REMARK    3  A    between atoms: O_3  and  C_4 
REMARK    4  A    between atoms: C_7  and  C_10 
REMARK    5  A    between atoms: C_16  and  C_19 
ROOT
ATOM      1  C   LIG d   1       2.746  -0.068 -10.031  0.00  0.00     0.120 A 
ATOM      2  C   LIG d   1       2.707   1.156  -9.377  0.00  0.00    -0.019 A 
ATOM      3  C   LIG d   1       2.878   1.217  -8.011  0.00  0.00    -0.048 A 
ATOM      4  C   LIG d   1       3.091   0.044  -7.284  0.00  0.00     0.021 A 
ATOM      5  C   LIG d   1       3.136  -1.185  -7.946  0.00  0.00    -0.048 A 
ATOM      6  C   LIG d   1       2.958  -1.237  -9.312  0.00  0.00    -0.019 A 
ATOM      7  H   LIG d   1       2.541   2.063  -9.940  0.00  0.00     0.065 H 
ATOM      8  H   LIG d   1       2.846   2.169  -7.504  0.00  0.00     0.063 H 
ATOM      9  H   LIG d   1       3.304  -2.094  -7.388  0.00  0.00     0.063 H 
ATOM     10  H   LIG d   1       2.987  -2.187  -9.823  0.00  0.00     0.065 H 
ENDROOT
BRANCH   4  11
ATOM     11  C   LIG d   1       3.273   0.103  -5.818  0.00  0.00     0.179 A 
ATOM     12  N   LIG d   1       4.491   0.084  -5.140  0.00  0.00    -0.231 N 
ATOM     13  C   LIG d   1       4.125   0.162  -3.825  0.00  0.00     0.208 A 
ATOM     14  N   LIG d   1       5.807   0.012  -5.473  0.00  0.00    -0.204 NA
ATOM     15  N   LIG d   1       2.828   0.221  -3.743  0.00  0.00    -0.121 NA
ATOM     16  S   LIG d   1       5.658   0.138  -2.924  0.00  0.00    -0.056 SA
ATOM     17  N   LIG d   1       2.321   0.187  -4.925  0.00  0.00    -0.127 NA
ATOM     18  C   LIG d   1       6.786   0.022  -4.367  0.00  0.00     0.138 A 
ATOM     19  H   LIG d   1       7.441   0.891  -4.427  0.00  0.00     0.068 H 
ATOM     20  H   LIG d   1       6.042   0.702  -6.170  0.00  0.00     0.149 HD
BRANCH  18  21
ATOM     21  C   LIG d   1       7.584  -1.256  -4.334  0.00  0.00     0.134 A 
ATOM     22  O   LIG d   1       8.710  -1.498  -5.026  0.00  0.00    -0.465 OA
ATOM     23  C   LIG d   1       9.148  -2.735  -4.749  0.00  0.00     0.092 A 
ATOM     24  C   LIG d   1       8.298  -3.304  -3.877  0.00  0.00    -0.024 A 
ATOM     25  H   LIG d   1      10.034  -3.198  -5.160  0.00  0.00     0.103 H 
ATOM     26  C   LIG d   1       7.290  -2.348  -3.607  0.00  0.00    -0.018 A 
ATOM     27  H   LIG d   1       8.371  -4.297  -3.459  0.00  0.00     0.065 H 
ATOM     28  H   LIG d   1       6.448  -2.472  -2.943  0.00  0.00     0.065 H 
ENDBRANCH  18  21
ENDBRANCH   4  11
BRANCH   1  29
ATOM     29  O   LIG d   1       2.577  -0.123 -11.378  0.00  0.00    -0.492 OA
BRANCH  29  30
ATOM     30  C   LIG d   1       3.349  -1.093 -12.090  0.00  0.00     0.087 C 
ATOM     31  H   LIG d   1       3.613  -1.910 -11.419  0.00  0.00     0.069 H 
ATOM     32  H   LIG d   1       2.765  -1.482 -12.923  0.00  0.00     0.069 H 
BRANCH  30  33
ATOM     33  C   LIG d   1       4.625  -0.438 -12.623  0.00  0.00    -0.031 C 
ATOM     34  H   LIG d   1       5.486  -0.816 -12.070  0.00  0.00     0.026 H 
ATOM     35  H   LIG d   1       4.739  -0.674 -13.680  0.00  0.00     0.026 H 
ATOM     36  H   LIG d   1       4.558   0.642 -12.497  0.00  0.00     0.026 H 
ENDBRANCH  30  33
ENDBRANCH  29  30
ENDBRANCH   1  29
TORSDOF 5
ENDMDL
MODEL 8
REMARK VINA RESULT:      -5.6      4.917      7.471
REMARK  5 active torsions:
REMARK  status: ('A' for Active; 'I' for Inactive)
REMARK    1  A    between atoms: C_1  and  C_2 
REMARK    2  A    between atoms: C_2  and  O_3 
REMARK    3  A    between atoms: O_3  and  C_4 
REMARK    4  A    between atoms: C_7  and  C_10 
REMARK    5  A    between atoms: C_16  and  C_19 
ROOT
ATOM      1  C   LIG d   1       9.609  -6.554  -2.448  0.00  0.00     0.120 A 
ATOM      2  C   LIG d   1       9.886  -5.308  -1.901  0.00  0.00    -0.019 A 
ATOM      3  C   LIG d   1       9.636  -4.163  -2.627  0.00  0.00    -0.048 A 
ATOM      4  C   LIG d   1       9.105  -4.258  -3.915  0.00  0.00     0.021 A 
ATOM      5  C   LIG d   1       8.822  -5.512  -4.459  0.00  0.00    -0.048 A 
ATOM      6  C   LIG d   1       9.080  -6.653  -3.728  0.00  0.00    -0.019 A 
ATOM      7  H   LIG d   1      10.297  -5.236  -0.905  0.00  0.00     0.065 H 
ATOM      8  H   LIG d   1       9.852  -3.195  -2.201  0.00  0.00     0.063 H 
ATOM      9  H   LIG d   1       8.408  -5.590  -5.453  0.00  0.00     0.063 H 
ATOM     10  H   LIG d   1       8.867  -7.623  -4.150  0.00  0.00     0.065 H 
ENDROOT
BRANCH   4  11
ATOM     11  C   LIG d   1       8.837  -3.033  -4.698  0.00  0.00     0.179 A 
ATOM     12  N   LIG d   1       8.027  -1.968  -4.307  0.00  0.00    -0.231 N 
ATOM     13  C   LIG d   1       8.110  -1.101  -5.361  0.00  0.00     0.208 A 
ATOM     14  N   LIG d   1       7.265  -1.650  -3.227  0.00  0.00    -0.204 NA
ATOM     15  N   LIG d   1       8.887  -1.607  -6.273  0.00  0.00    -0.121 NA
ATOM     16  S   LIG d   1       7.084   0.276  -4.898  0.00  0.00    -0.056 SA
ATOM     17  N   LIG d   1       9.320  -2.753  -5.881  0.00  0.00    -0.127 NA
ATOM     18  C   LIG d   1       6.553  -0.356  -3.259  0.00  0.00     0.138 A 
ATOM     19  H   LIG d   1       6.890   0.299  -2.455  0.00  0.00     0.068 H 
ATOM     20  H   LIG d   1       7.788  -1.755  -2.371  0.00  0.00     0.149 HD
BRANCH  18  21
ATOM     21  C   LIG d   1       5.060  -0.554  -3.208  0.00  0.00     0.134 A 
ATOM     22  O   LIG d   1       4.157   0.078  -3.977  0.00  0.00    -0.465 OA
ATOM     23  C   LIG d   1       2.924  -0.348  -3.660  0.00  0.00     0.092 A 
ATOM     24  C   LIG d   1       3.027  -1.256  -2.674  0.00  0.00    -0.024 A 
ATOM     25  H   LIG d   1       2.004  -0.016  -4.119  0.00  0.00     0.103 H 
ATOM     26  C   LIG d   1       4.405  -1.390  -2.384  0.00  0.00    -0.018 A 
ATOM     27  H   LIG d   1       2.215  -1.785  -2.197  0.00  0.00     0.065 H 
ATOM     28  H   LIG d   1       4.846  -2.042  -1.644  0.00  0.00     0.065 H 
ENDBRANCH  18  21
ENDBRANCH   4  11
BRANCH   1  29
ATOM     29  O   LIG d   1       9.856  -7.680  -1.729  0.00  0.00    -0.492 OA
BRANCH  29  30
ATOM     30  C   LIG d   1      11.169  -7.827  -1.183  0.00  0.00     0.087 C 
ATOM     31  H   LIG d   1      11.762  -8.470  -1.834  0.00  0.00     0.069 H 
ATOM     32  H   LIG d   1      11.643  -6.849  -1.108  0.00  0.00     0.069 H 
BRANCH  30  33
ATOM     33  C   LIG d   1      11.076  -8.457   0.208  0.00  0.00    -0.031 C 
ATOM     34  H   LIG d   1      11.419  -7.740   0.955  0.00  0.00     0.026 H 
ATOM     35  H   LIG d   1      10.042  -8.731   0.414  0.00  0.00     0.026 H 
ATOM     36  H   LIG d   1      11.702  -9.348   0.245  0.00  0.00     0.026 H 
ENDBRANCH  30  33
ENDBRANCH  29  30
ENDBRANCH   1  29
TORSDOF 5
ENDMDL
MODEL 9
REMARK VINA RESULT:      -5.4      6.818      9.287
REMARK  5 active torsions:
REMARK  status: ('A' for Active; 'I' for Inactive)
REMARK    1  A    between atoms: C_1  and  C_2 
REMARK    2  A    between atoms: C_2  and  O_3 
REMARK    3  A    between atoms: O_3  and  C_4 
REMARK    4  A    between atoms: C_7  and  C_10 
REMARK    5  A    between atoms: C_16  and  C_19 
ROOT
ATOM      1  C   LIG d   1       6.852  -9.500  -4.149  0.00  0.00     0.120 A 
ATOM      2  C   LIG d   1       7.581  -8.434  -4.659  0.00  0.00    -0.019 A 
ATOM      3  C   LIG d   1       6.936  -7.405  -5.311  0.00  0.00    -0.048 A 
ATOM      4  C   LIG d   1       5.548  -7.435  -5.457  0.00  0.00     0.021 A 
ATOM      5  C   LIG d   1       4.818  -8.506  -4.937  0.00  0.00    -0.048 A 
ATOM      6  C   LIG d   1       5.472  -9.534  -4.291  0.00  0.00    -0.019 A 
ATOM      7  H   LIG d   1       8.655  -8.411  -4.545  0.00  0.00     0.065 H 
ATOM      8  H   LIG d   1       7.504  -6.577  -5.708  0.00  0.00     0.063 H 
ATOM      9  H   LIG d   1       3.744  -8.532  -5.045  0.00  0.00     0.063 H 
ATOM     10  H   LIG d   1       4.909 -10.365  -3.893  0.00  0.00     0.065 H 
ENDROOT
BRANCH   4  11
ATOM     11  C   LIG d   1       4.852  -6.334  -6.157  0.00  0.00     0.179 A 
ATOM     12  N   LIG d   1       5.056  -4.971  -5.951  0.00  0.00    -0.231 N 
ATOM     13  C   LIG d   1       4.187  -4.383  -6.828  0.00  0.00     0.208 A 
ATOM     14  N   LIG d   1       5.842  -4.198  -5.156  0.00  0.00    -0.204 NA
ATOM     15  N   LIG d   1       3.543  -5.307  -7.479  0.00  0.00    -0.121 NA
ATOM     16  S   LIG d   1       4.418  -2.635  -6.593  0.00  0.00    -0.056 SA
ATOM     17  N   LIG d   1       3.937  -6.466  -7.083  0.00  0.00    -0.127 NA
ATOM     18  C   LIG d   1       5.707  -2.733  -5.290  0.00  0.00     0.138 A 
ATOM     19  H   LIG d   1       6.641  -2.280  -5.624  0.00  0.00     0.068 H 
ATOM     20  H   LIG d   1       6.809  -4.479  -5.219  0.00  0.00     0.149 HD
BRANCH  18  21
ATOM     21  C   LIG d   1       5.232  -2.109  -4.004  0.00  0.00     0.134 A 
ATOM     22  O   LIG d   1       5.674  -0.954  -3.481  0.00  0.00    -0.465 OA
ATOM     23  C   LIG d   1       5.026  -0.705  -2.332  0.00  0.00     0.092 A 
ATOM     24  C   LIG d   1       4.162  -1.710  -2.105  0.00  0.00    -0.024 A 
ATOM     25  H   LIG d   1       5.174   0.155  -1.696  0.00  0.00     0.103 H 
ATOM     26  C   LIG d   1       4.293  -2.614  -3.184  0.00  0.00    -0.018 A 
ATOM     27  H   LIG d   1       3.494  -1.808  -1.262  0.00  0.00     0.065 H 
ATOM     28  H   LIG d   1       3.743  -3.533  -3.325  0.00  0.00     0.065 H 
ENDBRANCH  18  21
ENDBRANCH   4  11
BRANCH   1  29
ATOM     29  O   LIG d   1       7.492 -10.512  -3.506  0.00  0.00    -0.492 OA
BRANCH  29  30
ATOM     30  C   LIG d   1       8.298 -10.160  -2.380  0.00  0.00     0.087 C 
ATOM     31  H   LIG d   1       8.951 -10.995  -2.125  0.00  0.00     0.069 H 
ATOM     32  H   LIG d   1       8.904  -9.287  -2.625  0.00  0.00     0.069 H 
BRANCH  30  33
ATOM     33  C   LIG d   1       7.396  -9.836  -1.187  0.00  0.00    -0.031 C 
ATOM     34  H   LIG d   1       6.441  -9.452  -1.548  0.00  0.00     0.026 H 
ATOM     35  H   LIG d   1       7.227 -10.740  -0.604  0.00  0.00     0.026 H 
ATOM     36  H   LIG d   1       7.877  -9.084  -0.563  0.00  0.00     0.026 H 
ENDBRANCH  30  33
ENDBRANCH  29  30
ENDBRANCH   1  29
TORSDOF 5
ENDMDL
