MODEL 1
REMARK VINA RESULT:      -5.8      0.000      0.000
REMARK  15 active torsions:
REMARK  status: ('A' for Active; 'I' for Inactive)
REMARK    1  A    between atoms: C_1  and  C_2 
REMARK    2  A    between atoms: C_2  and  C_3 
REMARK    3  A    between atoms: C_2  and  C_4 
REMARK    4  A    between atoms: C_4  and  O_6 
REMARK    5  A    between atoms: O_6  and  C_7 
REMARK    6  A    between atoms: C_10  and  C_28 
REMARK    7  A    between atoms: C_10  and  C_29 
REMARK    8  A    between atoms: C_11  and  C_24 
REMARK    9  A    between atoms: C_13  and  O_23 
REMARK   10  A    between atoms: C_15  and  C_17 
REMARK   11  A    between atoms: C_17  and  C_19 
REMARK   12  A    between atoms: C_19  and  O_21 
REMARK   13  A    between atoms: O_21  and  C_22 
REMARK   14  A    between atoms: C_24  and  C_26 
REMARK   15  A    between atoms: C_26  and  O_27 
ROOT
ATOM      1  C   LIG d   1       6.590  -1.038  -3.133  0.00  0.00     0.113 C 
ATOM      2  H   LIG d   1       6.952  -0.578  -2.214  0.00  0.00     0.074 H 
ATOM      3  C   LIG d   1       7.473  -2.236  -3.487  0.00  0.00    -0.005 C 
ATOM      4  C   LIG d   1       6.965  -2.881  -4.778  0.00  0.00    -0.002 C 
ATOM      5  C   LIG d   1       5.522  -3.351  -4.580  0.00  0.00     0.018 C 
ATOM      6  H   LIG d   1       5.484  -4.080  -3.770  0.00  0.00     0.038 H 
ATOM      7  C   LIG d   1       4.640  -2.151  -4.227  0.00  0.00     0.073 C 
ATOM      8  H   LIG d   1       3.611  -2.486  -4.086  0.00  0.00     0.061 H 
ATOM      9  C   LIG d   1       5.148  -1.506  -2.936  0.00  0.00     0.054 C 
ATOM     10  H   LIG d   1       5.110  -2.236  -2.126  0.00  0.00     0.041 H 
ATOM     11  H   LIG d   1       8.500  -1.903  -3.627  0.00  0.00     0.031 H 
ATOM     12  H   LIG d   1       7.435  -2.966  -2.677  0.00  0.00     0.031 H 
ENDROOT
BRANCH   1  13
ATOM     13  O   LIG d   1       6.639  -0.082  -4.195  0.00  0.00    -0.460 OA
BRANCH  13  14
ATOM     14  C   LIG d   1       7.319   1.052  -3.963  0.00  0.00     0.310 C 
ATOM     15  O   LIG d   1       6.773   1.982  -3.417  0.00  0.00    -0.251 OA
BRANCH  14  16
ATOM     16  C   LIG d   1       8.761   1.166  -4.385  0.00  0.00     0.051 C 
ATOM     17  H   LIG d   1       9.272   0.224  -4.191  0.00  0.00     0.041 H 
BRANCH  16  18
ATOM     18  C   LIG d   1       8.831   1.487  -5.880  0.00  0.00    -0.052 C 
ATOM     19  H   LIG d   1       9.623   0.897  -6.341  0.00  0.00     0.024 H 
ATOM     20  H   LIG d   1       7.878   1.244  -6.349  0.00  0.00     0.024 H 
ATOM     21  H   LIG d   1       9.043   2.547  -6.014  0.00  0.00     0.024 H 
ENDBRANCH  16  18
BRANCH  16  22
ATOM     22  C   LIG d   1       9.436   2.286  -3.591  0.00  0.00    -0.052 C 
ATOM     23  H   LIG d   1      10.319   2.631  -4.129  0.00  0.00     0.024 H 
ATOM     24  H   LIG d   1       8.739   3.115  -3.468  0.00  0.00     0.024 H 
ATOM     25  H   LIG d   1       9.730   1.911  -2.611  0.00  0.00     0.024 H 
ENDBRANCH  16  22
ENDBRANCH  14  16
ENDBRANCH  13  14
ENDBRANCH   1  13
BRANCH   9  26
ATOM     26  C   LIG d   1       4.278  -0.326  -2.589  0.00  0.00     0.038 C 
ATOM     27  C   LIG d   1       4.573   0.430  -1.533  0.00  0.00    -0.088 C 
ATOM     28  H   LIG d   1       4.008   1.329  -1.339  0.00  0.00     0.054 H 
ATOM     29  H   LIG d   1       5.376   0.142  -0.870  0.00  0.00     0.054 H 
BRANCH  26  30
ATOM     30  C   LIG d   1       3.105  -0.009  -3.414  0.00  0.00     0.335 C 
ATOM     31  O   LIG d   1       2.114  -0.710  -3.358  0.00  0.00    -0.245 OA
BRANCH  30  32
ATOM     32  O   LIG d   1       3.127   1.061  -4.233  0.00  0.00    -0.465 OA
BRANCH  32  33
ATOM     33  C   LIG d   1       2.264   1.025  -5.372  0.00  0.00     0.082 C 
ATOM     34  H   LIG d   1       1.267   1.362  -5.084  0.00  0.00     0.066 H 
ATOM     35  H   LIG d   1       2.659   1.682  -6.147  0.00  0.00     0.066 H 
ATOM     36  H   LIG d   1       2.206   0.006  -5.753  0.00  0.00     0.066 H 
ENDBRANCH  32  33
ENDBRANCH  30  32
ENDBRANCH  26  30
ENDBRANCH   9  26
BRANCH   7  37
ATOM     37  O   LIG d   1       4.688  -1.196  -5.288  0.00  0.00    -0.390 OA
ATOM     38  H   LIG d   1       5.426  -1.324  -5.900  0.00  0.00     0.210 HD
ENDBRANCH   7  37
BRANCH   4  39
ATOM     39  C   LIG d   1       7.017  -1.859  -5.913  0.00  0.00    -0.055 C 
ATOM     40  H   LIG d   1       6.125  -1.231  -5.879  0.00  0.00     0.024 H 
ATOM     41  H   LIG d   1       7.904  -1.235  -5.801  0.00  0.00     0.024 H 
ATOM     42  H   LIG d   1       7.057  -2.379  -6.870  0.00  0.00     0.024 H 
ENDBRANCH   4  39
BRANCH   4  43
ATOM     43  C   LIG d   1       7.833  -4.063  -5.125  0.00  0.00    -0.084 C 
ATOM     44  C   LIG d   1       8.645  -4.566  -4.227  0.00  0.00    -0.102 C 
ATOM     45  H   LIG d   1       8.690  -4.134  -3.239  0.00  0.00     0.053 H 
ATOM     46  H   LIG d   1       9.267  -5.413  -4.476  0.00  0.00     0.053 H 
ATOM     47  H   LIG d   1       7.788  -4.495  -6.114  0.00  0.00     0.057 H 
ENDBRANCH   4  43
BRANCH   5  48
ATOM     48  C   LIG d   1       5.021  -3.986  -5.851  0.00  0.00    -0.045 C 
ATOM     49  C   LIG d   1       5.144  -3.354  -6.992  0.00  0.00    -0.097 C 
ATOM     50  H   LIG d   1       4.785  -3.809  -7.903  0.00  0.00     0.053 H 
ATOM     51  H   LIG d   1       5.605  -2.378  -7.021  0.00  0.00     0.053 H 
BRANCH  48  52
ATOM     52  C   LIG d   1       4.378  -5.349  -5.810  0.00  0.00     0.065 C 
ATOM     53  H   LIG d   1       4.987  -6.055  -6.375  0.00  0.00     0.060 H 
ATOM     54  H   LIG d   1       4.299  -5.683  -4.775  0.00  0.00     0.060 H 
BRANCH  52  55
ATOM     55  O   LIG d   1       3.073  -5.277  -6.387  0.00  0.00    -0.391 OA
ATOM     56  H   LIG d   1       2.378  -5.666  -5.839  0.00  0.00     0.210 HD
ENDBRANCH  52  55
ENDBRANCH  48  52
ENDBRANCH   5  48
TORSDOF 15
ENDMDL
MODEL 2
REMARK VINA RESULT:      -5.4      2.399      5.066
REMARK  15 active torsions:
REMARK  status: ('A' for Active; 'I' for Inactive)
REMARK    1  A    between atoms: C_1  and  C_2 
REMARK    2  A    between atoms: C_2  and  C_3 
REMARK    3  A    between atoms: C_2  and  C_4 
REMARK    4  A    between atoms: C_4  and  O_6 
REMARK    5  A    between atoms: O_6  and  C_7 
REMARK    6  A    between atoms: C_10  and  C_28 
REMARK    7  A    between atoms: C_10  and  C_29 
REMARK    8  A    between atoms: C_11  and  C_24 
REMARK    9  A    between atoms: C_13  and  O_23 
REMARK   10  A    between atoms: C_15  and  C_17 
REMARK   11  A    between atoms: C_17  and  C_19 
REMARK   12  A    between atoms: C_19  and  O_21 
REMARK   13  A    between atoms: O_21  and  C_22 
REMARK   14  A    between atoms: C_24  and  C_26 
REMARK   15  A    between atoms: C_26  and  O_27 
ROOT
ATOM      1  C   LIG d   1       5.714  -0.710  -5.793  0.00  0.00     0.113 C 
ATOM      2  H   LIG d   1       6.404  -0.374  -5.020  0.00  0.00     0.074 H 
ATOM      3  C   LIG d   1       5.685   0.312  -6.931  0.00  0.00    -0.005 C 
ATOM      4  C   LIG d   1       4.716  -0.160  -8.017  0.00  0.00    -0.002 C 
ATOM      5  C   LIG d   1       5.178  -1.514  -8.560  0.00  0.00     0.018 C 
ATOM      6  H   LIG d   1       6.177  -1.414  -8.983  0.00  0.00     0.038 H 
ATOM      7  C   LIG d   1       5.206  -2.536  -7.421  0.00  0.00     0.073 C 
ATOM      8  H   LIG d   1       5.535  -3.501  -7.808  0.00  0.00     0.061 H 
ATOM      9  C   LIG d   1       6.175  -2.064  -6.336  0.00  0.00     0.054 C 
ATOM     10  H   LIG d   1       7.175  -1.965  -6.759  0.00  0.00     0.041 H 
ATOM     11  H   LIG d   1       5.357   1.276  -6.545  0.00  0.00     0.031 H 
ATOM     12  H   LIG d   1       6.685   0.412  -7.355  0.00  0.00     0.031 H 
ENDROOT
BRANCH   1  13
ATOM     13  O   LIG d   1       4.404  -0.841  -5.238  0.00  0.00    -0.460 OA
BRANCH  13  14
ATOM     14  C   LIG d   1       4.136  -0.129  -4.133  0.00  0.00     0.310 C 
ATOM     15  O   LIG d   1       3.454   0.867  -4.207  0.00  0.00    -0.251 OA
BRANCH  14  16
ATOM     16  C   LIG d   1       4.686  -0.569  -2.800  0.00  0.00     0.051 C 
ATOM     17  H   LIG d   1       5.737  -0.832  -2.910  0.00  0.00     0.041 H 
BRANCH  16  18
ATOM     18  C   LIG d   1       4.546   0.571  -1.790  0.00  0.00    -0.052 C 
ATOM     19  H   LIG d   1       3.796   1.280  -2.144  0.00  0.00     0.024 H 
ATOM     20  H   LIG d   1       4.237   0.168  -0.826  0.00  0.00     0.024 H 
ATOM     21  H   LIG d   1       5.504   1.080  -1.681  0.00  0.00     0.024 H 
ENDBRANCH  16  18
BRANCH  16  22
ATOM     22  C   LIG d   1       3.904  -1.788  -2.306  0.00  0.00    -0.052 C 
ATOM     23  H   LIG d   1       4.527  -2.365  -1.622  0.00  0.00     0.024 H 
ATOM     24  H   LIG d   1       3.005  -1.456  -1.785  0.00  0.00     0.024 H 
ATOM     25  H   LIG d   1       3.623  -2.409  -3.155  0.00  0.00     0.024 H 
ENDBRANCH  16  22
ENDBRANCH  14  16
ENDBRANCH  13  14
ENDBRANCH   1  13
BRANCH   9  26
ATOM     26  C   LIG d   1       6.202  -3.072  -5.215  0.00  0.00     0.038 C 
ATOM     27  C   LIG d   1       7.033  -2.902  -4.189  0.00  0.00    -0.088 C 
ATOM     28  H   LIG d   1       6.987  -3.570  -3.342  0.00  0.00     0.054 H 
ATOM     29  H   LIG d   1       7.753  -2.098  -4.204  0.00  0.00     0.054 H 
BRANCH  26  30
ATOM     30  C   LIG d   1       5.314  -4.241  -5.256  0.00  0.00     0.335 C 
ATOM     31  O   LIG d   1       4.294  -4.253  -4.596  0.00  0.00    -0.245 OA
BRANCH  30  32
ATOM     32  O   LIG d   1       5.630  -5.301  -6.027  0.00  0.00    -0.465 OA
BRANCH  32  33
ATOM     33  C   LIG d   1       4.744  -6.421  -5.985  0.00  0.00     0.082 C 
ATOM     34  H   LIG d   1       4.890  -7.034  -6.875  0.00  0.00     0.066 H 
ATOM     35  H   LIG d   1       4.954  -7.017  -5.096  0.00  0.00     0.066 H 
ATOM     36  H   LIG d   1       3.713  -6.070  -5.951  0.00  0.00     0.066 H 
ENDBRANCH  32  33
ENDBRANCH  30  32
ENDBRANCH  26  30
ENDBRANCH   9  26
BRANCH   7  37
ATOM     37  O   LIG d   1       3.896  -2.667  -6.867  0.00  0.00    -0.390 OA
ATOM     38  H   LIG d   1       3.356  -1.868  -6.939  0.00  0.00     0.210 HD
ENDBRANCH   7  37
BRANCH   4  39
ATOM     39  C   LIG d   1       3.314  -0.300  -7.423  0.00  0.00    -0.055 C 
ATOM     40  H   LIG d   1       2.609  -0.562  -8.213  0.00  0.00     0.024 H 
ATOM     41  H   LIG d   1       3.317  -1.083  -6.665  0.00  0.00     0.024 H 
ATOM     42  H   LIG d   1       3.016   0.645  -6.969  0.00  0.00     0.024 H 
ENDBRANCH   4  39
BRANCH   4  43
ATOM     43  C   LIG d   1       4.689   0.847  -9.138  0.00  0.00    -0.084 C 
ATOM     44  C   LIG d   1       3.829   1.836  -9.109  0.00  0.00    -0.102 C 
ATOM     45  H   LIG d   1       3.141   1.929  -8.282  0.00  0.00     0.053 H 
ATOM     46  H   LIG d   1       3.809   2.558  -9.912  0.00  0.00     0.053 H 
ATOM     47  H   LIG d   1       5.376   0.754  -9.965  0.00  0.00     0.057 H 
ENDBRANCH   4  43
BRANCH   5  48
ATOM     48  C   LIG d   1       4.224  -1.979  -9.629  0.00  0.00    -0.045 C 
ATOM     49  C   LIG d   1       4.668  -2.250 -10.831  0.00  0.00    -0.097 C 
ATOM     50  H   LIG d   1       3.984  -2.583 -11.598  0.00  0.00     0.053 H 
ATOM     51  H   LIG d   1       5.719  -2.141 -11.056  0.00  0.00     0.053 H 
BRANCH  48  52
ATOM     52  C   LIG d   1       2.757  -2.131  -9.316  0.00  0.00     0.065 C 
ATOM     53  H   LIG d   1       2.554  -1.727  -8.324  0.00  0.00     0.060 H 
ATOM     54  H   LIG d   1       2.170  -1.589 -10.057  0.00  0.00     0.060 H 
BRANCH  52  55
ATOM     55  O   LIG d   1       2.405  -3.515  -9.348  0.00  0.00    -0.391 OA
ATOM     56  H   LIG d   1       1.463  -3.685  -9.209  0.00  0.00     0.210 HD
ENDBRANCH  52  55
ENDBRANCH  48  52
ENDBRANCH   5  48
TORSDOF 15
ENDMDL
MODEL 3
REMARK VINA RESULT:      -5.3      3.132      5.679
REMARK  15 active torsions:
REMARK  status: ('A' for Active; 'I' for Inactive)
REMARK    1  A    between atoms: C_1  and  C_2 
REMARK    2  A    between atoms: C_2  and  C_3 
REMARK    3  A    between atoms: C_2  and  C_4 
REMARK    4  A    between atoms: C_4  and  O_6 
REMARK    5  A    between atoms: O_6  and  C_7 
REMARK    6  A    between atoms: C_10  and  C_28 
REMARK    7  A    between atoms: C_10  and  C_29 
REMARK    8  A    between atoms: C_11  and  C_24 
REMARK    9  A    between atoms: C_13  and  O_23 
REMARK   10  A    between atoms: C_15  and  C_17 
REMARK   11  A    between atoms: C_17  and  C_19 
REMARK   12  A    between atoms: C_19  and  O_21 
REMARK   13  A    between atoms: O_21  and  C_22 
REMARK   14  A    between atoms: C_24  and  C_26 
REMARK   15  A    between atoms: C_26  and  O_27 
ROOT
ATOM      1  C   LIG d   1       5.376  -0.794  -6.757  0.00  0.00     0.113 C 
ATOM      2  H   LIG d   1       6.232  -0.919  -6.095  0.00  0.00     0.074 H 
ATOM      3  C   LIG d   1       5.621   0.395  -7.689  0.00  0.00    -0.005 C 
ATOM      4  C   LIG d   1       4.419   0.571  -8.619  0.00  0.00    -0.002 C 
ATOM      5  C   LIG d   1       4.228  -0.699  -9.452  0.00  0.00     0.018 C 
ATOM      6  H   LIG d   1       5.123  -0.882 -10.045  0.00  0.00     0.038 H 
ATOM      7  C   LIG d   1       3.982  -1.887  -8.519  0.00  0.00     0.073 C 
ATOM      8  H   LIG d   1       3.846  -2.792  -9.113  0.00  0.00     0.061 H 
ATOM      9  C   LIG d   1       5.184  -2.063  -7.589  0.00  0.00     0.054 C 
ATOM     10  H   LIG d   1       6.080  -2.247  -8.184  0.00  0.00     0.041 H 
ATOM     11  H   LIG d   1       5.757   1.298  -7.096  0.00  0.00     0.031 H 
ATOM     12  H   LIG d   1       6.517   0.211  -8.283  0.00  0.00     0.031 H 
ENDROOT
BRANCH   1  13
ATOM     13  O   LIG d   1       4.202  -0.554  -5.978  0.00  0.00    -0.460 OA
BRANCH  13  14
ATOM     14  C   LIG d   1       4.380  -0.044  -4.750  0.00  0.00     0.310 C 
ATOM     15  O   LIG d   1       5.497   0.158  -4.336  0.00  0.00    -0.251 OA
BRANCH  14  16
ATOM     16  C   LIG d   1       3.186   0.276  -3.886  0.00  0.00     0.051 C 
ATOM     17  H   LIG d   1       2.352   0.580  -4.517  0.00  0.00     0.041 H 
BRANCH  16  18
ATOM     18  C   LIG d   1       2.793  -0.964  -3.081  0.00  0.00    -0.052 C 
ATOM     19  H   LIG d   1       3.117  -1.860  -3.612  0.00  0.00     0.024 H 
ATOM     20  H   LIG d   1       3.272  -0.929  -2.103  0.00  0.00     0.024 H 
ATOM     21  H   LIG d   1       1.711  -0.987  -2.956  0.00  0.00     0.024 H 
ENDBRANCH  16  18
BRANCH  16  22
ATOM     22  C   LIG d   1       3.543   1.415  -2.929  0.00  0.00    -0.052 C 
ATOM     23  H   LIG d   1       3.383   2.371  -3.426  0.00  0.00     0.024 H 
ATOM     24  H   LIG d   1       2.908   1.356  -2.043  0.00  0.00     0.024 H 
ATOM     25  H   LIG d   1       4.587   1.328  -2.633  0.00  0.00     0.024 H 
ENDBRANCH  16  22
ENDBRANCH  14  16
ENDBRANCH  13  14
ENDBRANCH   1  13
BRANCH   9  26
ATOM     26  C   LIG d   1       4.942  -3.234  -6.672  0.00  0.00     0.038 C 
ATOM     27  C   LIG d   1       4.112  -4.207  -7.042  0.00  0.00    -0.088 C 
ATOM     28  H   LIG d   1       4.011  -5.091  -6.430  0.00  0.00     0.054 H 
ATOM     29  H   LIG d   1       3.540  -4.112  -7.953  0.00  0.00     0.054 H 
BRANCH  26  30
ATOM     30  C   LIG d   1       5.620  -3.302  -5.371  0.00  0.00     0.335 C 
ATOM     31  O   LIG d   1       4.969  -3.406  -4.350  0.00  0.00    -0.245 OA
BRANCH  30  32
ATOM     32  O   LIG d   1       6.965  -3.249  -5.309  0.00  0.00    -0.465 OA
BRANCH  32  33
ATOM     33  C   LIG d   1       7.540  -2.701  -4.121  0.00  0.00     0.082 C 
ATOM     34  H   LIG d   1       8.567  -2.395  -4.321  0.00  0.00     0.066 H 
ATOM     35  H   LIG d   1       6.958  -1.835  -3.803  0.00  0.00     0.066 H 
ATOM     36  H   LIG d   1       7.533  -3.452  -3.332  0.00  0.00     0.066 H 
ENDBRANCH  32  33
ENDBRANCH  30  32
ENDBRANCH  26  30
ENDBRANCH   9  26
BRANCH   7  37
ATOM     37  O   LIG d   1       2.808  -1.647  -7.741  0.00  0.00    -0.390 OA
ATOM     38  H   LIG d   1       2.933  -1.006  -7.028  0.00  0.00     0.210 HD
ENDBRANCH   7  37
BRANCH   4  39
ATOM     39  C   LIG d   1       3.163   0.828  -7.785  0.00  0.00    -0.055 C 
ATOM     40  H   LIG d   1       2.857  -0.097  -7.294  0.00  0.00     0.024 H 
ATOM     41  H   LIG d   1       3.376   1.586  -7.031  0.00  0.00     0.024 H 
ATOM     42  H   LIG d   1       2.360   1.177  -8.435  0.00  0.00     0.024 H 
ENDBRANCH   4  39
BRANCH   4  43
ATOM     43  C   LIG d   1       4.660   1.741  -9.537  0.00  0.00    -0.084 C 
ATOM     44  C   LIG d   1       3.917   2.816  -9.437  0.00  0.00    -0.102 C 
ATOM     45  H   LIG d   1       3.132   2.862  -8.697  0.00  0.00     0.053 H 
ATOM     46  H   LIG d   1       4.090   3.655 -10.094  0.00  0.00     0.053 H 
ATOM     47  H   LIG d   1       5.445   1.695 -10.276  0.00  0.00     0.057 H 
ENDBRANCH   4  43
BRANCH   5  48
ATOM     48  C   LIG d   1       3.044  -0.525 -10.367  0.00  0.00    -0.045 C 
ATOM     49  C   LIG d   1       3.224  -0.433 -11.662  0.00  0.00    -0.097 C 
ATOM     50  H   LIG d   1       2.376  -0.308 -12.318  0.00  0.00     0.053 H 
ATOM     51  H   LIG d   1       4.222  -0.481 -12.072  0.00  0.00     0.053 H 
BRANCH  48  52
ATOM     52  C   LIG d   1       1.651  -0.458  -9.794  0.00  0.00     0.065 C 
ATOM     53  H   LIG d   1       1.708  -0.416  -8.707  0.00  0.00     0.060 H 
ATOM     54  H   LIG d   1       1.148   0.433 -10.168  0.00  0.00     0.060 H 
BRANCH  52  55
ATOM     55  O   LIG d   1       0.918  -1.619 -10.188  0.00  0.00    -0.391 OA
ATOM     56  H   LIG d   1       1.337  -2.453  -9.935  0.00  0.00     0.210 HD
ENDBRANCH  52  55
ENDBRANCH  48  52
ENDBRANCH   5  48
TORSDOF 15
ENDMDL
MODEL 4
REMARK VINA RESULT:      -5.3      3.020      5.658
REMARK  15 active torsions:
REMARK  status: ('A' for Active; 'I' for Inactive)
REMARK    1  A    between atoms: C_1  and  C_2 
REMARK    2  A    between atoms: C_2  and  C_3 
REMARK    3  A    between atoms: C_2  and  C_4 
REMARK    4  A    between atoms: C_4  and  O_6 
REMARK    5  A    between atoms: O_6  and  C_7 
REMARK    6  A    between atoms: C_10  and  C_28 
REMARK    7  A    between atoms: C_10  and  C_29 
REMARK    8  A    between atoms: C_11  and  C_24 
REMARK    9  A    between atoms: C_13  and  O_23 
REMARK   10  A    between atoms: C_15  and  C_17 
REMARK   11  A    between atoms: C_17  and  C_19 
REMARK   12  A    between atoms: C_19  and  O_21 
REMARK   13  A    between atoms: O_21  and  C_22 
REMARK   14  A    between atoms: C_24  and  C_26 
REMARK   15  A    between atoms: C_26  and  O_27 
ROOT
ATOM      1  C   LIG d   1       5.642  -0.751  -6.604  0.00  0.00     0.113 C 
ATOM      2  H   LIG d   1       6.507  -0.724  -5.941  0.00  0.00     0.074 H 
ATOM      3  C   LIG d   1       5.709   0.428  -7.578  0.00  0.00    -0.005 C 
ATOM      4  C   LIG d   1       4.495   0.391  -8.508  0.00  0.00    -0.002 C 
ATOM      5  C   LIG d   1       4.495  -0.921  -9.295  0.00  0.00     0.018 C 
ATOM      6  H   LIG d   1       5.408  -0.991  -9.886  0.00  0.00     0.038 H 
ATOM      7  C   LIG d   1       4.427  -2.099  -8.321  0.00  0.00     0.073 C 
ATOM      8  H   LIG d   1       4.427  -3.035  -8.881  0.00  0.00     0.061 H 
ATOM      9  C   LIG d   1       5.641  -2.063  -7.390  0.00  0.00     0.054 C 
ATOM     10  H   LIG d   1       6.555  -2.133  -7.982  0.00  0.00     0.041 H 
ATOM     11  H   LIG d   1       5.710   1.362  -7.018  0.00  0.00     0.031 H 
ATOM     12  H   LIG d   1       6.623   0.358  -8.169  0.00  0.00     0.031 H 
ENDROOT
BRANCH   1  13
ATOM     13  O   LIG d   1       4.445  -0.660  -5.829  0.00  0.00    -0.460 OA
BRANCH  13  14
ATOM     14  C   LIG d   1       4.567  -0.216  -4.568  0.00  0.00     0.310 C 
ATOM     15  O   LIG d   1       5.558   0.392  -4.236  0.00  0.00    -0.251 OA
BRANCH  14  16
ATOM     16  C   LIG d   1       3.471  -0.476  -3.567  0.00  0.00     0.051 C 
ATOM     17  H   LIG d   1       2.511  -0.510  -4.080  0.00  0.00     0.041 H 
BRANCH  16  18
ATOM     18  C   LIG d   1       3.725  -1.815  -2.870  0.00  0.00    -0.052 C 
ATOM     19  H   LIG d   1       3.154  -1.854  -1.941  0.00  0.00     0.024 H 
ATOM     20  H   LIG d   1       3.412  -2.629  -3.522  0.00  0.00     0.024 H 
ATOM     21  H   LIG d   1       4.787  -1.913  -2.648  0.00  0.00     0.024 H 
ENDBRANCH  16  18
BRANCH  16  22
ATOM     22  C   LIG d   1       3.455   0.646  -2.527  0.00  0.00    -0.052 C 
ATOM     23  H   LIG d   1       3.204   0.232  -1.551  0.00  0.00     0.024 H 
ATOM     24  H   LIG d   1       4.441   1.111  -2.481  0.00  0.00     0.024 H 
ATOM     25  H   LIG d   1       2.714   1.393  -2.809  0.00  0.00     0.024 H 
ENDBRANCH  16  22
ENDBRANCH  14  16
ENDBRANCH  13  14
ENDBRANCH   1  13
BRANCH   9  26
ATOM     26  C   LIG d   1       5.574  -3.224  -6.432  0.00  0.00     0.038 C 
ATOM     27  C   LIG d   1       6.259  -3.184  -5.291  0.00  0.00    -0.088 C 
ATOM     28  H   LIG d   1       6.138  -3.971  -4.562  0.00  0.00     0.054 H 
ATOM     29  H   LIG d   1       6.937  -2.366  -5.096  0.00  0.00     0.054 H 
BRANCH  26  30
ATOM     30  C   LIG d   1       4.755  -4.399  -6.756  0.00  0.00     0.335 C 
ATOM     31  O   LIG d   1       3.745  -4.630  -6.121  0.00  0.00    -0.245 OA
BRANCH  30  32
ATOM     32  O   LIG d   1       5.122  -5.220  -7.760  0.00  0.00    -0.465 OA
BRANCH  32  33
ATOM     33  C   LIG d   1       4.077  -5.907  -8.452  0.00  0.00     0.082 C 
ATOM     34  H   LIG d   1       3.518  -6.524  -7.747  0.00  0.00     0.066 H 
ATOM     35  H   LIG d   1       3.406  -5.180  -8.910  0.00  0.00     0.066 H 
ATOM     36  H   LIG d   1       4.508  -6.541  -9.226  0.00  0.00     0.066 H 
ENDBRANCH  32  33
ENDBRANCH  30  32
ENDBRANCH  26  30
ENDBRANCH   9  26
BRANCH   7  37
ATOM     37  O   LIG d   1       3.230  -2.009  -7.546  0.00  0.00    -0.390 OA
ATOM     38  H   LIG d   1       2.486  -2.507  -7.912  0.00  0.00     0.210 HD
ENDBRANCH   7  37
BRANCH   4  39
ATOM     39  C   LIG d   1       3.214   0.488  -7.678  0.00  0.00    -0.055 C 
ATOM     40  H   LIG d   1       2.865  -0.514  -7.429  0.00  0.00     0.024 H 
ATOM     41  H   LIG d   1       3.417   1.041  -6.761  0.00  0.00     0.024 H 
ATOM     42  H   LIG d   1       2.447   1.007  -8.253  0.00  0.00     0.024 H 
ENDBRANCH   4  39
BRANCH   4  43
ATOM     43  C   LIG d   1       4.562   1.551  -9.467  0.00  0.00    -0.084 C 
ATOM     44  C   LIG d   1       3.904   2.655  -9.207  0.00  0.00    -0.102 C 
ATOM     45  H   LIG d   1       3.315   2.732  -8.305  0.00  0.00     0.053 H 
ATOM     46  H   LIG d   1       3.952   3.486  -9.894  0.00  0.00     0.053 H 
ATOM     47  H   LIG d   1       5.150   1.474 -10.369  0.00  0.00     0.057 H 
ENDBRANCH   4  43
BRANCH   5  48
ATOM     48  C   LIG d   1       3.300  -0.958 -10.211  0.00  0.00    -0.045 C 
ATOM     49  C   LIG d   1       3.336  -0.333 -11.362  0.00  0.00    -0.097 C 
ATOM     50  H   LIG d   1       2.479  -0.358 -12.018  0.00  0.00     0.053 H 
ATOM     51  H   LIG d   1       4.224   0.209 -11.654  0.00  0.00     0.053 H 
BRANCH  48  52
ATOM     52  C   LIG d   1       2.060  -1.713  -9.803  0.00  0.00     0.065 C 
ATOM     53  H   LIG d   1       1.983  -2.628 -10.390  0.00  0.00     0.060 H 
ATOM     54  H   LIG d   1       2.120  -1.964  -8.744  0.00  0.00     0.060 H 
BRANCH  52  55
ATOM     55  O   LIG d   1       0.909  -0.900 -10.036  0.00  0.00    -0.391 OA
ATOM     56  H   LIG d   1       0.376  -0.738  -9.246  0.00  0.00     0.210 HD
ENDBRANCH  52  55
ENDBRANCH  48  52
ENDBRANCH   5  48
TORSDOF 15
ENDMDL
MODEL 5
REMARK VINA RESULT:      -5.1      2.469      4.769
REMARK  15 active torsions:
REMARK  status: ('A' for Active; 'I' for Inactive)
REMARK    1  A    between atoms: C_1  and  C_2 
REMARK    2  A    between atoms: C_2  and  C_3 
REMARK    3  A    between atoms: C_2  and  C_4 
REMARK    4  A    between atoms: C_4  and  O_6 
REMARK    5  A    between atoms: O_6  and  C_7 
REMARK    6  A    between atoms: C_10  and  C_28 
REMARK    7  A    between atoms: C_10  and  C_29 
REMARK    8  A    between atoms: C_11  and  C_24 
REMARK    9  A    between atoms: C_13  and  O_23 
REMARK   10  A    between atoms: C_15  and  C_17 
REMARK   11  A    between atoms: C_17  and  C_19 
REMARK   12  A    between atoms: C_19  and  O_21 
REMARK   13  A    between atoms: O_21  and  C_22 
REMARK   14  A    between atoms: C_24  and  C_26 
REMARK   15  A    between atoms: C_26  and  O_27 
ROOT
ATOM      1  C   LIG d   1       4.771  -1.625  -5.301  0.00  0.00     0.113 C 
ATOM      2  H   LIG d   1       3.801  -2.105  -5.425  0.00  0.00     0.074 H 
ATOM      3  C   LIG d   1       5.762  -2.622  -4.697  0.00  0.00    -0.005 C 
ATOM      4  C   LIG d   1       7.124  -1.947  -4.524  0.00  0.00    -0.002 C 
ATOM      5  C   LIG d   1       7.639  -1.479  -5.887  0.00  0.00     0.018 C 
ATOM      6  H   LIG d   1       7.740  -2.337  -6.551  0.00  0.00     0.038 H 
ATOM      7  C   LIG d   1       6.648  -0.481  -6.490  0.00  0.00     0.073 C 
ATOM      8  H   LIG d   1       7.015  -0.147  -7.461  0.00  0.00     0.061 H 
ATOM      9  C   LIG d   1       5.286  -1.156  -6.663  0.00  0.00     0.054 C 
ATOM     10  H   LIG d   1       5.387  -2.014  -7.329  0.00  0.00     0.041 H 
ATOM     11  H   LIG d   1       5.395  -2.956  -3.727  0.00  0.00     0.031 H 
ATOM     12  H   LIG d   1       5.863  -3.480  -5.363  0.00  0.00     0.031 H 
ENDROOT
BRANCH   1  13
ATOM     13  O   LIG d   1       4.638  -0.500  -4.430  0.00  0.00    -0.460 OA
BRANCH  13  14
ATOM     14  C   LIG d   1       3.683  -0.566  -3.490  0.00  0.00     0.310 C 
ATOM     15  O   LIG d   1       3.031  -1.576  -3.363  0.00  0.00    -0.251 OA
BRANCH  14  16
ATOM     16  C   LIG d   1       3.422   0.617  -2.595  0.00  0.00     0.051 C 
ATOM     17  H   LIG d   1       2.481   0.473  -2.065  0.00  0.00     0.041 H 
BRANCH  16  18
ATOM     18  C   LIG d   1       4.562   0.751  -1.583  0.00  0.00    -0.052 C 
ATOM     19  H   LIG d   1       5.496   0.428  -2.043  0.00  0.00     0.024 H 
ATOM     20  H   LIG d   1       4.652   1.792  -1.272  0.00  0.00     0.024 H 
ATOM     21  H   LIG d   1       4.351   0.129  -0.714  0.00  0.00     0.024 H 
ENDBRANCH  16  18
BRANCH  16  22
ATOM     22  C   LIG d   1       3.340   1.888  -3.442  0.00  0.00    -0.052 C 
ATOM     23  H   LIG d   1       3.744   2.728  -2.877  0.00  0.00     0.024 H 
ATOM     24  H   LIG d   1       3.920   1.753  -4.356  0.00  0.00     0.024 H 
ATOM     25  H   LIG d   1       2.301   2.089  -3.699  0.00  0.00     0.024 H 
ENDBRANCH  16  22
ENDBRANCH  14  16
ENDBRANCH  13  14
ENDBRANCH   1  13
BRANCH   9  26
ATOM     26  C   LIG d   1       4.311  -0.173  -7.258  0.00  0.00     0.038 C 
ATOM     27  C   LIG d   1       3.093  -0.044  -6.735  0.00  0.00    -0.088 C 
ATOM     28  H   LIG d   1       2.429   0.725  -7.099  0.00  0.00     0.054 H 
ATOM     29  H   LIG d   1       2.771  -0.710  -5.948  0.00  0.00     0.054 H 
BRANCH  26  30
ATOM     30  C   LIG d   1       4.703   0.643  -8.416  0.00  0.00     0.335 C 
ATOM     31  O   LIG d   1       5.184   1.746  -8.247  0.00  0.00    -0.245 OA
BRANCH  30  32
ATOM     32  O   LIG d   1       4.530   0.167  -9.665  0.00  0.00    -0.465 OA
BRANCH  32  33
ATOM     33  C   LIG d   1       4.093   1.096 -10.659  0.00  0.00     0.082 C 
ATOM     34  H   LIG d   1       4.927   1.348 -11.314  0.00  0.00     0.066 H 
ATOM     35  H   LIG d   1       3.292   0.648 -11.247  0.00  0.00     0.066 H 
ATOM     36  H   LIG d   1       3.726   2.001 -10.175  0.00  0.00     0.066 H 
ENDBRANCH  32  33
ENDBRANCH  30  32
ENDBRANCH  26  30
ENDBRANCH   9  26
BRANCH   7  37
ATOM     37  O   LIG d   1       6.515   0.644  -5.619  0.00  0.00    -0.390 OA
ATOM     38  H   LIG d   1       5.871   0.518  -4.909  0.00  0.00     0.210 HD
ENDBRANCH   7  37
BRANCH   4  39
ATOM     39  C   LIG d   1       6.981  -0.744  -3.592  0.00  0.00    -0.055 C 
ATOM     40  H   LIG d   1       7.851  -0.095  -3.700  0.00  0.00     0.024 H 
ATOM     41  H   LIG d   1       6.080  -0.188  -3.851  0.00  0.00     0.024 H 
ATOM     42  H   LIG d   1       6.911  -1.089  -2.560  0.00  0.00     0.024 H 
ENDBRANCH   4  39
BRANCH   4  43
ATOM     43  C   LIG d   1       8.100  -2.930  -3.930  0.00  0.00    -0.084 C 
ATOM     44  C   LIG d   1       8.087  -4.182  -4.318  0.00  0.00    -0.102 C 
ATOM     45  H   LIG d   1       7.377  -4.508  -5.064  0.00  0.00     0.053 H 
ATOM     46  H   LIG d   1       8.786  -4.886  -3.893  0.00  0.00     0.053 H 
ATOM     47  H   LIG d   1       8.809  -2.604  -3.184  0.00  0.00     0.057 H 
ENDBRANCH   4  43
BRANCH   5  48
ATOM     48  C   LIG d   1       8.980  -0.815  -5.716  0.00  0.00    -0.045 C 
ATOM     49  C   LIG d   1       9.060   0.490  -5.638  0.00  0.00    -0.097 C 
ATOM     50  H   LIG d   1      10.021   0.967  -5.516  0.00  0.00     0.053 H 
ATOM     51  H   LIG d   1       8.163   1.090  -5.695  0.00  0.00     0.053 H 
BRANCH  48  52
ATOM     52  C   LIG d   1      10.231  -1.652  -5.636  0.00  0.00     0.065 C 
ATOM     53  H   LIG d   1       9.961  -2.693  -5.459  0.00  0.00     0.060 H 
ATOM     54  H   LIG d   1      10.781  -1.573  -6.573  0.00  0.00     0.060 H 
BRANCH  52  55
ATOM     55  O   LIG d   1      11.049  -1.183  -4.563  0.00  0.00    -0.391 OA
ATOM     56  H   LIG d   1      10.792  -0.315  -4.223  0.00  0.00     0.210 HD
ENDBRANCH  52  55
ENDBRANCH  48  52
ENDBRANCH   5  48
TORSDOF 15
ENDMDL
MODEL 6
REMARK VINA RESULT:      -5.1      2.049      3.761
REMARK  15 active torsions:
REMARK  status: ('A' for Active; 'I' for Inactive)
REMARK    1  A    between atoms: C_1  and  C_2 
REMARK    2  A    between atoms: C_2  and  C_3 
REMARK    3  A    between atoms: C_2  and  C_4 
REMARK    4  A    between atoms: C_4  and  O_6 
REMARK    5  A    between atoms: O_6  and  C_7 
REMARK    6  A    between atoms: C_10  and  C_28 
REMARK    7  A    between atoms: C_10  and  C_29 
REMARK    8  A    between atoms: C_11  and  C_24 
REMARK    9  A    between atoms: C_13  and  O_23 
REMARK   10  A    between atoms: C_15  and  C_17 
REMARK   11  A    between atoms: C_17  and  C_19 
REMARK   12  A    between atoms: C_19  and  O_21 
REMARK   13  A    between atoms: O_21  and  C_22 
REMARK   14  A    between atoms: C_24  and  C_26 
REMARK   15  A    between atoms: C_26  and  O_27 
ROOT
ATOM      1  C   LIG d   1       5.503  -0.338  -4.652  0.00  0.00     0.113 C 
ATOM      2  H   LIG d   1       4.980   0.609  -4.513  0.00  0.00     0.074 H 
ATOM      3  C   LIG d   1       6.931  -0.067  -5.128  0.00  0.00    -0.005 C 
ATOM      4  C   LIG d   1       7.665  -1.395  -5.323  0.00  0.00    -0.002 C 
ATOM      5  C   LIG d   1       7.705  -2.156  -3.995  0.00  0.00     0.018 C 
ATOM      6  H   LIG d   1       8.228  -1.558  -3.250  0.00  0.00     0.038 H 
ATOM      7  C   LIG d   1       6.276  -2.427  -3.520  0.00  0.00     0.073 C 
ATOM      8  H   LIG d   1       6.304  -2.968  -2.574  0.00  0.00     0.061 H 
ATOM      9  C   LIG d   1       5.542  -1.098  -3.325  0.00  0.00     0.054 C 
ATOM     10  H   LIG d   1       6.066  -0.500  -2.579  0.00  0.00     0.041 H 
ATOM     11  H   LIG d   1       6.903   0.475  -6.072  0.00  0.00     0.031 H 
ATOM     12  H   LIG d   1       7.455   0.531  -4.381  0.00  0.00     0.031 H 
ENDROOT
BRANCH   1  13
ATOM     13  O   LIG d   1       4.816  -1.122  -5.629  0.00  0.00    -0.460 OA
BRANCH  13  14
ATOM     14  C   LIG d   1       4.048  -0.462  -6.510  0.00  0.00     0.310 C 
ATOM     15  O   LIG d   1       3.609   0.629  -6.230  0.00  0.00    -0.251 OA
BRANCH  14  16
ATOM     16  C   LIG d   1       3.732  -1.081  -7.847  0.00  0.00     0.051 C 
ATOM     17  H   LIG d   1       3.632  -2.160  -7.734  0.00  0.00     0.041 H 
BRANCH  16  18
ATOM     18  C   LIG d   1       2.421  -0.500  -8.381  0.00  0.00    -0.052 C 
ATOM     19  H   LIG d   1       2.635   0.181  -9.205  0.00  0.00     0.024 H 
ATOM     20  H   LIG d   1       1.782  -1.309  -8.735  0.00  0.00     0.024 H 
ATOM     21  H   LIG d   1       1.914   0.042  -7.584  0.00  0.00     0.024 H 
ENDBRANCH  16  18
BRANCH  16  22
ATOM     22  C   LIG d   1       4.864  -0.774  -8.830  0.00  0.00    -0.052 C 
ATOM     23  H   LIG d   1       4.475  -0.790  -9.848  0.00  0.00     0.024 H 
ATOM     24  H   LIG d   1       5.273   0.214  -8.614  0.00  0.00     0.024 H 
ATOM     25  H   LIG d   1       5.648  -1.522  -8.728  0.00  0.00     0.024 H 
ENDBRANCH  16  22
ENDBRANCH  14  16
ENDBRANCH  13  14
ENDBRANCH   1  13
BRANCH   9  26
ATOM     26  C   LIG d   1       4.135  -1.366  -2.856  0.00  0.00     0.038 C 
ATOM     27  C   LIG d   1       3.804  -2.572  -2.400  0.00  0.00    -0.088 C 
ATOM     28  H   LIG d   1       2.825  -2.738  -1.977  0.00  0.00     0.054 H 
ATOM     29  H   LIG d   1       4.515  -3.384  -2.456  0.00  0.00     0.054 H 
BRANCH  26  30
ATOM     30  C   LIG d   1       3.129  -0.297  -2.903  0.00  0.00     0.335 C 
ATOM     31  O   LIG d   1       2.122  -0.438  -3.568  0.00  0.00    -0.245 OA
BRANCH  30  32
ATOM     32  O   LIG d   1       3.321   0.841  -2.206  0.00  0.00    -0.465 OA
BRANCH  32  33
ATOM     33  C   LIG d   1       3.516   2.039  -2.960  0.00  0.00     0.082 C 
ATOM     34  H   LIG d   1       3.677   1.787  -4.009  0.00  0.00     0.066 H 
ATOM     35  H   LIG d   1       2.634   2.672  -2.870  0.00  0.00     0.066 H 
ATOM     36  H   LIG d   1       4.386   2.573  -2.578  0.00  0.00     0.066 H 
ENDBRANCH  32  33
ENDBRANCH  30  32
ENDBRANCH  26  30
ENDBRANCH   9  26
BRANCH   7  37
ATOM     37  O   LIG d   1       5.590  -3.211  -4.497  0.00  0.00    -0.390 OA
ATOM     38  H   LIG d   1       4.637  -3.046  -4.536  0.00  0.00     0.210 HD
ENDBRANCH   7  37
BRANCH   4  39
ATOM     39  C   LIG d   1       6.930  -2.235  -6.369  0.00  0.00    -0.055 C 
ATOM     40  H   LIG d   1       7.650  -2.640  -7.080  0.00  0.00     0.024 H 
ATOM     41  H   LIG d   1       6.407  -3.054  -5.875  0.00  0.00     0.024 H 
ATOM     42  H   LIG d   1       6.210  -1.609  -6.896  0.00  0.00     0.024 H 
ENDBRANCH   4  39
BRANCH   4  43
ATOM     43  C   LIG d   1       9.072  -1.129  -5.791  0.00  0.00    -0.084 C 
ATOM     44  C   LIG d   1       9.748  -0.122  -5.293  0.00  0.00    -0.102 C 
ATOM     45  H   LIG d   1       9.296   0.515  -4.548  0.00  0.00     0.053 H 
ATOM     46  H   LIG d   1      10.757   0.069  -5.628  0.00  0.00     0.053 H 
ATOM     47  H   LIG d   1       9.524  -1.766  -6.536  0.00  0.00     0.057 H 
ENDBRANCH   4  43
BRANCH   5  48
ATOM     48  C   LIG d   1       8.427  -3.464  -4.187  0.00  0.00    -0.045 C 
ATOM     49  C   LIG d   1       9.263  -3.892  -3.273  0.00  0.00    -0.097 C 
ATOM     50  H   LIG d   1       9.781  -4.829  -3.410  0.00  0.00     0.053 H 
ATOM     51  H   LIG d   1       9.433  -3.306  -2.381  0.00  0.00     0.053 H 
BRANCH  48  52
ATOM     52  C   LIG d   1       8.189  -4.281  -5.431  0.00  0.00     0.065 C 
ATOM     53  H   LIG d   1       7.601  -3.699  -6.141  0.00  0.00     0.060 H 
ATOM     54  H   LIG d   1       9.146  -4.546  -5.880  0.00  0.00     0.060 H 
BRANCH  52  55
ATOM     55  O   LIG d   1       7.478  -5.472  -5.089  0.00  0.00    -0.391 OA
ATOM     56  H   LIG d   1       7.590  -6.193  -5.723  0.00  0.00     0.210 HD
ENDBRANCH  52  55
ENDBRANCH  48  52
ENDBRANCH   5  48
TORSDOF 15
ENDMDL
MODEL 7
REMARK VINA RESULT:      -4.9      1.924      6.169
REMARK  15 active torsions:
REMARK  status: ('A' for Active; 'I' for Inactive)
REMARK    1  A    between atoms: C_1  and  C_2 
REMARK    2  A    between atoms: C_2  and  C_3 
REMARK    3  A    between atoms: C_2  and  C_4 
REMARK    4  A    between atoms: C_4  and  O_6 
REMARK    5  A    between atoms: O_6  and  C_7 
REMARK    6  A    between atoms: C_10  and  C_28 
REMARK    7  A    between atoms: C_10  and  C_29 
REMARK    8  A    between atoms: C_11  and  C_24 
REMARK    9  A    between atoms: C_13  and  O_23 
REMARK   10  A    between atoms: C_15  and  C_17 
REMARK   11  A    between atoms: C_17  and  C_19 
REMARK   12  A    between atoms: C_19  and  O_21 
REMARK   13  A    between atoms: O_21  and  C_22 
REMARK   14  A    between atoms: C_24  and  C_26 
REMARK   15  A    between atoms: C_26  and  O_27 
ROOT
ATOM      1  C   LIG d   1       5.421  -3.443  -4.840  0.00  0.00     0.113 C 
ATOM      2  H   LIG d   1       5.265  -4.520  -4.896  0.00  0.00     0.074 H 
ATOM      3  C   LIG d   1       4.454  -2.839  -3.820  0.00  0.00    -0.005 C 
ATOM      4  C   LIG d   1       4.673  -1.327  -3.741  0.00  0.00    -0.002 C 
ATOM      5  C   LIG d   1       6.114  -1.042  -3.309  0.00  0.00     0.018 C 
ATOM      6  H   LIG d   1       6.295  -1.487  -2.331  0.00  0.00     0.038 H 
ATOM      7  C   LIG d   1       7.080  -1.645  -4.331  0.00  0.00     0.073 C 
ATOM      8  H   LIG d   1       8.107  -1.442  -4.024  0.00  0.00     0.061 H 
ATOM      9  C   LIG d   1       6.861  -3.157  -4.410  0.00  0.00     0.054 C 
ATOM     10  H   LIG d   1       7.043  -3.602  -3.431  0.00  0.00     0.041 H 
ATOM     11  H   LIG d   1       3.429  -3.043  -4.126  0.00  0.00     0.031 H 
ATOM     12  H   LIG d   1       4.636  -3.284  -2.841  0.00  0.00     0.031 H 
ENDROOT
BRANCH   1  13
ATOM     13  O   LIG d   1       5.184  -2.860  -6.123  0.00  0.00    -0.460 OA
BRANCH  13  14
ATOM     14  C   LIG d   1       4.507  -3.601  -7.014  0.00  0.00     0.310 C 
ATOM     15  O   LIG d   1       3.917  -4.592  -6.650  0.00  0.00    -0.251 OA
BRANCH  14  16
ATOM     16  C   LIG d   1       4.482  -3.199  -8.466  0.00  0.00     0.051 C 
ATOM     17  H   LIG d   1       4.327  -4.081  -9.085  0.00  0.00     0.041 H 
BRANCH  16  18
ATOM     18  C   LIG d   1       3.343  -2.204  -8.700  0.00  0.00    -0.052 C 
ATOM     19  H   LIG d   1       2.985  -1.829  -7.740  0.00  0.00     0.024 H 
ATOM     20  H   LIG d   1       3.705  -1.372  -9.302  0.00  0.00     0.024 H 
ATOM     21  H   LIG d   1       2.527  -2.703  -9.222  0.00  0.00     0.024 H 
ENDBRANCH  16  18
BRANCH  16  22
ATOM     22  C   LIG d   1       5.815  -2.544  -8.835  0.00  0.00    -0.052 C 
ATOM     23  H   LIG d   1       6.032  -2.733  -9.886  0.00  0.00     0.024 H 
ATOM     24  H   LIG d   1       5.750  -1.469  -8.666  0.00  0.00     0.024 H 
ATOM     25  H   LIG d   1       6.609  -2.962  -8.218  0.00  0.00     0.024 H 
ENDBRANCH  16  22
ENDBRANCH  14  16
ENDBRANCH  13  14
ENDBRANCH   1  13
BRANCH   9  26
ATOM     26  C   LIG d   1       7.814  -3.751  -5.415  0.00  0.00     0.038 C 
ATOM     27  C   LIG d   1       8.827  -3.023  -5.882  0.00  0.00    -0.088 C 
ATOM     28  H   LIG d   1       9.563  -3.476  -6.528  0.00  0.00     0.054 H 
ATOM     29  H   LIG d   1       8.910  -1.980  -5.615  0.00  0.00     0.054 H 
BRANCH  26  30
ATOM     30  C   LIG d   1       7.626  -5.131  -5.881  0.00  0.00     0.335 C 
ATOM     31  O   LIG d   1       7.462  -5.357  -7.064  0.00  0.00    -0.245 OA
BRANCH  30  32
ATOM     32  O   LIG d   1       7.636  -6.148  -4.997  0.00  0.00    -0.465 OA
BRANCH  32  33
ATOM     33  C   LIG d   1       6.833  -7.288  -5.309  0.00  0.00     0.082 C 
ATOM     34  H   LIG d   1       5.941  -7.287  -4.682  0.00  0.00     0.066 H 
ATOM     35  H   LIG d   1       6.539  -7.249  -6.358  0.00  0.00     0.066 H 
ATOM     36  H   LIG d   1       7.405  -8.198  -5.125  0.00  0.00     0.066 H 
ENDBRANCH  32  33
ENDBRANCH  30  32
ENDBRANCH  26  30
ENDBRANCH   9  26
BRANCH   7  37
ATOM     37  O   LIG d   1       6.843  -1.062  -5.613  0.00  0.00    -0.390 OA
ATOM     38  H   LIG d   1       7.419  -0.312  -5.817  0.00  0.00     0.210 HD
ENDBRANCH   7  37
BRANCH   4  39
ATOM     39  C   LIG d   1       4.419  -0.703  -5.114  0.00  0.00    -0.055 C 
ATOM     40  H   LIG d   1       4.200  -1.490  -5.836  0.00  0.00     0.024 H 
ATOM     41  H   LIG d   1       3.572  -0.021  -5.052  0.00  0.00     0.024 H 
ATOM     42  H   LIG d   1       5.305  -0.154  -5.433  0.00  0.00     0.024 H 
ENDBRANCH   4  39
BRANCH   4  43
ATOM     43  C   LIG d   1       3.721  -0.733  -2.735  0.00  0.00    -0.084 C 
ATOM     44  C   LIG d   1       2.436  -0.698  -2.991  0.00  0.00    -0.102 C 
ATOM     45  H   LIG d   1       2.060  -1.096  -3.922  0.00  0.00     0.053 H 
ATOM     46  H   LIG d   1       1.754  -0.273  -2.270  0.00  0.00     0.053 H 
ATOM     47  H   LIG d   1       4.097  -0.335  -1.804  0.00  0.00     0.057 H 
ENDBRANCH   4  43
BRANCH   5  48
ATOM     48  C   LIG d   1       6.329   0.447  -3.232  0.00  0.00    -0.045 C 
ATOM     49  C   LIG d   1       5.418   1.214  -2.686  0.00  0.00    -0.097 C 
ATOM     50  H   LIG d   1       5.573   2.282  -2.631  0.00  0.00     0.053 H 
ATOM     51  H   LIG d   1       4.512   0.778  -2.291  0.00  0.00     0.053 H 
BRANCH  48  52
ATOM     52  C   LIG d   1       7.594   1.055  -3.783  0.00  0.00     0.065 C 
ATOM     53  H   LIG d   1       8.021   1.736  -3.046  0.00  0.00     0.060 H 
ATOM     54  H   LIG d   1       8.310   0.264  -4.006  0.00  0.00     0.060 H 
BRANCH  52  55
ATOM     55  O   LIG d   1       7.293   1.776  -4.979  0.00  0.00    -0.391 OA
ATOM     56  H   LIG d   1       7.023   2.692  -4.828  0.00  0.00     0.210 HD
ENDBRANCH  52  55
ENDBRANCH  48  52
ENDBRANCH   5  48
TORSDOF 15
ENDMDL
MODEL 8
REMARK VINA RESULT:      -4.9      2.455      5.036
REMARK  15 active torsions:
REMARK  status: ('A' for Active; 'I' for Inactive)
REMARK    1  A    between atoms: C_1  and  C_2 
REMARK    2  A    between atoms: C_2  and  C_3 
REMARK    3  A    between atoms: C_2  and  C_4 
REMARK    4  A    between atoms: C_4  and  O_6 
REMARK    5  A    between atoms: O_6  and  C_7 
REMARK    6  A    between atoms: C_10  and  C_28 
REMARK    7  A    between atoms: C_10  and  C_29 
REMARK    8  A    between atoms: C_11  and  C_24 
REMARK    9  A    between atoms: C_13  and  O_23 
REMARK   10  A    between atoms: C_15  and  C_17 
REMARK   11  A    between atoms: C_17  and  C_19 
REMARK   12  A    between atoms: C_19  and  O_21 
REMARK   13  A    between atoms: O_21  and  C_22 
REMARK   14  A    between atoms: C_24  and  C_26 
REMARK   15  A    between atoms: C_26  and  O_27 
ROOT
ATOM      1  C   LIG d   1       6.148  -0.668  -6.049  0.00  0.00     0.113 C 
ATOM      2  H   LIG d   1       7.080  -0.359  -5.576  0.00  0.00     0.074 H 
ATOM      3  C   LIG d   1       5.839   0.264  -7.223  0.00  0.00    -0.005 C 
ATOM      4  C   LIG d   1       4.531  -0.170  -7.888  0.00  0.00    -0.002 C 
ATOM      5  C   LIG d   1       4.670  -1.606  -8.399  0.00  0.00     0.018 C 
ATOM      6  H   LIG d   1       5.480  -1.656  -9.125  0.00  0.00     0.038 H 
ATOM      7  C   LIG d   1       4.978  -2.536  -7.224  0.00  0.00     0.073 C 
ATOM      8  H   LIG d   1       5.077  -3.560  -7.588  0.00  0.00     0.061 H 
ATOM      9  C   LIG d   1       6.286  -2.103  -6.560  0.00  0.00     0.054 C 
ATOM     10  H   LIG d   1       7.098  -2.154  -7.287  0.00  0.00     0.041 H 
ATOM     11  H   LIG d   1       5.741   1.286  -6.860  0.00  0.00     0.031 H 
ATOM     12  H   LIG d   1       6.650   0.213  -7.950  0.00  0.00     0.031 H 
ENDROOT
BRANCH   1  13
ATOM     13  O   LIG d   1       5.086  -0.602  -5.096  0.00  0.00    -0.460 OA
BRANCH  13  14
ATOM     14  C   LIG d   1       5.335   0.049  -3.950  0.00  0.00     0.310 C 
ATOM     15  O   LIG d   1       6.145   0.946  -3.928  0.00  0.00    -0.251 OA
BRANCH  14  16
ATOM     16  C   LIG d   1       4.605  -0.339  -2.689  0.00  0.00     0.051 C 
ATOM     17  H   LIG d   1       5.316  -0.414  -1.867  0.00  0.00     0.041 H 
BRANCH  16  18
ATOM     18  C   LIG d   1       3.554   0.724  -2.361  0.00  0.00    -0.052 C 
ATOM     19  H   LIG d   1       3.404   1.366  -3.230  0.00  0.00     0.024 H 
ATOM     20  H   LIG d   1       2.614   0.238  -2.102  0.00  0.00     0.024 H 
ATOM     21  H   LIG d   1       3.897   1.326  -1.520  0.00  0.00     0.024 H 
ENDBRANCH  16  18
BRANCH  16  22
ATOM     22  C   LIG d   1       3.918  -1.690  -2.894  0.00  0.00    -0.052 C 
ATOM     23  H   LIG d   1       3.862  -2.217  -1.942  0.00  0.00     0.024 H 
ATOM     24  H   LIG d   1       2.910  -1.529  -3.279  0.00  0.00     0.024 H 
ATOM     25  H   LIG d   1       4.488  -2.284  -3.607  0.00  0.00     0.024 H 
ENDBRANCH  16  22
ENDBRANCH  14  16
ENDBRANCH  13  14
ENDBRANCH   1  13
BRANCH   9  26
ATOM     26  C   LIG d   1       6.590  -3.021  -5.404  0.00  0.00     0.038 C 
ATOM     27  C   LIG d   1       5.814  -4.077  -5.171  0.00  0.00    -0.088 C 
ATOM     28  H   LIG d   1       6.084  -4.786  -4.404  0.00  0.00     0.054 H 
ATOM     29  H   LIG d   1       4.913  -4.222  -5.749  0.00  0.00     0.054 H 
BRANCH  26  30
ATOM     30  C   LIG d   1       7.742  -2.751  -4.533  0.00  0.00     0.335 C 
ATOM     31  O   LIG d   1       7.570  -2.494  -3.358  0.00  0.00    -0.245 OA
BRANCH  30  32
ATOM     32  O   LIG d   1       8.992  -2.789  -5.038  0.00  0.00    -0.465 OA
BRANCH  32  33
ATOM     33  C   LIG d   1       9.669  -1.540  -5.192  0.00  0.00     0.082 C 
ATOM     34  H   LIG d   1       9.687  -1.265  -6.247  0.00  0.00     0.066 H 
ATOM     35  H   LIG d   1       9.145  -0.771  -4.625  0.00  0.00     0.066 H 
ATOM     36  H   LIG d   1      10.690  -1.631  -4.823  0.00  0.00     0.066 H 
ENDBRANCH  32  33
ENDBRANCH  30  32
ENDBRANCH  26  30
ENDBRANCH   9  26
BRANCH   7  37
ATOM     37  O   LIG d   1       3.915  -2.471  -6.272  0.00  0.00    -0.390 OA
ATOM     38  H   LIG d   1       3.248  -3.163  -6.379  0.00  0.00     0.210 HD
ENDBRANCH   7  37
BRANCH   4  39
ATOM     39  C   LIG d   1       3.393  -0.099  -6.868  0.00  0.00    -0.055 C 
ATOM     40  H   LIG d   1       3.794   0.187  -5.895  0.00  0.00     0.024 H 
ATOM     41  H   LIG d   1       2.661   0.641  -7.191  0.00  0.00     0.024 H 
ATOM     42  H   LIG d   1       2.914  -1.075  -6.791  0.00  0.00     0.024 H 
ENDBRANCH   4  39
BRANCH   4  43
ATOM     43  C   LIG d   1       4.227   0.747  -9.044  0.00  0.00    -0.084 C 
ATOM     44  C   LIG d   1       4.812   1.917  -9.124  0.00  0.00    -0.102 C 
ATOM     45  H   LIG d   1       5.512   2.223  -8.361  0.00  0.00     0.053 H 
ATOM     46  H   LIG d   1       4.594   2.574  -9.953  0.00  0.00     0.053 H 
ATOM     47  H   LIG d   1       3.527   0.441  -9.807  0.00  0.00     0.057 H 
ENDBRANCH   4  43
BRANCH   5  48
ATOM     48  C   LIG d   1       3.382  -2.033  -9.053  0.00  0.00    -0.045 C 
ATOM     49  C   LIG d   1       2.365  -1.208  -9.100  0.00  0.00    -0.097 C 
ATOM     50  H   LIG d   1       1.441  -1.514  -9.568  0.00  0.00     0.053 H 
ATOM     51  H   LIG d   1       2.451  -0.221  -8.669  0.00  0.00     0.053 H 
BRANCH  48  52
ATOM     52  C   LIG d   1       3.262  -3.410  -9.654  0.00  0.00     0.065 C 
ATOM     53  H   LIG d   1       2.562  -3.382 -10.489  0.00  0.00     0.060 H 
ATOM     54  H   LIG d   1       4.239  -3.738 -10.009  0.00  0.00     0.060 H 
BRANCH  52  55
ATOM     55  O   LIG d   1       2.785  -4.322  -8.663  0.00  0.00    -0.391 OA
ATOM     56  H   LIG d   1       1.821  -4.362  -8.598  0.00  0.00     0.210 HD
ENDBRANCH  52  55
ENDBRANCH  48  52
ENDBRANCH   5  48
TORSDOF 15
ENDMDL
MODEL 9
REMARK VINA RESULT:      -4.9      7.010     11.419
REMARK  15 active torsions:
REMARK  status: ('A' for Active; 'I' for Inactive)
REMARK    1  A    between atoms: C_1  and  C_2 
REMARK    2  A    between atoms: C_2  and  C_3 
REMARK    3  A    between atoms: C_2  and  C_4 
REMARK    4  A    between atoms: C_4  and  O_6 
REMARK    5  A    between atoms: O_6  and  C_7 
REMARK    6  A    between atoms: C_10  and  C_28 
REMARK    7  A    between atoms: C_10  and  C_29 
REMARK    8  A    between atoms: C_11  and  C_24 
REMARK    9  A    between atoms: C_13  and  O_23 
REMARK   10  A    between atoms: C_15  and  C_17 
REMARK   11  A    between atoms: C_17  and  C_19 
REMARK   12  A    between atoms: C_19  and  O_21 
REMARK   13  A    between atoms: O_21  and  C_22 
REMARK   14  A    between atoms: C_24  and  C_26 
REMARK   15  A    between atoms: C_26  and  O_27 
ROOT
ATOM      1  C   LIG d   1      11.773   6.742  -3.265  0.00  0.00     0.113 C 
ATOM      2  H   LIG d   1      12.506   6.153  -3.815  0.00  0.00     0.074 H 
ATOM      3  C   LIG d   1      12.000   6.566  -1.762  0.00  0.00    -0.005 C 
ATOM      4  C   LIG d   1      10.971   7.393  -0.989  0.00  0.00    -0.002 C 
ATOM      5  C   LIG d   1      11.123   8.871  -1.358  0.00  0.00     0.018 C 
ATOM      6  H   LIG d   1      12.126   9.208  -1.101  0.00  0.00     0.038 H 
ATOM      7  C   LIG d   1      10.894   9.046  -2.861  0.00  0.00     0.073 C 
ATOM      8  H   LIG d   1      11.002  10.099  -3.124  0.00  0.00     0.061 H 
ATOM      9  C   LIG d   1      11.924   8.219  -3.634  0.00  0.00     0.054 C 
ATOM     10  H   LIG d   1      12.928   8.557  -3.377  0.00  0.00     0.041 H 
ATOM     11  H   LIG d   1      11.893   5.514  -1.499  0.00  0.00     0.031 H 
ATOM     12  H   LIG d   1      13.005   6.904  -1.505  0.00  0.00     0.031 H 
ENDROOT
BRANCH   1  13
ATOM     13  O   LIG d   1      10.457   6.300  -3.602  0.00  0.00    -0.460 OA
BRANCH  13  14
ATOM     14  C   LIG d   1      10.349   5.096  -4.186  0.00  0.00     0.310 C 
ATOM     15  O   LIG d   1      10.815   4.916  -5.287  0.00  0.00    -0.251 OA
BRANCH  14  16
ATOM     16  C   LIG d   1       9.647   3.971  -3.470  0.00  0.00     0.051 C 
ATOM     17  H   LIG d   1       8.928   4.382  -2.763  0.00  0.00     0.041 H 
BRANCH  16  18
ATOM     18  C   LIG d   1       8.917   3.095  -4.491  0.00  0.00    -0.052 C 
ATOM     19  H   LIG d   1       7.862   3.373  -4.518  0.00  0.00     0.024 H 
ATOM     20  H   LIG d   1       9.356   3.242  -5.476  0.00  0.00     0.024 H 
ATOM     21  H   LIG d   1       9.009   2.049  -4.203  0.00  0.00     0.024 H 
ENDBRANCH  16  18
BRANCH  16  22
ATOM     22  C   LIG d   1      10.677   3.126  -2.718  0.00  0.00    -0.052 C 
ATOM     23  H   LIG d   1      10.986   3.650  -1.814  0.00  0.00     0.024 H 
ATOM     24  H   LIG d   1      10.233   2.167  -2.448  0.00  0.00     0.024 H 
ATOM     25  H   LIG d   1      11.544   2.957  -3.355  0.00  0.00     0.024 H 
ENDBRANCH  16  22
ENDBRANCH  14  16
ENDBRANCH  13  14
ENDBRANCH   1  13
BRANCH   9  26
ATOM     26  C   LIG d   1      11.699   8.393  -5.113  0.00  0.00     0.038 C 
ATOM     27  C   LIG d   1      12.551   7.856  -5.983  0.00  0.00    -0.088 C 
ATOM     28  H   LIG d   1      12.341   7.899  -7.042  0.00  0.00     0.054 H 
ATOM     29  H   LIG d   1      13.454   7.378  -5.631  0.00  0.00     0.054 H 
BRANCH  26  30
ATOM     30  C   LIG d   1      10.540   9.157  -5.596  0.00  0.00     0.335 C 
ATOM     31  O   LIG d   1      10.590  10.370  -5.648  0.00  0.00    -0.245 OA
BRANCH  30  32
ATOM     32  O   LIG d   1       9.423   8.512  -5.984  0.00  0.00    -0.465 OA
BRANCH  32  33
ATOM     33  C   LIG d   1       9.132   8.499  -7.384  0.00  0.00     0.082 C 
ATOM     34  H   LIG d   1       8.753   9.476  -7.685  0.00  0.00     0.066 H 
ATOM     35  H   LIG d   1      10.041   8.275  -7.941  0.00  0.00     0.066 H 
ATOM     36  H   LIG d   1       8.381   7.738  -7.593  0.00  0.00     0.066 H 
ENDBRANCH  32  33
ENDBRANCH  30  32
ENDBRANCH  26  30
ENDBRANCH   9  26
BRANCH   7  37
ATOM     37  O   LIG d   1       9.578   8.604  -3.198  0.00  0.00    -0.390 OA
ATOM     38  H   LIG d   1       8.917   8.782  -2.515  0.00  0.00     0.210 HD
ENDBRANCH   7  37
BRANCH   4  39
ATOM     39  C   LIG d   1       9.562   6.919  -1.350  0.00  0.00    -0.055 C 
ATOM     40  H   LIG d   1       9.053   7.696  -1.922  0.00  0.00     0.024 H 
ATOM     41  H   LIG d   1       9.627   6.011  -1.948  0.00  0.00     0.024 H 
ATOM     42  H   LIG d   1       9.003   6.715  -0.437  0.00  0.00     0.024 H 
ENDBRANCH   4  39
BRANCH   4  43
ATOM     43  C   LIG d   1      11.195   7.220   0.491  0.00  0.00    -0.084 C 
ATOM     44  C   LIG d   1      11.089   6.032   1.035  0.00  0.00    -0.102 C 
ATOM     45  H   LIG d   1      10.841   5.178   0.422  0.00  0.00     0.053 H 
ATOM     46  H   LIG d   1      11.250   5.908   2.095  0.00  0.00     0.053 H 
ATOM     47  H   LIG d   1      11.444   8.073   1.103  0.00  0.00     0.057 H 
ENDBRANCH   4  43
BRANCH   5  48
ATOM     48  C   LIG d   1      10.109   9.685  -0.597  0.00  0.00    -0.045 C 
ATOM     49  C   LIG d   1      10.503  10.666   0.176  0.00  0.00    -0.097 C 
ATOM     50  H   LIG d   1       9.776  11.250   0.722  0.00  0.00     0.053 H 
ATOM     51  H   LIG d   1      11.555  10.892   0.267  0.00  0.00     0.053 H 
BRANCH  48  52
ATOM     52  C   LIG d   1       8.640   9.370  -0.725  0.00  0.00     0.065 C 
ATOM     53  H   LIG d   1       8.517   8.400  -1.207  0.00  0.00     0.060 H 
ATOM     54  H   LIG d   1       8.187   9.345   0.265  0.00  0.00     0.060 H 
BRANCH  52  55
ATOM     55  O   LIG d   1       8.005  10.377  -1.515  0.00  0.00    -0.391 OA
ATOM     56  H   LIG d   1       7.375  10.923  -1.024  0.00  0.00     0.210 HD
ENDBRANCH  52  55
ENDBRANCH  48  52
ENDBRANCH   5  48
TORSDOF 15
ENDMDL
MODEL 10
REMARK VINA RESULT:      -4.9      2.087      3.868
REMARK  15 active torsions:
REMARK  status: ('A' for Active; 'I' for Inactive)
REMARK    1  A    between atoms: C_1  and  C_2 
REMARK    2  A    between atoms: C_2  and  C_3 
REMARK    3  A    between atoms: C_2  and  C_4 
REMARK    4  A    between atoms: C_4  and  O_6 
REMARK    5  A    between atoms: O_6  and  C_7 
REMARK    6  A    between atoms: C_10  and  C_28 
REMARK    7  A    between atoms: C_10  and  C_29 
REMARK    8  A    between atoms: C_11  and  C_24 
REMARK    9  A    between atoms: C_13  and  O_23 
REMARK   10  A    between atoms: C_15  and  C_17 
REMARK   11  A    between atoms: C_17  and  C_19 
REMARK   12  A    between atoms: C_19  and  O_21 
REMARK   13  A    between atoms: O_21  and  C_22 
REMARK   14  A    between atoms: C_24  and  C_26 
REMARK   15  A    between atoms: C_26  and  O_27 
ROOT
ATOM      1  C   LIG d   1       5.770  -0.123  -5.597  0.00  0.00     0.113 C 
ATOM      2  H   LIG d   1       5.487   0.919  -5.745  0.00  0.00     0.074 H 
ATOM      3  C   LIG d   1       4.830  -0.766  -4.576  0.00  0.00    -0.005 C 
ATOM      4  C   LIG d   1       5.226  -2.229  -4.368  0.00  0.00    -0.002 C 
ATOM      5  C   LIG d   1       5.125  -2.980  -5.698  0.00  0.00     0.018 C 
ATOM      6  H   LIG d   1       4.101  -2.930  -6.066  0.00  0.00     0.038 H 
ATOM      7  C   LIG d   1       6.066  -2.336  -6.718  0.00  0.00     0.073 C 
ATOM      8  H   LIG d   1       5.994  -2.871  -7.666  0.00  0.00     0.061 H 
ATOM      9  C   LIG d   1       5.669  -0.873  -6.927  0.00  0.00     0.054 C 
ATOM     10  H   LIG d   1       4.644  -0.824  -7.295  0.00  0.00     0.041 H 
ATOM     11  H   LIG d   1       4.901  -0.232  -3.630  0.00  0.00     0.031 H 
ATOM     12  H   LIG d   1       3.805  -0.717  -4.945  0.00  0.00     0.031 H 
ENDROOT
BRANCH   1  13
ATOM     13  O   LIG d   1       7.113  -0.188  -5.115  0.00  0.00    -0.460 OA
BRANCH  13  14
ATOM     14  C   LIG d   1       7.631   0.938  -4.601  0.00  0.00     0.310 C 
ATOM     15  O   LIG d   1       6.900   1.781  -4.136  0.00  0.00    -0.251 OA
BRANCH  14  16
ATOM     16  C   LIG d   1       9.123   1.152  -4.605  0.00  0.00     0.051 C 
ATOM     17  H   LIG d   1       9.525   0.931  -3.617  0.00  0.00     0.041 H 
BRANCH  16  18
ATOM     18  C   LIG d   1       9.768   0.225  -5.637  0.00  0.00    -0.052 C 
ATOM     19  H   LIG d   1      10.788  -0.008  -5.328  0.00  0.00     0.024 H 
ATOM     20  H   LIG d   1       9.191  -0.696  -5.710  0.00  0.00     0.024 H 
ATOM     21  H   LIG d   1       9.787   0.720  -6.608  0.00  0.00     0.024 H 
ENDBRANCH  16  18
BRANCH  16  22
ATOM     22  C   LIG d   1       9.427   2.608  -4.965  0.00  0.00    -0.052 C 
ATOM     23  H   LIG d   1      10.317   2.648  -5.593  0.00  0.00     0.024 H 
ATOM     24  H   LIG d   1       8.581   3.031  -5.508  0.00  0.00     0.024 H 
ATOM     25  H   LIG d   1       9.598   3.180  -4.055  0.00  0.00     0.024 H 
ENDBRANCH  16  22
ENDBRANCH  14  16
ENDBRANCH  13  14
ENDBRANCH   1  13
BRANCH   9  26
ATOM     26  C   LIG d   1       6.595  -0.240  -7.933  0.00  0.00     0.038 C 
ATOM     27  C   LIG d   1       7.431  -1.000  -8.638  0.00  0.00    -0.088 C 
ATOM     28  H   LIG d   1       8.026  -0.561  -9.424  0.00  0.00     0.054 H 
ATOM     29  H   LIG d   1       7.514  -2.055  -8.421  0.00  0.00     0.054 H 
BRANCH  26  30
ATOM     30  C   LIG d   1       6.577   1.215  -8.136  0.00  0.00     0.335 C 
ATOM     31  O   LIG d   1       5.564   1.762  -8.522  0.00  0.00    -0.245 OA
BRANCH  30  32
ATOM     32  O   LIG d   1       7.685   1.943  -7.892  0.00  0.00    -0.465 OA
BRANCH  32  33
ATOM     33  C   LIG d   1       8.268   2.630  -9.001  0.00  0.00     0.082 C 
ATOM     34  H   LIG d   1       7.525   2.740  -9.792  0.00  0.00     0.066 H 
ATOM     35  H   LIG d   1       8.605   3.616  -8.681  0.00  0.00     0.066 H 
ATOM     36  H   LIG d   1       9.117   2.060  -9.378  0.00  0.00     0.066 H 
ENDBRANCH  32  33
ENDBRANCH  30  32
ENDBRANCH  26  30
ENDBRANCH   9  26
BRANCH   7  37
ATOM     37  O   LIG d   1       7.409  -2.402  -6.236  0.00  0.00    -0.390 OA
ATOM     38  H   LIG d   1       7.668  -3.275  -5.909  0.00  0.00     0.210 HD
ENDBRANCH   7  37
BRANCH   4  39
ATOM     39  C   LIG d   1       6.664  -2.299  -3.851  0.00  0.00    -0.055 C 
ATOM     40  H   LIG d   1       7.053  -1.289  -3.719  0.00  0.00     0.024 H 
ATOM     41  H   LIG d   1       6.682  -2.822  -2.895  0.00  0.00     0.024 H 
ATOM     42  H   LIG d   1       7.283  -2.835  -4.571  0.00  0.00     0.024 H 
ENDBRANCH   4  39
BRANCH   4  43
ATOM     43  C   LIG d   1       4.300  -2.863  -3.362  0.00  0.00    -0.084 C 
ATOM     44  C   LIG d   1       3.806  -2.145  -2.383  0.00  0.00    -0.102 C 
ATOM     45  H   LIG d   1       4.062  -1.100  -2.298  0.00  0.00     0.053 H 
ATOM     46  H   LIG d   1       3.142  -2.599  -1.663  0.00  0.00     0.053 H 
ATOM     47  H   LIG d   1       4.044  -3.908  -3.447  0.00  0.00     0.057 H 
ENDBRANCH   4  43
BRANCH   5  48
ATOM     48  C   LIG d   1       5.516  -4.420  -5.493  0.00  0.00    -0.045 C 
ATOM     49  C   LIG d   1       6.775  -4.740  -5.321  0.00  0.00    -0.097 C 
ATOM     50  H   LIG d   1       7.055  -5.773  -5.175  0.00  0.00     0.053 H 
ATOM     51  H   LIG d   1       7.532  -3.970  -5.326  0.00  0.00     0.053 H 
BRANCH  48  52
ATOM     52  C   LIG d   1       4.458  -5.495  -5.486  0.00  0.00     0.065 C 
ATOM     53  H   LIG d   1       4.819  -6.363  -6.037  0.00  0.00     0.060 H 
ATOM     54  H   LIG d   1       4.239  -5.781  -4.458  0.00  0.00     0.060 H 
BRANCH  52  55
ATOM     55  O   LIG d   1       3.271  -4.997  -6.105  0.00  0.00    -0.391 OA
ATOM     56  H   LIG d   1       3.401  -4.179  -6.603  0.00  0.00     0.210 HD
ENDBRANCH  52  55
ENDBRANCH  48  52
ENDBRANCH   5  48
TORSDOF 15
ENDMDL
