MODEL 1
REMARK VINA RESULT:      -5.9      0.000      0.000
REMARK  4 active torsions:
REMARK  status: ('A' for Active; 'I' for Inactive)
REMARK    1  A    between atoms: C_1  and  C_2 
REMARK    2  A    between atoms: C_2  and  C_4 
REMARK    3  A    between atoms: C_7  and  N_10 
REMARK       I    between atoms: N_10  and  C_11 
REMARK    4  A    between atoms: C_11  and  C_13 
ROOT
ATOM      1  C   LIG d   1       3.868   0.830  -8.628  0.00  0.00     0.017 A 
ATOM      2  C   LIG d   1       4.970   0.053  -8.250  0.00  0.00    -0.050 A 
ATOM      3  C   LIG d   1       4.976  -0.577  -7.032  0.00  0.00    -0.040 A 
ATOM      4  C   LIG d   1       3.889  -0.443  -6.172  0.00  0.00     0.034 A 
ATOM      5  C   LIG d   1       2.791   0.324  -6.546  0.00  0.00    -0.040 A 
ATOM      6  C   LIG d   1       2.778   0.961  -7.760  0.00  0.00    -0.050 A 
ATOM      7  H   LIG d   1       5.814  -0.051  -8.916  0.00  0.00     0.062 H 
ATOM      8  H   LIG d   1       5.825  -1.176  -6.739  0.00  0.00     0.064 H 
ATOM      9  H   LIG d   1       1.948   0.421  -5.878  0.00  0.00     0.064 H 
ATOM     10  H   LIG d   1       1.926   1.560  -8.047  0.00  0.00     0.062 H 
ENDROOT
BRANCH   4  11
ATOM     11  N   LIG d   1       3.900  -1.084  -4.935  0.00  0.00    -0.278 N 
ATOM     12  C   LIG d   1       4.304  -0.418  -3.835  0.00  0.00     0.322 C 
ATOM     13  O   LIG d   1       4.732   0.712  -3.933  0.00  0.00    -0.266 OA
ATOM     14  H   LIG d   1       3.621  -2.010  -4.866  0.00  0.00     0.155 HD
BRANCH  12  15
ATOM     15  C   LIG d   1       4.225  -1.078  -2.482  0.00  0.00     0.470 C 
ATOM     16  F   LIG d   1       5.333  -1.912  -2.304  0.00  0.00    -0.162 F 
ATOM     17  F   LIG d   1       4.215  -0.097  -1.485  0.00  0.00    -0.162 F 
ATOM     18  F   LIG d   1       3.052  -1.837  -2.401  0.00  0.00    -0.162 F 
ENDBRANCH  12  15
ENDBRANCH   4  11
BRANCH   1  19
ATOM     19  C   LIG d   1       3.858   1.506  -9.932  0.00  0.00     0.160 C 
ATOM     20  O   LIG d   1       3.576   2.684 -10.003  0.00  0.00    -0.292 OA
BRANCH  19  21
ATOM     21  C   LIG d   1       4.195   0.735 -11.182  0.00  0.00    -0.001 C 
ATOM     22  H   LIG d   1       4.330  -0.229 -10.954  0.00  0.00     0.031 H 
ATOM     23  H   LIG d   1       3.379   0.828 -11.898  0.00  0.00     0.031 H 
ATOM     24  H   LIG d   1       5.109   1.136 -11.621  0.00  0.00     0.031 H 
ENDBRANCH  19  21
ENDBRANCH   1  19
TORSDOF 4
ENDMDL
MODEL 2
REMARK VINA RESULT:      -5.8      2.207      2.520
REMARK  4 active torsions:
REMARK  status: ('A' for Active; 'I' for Inactive)
REMARK    1  A    between atoms: C_1  and  C_2 
REMARK    2  A    between atoms: C_2  and  C_4 
REMARK    3  A    between atoms: C_7  and  N_10 
REMARK       I    between atoms: N_10  and  C_11 
REMARK    4  A    between atoms: C_11  and  C_13 
ROOT
ATOM      1  C   LIG d   1       3.075  -1.232  -8.349  0.00  0.00     0.017 A 
ATOM      2  C   LIG d   1       4.118  -1.906  -7.700  0.00  0.00    -0.050 A 
ATOM      3  C   LIG d   1       4.577  -1.453  -6.491  0.00  0.00    -0.040 A 
ATOM      4  C   LIG d   1       4.008  -0.323  -5.908  0.00  0.00     0.034 A 
ATOM      5  C   LIG d   1       2.969   0.346  -6.546  0.00  0.00    -0.040 A 
ATOM      6  C   LIG d   1       2.506  -0.098  -7.758  0.00  0.00    -0.050 A 
ATOM      7  H   LIG d   1       4.559  -2.782  -8.152  0.00  0.00     0.062 H 
ATOM      8  H   LIG d   1       5.381  -1.971  -5.990  0.00  0.00     0.064 H 
ATOM      9  H   LIG d   1       2.527   1.219  -6.088  0.00  0.00     0.064 H 
ATOM     10  H   LIG d   1       1.702   0.426  -8.254  0.00  0.00     0.062 H 
ENDROOT
BRANCH   4  11
ATOM     11  N   LIG d   1       4.479   0.135  -4.679  0.00  0.00    -0.278 N 
ATOM     12  C   LIG d   1       3.877  -0.257  -3.539  0.00  0.00     0.322 C 
ATOM     13  O   LIG d   1       2.879  -0.944  -3.585  0.00  0.00    -0.266 OA
ATOM     14  H   LIG d   1       5.237   0.739  -4.645  0.00  0.00     0.155 HD
BRANCH  12  15
ATOM     15  C   LIG d   1       4.443   0.160  -2.205  0.00  0.00     0.470 C 
ATOM     16  F   LIG d   1       3.731   1.261  -1.720  0.00  0.00    -0.162 F 
ATOM     17  F   LIG d   1       4.335  -0.902  -1.301  0.00  0.00    -0.162 F 
ATOM     18  F   LIG d   1       5.790   0.506  -2.359  0.00  0.00    -0.162 F 
ENDBRANCH  12  15
ENDBRANCH   4  11
BRANCH   1  19
ATOM     19  C   LIG d   1       2.580  -1.716  -9.644  0.00  0.00     0.160 C 
ATOM     20  O   LIG d   1       3.026  -2.737 -10.122  0.00  0.00    -0.292 OA
BRANCH  19  21
ATOM     21  C   LIG d   1       1.517  -0.941 -10.380  0.00  0.00    -0.001 C 
ATOM     22  H   LIG d   1       1.663  -1.027 -11.365  0.00  0.00     0.031 H 
ATOM     23  H   LIG d   1       0.535  -1.336 -10.123  0.00  0.00     0.031 H 
ATOM     24  H   LIG d   1       1.571   0.110 -10.096  0.00  0.00     0.031 H 
ENDBRANCH  19  21
ENDBRANCH   1  19
TORSDOF 4
ENDMDL
MODEL 3
REMARK VINA RESULT:      -5.6      4.154      6.478
REMARK  4 active torsions:
REMARK  status: ('A' for Active; 'I' for Inactive)
REMARK    1  A    between atoms: C_1  and  C_2 
REMARK    2  A    between atoms: C_2  and  C_4 
REMARK    3  A    between atoms: C_7  and  N_10 
REMARK       I    between atoms: N_10  and  C_11 
REMARK    4  A    between atoms: C_11  and  C_13 
ROOT
ATOM      1  C   LIG d   1       3.676  -0.144  -4.080  0.00  0.00     0.017 A 
ATOM      2  C   LIG d   1       2.573   0.495  -4.659  0.00  0.00    -0.050 A 
ATOM      3  C   LIG d   1       2.445   0.534  -6.024  0.00  0.00    -0.040 A 
ATOM      4  C   LIG d   1       3.409  -0.061  -6.832  0.00  0.00     0.034 A 
ATOM      5  C   LIG d   1       4.504  -0.703  -6.260  0.00  0.00    -0.040 A 
ATOM      6  C   LIG d   1       4.643  -0.742  -4.897  0.00  0.00    -0.050 A 
ATOM      7  H   LIG d   1       1.825   0.958  -4.032  0.00  0.00     0.062 H 
ATOM      8  H   LIG d   1       1.595   1.027  -6.472  0.00  0.00     0.064 H 
ATOM      9  H   LIG d   1       5.247  -1.167  -6.891  0.00  0.00     0.064 H 
ATOM     10  H   LIG d   1       5.496  -1.236  -4.455  0.00  0.00     0.062 H 
ENDROOT
BRANCH   4  11
ATOM     11  N   LIG d   1       3.275  -0.019  -8.218  0.00  0.00    -0.278 N 
ATOM     12  C   LIG d   1       3.906   0.938  -8.927  0.00  0.00     0.322 C 
ATOM     13  O   LIG d   1       4.525   1.808  -8.353  0.00  0.00    -0.266 OA
ATOM     14  H   LIG d   1       2.725  -0.676  -8.673  0.00  0.00     0.155 HD
BRANCH  12  15
ATOM     15  C   LIG d   1       3.841   0.928 -10.433  0.00  0.00     0.470 C 
ATOM     16  F   LIG d   1       3.610   2.225 -10.899  0.00  0.00    -0.162 F 
ATOM     17  F   LIG d   1       5.053   0.456 -10.948  0.00  0.00    -0.162 F 
ATOM     18  F   LIG d   1       2.800   0.090 -10.849  0.00  0.00    -0.162 F 
ENDBRANCH  12  15
ENDBRANCH   4  11
BRANCH   1  19
ATOM     19  C   LIG d   1       3.817  -0.188  -2.618  0.00  0.00     0.160 C 
ATOM     20  O   LIG d   1       3.538   0.786  -1.952  0.00  0.00    -0.292 OA
BRANCH  19  21
ATOM     21  C   LIG d   1       4.310  -1.444  -1.947  0.00  0.00    -0.001 C 
ATOM     22  H   LIG d   1       5.308  -1.475  -1.990  0.00  0.00     0.031 H 
ATOM     23  H   LIG d   1       3.991  -1.449  -0.905  0.00  0.00     0.031 H 
ATOM     24  H   LIG d   1       3.898  -2.315  -2.456  0.00  0.00     0.031 H 
ENDBRANCH  19  21
ENDBRANCH   1  19
TORSDOF 4
ENDMDL
MODEL 4
REMARK VINA RESULT:      -5.3      4.354      5.601
REMARK  4 active torsions:
REMARK  status: ('A' for Active; 'I' for Inactive)
REMARK    1  A    between atoms: C_1  and  C_2 
REMARK    2  A    between atoms: C_2  and  C_4 
REMARK    3  A    between atoms: C_7  and  N_10 
REMARK       I    between atoms: N_10  and  C_11 
REMARK    4  A    between atoms: C_11  and  C_13 
ROOT
ATOM      1  C   LIG d   1       7.212  -3.935  -5.003  0.00  0.00     0.017 A 
ATOM      2  C   LIG d   1       5.813  -3.883  -5.057  0.00  0.00    -0.050 A 
ATOM      3  C   LIG d   1       5.134  -2.969  -4.293  0.00  0.00    -0.040 A 
ATOM      4  C   LIG d   1       5.833  -2.095  -3.464  0.00  0.00     0.034 A 
ATOM      5  C   LIG d   1       7.223  -2.141  -3.412  0.00  0.00    -0.040 A 
ATOM      6  C   LIG d   1       7.910  -3.054  -4.169  0.00  0.00    -0.050 A 
ATOM      7  H   LIG d   1       5.271  -4.560  -5.699  0.00  0.00     0.062 H 
ATOM      8  H   LIG d   1       4.056  -2.928  -4.333  0.00  0.00     0.064 H 
ATOM      9  H   LIG d   1       7.761  -1.458  -2.771  0.00  0.00     0.064 H 
ATOM     10  H   LIG d   1       8.989  -3.091  -4.124  0.00  0.00     0.062 H 
ENDROOT
BRANCH   4  11
ATOM     11  N   LIG d   1       5.138  -1.169  -2.689  0.00  0.00    -0.278 N 
ATOM     12  C   LIG d   1       4.890   0.063  -3.173  0.00  0.00     0.322 C 
ATOM     13  O   LIG d   1       5.338   0.393  -4.251  0.00  0.00    -0.266 OA
ATOM     14  H   LIG d   1       4.836  -1.411  -1.799  0.00  0.00     0.155 HD
BRANCH  12  15
ATOM     15  C   LIG d   1       4.056   1.033  -2.376  0.00  0.00     0.470 C 
ATOM     16  F   LIG d   1       4.001   2.261  -3.043  0.00  0.00    -0.162 F 
ATOM     17  F   LIG d   1       2.761   0.523  -2.229  0.00  0.00    -0.162 F 
ATOM     18  F   LIG d   1       4.631   1.213  -1.113  0.00  0.00    -0.162 F 
ENDBRANCH  12  15
ENDBRANCH   4  11
BRANCH   1  19
ATOM     19  C   LIG d   1       7.944  -4.912  -5.820  0.00  0.00     0.160 C 
ATOM     20  O   LIG d   1       7.757  -4.962  -7.018  0.00  0.00    -0.292 OA
BRANCH  19  21
ATOM     21  C   LIG d   1       8.925  -5.852  -5.170  0.00  0.00    -0.001 C 
ATOM     22  H   LIG d   1       8.515  -6.248  -4.349  0.00  0.00     0.031 H 
ATOM     23  H   LIG d   1       9.182  -6.650  -5.868  0.00  0.00     0.031 H 
ATOM     24  H   LIG d   1       9.828  -5.305  -4.898  0.00  0.00     0.031 H 
ENDBRANCH  19  21
ENDBRANCH   1  19
TORSDOF 4
ENDMDL
MODEL 5
REMARK VINA RESULT:      -5.2      4.393      5.873
REMARK  4 active torsions:
REMARK  status: ('A' for Active; 'I' for Inactive)
REMARK    1  A    between atoms: C_1  and  C_2 
REMARK    2  A    between atoms: C_2  and  C_4 
REMARK    3  A    between atoms: C_7  and  N_10 
REMARK       I    between atoms: N_10  and  C_11 
REMARK    4  A    between atoms: C_11  and  C_13 
ROOT
ATOM      1  C   LIG d   1       3.856  -0.716  -4.181  0.00  0.00     0.017 A 
ATOM      2  C   LIG d   1       3.852  -1.735  -3.220  0.00  0.00    -0.050 A 
ATOM      3  C   LIG d   1       4.349  -2.973  -3.535  0.00  0.00    -0.040 A 
ATOM      4  C   LIG d   1       4.857  -3.217  -4.809  0.00  0.00     0.034 A 
ATOM      5  C   LIG d   1       4.868  -2.206  -5.764  0.00  0.00    -0.040 A 
ATOM      6  C   LIG d   1       4.368  -0.966  -5.459  0.00  0.00    -0.050 A 
ATOM      7  H   LIG d   1       3.457  -1.547  -2.232  0.00  0.00     0.062 H 
ATOM      8  H   LIG d   1       4.347  -3.760  -2.796  0.00  0.00     0.064 H 
ATOM      9  H   LIG d   1       5.268  -2.398  -6.749  0.00  0.00     0.064 H 
ATOM     10  H   LIG d   1       4.373  -0.183  -6.204  0.00  0.00     0.062 H 
ENDROOT
BRANCH   4  11
ATOM     11  N   LIG d   1       5.361  -4.477  -5.125  0.00  0.00    -0.278 N 
ATOM     12  C   LIG d   1       4.574  -5.383  -5.739  0.00  0.00     0.322 C 
ATOM     13  O   LIG d   1       3.406  -5.131  -5.944  0.00  0.00    -0.266 OA
ATOM     14  H   LIG d   1       6.277  -4.704  -4.901  0.00  0.00     0.155 HD
BRANCH  12  15
ATOM     15  C   LIG d   1       5.145  -6.710  -6.168  0.00  0.00     0.470 C 
ATOM     16  F   LIG d   1       5.436  -7.481  -5.039  0.00  0.00    -0.162 F 
ATOM     17  F   LIG d   1       4.211  -7.383  -6.964  0.00  0.00    -0.162 F 
ATOM     18  F   LIG d   1       6.316  -6.498  -6.903  0.00  0.00    -0.162 F 
ENDBRANCH  12  15
ENDBRANCH   4  11
BRANCH   1  19
ATOM     19  C   LIG d   1       3.324   0.612  -3.847  0.00  0.00     0.160 C 
ATOM     20  O   LIG d   1       2.690   1.236  -4.671  0.00  0.00    -0.292 OA
BRANCH  19  21
ATOM     21  C   LIG d   1       3.568   1.198  -2.480  0.00  0.00    -0.001 C 
ATOM     22  H   LIG d   1       4.233   0.637  -1.990  0.00  0.00     0.031 H 
ATOM     23  H   LIG d   1       3.954   2.212  -2.583  0.00  0.00     0.031 H 
ATOM     24  H   LIG d   1       2.632   1.222  -1.922  0.00  0.00     0.031 H 
ENDBRANCH  19  21
ENDBRANCH   1  19
TORSDOF 4
ENDMDL
MODEL 6
REMARK VINA RESULT:      -5.2      1.642      2.177
REMARK  4 active torsions:
REMARK  status: ('A' for Active; 'I' for Inactive)
REMARK    1  A    between atoms: C_1  and  C_2 
REMARK    2  A    between atoms: C_2  and  C_4 
REMARK    3  A    between atoms: C_7  and  N_10 
REMARK       I    between atoms: N_10  and  C_11 
REMARK    4  A    between atoms: C_11  and  C_13 
ROOT
ATOM      1  C   LIG d   1       3.665  -0.668  -8.531  0.00  0.00     0.017 A 
ATOM      2  C   LIG d   1       2.866   0.325  -7.951  0.00  0.00    -0.050 A 
ATOM      3  C   LIG d   1       2.795   0.433  -6.586  0.00  0.00    -0.040 A 
ATOM      4  C   LIG d   1       3.516  -0.442  -5.778  0.00  0.00     0.034 A 
ATOM      5  C   LIG d   1       4.315  -1.427  -6.351  0.00  0.00    -0.040 A 
ATOM      6  C   LIG d   1       4.388  -1.546  -7.715  0.00  0.00    -0.050 A 
ATOM      7  H   LIG d   1       2.307   1.004  -8.577  0.00  0.00     0.062 H 
ATOM      8  H   LIG d   1       2.180   1.198  -6.137  0.00  0.00     0.064 H 
ATOM      9  H   LIG d   1       4.876  -2.101  -5.721  0.00  0.00     0.064 H 
ATOM     10  H   LIG d   1       5.005  -2.314  -8.158  0.00  0.00     0.062 H 
ENDROOT
BRANCH   4  11
ATOM     11  N   LIG d   1       3.441  -0.329  -4.391  0.00  0.00    -0.278 N 
ATOM     12  C   LIG d   1       4.428   0.286  -3.711  0.00  0.00     0.322 C 
ATOM     13  O   LIG d   1       5.418   0.671  -4.295  0.00  0.00    -0.266 OA
ATOM     14  H   LIG d   1       2.679  -0.696  -3.916  0.00  0.00     0.155 HD
BRANCH  12  15
ATOM     15  C   LIG d   1       4.302   0.495  -2.224  0.00  0.00     0.470 C 
ATOM     16  F   LIG d   1       5.400   1.227  -1.761  0.00  0.00    -0.162 F 
ATOM     17  F   LIG d   1       3.124   1.197  -1.950  0.00  0.00    -0.162 F 
ATOM     18  F   LIG d   1       4.264  -0.747  -1.580  0.00  0.00    -0.162 F 
ENDBRANCH  12  15
ENDBRANCH   4  11
BRANCH   1  19
ATOM     19  C   LIG d   1       3.744  -0.788  -9.993  0.00  0.00     0.160 C 
ATOM     20  O   LIG d   1       3.985  -1.862 -10.502  0.00  0.00    -0.292 OA
BRANCH  19  21
ATOM     21  C   LIG d   1       3.525   0.426 -10.860  0.00  0.00    -0.001 C 
ATOM     22  H   LIG d   1       4.378   0.662 -11.325  0.00  0.00     0.031 H 
ATOM     23  H   LIG d   1       2.756   0.209 -11.601  0.00  0.00     0.031 H 
ATOM     24  H   LIG d   1       3.206   1.263 -10.240  0.00  0.00     0.031 H 
ENDBRANCH  19  21
ENDBRANCH   1  19
TORSDOF 4
ENDMDL
MODEL 7
REMARK VINA RESULT:      -5.1      4.459      6.563
REMARK  4 active torsions:
REMARK  status: ('A' for Active; 'I' for Inactive)
REMARK    1  A    between atoms: C_1  and  C_2 
REMARK    2  A    between atoms: C_2  and  C_4 
REMARK    3  A    between atoms: C_7  and  N_10 
REMARK       I    between atoms: N_10  and  C_11 
REMARK    4  A    between atoms: C_11  and  C_13 
ROOT
ATOM      1  C   LIG d   1       3.553  -0.298  -4.323  0.00  0.00     0.017 A 
ATOM      2  C   LIG d   1       2.477   0.344  -4.949  0.00  0.00    -0.050 A 
ATOM      3  C   LIG d   1       2.501   0.553  -6.304  0.00  0.00    -0.040 A 
ATOM      4  C   LIG d   1       3.593   0.130  -7.056  0.00  0.00     0.034 A 
ATOM      5  C   LIG d   1       4.662  -0.513  -6.439  0.00  0.00    -0.040 A 
ATOM      6  C   LIG d   1       4.648  -0.724  -5.084  0.00  0.00    -0.050 A 
ATOM      7  H   LIG d   1       1.630   0.673  -4.366  0.00  0.00     0.062 H 
ATOM      8  H   LIG d   1       1.672   1.048  -6.788  0.00  0.00     0.064 H 
ATOM      9  H   LIG d   1       5.505  -0.845  -7.027  0.00  0.00     0.064 H 
ATOM     10  H   LIG d   1       5.481  -1.219  -4.605  0.00  0.00     0.062 H 
ENDROOT
BRANCH   4  11
ATOM     11  N   LIG d   1       3.614   0.346  -8.432  0.00  0.00    -0.278 N 
ATOM     12  C   LIG d   1       3.089  -0.573  -9.267  0.00  0.00     0.322 C 
ATOM     13  O   LIG d   1       2.669  -1.622  -8.826  0.00  0.00    -0.266 OA
ATOM     14  H   LIG d   1       4.010   1.156  -8.790  0.00  0.00     0.155 HD
BRANCH  12  15
ATOM     15  C   LIG d   1       3.023  -0.298 -10.747  0.00  0.00     0.470 C 
ATOM     16  F   LIG d   1       3.884  -1.168 -11.422  0.00  0.00    -0.162 F 
ATOM     17  F   LIG d   1       1.714  -0.492 -11.199  0.00  0.00    -0.162 F 
ATOM     18  F   LIG d   1       3.409   1.024 -10.993  0.00  0.00    -0.162 F 
ENDBRANCH  12  15
ENDBRANCH   4  11
BRANCH   1  19
ATOM     19  C   LIG d   1       3.531  -0.525  -2.872  0.00  0.00     0.160 C 
ATOM     20  O   LIG d   1       3.294   0.394  -2.118  0.00  0.00    -0.292 OA
BRANCH  19  21
ATOM     21  C   LIG d   1       3.803  -1.902  -2.321  0.00  0.00    -0.001 C 
ATOM     22  H   LIG d   1       4.634  -1.881  -1.767  0.00  0.00     0.031 H 
ATOM     23  H   LIG d   1       2.962  -2.219  -1.704  0.00  0.00     0.031 H 
ATOM     24  H   LIG d   1       3.932  -2.604  -3.145  0.00  0.00     0.031 H 
ENDBRANCH  19  21
ENDBRANCH   1  19
TORSDOF 4
ENDMDL
MODEL 8
REMARK VINA RESULT:      -5.1      3.582      4.442
REMARK  4 active torsions:
REMARK  status: ('A' for Active; 'I' for Inactive)
REMARK    1  A    between atoms: C_1  and  C_2 
REMARK    2  A    between atoms: C_2  and  C_4 
REMARK    3  A    between atoms: C_7  and  N_10 
REMARK       I    between atoms: N_10  and  C_11 
REMARK    4  A    between atoms: C_11  and  C_13 
ROOT
ATOM      1  C   LIG d   1       8.412   1.995  -5.907  0.00  0.00     0.017 A 
ATOM      2  C   LIG d   1       8.222   2.353  -4.566  0.00  0.00    -0.050 A 
ATOM      3  C   LIG d   1       7.477   1.548  -3.743  0.00  0.00    -0.040 A 
ATOM      4  C   LIG d   1       6.910   0.378  -4.239  0.00  0.00     0.034 A 
ATOM      5  C   LIG d   1       7.100   0.016  -5.569  0.00  0.00    -0.040 A 
ATOM      6  C   LIG d   1       7.840   0.816  -6.400  0.00  0.00    -0.050 A 
ATOM      7  H   LIG d   1       8.662   3.261  -4.181  0.00  0.00     0.062 H 
ATOM      8  H   LIG d   1       7.330   1.823  -2.709  0.00  0.00     0.064 H 
ATOM      9  H   LIG d   1       6.662  -0.896  -5.948  0.00  0.00     0.064 H 
ATOM     10  H   LIG d   1       7.983   0.536  -7.434  0.00  0.00     0.062 H 
ENDROOT
BRANCH   4  11
ATOM     11  N   LIG d   1       6.152  -0.436  -3.399  0.00  0.00    -0.278 N 
ATOM     12  C   LIG d   1       4.808  -0.340  -3.400  0.00  0.00     0.322 C 
ATOM     13  O   LIG d   1       4.262   0.508  -4.073  0.00  0.00    -0.266 OA
ATOM     14  H   LIG d   1       6.593  -1.070  -2.811  0.00  0.00     0.155 HD
BRANCH  12  15
ATOM     15  C   LIG d   1       3.983  -1.285  -2.565  0.00  0.00     0.470 C 
ATOM     16  F   LIG d   1       2.627  -0.985  -2.721  0.00  0.00    -0.162 F 
ATOM     17  F   LIG d   1       4.221  -2.601  -2.979  0.00  0.00    -0.162 F 
ATOM     18  F   LIG d   1       4.340  -1.149  -1.219  0.00  0.00    -0.162 F 
ENDBRANCH  12  15
ENDBRANCH   4  11
BRANCH   1  19
ATOM     19  C   LIG d   1       9.210   2.854  -6.792  0.00  0.00     0.160 C 
ATOM     20  O   LIG d   1       9.373   2.543  -7.953  0.00  0.00    -0.292 OA
BRANCH  19  21
ATOM     21  C   LIG d   1       9.827   4.120  -6.256  0.00  0.00    -0.001 C 
ATOM     22  H   LIG d   1       9.978   4.027  -5.272  0.00  0.00     0.031 H 
ATOM     23  H   LIG d   1      10.780   4.299  -6.754  0.00  0.00     0.031 H 
ATOM     24  H   LIG d   1       9.157   4.959  -6.443  0.00  0.00     0.031 H 
ENDBRANCH  19  21
ENDBRANCH   1  19
TORSDOF 4
ENDMDL
MODEL 9
REMARK VINA RESULT:      -4.7      4.195      5.169
REMARK  4 active torsions:
REMARK  status: ('A' for Active; 'I' for Inactive)
REMARK    1  A    between atoms: C_1  and  C_2 
REMARK    2  A    between atoms: C_2  and  C_4 
REMARK    3  A    between atoms: C_7  and  N_10 
REMARK       I    between atoms: N_10  and  C_11 
REMARK    4  A    between atoms: C_11  and  C_13 
ROOT
ATOM      1  C   LIG d   1       9.616   1.239  -5.727  0.00  0.00     0.017 A 
ATOM      2  C   LIG d   1       9.607   1.833  -4.459  0.00  0.00    -0.050 A 
ATOM      3  C   LIG d   1       8.455   1.840  -3.715  0.00  0.00    -0.040 A 
ATOM      4  C   LIG d   1       7.295   1.257  -4.221  0.00  0.00     0.034 A 
ATOM      5  C   LIG d   1       7.302   0.661  -5.478  0.00  0.00    -0.040 A 
ATOM      6  C   LIG d   1       8.448   0.654  -6.230  0.00  0.00    -0.050 A 
ATOM      7  H   LIG d   1      10.506   2.286  -4.066  0.00  0.00     0.062 H 
ATOM      8  H   LIG d   1       8.446   2.297  -2.738  0.00  0.00     0.064 H 
ATOM      9  H   LIG d   1       6.401   0.206  -5.864  0.00  0.00     0.064 H 
ATOM     10  H   LIG d   1       8.450   0.195  -7.208  0.00  0.00     0.062 H 
ENDROOT
BRANCH   4  11
ATOM     11  N   LIG d   1       6.126   1.267  -3.462  0.00  0.00    -0.278 N 
ATOM     12  C   LIG d   1       5.733   0.151  -2.817  0.00  0.00     0.322 C 
ATOM     13  O   LIG d   1       6.352  -0.882  -2.959  0.00  0.00    -0.266 OA
ATOM     14  H   LIG d   1       5.594   2.075  -3.402  0.00  0.00     0.155 HD
BRANCH  12  15
ATOM     15  C   LIG d   1       4.523   0.186  -1.919  0.00  0.00     0.470 C 
ATOM     16  F   LIG d   1       4.664   1.217  -0.985  0.00  0.00    -0.162 F 
ATOM     17  F   LIG d   1       3.377   0.409  -2.691  0.00  0.00    -0.162 F 
ATOM     18  F   LIG d   1       4.403  -1.037  -1.250  0.00  0.00    -0.162 F 
ENDBRANCH  12  15
ENDBRANCH   4  11
BRANCH   1  19
ATOM     19  C   LIG d   1      10.848   1.230  -6.526  0.00  0.00     0.160 C 
ATOM     20  O   LIG d   1      11.904   1.545  -6.018  0.00  0.00    -0.292 OA
BRANCH  19  21
ATOM     21  C   LIG d   1      10.801   0.830  -7.978  0.00  0.00    -0.001 C 
ATOM     22  H   LIG d   1      10.169   1.429  -8.469  0.00  0.00     0.031 H 
ATOM     23  H   LIG d   1      11.796   0.918  -8.413  0.00  0.00     0.031 H 
ATOM     24  H   LIG d   1      10.460  -0.203  -8.061  0.00  0.00     0.031 H 
ENDBRANCH  19  21
ENDBRANCH   1  19
TORSDOF 4
ENDMDL
MODEL 10
REMARK VINA RESULT:      -4.6      3.723      5.143
REMARK  4 active torsions:
REMARK  status: ('A' for Active; 'I' for Inactive)
REMARK    1  A    between atoms: C_1  and  C_2 
REMARK    2  A    between atoms: C_2  and  C_4 
REMARK    3  A    between atoms: C_7  and  N_10 
REMARK       I    between atoms: N_10  and  C_11 
REMARK    4  A    between atoms: C_11  and  C_13 
ROOT
ATOM      1  C   LIG d   1       4.323  -0.552  -4.873  0.00  0.00     0.017 A 
ATOM      2  C   LIG d   1       4.192  -1.378  -3.750  0.00  0.00    -0.050 A 
ATOM      3  C   LIG d   1       5.305  -1.946  -3.185  0.00  0.00    -0.040 A 
ATOM      4  C   LIG d   1       6.563  -1.703  -3.729  0.00  0.00     0.034 A 
ATOM      5  C   LIG d   1       6.699  -0.879  -4.842  0.00  0.00    -0.040 A 
ATOM      6  C   LIG d   1       5.591  -0.310  -5.415  0.00  0.00    -0.050 A 
ATOM      7  H   LIG d   1       3.216  -1.567  -3.328  0.00  0.00     0.062 H 
ATOM      8  H   LIG d   1       5.205  -2.583  -2.319  0.00  0.00     0.064 H 
ATOM      9  H   LIG d   1       7.678  -0.689  -5.257  0.00  0.00     0.064 H 
ATOM     10  H   LIG d   1       5.697   0.326  -6.282  0.00  0.00     0.062 H 
ENDROOT
BRANCH   4  11
ATOM     11  N   LIG d   1       7.692  -2.284  -3.153  0.00  0.00    -0.278 N 
ATOM     12  C   LIG d   1       8.186  -3.435  -3.650  0.00  0.00     0.322 C 
ATOM     13  O   LIG d   1       7.604  -4.006  -4.547  0.00  0.00    -0.266 OA
ATOM     14  H   LIG d   1       8.120  -1.861  -2.392  0.00  0.00     0.155 HD
BRANCH  12  15
ATOM     15  C   LIG d   1       9.461  -4.012  -3.091  0.00  0.00     0.470 C 
ATOM     16  F   LIG d   1       9.555  -5.362  -3.443  0.00  0.00    -0.162 F 
ATOM     17  F   LIG d   1      10.556  -3.316  -3.613  0.00  0.00    -0.162 F 
ATOM     18  F   LIG d   1       9.454  -3.893  -1.697  0.00  0.00    -0.162 F 
ENDBRANCH  12  15
ENDBRANCH   4  11
BRANCH   1  19
ATOM     19  C   LIG d   1       3.133   0.059  -5.480  0.00  0.00     0.160 C 
ATOM     20  O   LIG d   1       2.254   0.506  -4.775  0.00  0.00    -0.292 OA
BRANCH  19  21
ATOM     21  C   LIG d   1       3.005   0.129  -6.980  0.00  0.00    -0.001 C 
ATOM     22  H   LIG d   1       3.706   0.740  -7.347  0.00  0.00     0.031 H 
ATOM     23  H   LIG d   1       3.135  -0.868  -7.403  0.00  0.00     0.031 H 
ATOM     24  H   LIG d   1       2.018   0.508  -7.244  0.00  0.00     0.031 H 
ENDBRANCH  19  21
ENDBRANCH   1  19
TORSDOF 4
ENDMDL
