MODEL 1
REMARK VINA RESULT:      -5.4      0.000      0.000
REMARK  15 active torsions:
REMARK  status: ('A' for Active; 'I' for Inactive)
REMARK    1  A    between atoms: C_1  and  C_2 
REMARK    2  A    between atoms: C_2  and  C_3 
REMARK    3  A    between atoms: C_2  and  C_4 
REMARK    4  A    between atoms: C_4  and  C_5 
REMARK    5  A    between atoms: C_5  and  O_7 
REMARK    6  A    between atoms: O_7  and  C_8 
REMARK    7  A    between atoms: C_22  and  C_24 
REMARK    8  A    between atoms: C_24  and  C_25 
REMARK    9  A    between atoms: C_24  and  C_26 
REMARK   10  A    between atoms: C_24  and  O_27 
REMARK   11  A    between atoms: O_27  and  C_28 
REMARK   12  A    between atoms: C_28  and  C_30 
REMARK   13  A    between atoms: C_30  and  C_31 
REMARK   14  A    between atoms: C_31  and  C_32 
REMARK   15  A    between atoms: C_31  and  C_33 
ROOT
ATOM      1  C   LIG d   1       6.082  -1.323  -3.493  0.00  0.00     0.175 C 
ATOM      2  H   LIG d   1       6.723  -1.219  -2.617  0.00  0.00     0.083 H 
ATOM      3  C   LIG d   1       6.385  -2.609  -4.236  0.00  0.00     0.081 A 
ATOM      4  C   LIG d   1       5.169  -3.214  -4.519  0.00  0.00     0.132 A 
ATOM      5  C   LIG d   1       5.152  -4.437  -5.199  0.00  0.00    -0.019 A 
ATOM      6  C   LIG d   1       6.313  -5.034  -5.590  0.00  0.00    -0.048 A 
ATOM      7  C   LIG d   1       7.542  -4.425  -5.313  0.00  0.00     0.018 A 
ATOM      8  C   LIG d   1       7.573  -3.196  -4.626  0.00  0.00     0.149 A 
ATOM      9  O   LIG d   1       8.761  -2.609  -4.359  0.00  0.00    -0.422 OA
ATOM     10  C   LIG d   1       9.921  -3.171  -4.731  0.00  0.00     0.337 A 
ATOM     11  O   LIG d   1      10.966  -2.605  -4.465  0.00  0.00    -0.245 OA
ATOM     12  C   LIG d   1       9.961  -4.400  -5.422  0.00  0.00     0.024 A 
ATOM     13  C   LIG d   1       8.804  -5.043  -5.724  0.00  0.00    -0.044 A 
ATOM     14  O   LIG d   1       4.129  -2.461  -4.068  0.00  0.00    -0.480 OA
ATOM     15  C   LIG d   1       4.606  -1.535  -3.076  0.00  0.00     0.180 C 
ATOM     16  H   LIG d   1       4.545  -1.971  -2.079  0.00  0.00     0.082 H 
ATOM     17  H   LIG d   1       4.208  -4.915  -5.416  0.00  0.00     0.065 H 
ATOM     18  H   LIG d   1       6.284  -5.978  -6.114  0.00  0.00     0.063 H 
ATOM     19  H   LIG d   1      10.911  -4.828  -5.710  0.00  0.00     0.069 H 
ATOM     20  H   LIG d   1       8.814  -5.985  -6.253  0.00  0.00     0.063 H 
ENDROOT
BRANCH  15  21
ATOM     21  C   LIG d   1       3.830  -0.218  -3.144  0.00  0.00     0.148 C 
BRANCH  21  22
ATOM     22  C   LIG d   1       2.328  -0.508  -3.076  0.00  0.00    -0.021 C 
ATOM     23  H   LIG d   1       2.019  -1.033  -3.979  0.00  0.00     0.027 H 
ATOM     24  H   LIG d   1       2.118  -1.128  -2.205  0.00  0.00     0.027 H 
ATOM     25  H   LIG d   1       1.781   0.430  -2.995  0.00  0.00     0.027 H 
ENDBRANCH  21  22
BRANCH  21  26
ATOM     26  C   LIG d   1       4.231   0.671  -1.965  0.00  0.00    -0.021 C 
ATOM     27  H   LIG d   1       5.289   0.921  -2.042  0.00  0.00     0.027 H 
ATOM     28  H   LIG d   1       3.639   1.585  -1.982  0.00  0.00     0.027 H 
ATOM     29  H   LIG d   1       4.051   0.139  -1.030  0.00  0.00     0.027 H 
ENDBRANCH  21  26
BRANCH  21  30
ATOM     30  O   LIG d   1       4.131   0.451  -4.369  0.00  0.00    -0.455 OA
BRANCH  30  31
ATOM     31  C   LIG d   1       3.094   0.782  -5.154  0.00  0.00     0.308 C 
ATOM     32  O   LIG d   1       2.415   1.745  -4.884  0.00  0.00    -0.251 OA
BRANCH  31  33
ATOM     33  C   LIG d   1       2.776  -0.047  -6.372  0.00  0.00     0.047 C 
ATOM     34  H   LIG d   1       2.381  -1.014  -6.060  0.00  0.00     0.038 H 
ATOM     35  H   LIG d   1       2.034   0.470  -6.980  0.00  0.00     0.038 H 
BRANCH  33  36
ATOM     36  C   LIG d   1       4.051  -0.258  -7.192  0.00  0.00    -0.037 C 
ATOM     37  H   LIG d   1       4.922  -0.071  -6.563  0.00  0.00     0.030 H 
BRANCH  36  38
ATOM     38  C   LIG d   1       4.094  -1.698  -7.706  0.00  0.00    -0.062 C 
ATOM     39  H   LIG d   1       3.526  -1.770  -8.634  0.00  0.00     0.023 H 
ATOM     40  H   LIG d   1       5.128  -1.988  -7.890  0.00  0.00     0.023 H 
ATOM     41  H   LIG d   1       3.656  -2.363  -6.961  0.00  0.00     0.023 H 
ENDBRANCH  36  38
BRANCH  36  42
ATOM     42  C   LIG d   1       4.060   0.709  -8.378  0.00  0.00    -0.062 C 
ATOM     43  H   LIG d   1       3.115   1.252  -8.410  0.00  0.00     0.023 H 
ATOM     44  H   LIG d   1       4.882   1.415  -8.265  0.00  0.00     0.023 H 
ATOM     45  H   LIG d   1       4.188   0.148  -9.304  0.00  0.00     0.023 H 
ENDBRANCH  36  42
ENDBRANCH  33  36
ENDBRANCH  31  33
ENDBRANCH  30  31
ENDBRANCH  21  30
ENDBRANCH  15  21
BRANCH   1  46
ATOM     46  O   LIG d   1       6.211  -0.191  -4.355  0.00  0.00    -0.452 OA
BRANCH  46  47
ATOM     47  C   LIG d   1       7.327   0.545  -4.230  0.00  0.00     0.308 C 
ATOM     48  O   LIG d   1       7.505   1.209  -3.236  0.00  0.00    -0.251 OA
BRANCH  47  49
ATOM     49  C   LIG d   1       8.357   0.546  -5.331  0.00  0.00     0.047 C 
ATOM     50  H   LIG d   1       9.116  -0.206  -5.119  0.00  0.00     0.038 H 
ATOM     51  H   LIG d   1       8.824   1.529  -5.389  0.00  0.00     0.038 H 
BRANCH  49  52
ATOM     52  C   LIG d   1       7.678   0.224  -6.664  0.00  0.00    -0.037 C 
ATOM     53  H   LIG d   1       6.664  -0.129  -6.479  0.00  0.00     0.030 H 
BRANCH  52  54
ATOM     54  C   LIG d   1       7.630   1.485  -7.529  0.00  0.00    -0.062 C 
ATOM     55  H   LIG d   1       6.710   2.031  -7.323  0.00  0.00     0.023 H 
ATOM     56  H   LIG d   1       8.488   2.116  -7.300  0.00  0.00     0.023 H 
ATOM     57  H   LIG d   1       7.656   1.203  -8.582  0.00  0.00     0.023 H 
ENDBRANCH  52  54
BRANCH  52  58
ATOM     58  C   LIG d   1       8.473  -0.864  -7.390  0.00  0.00    -0.062 C 
ATOM     59  H   LIG d   1       9.094  -0.407  -8.160  0.00  0.00     0.023 H 
ATOM     60  H   LIG d   1       9.106  -1.390  -6.676  0.00  0.00     0.023 H 
ATOM     61  H   LIG d   1       7.783  -1.571  -7.852  0.00  0.00     0.023 H 
ENDBRANCH  52  58
ENDBRANCH  49  52
ENDBRANCH  47  49
ENDBRANCH  46  47
ENDBRANCH   1  46
TORSDOF 15
ENDMDL
MODEL 2
REMARK VINA RESULT:      -5.2      2.102      6.655
REMARK  15 active torsions:
REMARK  status: ('A' for Active; 'I' for Inactive)
REMARK    1  A    between atoms: C_1  and  C_2 
REMARK    2  A    between atoms: C_2  and  C_3 
REMARK    3  A    between atoms: C_2  and  C_4 
REMARK    4  A    between atoms: C_4  and  C_5 
REMARK    5  A    between atoms: C_5  and  O_7 
REMARK    6  A    between atoms: O_7  and  C_8 
REMARK    7  A    between atoms: C_22  and  C_24 
REMARK    8  A    between atoms: C_24  and  C_25 
REMARK    9  A    between atoms: C_24  and  C_26 
REMARK   10  A    between atoms: C_24  and  O_27 
REMARK   11  A    between atoms: O_27  and  C_28 
REMARK   12  A    between atoms: C_28  and  C_30 
REMARK   13  A    between atoms: C_30  and  C_31 
REMARK   14  A    between atoms: C_31  and  C_32 
REMARK   15  A    between atoms: C_31  and  C_33 
ROOT
ATOM      1  C   LIG d   1       5.198  -2.043  -6.514  0.00  0.00     0.175 C 
ATOM      2  H   LIG d   1       5.938  -1.252  -6.633  0.00  0.00     0.083 H 
ATOM      3  C   LIG d   1       4.211  -2.039  -7.666  0.00  0.00     0.081 A 
ATOM      4  C   LIG d   1       4.074  -3.352  -8.092  0.00  0.00     0.132 A 
ATOM      5  C   LIG d   1       3.221  -3.641  -9.164  0.00  0.00    -0.019 A 
ATOM      6  C   LIG d   1       2.521  -2.650  -9.785  0.00  0.00    -0.048 A 
ATOM      7  C   LIG d   1       2.652  -1.324  -9.355  0.00  0.00     0.018 A 
ATOM      8  C   LIG d   1       3.509  -1.020  -8.281  0.00  0.00     0.149 A 
ATOM      9  O   LIG d   1       3.634   0.260  -7.866  0.00  0.00    -0.422 OA
ATOM     10  C   LIG d   1       2.959   1.259  -8.458  0.00  0.00     0.337 A 
ATOM     11  O   LIG d   1       3.107   2.396  -8.051  0.00  0.00    -0.245 OA
ATOM     12  C   LIG d   1       2.084   1.023  -9.538  0.00  0.00     0.024 A 
ATOM     13  C   LIG d   1       1.911  -0.242 -10.004  0.00  0.00    -0.044 A 
ATOM     14  O   LIG d   1       4.834  -4.194  -7.339  0.00  0.00    -0.480 OA
ATOM     15  C   LIG d   1       5.851  -3.439  -6.660  0.00  0.00     0.180 C 
ATOM     16  H   LIG d   1       6.757  -3.381  -7.262  0.00  0.00     0.082 H 
ATOM     17  H   LIG d   1       3.116  -4.661  -9.502  0.00  0.00     0.065 H 
ATOM     18  H   LIG d   1       1.868  -2.888 -10.611  0.00  0.00     0.063 H 
ATOM     19  H   LIG d   1       1.552   1.846  -9.993  0.00  0.00     0.069 H 
ATOM     20  H   LIG d   1       1.244  -0.442 -10.830  0.00  0.00     0.063 H 
ENDROOT
BRANCH  15  21
ATOM     21  C   LIG d   1       6.149  -4.043  -5.285  0.00  0.00     0.148 C 
BRANCH  21  22
ATOM     22  C   LIG d   1       4.837  -4.461  -4.617  0.00  0.00    -0.021 C 
ATOM     23  H   LIG d   1       4.213  -3.581  -4.461  0.00  0.00     0.027 H 
ATOM     24  H   LIG d   1       4.313  -5.169  -5.259  0.00  0.00     0.027 H 
ATOM     25  H   LIG d   1       5.051  -4.930  -3.658  0.00  0.00     0.027 H 
ENDBRANCH  21  22
BRANCH  21  26
ATOM     26  C   LIG d   1       7.049  -5.269  -5.452  0.00  0.00    -0.021 C 
ATOM     27  H   LIG d   1       8.060  -5.025  -5.125  0.00  0.00     0.027 H 
ATOM     28  H   LIG d   1       6.660  -6.089  -4.850  0.00  0.00     0.027 H 
ATOM     29  H   LIG d   1       7.069  -5.566  -6.501  0.00  0.00     0.027 H 
ENDBRANCH  21  26
BRANCH  21  30
ATOM     30  O   LIG d   1       6.811  -3.074  -4.471  0.00  0.00    -0.455 OA
BRANCH  30  31
ATOM     31  C   LIG d   1       8.148  -3.156  -4.391  0.00  0.00     0.308 C 
ATOM     32  O   LIG d   1       8.826  -2.946  -5.368  0.00  0.00    -0.251 OA
BRANCH  31  33
ATOM     33  C   LIG d   1       8.803  -3.511  -3.080  0.00  0.00     0.047 C 
ATOM     34  H   LIG d   1       9.282  -2.625  -2.662  0.00  0.00     0.038 H 
ATOM     35  H   LIG d   1       8.049  -3.879  -2.385  0.00  0.00     0.038 H 
BRANCH  33  36
ATOM     36  C   LIG d   1       9.856  -4.597  -3.314  0.00  0.00    -0.037 C 
ATOM     37  H   LIG d   1       9.699  -5.050  -4.293  0.00  0.00     0.030 H 
BRANCH  36  38
ATOM     38  C   LIG d   1      11.252  -3.974  -3.258  0.00  0.00    -0.062 C 
ATOM     39  H   LIG d   1      11.167  -2.912  -3.024  0.00  0.00     0.023 H 
ATOM     40  H   LIG d   1      11.841  -4.470  -2.488  0.00  0.00     0.023 H 
ATOM     41  H   LIG d   1      11.742  -4.093  -4.225  0.00  0.00     0.023 H 
ENDBRANCH  36  38
BRANCH  36  42
ATOM     42  C   LIG d   1       9.732  -5.669  -2.229  0.00  0.00    -0.062 C 
ATOM     43  H   LIG d   1       9.528  -6.633  -2.694  0.00  0.00     0.023 H 
ATOM     44  H   LIG d   1      10.664  -5.726  -1.667  0.00  0.00     0.023 H 
ATOM     45  H   LIG d   1       8.915  -5.411  -1.555  0.00  0.00     0.023 H 
ENDBRANCH  36  42
ENDBRANCH  33  36
ENDBRANCH  31  33
ENDBRANCH  30  31
ENDBRANCH  21  30
ENDBRANCH  15  21
BRANCH   1  46
ATOM     46  O   LIG d   1       4.521  -1.924  -5.261  0.00  0.00    -0.452 OA
BRANCH  46  47
ATOM     47  C   LIG d   1       4.427  -0.692  -4.735  0.00  0.00     0.308 C 
ATOM     48  O   LIG d   1       5.331   0.097  -4.878  0.00  0.00    -0.251 OA
BRANCH  47  49
ATOM     49  C   LIG d   1       3.195  -0.294  -3.964  0.00  0.00     0.047 C 
ATOM     50  H   LIG d   1       2.377  -0.971  -4.211  0.00  0.00     0.038 H 
ATOM     51  H   LIG d   1       2.914   0.725  -4.230  0.00  0.00     0.038 H 
BRANCH  49  52
ATOM     52  C   LIG d   1       3.485  -0.369  -2.464  0.00  0.00    -0.037 C 
ATOM     53  H   LIG d   1       2.546  -0.460  -1.917  0.00  0.00     0.030 H 
BRANCH  52  54
ATOM     54  C   LIG d   1       4.365  -1.587  -2.175  0.00  0.00    -0.062 C 
ATOM     55  H   LIG d   1       4.312  -2.281  -3.015  0.00  0.00     0.023 H 
ATOM     56  H   LIG d   1       5.396  -1.265  -2.033  0.00  0.00     0.023 H 
ATOM     57  H   LIG d   1       4.011  -2.084  -1.272  0.00  0.00     0.023 H 
ENDBRANCH  52  54
BRANCH  52  58
ATOM     58  C   LIG d   1       4.212   0.903  -2.022  0.00  0.00    -0.062 C 
ATOM     59  H   LIG d   1       4.228   0.952  -0.934  0.00  0.00     0.023 H 
ATOM     60  H   LIG d   1       5.235   0.887  -2.400  0.00  0.00     0.023 H 
ATOM     61  H   LIG d   1       3.693   1.775  -2.419  0.00  0.00     0.023 H 
ENDBRANCH  52  58
ENDBRANCH  49  52
ENDBRANCH  47  49
ENDBRANCH  46  47
ENDBRANCH   1  46
TORSDOF 15
ENDMDL
MODEL 3
REMARK VINA RESULT:      -5.1      2.701      5.502
REMARK  15 active torsions:
REMARK  status: ('A' for Active; 'I' for Inactive)
REMARK    1  A    between atoms: C_1  and  C_2 
REMARK    2  A    between atoms: C_2  and  C_3 
REMARK    3  A    between atoms: C_2  and  C_4 
REMARK    4  A    between atoms: C_4  and  C_5 
REMARK    5  A    between atoms: C_5  and  O_7 
REMARK    6  A    between atoms: O_7  and  C_8 
REMARK    7  A    between atoms: C_22  and  C_24 
REMARK    8  A    between atoms: C_24  and  C_25 
REMARK    9  A    between atoms: C_24  and  C_26 
REMARK   10  A    between atoms: C_24  and  O_27 
REMARK   11  A    between atoms: O_27  and  C_28 
REMARK   12  A    between atoms: C_28  and  C_30 
REMARK   13  A    between atoms: C_30  and  C_31 
REMARK   14  A    between atoms: C_31  and  C_32 
REMARK   15  A    between atoms: C_31  and  C_33 
ROOT
ATOM      1  C   LIG d   1       5.733  -1.182  -6.947  0.00  0.00     0.175 C 
ATOM      2  H   LIG d   1       6.106  -1.725  -6.078  0.00  0.00     0.083 H 
ATOM      3  C   LIG d   1       6.705  -0.094  -7.362  0.00  0.00     0.081 A 
ATOM      4  C   LIG d   1       6.856  -0.184  -8.738  0.00  0.00     0.132 A 
ATOM      5  C   LIG d   1       7.716   0.705  -9.394  0.00  0.00    -0.019 A 
ATOM      6  C   LIG d   1       8.397   1.659  -8.698  0.00  0.00    -0.048 A 
ATOM      7  C   LIG d   1       8.243   1.758  -7.311  0.00  0.00     0.018 A 
ATOM      8  C   LIG d   1       7.384   0.867  -6.638  0.00  0.00     0.149 A 
ATOM      9  O   LIG d   1       7.236   0.964  -5.298  0.00  0.00    -0.422 OA
ATOM     10  C   LIG d   1       7.893   1.892  -4.584  0.00  0.00     0.337 A 
ATOM     11  O   LIG d   1       7.730   1.938  -3.379  0.00  0.00    -0.245 OA
ATOM     12  C   LIG d   1       8.767   2.814  -5.195  0.00  0.00     0.024 A 
ATOM     13  C   LIG d   1       8.961   2.773  -6.539  0.00  0.00    -0.044 A 
ATOM     14  O   LIG d   1       6.084  -1.180  -9.253  0.00  0.00    -0.480 OA
ATOM     15  C   LIG d   1       5.716  -2.089  -8.201  0.00  0.00     0.180 C 
ATOM     16  H   LIG d   1       6.448  -2.891  -8.108  0.00  0.00     0.082 H 
ATOM     17  H   LIG d   1       7.841   0.634 -10.464  0.00  0.00     0.065 H 
ATOM     18  H   LIG d   1       9.057   2.337  -9.218  0.00  0.00     0.063 H 
ATOM     19  H   LIG d   1       9.281   3.552  -4.596  0.00  0.00     0.069 H 
ATOM     20  H   LIG d   1       9.626   3.472  -7.025  0.00  0.00     0.063 H 
ENDROOT
BRANCH  15  21
ATOM     21  C   LIG d   1       4.314  -2.656  -8.439  0.00  0.00     0.148 C 
BRANCH  21  22
ATOM     22  C   LIG d   1       4.245  -3.271  -9.839  0.00  0.00    -0.021 C 
ATOM     23  H   LIG d   1       3.752  -2.576 -10.517  0.00  0.00     0.027 H 
ATOM     24  H   LIG d   1       5.255  -3.474 -10.196  0.00  0.00     0.027 H 
ATOM     25  H   LIG d   1       3.681  -4.202  -9.798  0.00  0.00     0.027 H 
ENDBRANCH  21  22
BRANCH  21  26
ATOM     26  C   LIG d   1       4.015  -3.732  -7.393  0.00  0.00    -0.021 C 
ATOM     27  H   LIG d   1       4.771  -3.697  -6.610  0.00  0.00     0.027 H 
ATOM     28  H   LIG d   1       3.033  -3.553  -6.959  0.00  0.00     0.027 H 
ATOM     29  H   LIG d   1       4.029  -4.714  -7.868  0.00  0.00     0.027 H 
ENDBRANCH  21  26
BRANCH  21  30
ATOM     30  O   LIG d   1       3.351  -1.607  -8.332  0.00  0.00    -0.455 OA
BRANCH  30  31
ATOM     31  C   LIG d   1       2.446  -1.507  -9.318  0.00  0.00     0.308 C 
ATOM     32  O   LIG d   1       1.775  -2.464  -9.622  0.00  0.00    -0.251 OA
BRANCH  31  33
ATOM     33  C   LIG d   1       2.269  -0.199 -10.047  0.00  0.00     0.047 C 
ATOM     34  H   LIG d   1       2.364  -0.366 -11.120  0.00  0.00     0.038 H 
ATOM     35  H   LIG d   1       1.282   0.208  -9.829  0.00  0.00     0.038 H 
BRANCH  33  36
ATOM     36  C   LIG d   1       3.342   0.790  -9.588  0.00  0.00    -0.037 C 
ATOM     37  H   LIG d   1       4.052   0.280  -8.937  0.00  0.00     0.030 H 
BRANCH  36  38
ATOM     38  C   LIG d   1       4.078   1.346 -10.808  0.00  0.00    -0.062 C 
ATOM     39  H   LIG d   1       4.120   0.584 -11.587  0.00  0.00     0.023 H 
ATOM     40  H   LIG d   1       3.549   2.221 -11.184  0.00  0.00     0.023 H 
ATOM     41  H   LIG d   1       5.092   1.629 -10.524  0.00  0.00     0.023 H 
ENDBRANCH  36  38
BRANCH  36  42
ATOM     42  C   LIG d   1       2.682   1.939  -8.823  0.00  0.00    -0.062 C 
ATOM     43  H   LIG d   1       2.133   2.572  -9.521  0.00  0.00     0.023 H 
ATOM     44  H   LIG d   1       1.993   1.533  -8.082  0.00  0.00     0.023 H 
ATOM     45  H   LIG d   1       3.448   2.531  -8.322  0.00  0.00     0.023 H 
ENDBRANCH  36  42
ENDBRANCH  33  36
ENDBRANCH  31  33
ENDBRANCH  30  31
ENDBRANCH  21  30
ENDBRANCH  15  21
BRANCH   1  46
ATOM     46  O   LIG d   1       4.437  -0.639  -6.690  0.00  0.00    -0.452 OA
BRANCH  46  47
ATOM     47  C   LIG d   1       4.147  -0.329  -5.417  0.00  0.00     0.308 C 
ATOM     48  O   LIG d   1       3.373   0.566  -5.173  0.00  0.00    -0.251 OA
BRANCH  47  49
ATOM     49  C   LIG d   1       4.791  -1.097  -4.290  0.00  0.00     0.047 C 
ATOM     50  H   LIG d   1       5.807  -0.735  -4.137  0.00  0.00     0.038 H 
ATOM     51  H   LIG d   1       4.816  -2.157  -4.541  0.00  0.00     0.038 H 
BRANCH  49  52
ATOM     52  C   LIG d   1       3.979  -0.897  -3.008  0.00  0.00    -0.037 C 
ATOM     53  H   LIG d   1       3.008  -0.467  -3.257  0.00  0.00     0.030 H 
BRANCH  52  54
ATOM     54  C   LIG d   1       3.778  -2.246  -2.316  0.00  0.00    -0.062 C 
ATOM     55  H   LIG d   1       2.722  -2.515  -2.345  0.00  0.00     0.023 H 
ATOM     56  H   LIG d   1       4.362  -3.009  -2.830  0.00  0.00     0.023 H 
ATOM     57  H   LIG d   1       4.105  -2.174  -1.279  0.00  0.00     0.023 H 
ENDBRANCH  52  54
BRANCH  52  58
ATOM     58  C   LIG d   1       4.731   0.051  -2.071  0.00  0.00    -0.062 C 
ATOM     59  H   LIG d   1       4.798   1.037  -2.529  0.00  0.00     0.023 H 
ATOM     60  H   LIG d   1       4.197   0.125  -1.124  0.00  0.00     0.023 H 
ATOM     61  H   LIG d   1       5.735  -0.336  -1.893  0.00  0.00     0.023 H 
ENDBRANCH  52  58
ENDBRANCH  49  52
ENDBRANCH  47  49
ENDBRANCH  46  47
ENDBRANCH   1  46
TORSDOF 15
ENDMDL
MODEL 4
REMARK VINA RESULT:      -5.1      3.247      6.278
REMARK  15 active torsions:
REMARK  status: ('A' for Active; 'I' for Inactive)
REMARK    1  A    between atoms: C_1  and  C_2 
REMARK    2  A    between atoms: C_2  and  C_3 
REMARK    3  A    between atoms: C_2  and  C_4 
REMARK    4  A    between atoms: C_4  and  C_5 
REMARK    5  A    between atoms: C_5  and  O_7 
REMARK    6  A    between atoms: O_7  and  C_8 
REMARK    7  A    between atoms: C_22  and  C_24 
REMARK    8  A    between atoms: C_24  and  C_25 
REMARK    9  A    between atoms: C_24  and  C_26 
REMARK   10  A    between atoms: C_24  and  O_27 
REMARK   11  A    between atoms: O_27  and  C_28 
REMARK   12  A    between atoms: C_28  and  C_30 
REMARK   13  A    between atoms: C_30  and  C_31 
REMARK   14  A    between atoms: C_31  and  C_32 
REMARK   15  A    between atoms: C_31  and  C_33 
ROOT
ATOM      1  C   LIG d   1       4.669  -2.318  -8.040  0.00  0.00     0.175 C 
ATOM      2  H   LIG d   1       5.232  -1.739  -8.773  0.00  0.00     0.083 H 
ATOM      3  C   LIG d   1       3.836  -3.387  -8.721  0.00  0.00     0.081 A 
ATOM      4  C   LIG d   1       4.028  -4.566  -8.015  0.00  0.00     0.132 A 
ATOM      5  C   LIG d   1       3.379  -5.732  -8.437  0.00  0.00    -0.019 A 
ATOM      6  C   LIG d   1       2.556  -5.719  -9.524  0.00  0.00    -0.048 A 
ATOM      7  C   LIG d   1       2.353  -4.531 -10.234  0.00  0.00     0.018 A 
ATOM      8  C   LIG d   1       3.004  -3.351  -9.824  0.00  0.00     0.149 A 
ATOM      9  O   LIG d   1       2.807  -2.204 -10.511  0.00  0.00    -0.422 OA
ATOM     10  C   LIG d   1       2.004  -2.159 -11.586  0.00  0.00     0.337 A 
ATOM     11  O   LIG d   1       1.861  -1.103 -12.174  0.00  0.00    -0.245 OA
ATOM     12  C   LIG d   1       1.322  -3.303 -12.049  0.00  0.00     0.024 A 
ATOM     13  C   LIG d   1       1.474  -4.488 -11.404  0.00  0.00    -0.044 A 
ATOM     14  O   LIG d   1       4.863  -4.374  -6.958  0.00  0.00    -0.480 OA
ATOM     15  C   LIG d   1       5.616  -3.166  -7.158  0.00  0.00     0.180 C 
ATOM     16  H   LIG d   1       6.549  -3.373  -7.681  0.00  0.00     0.082 H 
ATOM     17  H   LIG d   1       3.531  -6.653  -7.894  0.00  0.00     0.065 H 
ATOM     18  H   LIG d   1       2.062  -6.626  -9.837  0.00  0.00     0.063 H 
ATOM     19  H   LIG d   1       0.680  -3.236 -12.916  0.00  0.00     0.069 H 
ATOM     20  H   LIG d   1       0.959  -5.375 -11.744  0.00  0.00     0.063 H 
ENDROOT
BRANCH  15  21
ATOM     21  C   LIG d   1       5.884  -2.465  -5.824  0.00  0.00     0.148 C 
BRANCH  21  22
ATOM     22  C   LIG d   1       6.734  -3.375  -4.933  0.00  0.00    -0.021 C 
ATOM     23  H   LIG d   1       7.626  -3.685  -5.477  0.00  0.00     0.027 H 
ATOM     24  H   LIG d   1       7.026  -2.832  -4.035  0.00  0.00     0.027 H 
ATOM     25  H   LIG d   1       6.154  -4.254  -4.654  0.00  0.00     0.027 H 
ENDBRANCH  21  22
BRANCH  21  26
ATOM     26  C   LIG d   1       6.633  -1.155  -6.077  0.00  0.00    -0.021 C 
ATOM     27  H   LIG d   1       6.388  -0.783  -7.071  0.00  0.00     0.027 H 
ATOM     28  H   LIG d   1       6.338  -0.419  -5.330  0.00  0.00     0.027 H 
ATOM     29  H   LIG d   1       7.707  -1.331  -6.009  0.00  0.00     0.027 H 
ENDBRANCH  21  26
BRANCH  21  30
ATOM     30  O   LIG d   1       4.643  -2.187  -5.174  0.00  0.00    -0.455 OA
BRANCH  30  31
ATOM     31  C   LIG d   1       4.616  -2.302  -3.837  0.00  0.00     0.308 C 
ATOM     32  O   LIG d   1       4.128  -3.282  -3.325  0.00  0.00    -0.251 OA
BRANCH  31  33
ATOM     33  C   LIG d   1       5.194  -1.209  -2.974  0.00  0.00     0.047 C 
ATOM     34  H   LIG d   1       5.933  -1.635  -2.296  0.00  0.00     0.038 H 
ATOM     35  H   LIG d   1       5.669  -0.460  -3.607  0.00  0.00     0.038 H 
BRANCH  33  36
ATOM     36  C   LIG d   1       4.074  -0.555  -2.162  0.00  0.00    -0.037 C 
ATOM     37  H   LIG d   1       3.811  -1.198  -1.322  0.00  0.00     0.030 H 
BRANCH  36  38
ATOM     38  C   LIG d   1       4.550   0.800  -1.636  0.00  0.00    -0.062 C 
ATOM     39  H   LIG d   1       3.704   1.485  -1.578  0.00  0.00     0.023 H 
ATOM     40  H   LIG d   1       4.984   0.674  -0.645  0.00  0.00     0.023 H 
ATOM     41  H   LIG d   1       5.301   1.209  -2.313  0.00  0.00     0.023 H 
ENDBRANCH  36  38
BRANCH  36  42
ATOM     42  C   LIG d   1       2.847  -0.354  -3.055  0.00  0.00    -0.062 C 
ATOM     43  H   LIG d   1       2.746  -1.205  -3.729  0.00  0.00     0.023 H 
ATOM     44  H   LIG d   1       1.955  -0.274  -2.434  0.00  0.00     0.023 H 
ATOM     45  H   LIG d   1       2.968   0.559  -3.639  0.00  0.00     0.023 H 
ENDBRANCH  36  42
ENDBRANCH  33  36
ENDBRANCH  31  33
ENDBRANCH  30  31
ENDBRANCH  21  30
ENDBRANCH  15  21
BRANCH   1  46
ATOM     46  O   LIG d   1       3.850  -1.465  -7.238  0.00  0.00    -0.452 OA
BRANCH  46  47
ATOM     47  C   LIG d   1       3.401  -0.336  -7.811  0.00  0.00     0.308 C 
ATOM     48  O   LIG d   1       2.216  -0.100  -7.836  0.00  0.00    -0.251 OA
BRANCH  47  49
ATOM     49  C   LIG d   1       4.376   0.635  -8.426  0.00  0.00     0.047 C 
ATOM     50  H   LIG d   1       5.195   0.085  -8.889  0.00  0.00     0.038 H 
ATOM     51  H   LIG d   1       4.772   1.291  -7.651  0.00  0.00     0.038 H 
BRANCH  49  52
ATOM     52  C   LIG d   1       3.660   1.474  -9.486  0.00  0.00    -0.037 C 
ATOM     53  H   LIG d   1       2.586   1.292  -9.428  0.00  0.00     0.030 H 
BRANCH  52  54
ATOM     54  C   LIG d   1       3.941   2.957  -9.239  0.00  0.00    -0.062 C 
ATOM     55  H   LIG d   1       4.808   3.265  -9.824  0.00  0.00     0.023 H 
ATOM     56  H   LIG d   1       3.073   3.546  -9.537  0.00  0.00     0.023 H 
ATOM     57  H   LIG d   1       4.142   3.117  -8.180  0.00  0.00     0.023 H 
ENDBRANCH  52  54
BRANCH  52  58
ATOM     58  C   LIG d   1       4.169   1.082 -10.875  0.00  0.00    -0.062 C 
ATOM     59  H   LIG d   1       3.815   1.806 -11.609  0.00  0.00     0.023 H 
ATOM     60  H   LIG d   1       5.259   1.070 -10.873  0.00  0.00     0.023 H 
ATOM     61  H   LIG d   1       3.795   0.091 -11.133  0.00  0.00     0.023 H 
ENDBRANCH  52  58
ENDBRANCH  49  52
ENDBRANCH  47  49
ENDBRANCH  46  47
ENDBRANCH   1  46
TORSDOF 15
ENDMDL
MODEL 5
REMARK VINA RESULT:      -5.1      2.578      4.413
REMARK  15 active torsions:
REMARK  status: ('A' for Active; 'I' for Inactive)
REMARK    1  A    between atoms: C_1  and  C_2 
REMARK    2  A    between atoms: C_2  and  C_3 
REMARK    3  A    between atoms: C_2  and  C_4 
REMARK    4  A    between atoms: C_4  and  C_5 
REMARK    5  A    between atoms: C_5  and  O_7 
REMARK    6  A    between atoms: O_7  and  C_8 
REMARK    7  A    between atoms: C_22  and  C_24 
REMARK    8  A    between atoms: C_24  and  C_25 
REMARK    9  A    between atoms: C_24  and  C_26 
REMARK   10  A    between atoms: C_24  and  O_27 
REMARK   11  A    between atoms: O_27  and  C_28 
REMARK   12  A    between atoms: C_28  and  C_30 
REMARK   13  A    between atoms: C_30  and  C_31 
REMARK   14  A    between atoms: C_31  and  C_32 
REMARK   15  A    between atoms: C_31  and  C_33 
ROOT
ATOM      1  C   LIG d   1       5.081  -1.798  -5.573  0.00  0.00     0.175 C 
ATOM      2  H   LIG d   1       5.991  -1.292  -5.897  0.00  0.00     0.083 H 
ATOM      3  C   LIG d   1       4.998  -3.192  -6.164  0.00  0.00     0.081 A 
ATOM      4  C   LIG d   1       4.645  -4.052  -5.134  0.00  0.00     0.132 A 
ATOM      5  C   LIG d   1       4.506  -5.419  -5.398  0.00  0.00    -0.019 A 
ATOM      6  C   LIG d   1       4.705  -5.912  -6.654  0.00  0.00    -0.048 A 
ATOM      7  C   LIG d   1       5.055  -5.047  -7.698  0.00  0.00     0.018 A 
ATOM      8  C   LIG d   1       5.202  -3.670  -7.444  0.00  0.00     0.149 A 
ATOM      9  O   LIG d   1       5.539  -2.836  -8.453  0.00  0.00    -0.422 OA
ATOM     10  C   LIG d   1       5.743  -3.289  -9.700  0.00  0.00     0.337 A 
ATOM     11  O   LIG d   1       6.049  -2.500 -10.575  0.00  0.00    -0.245 OA
ATOM     12  C   LIG d   1       5.612  -4.656 -10.022  0.00  0.00     0.024 A 
ATOM     13  C   LIG d   1       5.273  -5.548  -9.055  0.00  0.00    -0.044 A 
ATOM     14  O   LIG d   1       4.472  -3.375  -3.966  0.00  0.00    -0.480 OA
ATOM     15  C   LIG d   1       5.126  -2.098  -4.055  0.00  0.00     0.180 C 
ATOM     16  H   LIG d   1       6.156  -2.165  -3.704  0.00  0.00     0.082 H 
ATOM     17  H   LIG d   1       4.237  -6.093  -4.599  0.00  0.00     0.065 H 
ATOM     18  H   LIG d   1       4.595  -6.969  -6.843  0.00  0.00     0.063 H 
ATOM     19  H   LIG d   1       5.780  -4.991 -11.035  0.00  0.00     0.069 H 
ATOM     20  H   LIG d   1       5.167  -6.599  -9.283  0.00  0.00     0.063 H 
ENDROOT
BRANCH  15  21
ATOM     21  C   LIG d   1       4.352  -1.035  -3.271  0.00  0.00     0.148 C 
BRANCH  21  22
ATOM     22  C   LIG d   1       2.851  -1.224  -3.503  0.00  0.00    -0.021 C 
ATOM     23  H   LIG d   1       2.692  -2.049  -4.196  0.00  0.00     0.027 H 
ATOM     24  H   LIG d   1       2.363  -1.445  -2.554  0.00  0.00     0.027 H 
ATOM     25  H   LIG d   1       2.432  -0.310  -3.923  0.00  0.00     0.027 H 
ENDBRANCH  21  22
BRANCH  21  26
ATOM     26  C   LIG d   1       4.659  -1.179  -1.778  0.00  0.00    -0.021 C 
ATOM     27  H   LIG d   1       4.458  -0.234  -1.274  0.00  0.00     0.027 H 
ATOM     28  H   LIG d   1       4.032  -1.960  -1.352  0.00  0.00     0.027 H 
ATOM     29  H   LIG d   1       5.709  -1.444  -1.647  0.00  0.00     0.027 H 
ENDBRANCH  21  26
BRANCH  21  30
ATOM     30  O   LIG d   1       4.744   0.265  -3.714  0.00  0.00    -0.455 OA
BRANCH  30  31
ATOM     31  C   LIG d   1       5.774   0.842  -3.076  0.00  0.00     0.308 C 
ATOM     32  O   LIG d   1       5.568   1.580  -2.141  0.00  0.00    -0.251 OA
BRANCH  31  33
ATOM     33  C   LIG d   1       7.187   0.569  -3.525  0.00  0.00     0.047 C 
ATOM     34  H   LIG d   1       7.809   0.355  -2.656  0.00  0.00     0.038 H 
ATOM     35  H   LIG d   1       7.195  -0.287  -4.199  0.00  0.00     0.038 H 
BRANCH  33  36
ATOM     36  C   LIG d   1       7.736   1.798  -4.254  0.00  0.00    -0.037 C 
ATOM     37  H   LIG d   1       6.995   2.597  -4.227  0.00  0.00     0.030 H 
BRANCH  36  38
ATOM     38  C   LIG d   1       9.019   2.267  -3.567  0.00  0.00    -0.062 C 
ATOM     39  H   LIG d   1       8.889   2.224  -2.485  0.00  0.00     0.023 H 
ATOM     40  H   LIG d   1       9.846   1.621  -3.859  0.00  0.00     0.023 H 
ATOM     41  H   LIG d   1       9.237   3.293  -3.865  0.00  0.00     0.023 H 
ENDBRANCH  36  38
BRANCH  36  42
ATOM     42  C   LIG d   1       8.040   1.432  -5.709  0.00  0.00    -0.062 C 
ATOM     43  H   LIG d   1       8.719   0.579  -5.734  0.00  0.00     0.023 H 
ATOM     44  H   LIG d   1       7.113   1.174  -6.220  0.00  0.00     0.023 H 
ATOM     45  H   LIG d   1       8.506   2.282  -6.208  0.00  0.00     0.023 H 
ENDBRANCH  36  42
ENDBRANCH  33  36
ENDBRANCH  31  33
ENDBRANCH  30  31
ENDBRANCH  21  30
ENDBRANCH  15  21
BRANCH   1  46
ATOM     46  O   LIG d   1       3.924  -1.030  -5.908  0.00  0.00    -0.452 OA
BRANCH  46  47
ATOM     47  C   LIG d   1       4.042  -0.166  -6.929  0.00  0.00     0.308 C 
ATOM     48  O   LIG d   1       5.126   0.282  -7.220  0.00  0.00    -0.251 OA
BRANCH  47  49
ATOM     49  C   LIG d   1       2.821   0.249  -7.710  0.00  0.00     0.047 C 
ATOM     50  H   LIG d   1       2.369   1.123  -7.242  0.00  0.00     0.038 H 
ATOM     51  H   LIG d   1       2.102  -0.570  -7.720  0.00  0.00     0.038 H 
BRANCH  49  52
ATOM     52  C   LIG d   1       3.226   0.590  -9.145  0.00  0.00    -0.037 C 
ATOM     53  H   LIG d   1       4.261   0.289  -9.312  0.00  0.00     0.030 H 
BRANCH  52  54
ATOM     54  C   LIG d   1       2.314  -0.154 -10.123  0.00  0.00    -0.062 C 
ATOM     55  H   LIG d   1       2.815  -1.060 -10.468  0.00  0.00     0.023 H 
ATOM     56  H   LIG d   1       1.384  -0.421  -9.622  0.00  0.00     0.023 H 
ATOM     57  H   LIG d   1       2.096   0.488 -10.976  0.00  0.00     0.023 H 
ENDBRANCH  52  54
BRANCH  52  58
ATOM     58  C   LIG d   1       3.091   2.098  -9.368  0.00  0.00    -0.062 C 
ATOM     59  H   LIG d   1       3.449   2.351 -10.366  0.00  0.00     0.023 H 
ATOM     60  H   LIG d   1       2.044   2.387  -9.273  0.00  0.00     0.023 H 
ATOM     61  H   LIG d   1       3.684   2.630  -8.623  0.00  0.00     0.023 H 
ENDBRANCH  52  58
ENDBRANCH  49  52
ENDBRANCH  47  49
ENDBRANCH  46  47
ENDBRANCH   1  46
TORSDOF 15
ENDMDL
MODEL 6
REMARK VINA RESULT:      -5.1      2.510      5.753
REMARK  15 active torsions:
REMARK  status: ('A' for Active; 'I' for Inactive)
REMARK    1  A    between atoms: C_1  and  C_2 
REMARK    2  A    between atoms: C_2  and  C_3 
REMARK    3  A    between atoms: C_2  and  C_4 
REMARK    4  A    between atoms: C_4  and  C_5 
REMARK    5  A    between atoms: C_5  and  O_7 
REMARK    6  A    between atoms: O_7  and  C_8 
REMARK    7  A    between atoms: C_22  and  C_24 
REMARK    8  A    between atoms: C_24  and  C_25 
REMARK    9  A    between atoms: C_24  and  C_26 
REMARK   10  A    between atoms: C_24  and  O_27 
REMARK   11  A    between atoms: O_27  and  C_28 
REMARK   12  A    between atoms: C_28  and  C_30 
REMARK   13  A    between atoms: C_30  and  C_31 
REMARK   14  A    between atoms: C_31  and  C_32 
REMARK   15  A    between atoms: C_31  and  C_33 
ROOT
ATOM      1  C   LIG d   1       4.115  -0.881  -6.746  0.00  0.00     0.175 C 
ATOM      2  H   LIG d   1       3.836  -1.921  -6.917  0.00  0.00     0.083 H 
ATOM      3  C   LIG d   1       3.834  -0.036  -7.974  0.00  0.00     0.081 A 
ATOM      4  C   LIG d   1       3.192   1.114  -7.540  0.00  0.00     0.132 A 
ATOM      5  C   LIG d   1       2.802   2.078  -8.478  0.00  0.00    -0.019 A 
ATOM      6  C   LIG d   1       3.053   1.901  -9.806  0.00  0.00    -0.048 A 
ATOM      7  C   LIG d   1       3.707   0.746 -10.247  0.00  0.00     0.018 A 
ATOM      8  C   LIG d   1       4.101  -0.233  -9.315  0.00  0.00     0.149 A 
ATOM      9  O   LIG d   1       4.733  -1.349  -9.743  0.00  0.00    -0.422 OA
ATOM     10  C   LIG d   1       4.994  -1.553 -11.044  0.00  0.00     0.337 A 
ATOM     11  O   LIG d   1       5.563  -2.575 -11.381  0.00  0.00    -0.245 OA
ATOM     12  C   LIG d   1       4.628  -0.612 -12.029  0.00  0.00     0.024 A 
ATOM     13  C   LIG d   1       3.991   0.532 -11.667  0.00  0.00    -0.044 A 
ATOM     14  O   LIG d   1       3.049   1.116  -6.187  0.00  0.00    -0.480 OA
ATOM     15  C   LIG d   1       3.193  -0.226  -5.690  0.00  0.00     0.180 C 
ATOM     16  H   LIG d   1       2.227  -0.730  -5.654  0.00  0.00     0.082 H 
ATOM     17  H   LIG d   1       2.296   2.972  -8.145  0.00  0.00     0.065 H 
ATOM     18  H   LIG d   1       2.746   2.653 -10.517  0.00  0.00     0.063 H 
ATOM     19  H   LIG d   1       4.853  -0.802 -13.069  0.00  0.00     0.069 H 
ATOM     20  H   LIG d   1       3.703   1.264 -12.408  0.00  0.00     0.063 H 
ENDROOT
BRANCH  15  21
ATOM     21  C   LIG d   1       3.860  -0.227  -4.313  0.00  0.00     0.148 C 
BRANCH  21  22
ATOM     22  C   LIG d   1       2.838   0.191  -3.252  0.00  0.00    -0.021 C 
ATOM     23  H   LIG d   1       2.926   1.261  -3.065  0.00  0.00     0.027 H 
ATOM     24  H   LIG d   1       1.834  -0.034  -3.608  0.00  0.00     0.027 H 
ATOM     25  H   LIG d   1       3.029  -0.357  -2.330  0.00  0.00     0.027 H 
ENDBRANCH  21  22
BRANCH  21  26
ATOM     26  C   LIG d   1       4.377  -1.632  -3.998  0.00  0.00    -0.021 C 
ATOM     27  H   LIG d   1       4.713  -1.672  -2.962  0.00  0.00     0.027 H 
ATOM     28  H   LIG d   1       3.576  -2.355  -4.149  0.00  0.00     0.027 H 
ATOM     29  H   LIG d   1       5.210  -1.870  -4.660  0.00  0.00     0.027 H 
ENDBRANCH  21  26
BRANCH  21  30
ATOM     30  O   LIG d   1       4.952   0.693  -4.311  0.00  0.00    -0.455 OA
BRANCH  30  31
ATOM     31  C   LIG d   1       5.778   0.657  -3.254  0.00  0.00     0.308 C 
ATOM     32  O   LIG d   1       5.414   1.093  -2.188  0.00  0.00    -0.251 OA
BRANCH  31  33
ATOM     33  C   LIG d   1       7.160   0.072  -3.397  0.00  0.00     0.047 C 
ATOM     34  H   LIG d   1       7.674   0.115  -2.437  0.00  0.00     0.038 H 
ATOM     35  H   LIG d   1       7.084  -0.966  -3.722  0.00  0.00     0.038 H 
BRANCH  33  36
ATOM     36  C   LIG d   1       7.948   0.875  -4.434  0.00  0.00    -0.037 C 
ATOM     37  H   LIG d   1       7.288   1.156  -5.254  0.00  0.00     0.030 H 
BRANCH  36  38
ATOM     38  C   LIG d   1       8.515   2.135  -3.780  0.00  0.00    -0.062 C 
ATOM     39  H   LIG d   1       7.733   2.629  -3.204  0.00  0.00     0.023 H 
ATOM     40  H   LIG d   1       9.337   1.863  -3.118  0.00  0.00     0.023 H 
ATOM     41  H   LIG d   1       8.880   2.813  -4.552  0.00  0.00     0.023 H 
ENDBRANCH  36  38
BRANCH  36  42
ATOM     42  C   LIG d   1       9.097   0.019  -4.975  0.00  0.00    -0.062 C 
ATOM     43  H   LIG d   1       9.889  -0.038  -4.228  0.00  0.00     0.023 H 
ATOM     44  H   LIG d   1       8.730  -0.984  -5.194  0.00  0.00     0.023 H 
ATOM     45  H   LIG d   1       9.489   0.470  -5.886  0.00  0.00     0.023 H 
ENDBRANCH  36  42
ENDBRANCH  33  36
ENDBRANCH  31  33
ENDBRANCH  30  31
ENDBRANCH  21  30
ENDBRANCH  15  21
BRANCH   1  46
ATOM     46  O   LIG d   1       5.487  -0.780  -6.359  0.00  0.00    -0.452 OA
BRANCH  46  47
ATOM     47  C   LIG d   1       6.340  -1.661  -6.905  0.00  0.00     0.308 C 
ATOM     48  O   LIG d   1       7.279  -1.269  -7.558  0.00  0.00    -0.251 OA
BRANCH  47  49
ATOM     49  C   LIG d   1       6.126  -3.140  -6.707  0.00  0.00     0.047 C 
ATOM     50  H   LIG d   1       5.888  -3.605  -7.663  0.00  0.00     0.038 H 
ATOM     51  H   LIG d   1       5.302  -3.297  -6.011  0.00  0.00     0.038 H 
BRANCH  49  52
ATOM     52  C   LIG d   1       7.400  -3.767  -6.137  0.00  0.00    -0.037 C 
ATOM     53  H   LIG d   1       8.266  -3.387  -6.679  0.00  0.00     0.030 H 
BRANCH  52  54
ATOM     54  C   LIG d   1       7.527  -3.407  -4.655  0.00  0.00    -0.062 C 
ATOM     55  H   LIG d   1       7.060  -4.185  -4.051  0.00  0.00     0.023 H 
ATOM     56  H   LIG d   1       8.581  -3.324  -4.390  0.00  0.00     0.023 H 
ATOM     57  H   LIG d   1       7.030  -2.455  -4.469  0.00  0.00     0.023 H 
ENDBRANCH  52  54
BRANCH  52  58
ATOM     58  C   LIG d   1       7.330  -5.288  -6.288  0.00  0.00    -0.062 C 
ATOM     59  H   LIG d   1       6.288  -5.605  -6.298  0.00  0.00     0.023 H 
ATOM     60  H   LIG d   1       7.810  -5.583  -7.222  0.00  0.00     0.023 H 
ATOM     61  H   LIG d   1       7.845  -5.761  -5.451  0.00  0.00     0.023 H 
ENDBRANCH  52  58
ENDBRANCH  49  52
ENDBRANCH  47  49
ENDBRANCH  46  47
ENDBRANCH   1  46
TORSDOF 15
ENDMDL
MODEL 7
REMARK VINA RESULT:      -5.0      1.830      6.203
REMARK  15 active torsions:
REMARK  status: ('A' for Active; 'I' for Inactive)
REMARK    1  A    between atoms: C_1  and  C_2 
REMARK    2  A    between atoms: C_2  and  C_3 
REMARK    3  A    between atoms: C_2  and  C_4 
REMARK    4  A    between atoms: C_4  and  C_5 
REMARK    5  A    between atoms: C_5  and  O_7 
REMARK    6  A    between atoms: O_7  and  C_8 
REMARK    7  A    between atoms: C_22  and  C_24 
REMARK    8  A    between atoms: C_24  and  C_25 
REMARK    9  A    between atoms: C_24  and  C_26 
REMARK   10  A    between atoms: C_24  and  O_27 
REMARK   11  A    between atoms: O_27  and  C_28 
REMARK   12  A    between atoms: C_28  and  C_30 
REMARK   13  A    between atoms: C_30  and  C_31 
REMARK   14  A    between atoms: C_31  and  C_32 
REMARK   15  A    between atoms: C_31  and  C_33 
ROOT
ATOM      1  C   LIG d   1       5.277  -1.879  -6.474  0.00  0.00     0.175 C 
ATOM      2  H   LIG d   1       5.994  -1.072  -6.625  0.00  0.00     0.083 H 
ATOM      3  C   LIG d   1       4.272  -1.929  -7.608  0.00  0.00     0.081 A 
ATOM      4  C   LIG d   1       4.162  -3.255  -8.000  0.00  0.00     0.132 A 
ATOM      5  C   LIG d   1       3.299  -3.592  -9.049  0.00  0.00    -0.019 A 
ATOM      6  C   LIG d   1       2.562  -2.636  -9.682  0.00  0.00    -0.048 A 
ATOM      7  C   LIG d   1       2.665  -1.297  -9.286  0.00  0.00     0.018 A 
ATOM      8  C   LIG d   1       3.532  -0.944  -8.235  0.00  0.00     0.149 A 
ATOM      9  O   LIG d   1       3.630   0.349  -7.854  0.00  0.00    -0.422 OA
ATOM     10  C   LIG d   1       2.919   1.314  -8.457  0.00  0.00     0.337 A 
ATOM     11  O   LIG d   1       3.043   2.465  -8.080  0.00  0.00    -0.245 OA
ATOM     12  C   LIG d   1       2.032   1.029  -9.516  0.00  0.00     0.024 A 
ATOM     13  C   LIG d   1       1.884  -0.250  -9.947  0.00  0.00    -0.044 A 
ATOM     14  O   LIG d   1       4.956  -4.059  -7.241  0.00  0.00    -0.480 OA
ATOM     15  C   LIG d   1       5.965  -3.261  -6.598  0.00  0.00     0.180 C 
ATOM     16  H   LIG d   1       6.859  -3.193  -7.218  0.00  0.00     0.082 H 
ATOM     17  H   LIG d   1       3.215  -4.623  -9.361  0.00  0.00     0.065 H 
ATOM     18  H   LIG d   1       1.901  -2.911 -10.490  0.00  0.00     0.063 H 
ATOM     19  H   LIG d   1       1.471   1.827  -9.981  0.00  0.00     0.069 H 
ATOM     20  H   LIG d   1       1.209  -0.488 -10.757  0.00  0.00     0.063 H 
ENDROOT
BRANCH  15  21
ATOM     21  C   LIG d   1       6.302  -3.823  -5.215  0.00  0.00     0.148 C 
BRANCH  21  22
ATOM     22  C   LIG d   1       5.013  -4.261  -4.515  0.00  0.00    -0.021 C 
ATOM     23  H   LIG d   1       4.293  -4.598  -5.259  0.00  0.00     0.027 H 
ATOM     24  H   LIG d   1       5.234  -5.076  -3.827  0.00  0.00     0.027 H 
ATOM     25  H   LIG d   1       4.597  -3.420  -3.961  0.00  0.00     0.027 H 
ENDBRANCH  21  22
BRANCH  21  26
ATOM     26  C   LIG d   1       7.234  -5.027  -5.367  0.00  0.00    -0.021 C 
ATOM     27  H   LIG d   1       8.193  -4.805  -4.899  0.00  0.00     0.027 H 
ATOM     28  H   LIG d   1       6.787  -5.895  -4.886  0.00  0.00     0.027 H 
ATOM     29  H   LIG d   1       7.387  -5.236  -6.427  0.00  0.00     0.027 H 
ENDBRANCH  21  26
BRANCH  21  30
ATOM     30  O   LIG d   1       6.949  -2.816  -4.435  0.00  0.00    -0.455 OA
BRANCH  30  31
ATOM     31  C   LIG d   1       8.268  -2.956  -4.232  0.00  0.00     0.308 C 
ATOM     32  O   LIG d   1       8.670  -3.551  -3.260  0.00  0.00    -0.251 OA
BRANCH  31  33
ATOM     33  C   LIG d   1       9.248  -2.372  -5.217  0.00  0.00     0.047 C 
ATOM     34  H   LIG d   1      10.218  -2.249  -4.736  0.00  0.00     0.038 H 
ATOM     35  H   LIG d   1       9.349  -3.041  -6.071  0.00  0.00     0.038 H 
BRANCH  33  36
ATOM     36  C   LIG d   1       8.740  -1.009  -5.694  0.00  0.00    -0.037 C 
ATOM     37  H   LIG d   1       7.709  -0.872  -5.369  0.00  0.00     0.030 H 
BRANCH  36  38
ATOM     38  C   LIG d   1       9.614   0.097  -5.101  0.00  0.00    -0.062 C 
ATOM     39  H   LIG d   1       9.486   0.120  -4.018  0.00  0.00     0.023 H 
ATOM     40  H   LIG d   1      10.659  -0.098  -5.339  0.00  0.00     0.023 H 
ATOM     41  H   LIG d   1       9.319   1.059  -5.521  0.00  0.00     0.023 H 
ENDBRANCH  36  38
BRANCH  36  42
ATOM     42  C   LIG d   1       8.806  -0.947  -7.222  0.00  0.00    -0.062 C 
ATOM     43  H   LIG d   1       9.769  -0.535  -7.527  0.00  0.00     0.023 H 
ATOM     44  H   LIG d   1       8.695  -1.952  -7.631  0.00  0.00     0.023 H 
ATOM     45  H   LIG d   1       8.004  -0.312  -7.596  0.00  0.00     0.023 H 
ENDBRANCH  36  42
ENDBRANCH  33  36
ENDBRANCH  31  33
ENDBRANCH  30  31
ENDBRANCH  21  30
ENDBRANCH  15  21
BRANCH   1  46
ATOM     46  O   LIG d   1       4.620  -1.747  -5.213  0.00  0.00    -0.452 OA
BRANCH  46  47
ATOM     47  C   LIG d   1       4.565  -0.515  -4.681  0.00  0.00     0.308 C 
ATOM     48  O   LIG d   1       5.508   0.233  -4.790  0.00  0.00    -0.251 OA
BRANCH  47  49
ATOM     49  C   LIG d   1       3.328  -0.066  -3.946  0.00  0.00     0.047 C 
ATOM     50  H   LIG d   1       2.481  -0.677  -4.253  0.00  0.00     0.038 H 
ATOM     51  H   LIG d   1       3.126   0.979  -4.182  0.00  0.00     0.038 H 
BRANCH  49  52
ATOM     52  C   LIG d   1       3.548  -0.215  -2.440  0.00  0.00    -0.037 C 
ATOM     53  H   LIG d   1       2.585  -0.195  -1.929  0.00  0.00     0.030 H 
BRANCH  52  54
ATOM     54  C   LIG d   1       4.248  -1.546  -2.156  0.00  0.00    -0.062 C 
ATOM     55  H   LIG d   1       5.218  -1.559  -2.654  0.00  0.00     0.023 H 
ATOM     56  H   LIG d   1       4.389  -1.660  -1.081  0.00  0.00     0.023 H 
ATOM     57  H   LIG d   1       3.636  -2.365  -2.532  0.00  0.00     0.023 H 
ENDBRANCH  52  54
BRANCH  52  58
ATOM     58  C   LIG d   1       4.418   0.938  -1.934  0.00  0.00    -0.062 C 
ATOM     59  H   LIG d   1       4.312   1.025  -0.854  0.00  0.00     0.023 H 
ATOM     60  H   LIG d   1       5.461   0.743  -2.184  0.00  0.00     0.023 H 
ATOM     61  H   LIG d   1       4.099   1.867  -2.407  0.00  0.00     0.023 H 
ENDBRANCH  52  58
ENDBRANCH  49  52
ENDBRANCH  47  49
ENDBRANCH  46  47
ENDBRANCH   1  46
TORSDOF 15
ENDMDL
MODEL 8
REMARK VINA RESULT:      -4.9      2.531      5.069
REMARK  15 active torsions:
REMARK  status: ('A' for Active; 'I' for Inactive)
REMARK    1  A    between atoms: C_1  and  C_2 
REMARK    2  A    between atoms: C_2  and  C_3 
REMARK    3  A    between atoms: C_2  and  C_4 
REMARK    4  A    between atoms: C_4  and  C_5 
REMARK    5  A    between atoms: C_5  and  O_7 
REMARK    6  A    between atoms: O_7  and  C_8 
REMARK    7  A    between atoms: C_22  and  C_24 
REMARK    8  A    between atoms: C_24  and  C_25 
REMARK    9  A    between atoms: C_24  and  C_26 
REMARK   10  A    between atoms: C_24  and  O_27 
REMARK   11  A    between atoms: O_27  and  C_28 
REMARK   12  A    between atoms: C_28  and  C_30 
REMARK   13  A    between atoms: C_30  and  C_31 
REMARK   14  A    between atoms: C_31  and  C_32 
REMARK   15  A    between atoms: C_31  and  C_33 
ROOT
ATOM      1  C   LIG d   1       6.147  -1.849  -6.643  0.00  0.00     0.175 C 
ATOM      2  H   LIG d   1       6.808  -1.690  -7.496  0.00  0.00     0.083 H 
ATOM      3  C   LIG d   1       5.300  -3.092  -6.839  0.00  0.00     0.081 A 
ATOM      4  C   LIG d   1       5.352  -3.812  -5.655  0.00  0.00     0.132 A 
ATOM      5  C   LIG d   1       4.659  -5.025  -5.559  0.00  0.00    -0.019 A 
ATOM      6  C   LIG d   1       3.931  -5.499  -6.609  0.00  0.00    -0.048 A 
ATOM      7  C   LIG d   1       3.871  -4.772  -7.804  0.00  0.00     0.018 A 
ATOM      8  C   LIG d   1       4.566  -3.553  -7.915  0.00  0.00     0.149 A 
ATOM      9  O   LIG d   1       4.507  -2.851  -9.069  0.00  0.00    -0.422 OA
ATOM     10  C   LIG d   1       3.800  -3.291 -10.122  0.00  0.00     0.337 A 
ATOM     11  O   LIG d   1       3.779  -2.626 -11.142  0.00  0.00    -0.245 OA
ATOM     12  C   LIG d   1       3.080  -4.503 -10.077  0.00  0.00     0.024 A 
ATOM     13  C   LIG d   1       3.096  -5.256  -8.947  0.00  0.00    -0.044 A 
ATOM     14  O   LIG d   1       6.108  -3.172  -4.722  0.00  0.00    -0.480 OA
ATOM     15  C   LIG d   1       6.957  -2.212  -5.375  0.00  0.00     0.180 C 
ATOM     16  H   LIG d   1       7.914  -2.661  -5.644  0.00  0.00     0.082 H 
ATOM     17  H   LIG d   1       4.702  -5.592  -4.641  0.00  0.00     0.065 H 
ATOM     18  H   LIG d   1       3.403  -6.436  -6.520  0.00  0.00     0.063 H 
ATOM     19  H   LIG d   1       2.518  -4.831 -10.940  0.00  0.00     0.069 H 
ATOM     20  H   LIG d   1       2.550  -6.187  -8.893  0.00  0.00     0.063 H 
ENDROOT
BRANCH  15  21
ATOM     21  C   LIG d   1       7.163  -0.979  -4.493  0.00  0.00     0.148 C 
BRANCH  21  22
ATOM     22  C   LIG d   1       7.545  -1.423  -3.078  0.00  0.00    -0.021 C 
ATOM     23  H   LIG d   1       7.334  -2.486  -2.962  0.00  0.00     0.027 H 
ATOM     24  H   LIG d   1       8.607  -1.243  -2.916  0.00  0.00     0.027 H 
ATOM     25  H   LIG d   1       6.965  -0.856  -2.351  0.00  0.00     0.027 H 
ENDBRANCH  21  22
BRANCH  21  26
ATOM     26  C   LIG d   1       8.284  -0.116  -5.076  0.00  0.00    -0.021 C 
ATOM     27  H   LIG d   1       8.781   0.426  -4.272  0.00  0.00     0.027 H 
ATOM     28  H   LIG d   1       9.005  -0.753  -5.586  0.00  0.00     0.027 H 
ATOM     29  H   LIG d   1       7.862   0.596  -5.786  0.00  0.00     0.027 H 
ENDBRANCH  21  26
BRANCH  21  30
ATOM     30  O   LIG d   1       5.954  -0.220  -4.444  0.00  0.00    -0.455 OA
BRANCH  30  31
ATOM     31  C   LIG d   1       5.700   0.449  -3.309  0.00  0.00     0.308 C 
ATOM     32  O   LIG d   1       6.335   1.440  -3.036  0.00  0.00    -0.251 OA
BRANCH  31  33
ATOM     33  C   LIG d   1       4.621  -0.036  -2.374  0.00  0.00     0.047 C 
ATOM     34  H   LIG d   1       5.079  -0.470  -1.485  0.00  0.00     0.038 H 
ATOM     35  H   LIG d   1       3.987   0.802  -2.084  0.00  0.00     0.038 H 
BRANCH  33  36
ATOM     36  C   LIG d   1       3.774  -1.097  -3.081  0.00  0.00    -0.037 C 
ATOM     37  H   LIG d   1       4.200  -1.308  -4.061  0.00  0.00     0.030 H 
BRANCH  36  38
ATOM     38  C   LIG d   1       3.758  -2.377  -2.244  0.00  0.00    -0.062 C 
ATOM     39  H   LIG d   1       3.689  -2.120  -1.187  0.00  0.00     0.023 H 
ATOM     40  H   LIG d   1       2.899  -2.985  -2.526  0.00  0.00     0.023 H 
ATOM     41  H   LIG d   1       4.675  -2.939  -2.422  0.00  0.00     0.023 H 
ENDBRANCH  36  38
BRANCH  36  42
ATOM     42  C   LIG d   1       2.343  -0.578  -3.247  0.00  0.00    -0.062 C 
ATOM     43  H   LIG d   1       1.951  -0.900  -4.212  0.00  0.00     0.023 H 
ATOM     44  H   LIG d   1       1.717  -0.976  -2.448  0.00  0.00     0.023 H 
ATOM     45  H   LIG d   1       2.344   0.511  -3.200  0.00  0.00     0.023 H 
ENDBRANCH  36  42
ENDBRANCH  33  36
ENDBRANCH  31  33
ENDBRANCH  30  31
ENDBRANCH  21  30
ENDBRANCH  15  21
BRANCH   1  46
ATOM     46  O   LIG d   1       5.327  -0.702  -6.414  0.00  0.00    -0.452 OA
BRANCH  46  47
ATOM     47  C   LIG d   1       4.820  -0.089  -7.496  0.00  0.00     0.308 C 
ATOM     48  O   LIG d   1       5.558   0.307  -8.367  0.00  0.00    -0.251 OA
BRANCH  47  49
ATOM     49  C   LIG d   1       3.331   0.107  -7.623  0.00  0.00     0.047 C 
ATOM     50  H   LIG d   1       2.999   0.851  -6.900  0.00  0.00     0.038 H 
ATOM     51  H   LIG d   1       2.824  -0.839  -7.430  0.00  0.00     0.038 H 
BRANCH  49  52
ATOM     52  C   LIG d   1       2.999   0.585  -9.037  0.00  0.00    -0.037 C 
ATOM     53  H   LIG d   1       3.863   0.432  -9.684  0.00  0.00     0.030 H 
BRANCH  52  54
ATOM     54  C   LIG d   1       1.809  -0.211  -9.578  0.00  0.00    -0.062 C 
ATOM     55  H   LIG d   1       1.551  -1.002  -8.874  0.00  0.00     0.023 H 
ATOM     56  H   LIG d   1       0.955   0.454  -9.708  0.00  0.00     0.023 H 
ATOM     57  H   LIG d   1       2.075  -0.653 -10.539  0.00  0.00     0.023 H 
ENDBRANCH  52  54
BRANCH  52  58
ATOM     58  C   LIG d   1       2.644   2.073  -9.002  0.00  0.00    -0.062 C 
ATOM     59  H   LIG d   1       2.926   2.490  -8.036  0.00  0.00     0.023 H 
ATOM     60  H   LIG d   1       3.182   2.594  -9.794  0.00  0.00     0.023 H 
ATOM     61  H   LIG d   1       1.571   2.194  -9.151  0.00  0.00     0.023 H 
ENDBRANCH  52  58
ENDBRANCH  49  52
ENDBRANCH  47  49
ENDBRANCH  46  47
ENDBRANCH   1  46
TORSDOF 15
ENDMDL
MODEL 9
REMARK VINA RESULT:      -4.9      3.174      5.764
REMARK  15 active torsions:
REMARK  status: ('A' for Active; 'I' for Inactive)
REMARK    1  A    between atoms: C_1  and  C_2 
REMARK    2  A    between atoms: C_2  and  C_3 
REMARK    3  A    between atoms: C_2  and  C_4 
REMARK    4  A    between atoms: C_4  and  C_5 
REMARK    5  A    between atoms: C_5  and  O_7 
REMARK    6  A    between atoms: O_7  and  C_8 
REMARK    7  A    between atoms: C_22  and  C_24 
REMARK    8  A    between atoms: C_24  and  C_25 
REMARK    9  A    between atoms: C_24  and  C_26 
REMARK   10  A    between atoms: C_24  and  O_27 
REMARK   11  A    between atoms: O_27  and  C_28 
REMARK   12  A    between atoms: C_28  and  C_30 
REMARK   13  A    between atoms: C_30  and  C_31 
REMARK   14  A    between atoms: C_31  and  C_32 
REMARK   15  A    between atoms: C_31  and  C_33 
ROOT
ATOM      1  C   LIG d   1       5.211  -0.253  -7.439  0.00  0.00     0.175 C 
ATOM      2  H   LIG d   1       6.212   0.108  -7.202  0.00  0.00     0.083 H 
ATOM      3  C   LIG d   1       4.333  -0.265  -6.203  0.00  0.00     0.081 A 
ATOM      4  C   LIG d   1       3.120   0.309  -6.558  0.00  0.00     0.132 A 
ATOM      5  C   LIG d   1       2.113   0.437  -5.595  0.00  0.00    -0.019 A 
ATOM      6  C   LIG d   1       2.308  -0.001  -4.319  0.00  0.00    -0.048 A 
ATOM      7  C   LIG d   1       3.527  -0.587  -3.958  0.00  0.00     0.018 A 
ATOM      8  C   LIG d   1       4.550  -0.718  -4.916  0.00  0.00     0.149 A 
ATOM      9  O   LIG d   1       5.726  -1.283  -4.566  0.00  0.00    -0.422 OA
ATOM     10  C   LIG d   1       5.949  -1.724  -3.318  0.00  0.00     0.337 A 
ATOM     11  O   LIG d   1       7.027  -2.224  -3.050  0.00  0.00    -0.245 OA
ATOM     12  C   LIG d   1       4.968  -1.624  -2.311  0.00  0.00     0.024 A 
ATOM     13  C   LIG d   1       3.762  -1.068  -2.595  0.00  0.00    -0.044 A 
ATOM     14  O   LIG d   1       3.111   0.664  -7.872  0.00  0.00    -0.480 OA
ATOM     15  C   LIG d   1       4.464   0.749  -8.352  0.00  0.00     0.180 C 
ATOM     16  H   LIG d   1       4.857   1.757  -8.224  0.00  0.00     0.082 H 
ATOM     17  H   LIG d   1       1.170   0.889  -5.865  0.00  0.00     0.065 H 
ATOM     18  H   LIG d   1       1.522   0.105  -3.586  0.00  0.00     0.063 H 
ATOM     19  H   LIG d   1       5.175  -1.990  -1.315  0.00  0.00     0.069 H 
ATOM     20  H   LIG d   1       2.997  -0.983  -1.837  0.00  0.00     0.063 H 
ENDROOT
BRANCH  15  21
ATOM     21  C   LIG d   1       4.548   0.313  -9.817  0.00  0.00     0.148 C 
BRANCH  21  22
ATOM     22  C   LIG d   1       3.877   1.367 -10.701  0.00  0.00    -0.021 C 
ATOM     23  H   LIG d   1       4.638   1.906 -11.265  0.00  0.00     0.027 H 
ATOM     24  H   LIG d   1       3.192   0.877 -11.392  0.00  0.00     0.027 H 
ATOM     25  H   LIG d   1       3.324   2.067 -10.075  0.00  0.00     0.027 H 
ENDBRANCH  21  22
BRANCH  21  26
ATOM     26  C   LIG d   1       6.017   0.168 -10.222  0.00  0.00    -0.021 C 
ATOM     27  H   LIG d   1       6.125  -0.675 -10.903  0.00  0.00     0.027 H 
ATOM     28  H   LIG d   1       6.349   1.080 -10.716  0.00  0.00     0.027 H 
ATOM     29  H   LIG d   1       6.624  -0.004  -9.332  0.00  0.00     0.027 H 
ENDBRANCH  21  26
BRANCH  21  30
ATOM     30  O   LIG d   1       3.884  -0.940  -9.981  0.00  0.00    -0.455 OA
BRANCH  30  31
ATOM     31  C   LIG d   1       3.333  -1.186 -11.180  0.00  0.00     0.308 C 
ATOM     32  O   LIG d   1       4.030  -1.531 -12.105  0.00  0.00    -0.251 OA
BRANCH  31  33
ATOM     33  C   LIG d   1       1.846  -1.032 -11.372  0.00  0.00     0.047 C 
ATOM     34  H   LIG d   1       1.377  -0.815 -10.412  0.00  0.00     0.038 H 
ATOM     35  H   LIG d   1       1.652  -0.214 -12.065  0.00  0.00     0.038 H 
BRANCH  33  36
ATOM     36  C   LIG d   1       1.268  -2.330 -11.941  0.00  0.00    -0.037 C 
ATOM     37  H   LIG d   1       2.011  -2.810 -12.578  0.00  0.00     0.030 H 
BRANCH  36  38
ATOM     38  C   LIG d   1       0.899  -3.270 -10.792  0.00  0.00    -0.062 C 
ATOM     39  H   LIG d   1       0.400  -2.704 -10.005  0.00  0.00     0.023 H 
ATOM     40  H   LIG d   1       0.230  -4.048 -11.159  0.00  0.00     0.023 H 
ATOM     41  H   LIG d   1       1.803  -3.728 -10.391  0.00  0.00     0.023 H 
ENDBRANCH  36  38
BRANCH  36  42
ATOM     42  C   LIG d   1       0.017  -2.013 -12.764  0.00  0.00    -0.062 C 
ATOM     43  H   LIG d   1      -0.871  -2.217 -12.166  0.00  0.00     0.023 H 
ATOM     44  H   LIG d   1       0.029  -0.961 -13.051  0.00  0.00     0.023 H 
ATOM     45  H   LIG d   1       0.004  -2.634 -13.659  0.00  0.00     0.023 H 
ENDBRANCH  36  42
ENDBRANCH  33  36
ENDBRANCH  31  33
ENDBRANCH  30  31
ENDBRANCH  21  30
ENDBRANCH  15  21
BRANCH   1  46
ATOM     46  O   LIG d   1       5.267  -1.548  -8.040  0.00  0.00    -0.452 OA
BRANCH  46  47
ATOM     47  C   LIG d   1       6.291  -2.340  -7.685  0.00  0.00     0.308 C 
ATOM     48  O   LIG d   1       7.411  -1.890  -7.624  0.00  0.00    -0.251 OA
BRANCH  47  49
ATOM     49  C   LIG d   1       6.045  -3.792  -7.364  0.00  0.00     0.047 C 
ATOM     50  H   LIG d   1       6.822  -4.152  -6.690  0.00  0.00     0.038 H 
ATOM     51  H   LIG d   1       6.064  -4.375  -8.284  0.00  0.00     0.038 H 
BRANCH  49  52
ATOM     52  C   LIG d   1       4.679  -3.941  -6.693  0.00  0.00    -0.037 C 
ATOM     53  H   LIG d   1       4.237  -2.955  -6.546  0.00  0.00     0.030 H 
BRANCH  52  54
ATOM     54  C   LIG d   1       3.762  -4.783  -7.583  0.00  0.00    -0.062 C 
ATOM     55  H   LIG d   1       4.232  -4.925  -8.556  0.00  0.00     0.023 H 
ATOM     56  H   LIG d   1       3.592  -5.753  -7.116  0.00  0.00     0.023 H 
ATOM     57  H   LIG d   1       2.810  -4.269  -7.712  0.00  0.00     0.023 H 
ENDBRANCH  52  54
BRANCH  52  58
ATOM     58  C   LIG d   1       4.849  -4.632  -5.338  0.00  0.00    -0.062 C 
ATOM     59  H   LIG d   1       5.716  -4.217  -4.826  0.00  0.00     0.023 H 
ATOM     60  H   LIG d   1       3.957  -4.469  -4.732  0.00  0.00     0.023 H 
ATOM     61  H   LIG d   1       4.993  -5.701  -5.491  0.00  0.00     0.023 H 
ENDBRANCH  52  58
ENDBRANCH  49  52
ENDBRANCH  47  49
ENDBRANCH  46  47
ENDBRANCH   1  46
TORSDOF 15
ENDMDL
