MODEL 1
REMARK VINA RESULT:      -6.8      0.000      0.000
REMARK  13 active torsions:
REMARK  status: ('A' for Active; 'I' for Inactive)
REMARK    1  A    between atoms: C_1  and  C_2 
REMARK    2  A    between atoms: C_16  and  C_37 
REMARK    3  A    between atoms: C_18  and  C_27 
REMARK    4  A    between atoms: C_27  and  C_29 
REMARK    5  A    between atoms: C_32  and  O_35 
REMARK    6  A    between atoms: O_35  and  C_36 
REMARK    7  A    between atoms: C_37  and  C_39 
REMARK    8  A    between atoms: C_41  and  O_49 
REMARK    9  A    between atoms: C_42  and  O_47 
REMARK   10  A    between atoms: C_43  and  O_45 
REMARK   11  A    between atoms: O_45  and  C_46 
REMARK   12  A    between atoms: O_47  and  C_48 
REMARK   13  A    between atoms: O_49  and  C_50 
ROOT
ATOM      1  C   LIG d   1       9.041  -3.758  -4.119  0.00  0.00    -0.044 C 
ATOM      2  C   LIG d   1       8.232  -2.758  -3.783  0.00  0.00    -0.059 C 
ATOM      3  C   LIG d   1       8.550  -1.345  -4.188  0.00  0.00     0.062 C 
ATOM      4  H   LIG d   1       9.118  -0.852  -3.398  0.00  0.00     0.056 H 
ATOM      5  C   LIG d   1       7.288  -0.543  -4.497  0.00  0.00     0.108 A 
ATOM      6  C   LIG d   1       6.055  -1.183  -3.959  0.00  0.00    -0.008 A 
ATOM      7  C   LIG d   1       5.492  -2.423  -4.170  0.00  0.00    -0.056 A 
ATOM      8  C   LIG d   1       4.310  -2.705  -3.493  0.00  0.00    -0.061 A 
ATOM      9  C   LIG d   1       3.729  -1.782  -2.648  0.00  0.00    -0.060 A 
ATOM     10  C   LIG d   1       4.288  -0.532  -2.430  0.00  0.00    -0.040 A 
ATOM     11  C   LIG d   1       5.474  -0.237  -3.102  0.00  0.00     0.038 A 
ATOM     12  N   LIG d   1       6.238   0.918  -3.071  0.00  0.00    -0.284 N 
ATOM     13  C   LIG d   1       7.327   0.825  -3.866  0.00  0.00     0.231 A 
ATOM     14  O   LIG d   1       8.174   1.677  -4.036  0.00  0.00    -0.274 OA
ATOM     15  C   LIG d   1       7.253  -0.435  -6.036  0.00  0.00     0.068 C 
ATOM     16  H   LIG d   1       6.780   0.496  -6.351  0.00  0.00     0.042 H 
ATOM     17  C   LIG d   1       8.768  -0.437  -6.387  0.00  0.00     0.098 C 
ATOM     18  H   LIG d   1       8.924  -0.772  -7.413  0.00  0.00     0.059 H 
ATOM     19  N   LIG d   1       9.353  -1.395  -5.431  0.00  0.00    -0.311 N 
ATOM     20  C   LIG d   1      10.405  -2.289  -5.584  0.00  0.00     0.038 A 
ATOM     21  C   LIG d   1      10.273  -3.514  -4.895  0.00  0.00    -0.001 A 
ATOM     22  C   LIG d   1      11.292  -4.455  -4.972  0.00  0.00    -0.053 A 
ATOM     23  C   LIG d   1      12.419  -4.182  -5.726  0.00  0.00    -0.061 A 
ATOM     24  C   LIG d   1      12.539  -2.982  -6.405  0.00  0.00    -0.060 A 
ATOM     25  C   LIG d   1      11.526  -2.033  -6.341  0.00  0.00    -0.040 A 
ATOM     26  H   LIG d   1       7.337  -2.964  -3.214  0.00  0.00     0.059 H 
ATOM     27  H   LIG d   1       5.948  -3.143  -4.833  0.00  0.00     0.062 H 
ATOM     28  H   LIG d   1       3.838  -3.666  -3.633  0.00  0.00     0.062 H 
ATOM     29  H   LIG d   1       2.811  -2.042  -2.141  0.00  0.00     0.062 H 
ATOM     30  H   LIG d   1       3.825   0.182  -1.766  0.00  0.00     0.064 H 
ATOM     31  H   LIG d   1       6.017   1.699  -2.541  0.00  0.00     0.155 HD
ATOM     32  H   LIG d   1      11.206  -5.393  -4.445  0.00  0.00     0.062 H 
ATOM     33  H   LIG d   1      13.212  -4.912  -5.786  0.00  0.00     0.062 H 
ATOM     34  H   LIG d   1      13.422  -2.785  -6.995  0.00  0.00     0.062 H 
ATOM     35  H   LIG d   1      11.622  -1.097  -6.872  0.00  0.00     0.064 H 
ENDROOT
BRANCH  15  36
ATOM     36  C   LIG d   1       6.555  -1.624  -6.645  0.00  0.00     0.170 C 
ATOM     37  O   LIG d   1       7.060  -2.724  -6.574  0.00  0.00    -0.292 OA
BRANCH  36  38
ATOM     38  C   LIG d   1       5.265  -1.450  -7.323  0.00  0.00     0.025 A 
ATOM     39  C   LIG d   1       4.673  -2.528  -7.993  0.00  0.00    -0.006 A 
ATOM     40  C   LIG d   1       3.456  -2.362  -8.626  0.00  0.00     0.166 A 
ATOM     41  H   LIG d   1       5.165  -3.489  -8.011  0.00  0.00     0.066 H 
ATOM     42  C   LIG d   1       2.823  -1.121  -8.608  0.00  0.00     0.203 A 
ATOM     43  C   LIG d   1       3.411  -0.045  -7.948  0.00  0.00     0.166 A 
ATOM     44  C   LIG d   1       4.626  -0.204  -7.308  0.00  0.00    -0.006 A 
ATOM     45  H   LIG d   1       5.081   0.630  -6.796  0.00  0.00     0.066 H 
BRANCH  40  46
ATOM     46  O   LIG d   1       2.878  -3.411  -9.271  0.00  0.00    -0.491 OA
BRANCH  46  47
ATOM     47  C   LIG d   1       3.342  -4.718  -8.930  0.00  0.00     0.079 C 
ATOM     48  H   LIG d   1       2.864  -5.045  -8.007  0.00  0.00     0.066 H 
ATOM     49  H   LIG d   1       3.093  -5.412  -9.733  0.00  0.00     0.066 H 
ATOM     50  H   LIG d   1       4.423  -4.695  -8.793  0.00  0.00     0.066 H 
ENDBRANCH  46  47
ENDBRANCH  40  46
BRANCH  42  51
ATOM     51  O   LIG d   1       1.630  -0.961  -9.236  0.00  0.00    -0.488 OA
BRANCH  51  52
ATOM     52  C   LIG d   1       1.664  -0.728 -10.645  0.00  0.00     0.079 C 
ATOM     53  H   LIG d   1       1.736  -1.680 -11.170  0.00  0.00     0.066 H 
ATOM     54  H   LIG d   1       0.752  -0.213 -10.950  0.00  0.00     0.066 H 
ATOM     55  H   LIG d   1       2.528  -0.110 -10.890  0.00  0.00     0.066 H 
ENDBRANCH  51  52
ENDBRANCH  42  51
BRANCH  43  56
ATOM     56  O   LIG d   1       2.790   1.165  -7.933  0.00  0.00    -0.491 OA
BRANCH  56  57
ATOM     57  C   LIG d   1       3.288   2.161  -8.829  0.00  0.00     0.079 C 
ATOM     58  H   LIG d   1       3.779   1.677  -9.673  0.00  0.00     0.066 H 
ATOM     59  H   LIG d   1       2.460   2.771  -9.190  0.00  0.00     0.066 H 
ATOM     60  H   LIG d   1       4.004   2.794  -8.306  0.00  0.00     0.066 H 
ENDBRANCH  56  57
ENDBRANCH  43  56
ENDBRANCH  36  38
ENDBRANCH  15  36
BRANCH  17  61
ATOM     61  C   LIG d   1       9.361   0.934  -6.184  0.00  0.00     0.184 C 
ATOM     62  O   LIG d   1      10.082   1.148  -5.232  0.00  0.00    -0.290 OA
BRANCH  61  63
ATOM     63  C   LIG d   1       9.065   2.011  -7.138  0.00  0.00     0.019 A 
ATOM     64  C   LIG d   1       9.716   3.246  -7.027  0.00  0.00    -0.048 A 
ATOM     65  C   LIG d   1       9.441   4.246  -7.925  0.00  0.00    -0.019 A 
ATOM     66  H   LIG d   1      10.437   3.409  -6.240  0.00  0.00     0.063 H 
ATOM     67  C   LIG d   1       8.509   4.038  -8.935  0.00  0.00     0.120 A 
ATOM     68  H   LIG d   1       9.947   5.196  -7.843  0.00  0.00     0.065 H 
ATOM     69  C   LIG d   1       7.856   2.815  -9.046  0.00  0.00    -0.019 A 
ATOM     70  C   LIG d   1       8.128   1.807  -8.158  0.00  0.00    -0.048 A 
ATOM     71  H   LIG d   1       7.132   2.660  -9.833  0.00  0.00     0.065 H 
ATOM     72  H   LIG d   1       7.621   0.858  -8.246  0.00  0.00     0.063 H 
BRANCH  67  73
ATOM     73  O   LIG d   1       8.236   5.033  -9.817  0.00  0.00    -0.495 OA
BRANCH  73  74
ATOM     74  C   LIG d   1       8.889   6.286  -9.604  0.00  0.00     0.079 C 
ATOM     75  H   LIG d   1       9.964   6.125  -9.519  0.00  0.00     0.066 H 
ATOM     76  H   LIG d   1       8.687   6.949 -10.444  0.00  0.00     0.066 H 
ATOM     77  H   LIG d   1       8.516   6.739  -8.685  0.00  0.00     0.066 H 
ENDBRANCH  73  74
ENDBRANCH  67  73
ENDBRANCH  61  63
ENDBRANCH  17  61
BRANCH   1  78
ATOM     78  C   LIG d   1       8.699  -5.163  -3.697  0.00  0.00    -0.039 C 
ATOM     79  H   LIG d   1       8.668  -5.809  -4.574  0.00  0.00     0.028 H 
ATOM     80  H   LIG d   1       9.457  -5.528  -3.003  0.00  0.00     0.028 H 
ATOM     81  H   LIG d   1       7.726  -5.168  -3.207  0.00  0.00     0.028 H 
ENDBRANCH   1  78
TORSDOF 13
ENDMDL
MODEL 2
REMARK VINA RESULT:      -6.7      2.756      6.002
REMARK  13 active torsions:
REMARK  status: ('A' for Active; 'I' for Inactive)
REMARK    1  A    between atoms: C_1  and  C_2 
REMARK    2  A    between atoms: C_16  and  C_37 
REMARK    3  A    between atoms: C_18  and  C_27 
REMARK    4  A    between atoms: C_27  and  C_29 
REMARK    5  A    between atoms: C_32  and  O_35 
REMARK    6  A    between atoms: O_35  and  C_36 
REMARK    7  A    between atoms: C_37  and  C_39 
REMARK    8  A    between atoms: C_41  and  O_49 
REMARK    9  A    between atoms: C_42  and  O_47 
REMARK   10  A    between atoms: C_43  and  O_45 
REMARK   11  A    between atoms: O_45  and  C_46 
REMARK   12  A    between atoms: O_47  and  C_48 
REMARK   13  A    between atoms: O_49  and  C_50 
ROOT
ATOM      1  C   LIG d   1       8.167   0.635  -5.777  0.00  0.00    -0.044 C 
ATOM      2  C   LIG d   1       6.897   0.403  -5.460  0.00  0.00    -0.059 C 
ATOM      3  C   LIG d   1       5.798   0.668  -6.453  0.00  0.00     0.062 C 
ATOM      4  H   LIG d   1       5.413   1.679  -6.319  0.00  0.00     0.056 H 
ATOM      5  C   LIG d   1       4.661  -0.343  -6.326  0.00  0.00     0.108 A 
ATOM      6  C   LIG d   1       4.693  -1.085  -5.035  0.00  0.00    -0.008 A 
ATOM      7  C   LIG d   1       5.657  -1.881  -4.453  0.00  0.00    -0.056 A 
ATOM      8  C   LIG d   1       5.357  -2.431  -3.211  0.00  0.00    -0.061 A 
ATOM      9  C   LIG d   1       4.147  -2.191  -2.592  0.00  0.00    -0.060 A 
ATOM     10  C   LIG d   1       3.172  -1.393  -3.171  0.00  0.00    -0.040 A 
ATOM     11  C   LIG d   1       3.461  -0.833  -4.416  0.00  0.00     0.038 A 
ATOM     12  N   LIG d   1       2.682  -0.009  -5.210  0.00  0.00    -0.284 N 
ATOM     13  C   LIG d   1       3.312   0.329  -6.357  0.00  0.00     0.231 A 
ATOM     14  O   LIG d   1       2.876   1.038  -7.241  0.00  0.00    -0.274 OA
ATOM     15  C   LIG d   1       4.830  -1.287  -7.535  0.00  0.00     0.068 C 
ATOM     16  H   LIG d   1       3.866  -1.668  -7.870  0.00  0.00     0.042 H 
ATOM     17  C   LIG d   1       5.452  -0.333  -8.594  0.00  0.00     0.098 C 
ATOM     18  H   LIG d   1       6.003  -0.901  -9.345  0.00  0.00     0.059 H 
ATOM     19  N   LIG d   1       6.366   0.520  -7.813  0.00  0.00    -0.311 N 
ATOM     20  C   LIG d   1       7.595   1.069  -8.154  0.00  0.00     0.038 A 
ATOM     21  C   LIG d   1       8.538   1.157  -7.107  0.00  0.00    -0.001 A 
ATOM     22  C   LIG d   1       9.784   1.719  -7.355  0.00  0.00    -0.053 A 
ATOM     23  C   LIG d   1      10.086   2.179  -8.623  0.00  0.00    -0.061 A 
ATOM     24  C   LIG d   1       9.160   2.083  -9.646  0.00  0.00    -0.060 A 
ATOM     25  C   LIG d   1       7.911   1.520  -9.416  0.00  0.00    -0.040 A 
ATOM     26  H   LIG d   1       6.652   0.022  -4.479  0.00  0.00     0.059 H 
ATOM     27  H   LIG d   1       6.603  -2.068  -4.939  0.00  0.00     0.062 H 
ATOM     28  H   LIG d   1       6.086  -3.061  -2.723  0.00  0.00     0.062 H 
ATOM     29  H   LIG d   1       3.955  -2.638  -1.628  0.00  0.00     0.062 H 
ATOM     30  H   LIG d   1       2.229  -1.211  -2.677  0.00  0.00     0.064 H 
ATOM     31  H   LIG d   1       1.792   0.291  -4.971  0.00  0.00     0.155 HD
ATOM     32  H   LIG d   1      10.513   1.797  -6.561  0.00  0.00     0.062 H 
ATOM     33  H   LIG d   1      11.054   2.617  -8.817  0.00  0.00     0.062 H 
ATOM     34  H   LIG d   1       9.412   2.441 -10.634  0.00  0.00     0.062 H 
ATOM     35  H   LIG d   1       7.190   1.447 -10.216  0.00  0.00     0.064 H 
ENDROOT
BRANCH  15  36
ATOM     36  C   LIG d   1       5.770  -2.418  -7.208  0.00  0.00     0.170 C 
ATOM     37  O   LIG d   1       6.943  -2.191  -6.997  0.00  0.00    -0.292 OA
BRANCH  36  38
ATOM     38  C   LIG d   1       5.267  -3.796  -7.144  0.00  0.00     0.025 A 
ATOM     39  C   LIG d   1       4.202  -4.193  -7.963  0.00  0.00    -0.006 A 
ATOM     40  C   LIG d   1       3.735  -5.492  -7.903  0.00  0.00     0.166 A 
ATOM     41  H   LIG d   1       3.750  -3.487  -8.643  0.00  0.00     0.066 H 
ATOM     42  C   LIG d   1       4.313  -6.403  -7.022  0.00  0.00     0.203 A 
ATOM     43  C   LIG d   1       5.368  -6.010  -6.202  0.00  0.00     0.166 A 
ATOM     44  C   LIG d   1       5.845  -4.714  -6.259  0.00  0.00    -0.006 A 
ATOM     45  H   LIG d   1       6.663  -4.411  -5.624  0.00  0.00     0.066 H 
BRANCH  40  46
ATOM     46  O   LIG d   1       2.705  -5.880  -8.703  0.00  0.00    -0.491 OA
BRANCH  46  47
ATOM     47  C   LIG d   1       2.434  -5.072  -9.850  0.00  0.00     0.079 C 
ATOM     48  H   LIG d   1       1.603  -5.502 -10.409  0.00  0.00     0.066 H 
ATOM     49  H   LIG d   1       2.172  -4.063  -9.529  0.00  0.00     0.066 H 
ATOM     50  H   LIG d   1       3.319  -5.033 -10.485  0.00  0.00     0.066 H 
ENDBRANCH  46  47
ENDBRANCH  40  46
BRANCH  42  51
ATOM     51  O   LIG d   1       3.847  -7.677  -6.963  0.00  0.00    -0.488 OA
BRANCH  51  52
ATOM     52  C   LIG d   1       4.446  -8.628  -7.846  0.00  0.00     0.079 C 
ATOM     53  H   LIG d   1       5.161  -9.237  -7.293  0.00  0.00     0.066 H 
ATOM     54  H   LIG d   1       3.672  -9.269  -8.268  0.00  0.00     0.066 H 
ATOM     55  H   LIG d   1       4.961  -8.103  -8.651  0.00  0.00     0.066 H 
ENDBRANCH  51  52
ENDBRANCH  42  51
BRANCH  43  56
ATOM     56  O   LIG d   1       5.930  -6.902  -5.343  0.00  0.00    -0.491 OA
BRANCH  56  57
ATOM     57  C   LIG d   1       7.319  -7.188  -5.520  0.00  0.00     0.079 C 
ATOM     58  H   LIG d   1       7.765  -7.432  -4.556  0.00  0.00     0.066 H 
ATOM     59  H   LIG d   1       7.432  -8.034  -6.197  0.00  0.00     0.066 H 
ATOM     60  H   LIG d   1       7.818  -6.316  -5.942  0.00  0.00     0.066 H 
ENDBRANCH  56  57
ENDBRANCH  43  56
ENDBRANCH  36  38
ENDBRANCH  15  36
BRANCH  17  61
ATOM     61  C   LIG d   1       4.383   0.505  -9.246  0.00  0.00     0.184 C 
ATOM     62  O   LIG d   1       4.331   1.698  -9.031  0.00  0.00    -0.290 OA
BRANCH  61  63
ATOM     63  C   LIG d   1       3.401  -0.123 -10.141  0.00  0.00     0.019 A 
ATOM     64  C   LIG d   1       2.100  -0.375  -9.690  0.00  0.00    -0.048 A 
ATOM     65  C   LIG d   1       1.185  -0.955 -10.532  0.00  0.00    -0.019 A 
ATOM     66  H   LIG d   1       1.814  -0.109  -8.683  0.00  0.00     0.063 H 
ATOM     67  C   LIG d   1       1.553  -1.304 -11.827  0.00  0.00     0.120 A 
ATOM     68  H   LIG d   1       0.180  -1.145 -10.187  0.00  0.00     0.065 H 
ATOM     69  C   LIG d   1       2.846  -1.060 -12.278  0.00  0.00    -0.019 A 
ATOM     70  C   LIG d   1       3.766  -0.475 -11.446  0.00  0.00    -0.048 A 
ATOM     71  H   LIG d   1       3.126  -1.333 -13.285  0.00  0.00     0.065 H 
ATOM     72  H   LIG d   1       4.769  -0.286 -11.798  0.00  0.00     0.063 H 
BRANCH  67  73
ATOM     73  O   LIG d   1       0.647  -1.883 -12.654  0.00  0.00    -0.495 OA
BRANCH  73  74
ATOM     74  C   LIG d   1       0.173  -3.181 -12.290  0.00  0.00     0.079 C 
ATOM     75  H   LIG d   1      -0.903  -3.234 -12.455  0.00  0.00     0.066 H 
ATOM     76  H   LIG d   1       0.672  -3.934 -12.898  0.00  0.00     0.066 H 
ATOM     77  H   LIG d   1       0.388  -3.364 -11.237  0.00  0.00     0.066 H 
ENDBRANCH  73  74
ENDBRANCH  67  73
ENDBRANCH  61  63
ENDBRANCH  17  61
BRANCH   1  78
ATOM     78  C   LIG d   1       9.246   0.365  -4.761  0.00  0.00    -0.039 C 
ATOM     79  H   LIG d   1       9.186  -0.673  -4.434  0.00  0.00     0.028 H 
ATOM     80  H   LIG d   1      10.222   0.548  -5.211  0.00  0.00     0.028 H 
ATOM     81  H   LIG d   1       9.112   1.025  -3.904  0.00  0.00     0.028 H 
ENDBRANCH   1  78
TORSDOF 13
ENDMDL
MODEL 3
REMARK VINA RESULT:      -6.7      3.618      7.809
REMARK  13 active torsions:
REMARK  status: ('A' for Active; 'I' for Inactive)
REMARK    1  A    between atoms: C_1  and  C_2 
REMARK    2  A    between atoms: C_16  and  C_37 
REMARK    3  A    between atoms: C_18  and  C_27 
REMARK    4  A    between atoms: C_27  and  C_29 
REMARK    5  A    between atoms: C_32  and  O_35 
REMARK    6  A    between atoms: O_35  and  C_36 
REMARK    7  A    between atoms: C_37  and  C_39 
REMARK    8  A    between atoms: C_41  and  O_49 
REMARK    9  A    between atoms: C_42  and  O_47 
REMARK   10  A    between atoms: C_43  and  O_45 
REMARK   11  A    between atoms: O_45  and  C_46 
REMARK   12  A    between atoms: O_47  and  C_48 
REMARK   13  A    between atoms: O_49  and  C_50 
ROOT
ATOM      1  C   LIG d   1       3.898  -0.377  -6.032  0.00  0.00    -0.044 C 
ATOM      2  C   LIG d   1       4.841  -0.943  -6.779  0.00  0.00    -0.059 C 
ATOM      3  C   LIG d   1       6.126  -1.421  -6.159  0.00  0.00     0.062 C 
ATOM      4  H   LIG d   1       6.877  -0.632  -6.207  0.00  0.00     0.056 H 
ATOM      5  C   LIG d   1       6.652  -2.682  -6.839  0.00  0.00     0.108 A 
ATOM      6  C   LIG d   1       6.028  -2.919  -8.172  0.00  0.00    -0.008 A 
ATOM      7  C   LIG d   1       4.716  -3.084  -8.559  0.00  0.00    -0.056 A 
ATOM      8  C   LIG d   1       4.477  -3.289  -9.914  0.00  0.00    -0.061 A 
ATOM      9  C   LIG d   1       5.511  -3.325 -10.828  0.00  0.00    -0.060 A 
ATOM     10  C   LIG d   1       6.833  -3.160 -10.447  0.00  0.00    -0.040 A 
ATOM     11  C   LIG d   1       7.087  -2.953  -9.091  0.00  0.00     0.038 A 
ATOM     12  N   LIG d   1       8.294  -2.760  -8.442  0.00  0.00    -0.284 N 
ATOM     13  C   LIG d   1       8.132  -2.593  -7.111  0.00  0.00     0.231 A 
ATOM     14  O   LIG d   1       9.008  -2.405  -6.292  0.00  0.00    -0.274 OA
ATOM     15  C   LIG d   1       6.345  -3.826  -5.851  0.00  0.00     0.068 C 
ATOM     16  H   LIG d   1       7.091  -4.617  -5.925  0.00  0.00     0.042 H 
ATOM     17  C   LIG d   1       6.440  -3.094  -4.483  0.00  0.00     0.098 C 
ATOM     18  H   LIG d   1       5.867  -3.626  -3.722  0.00  0.00     0.059 H 
ATOM     19  N   LIG d   1       5.849  -1.768  -4.746  0.00  0.00    -0.311 N 
ATOM     20  C   LIG d   1       5.086  -0.946  -3.928  0.00  0.00     0.038 A 
ATOM     21  C   LIG d   1       4.080  -0.199  -4.579  0.00  0.00    -0.001 A 
ATOM     22  C   LIG d   1       3.288   0.671  -3.839  0.00  0.00    -0.053 A 
ATOM     23  C   LIG d   1       3.491   0.788  -2.477  0.00  0.00    -0.061 A 
ATOM     24  C   LIG d   1       4.474   0.048  -1.844  0.00  0.00    -0.060 A 
ATOM     25  C   LIG d   1       5.271  -0.829  -2.569  0.00  0.00    -0.040 A 
ATOM     26  H   LIG d   1       4.683  -1.061  -7.841  0.00  0.00     0.059 H 
ATOM     27  H   LIG d   1       3.909  -3.056  -7.842  0.00  0.00     0.062 H 
ATOM     28  H   LIG d   1       3.462  -3.424 -10.257  0.00  0.00     0.062 H 
ATOM     29  H   LIG d   1       5.281  -3.487 -11.871  0.00  0.00     0.062 H 
ATOM     30  H   LIG d   1       7.634  -3.190 -11.171  0.00  0.00     0.064 H 
ATOM     31  H   LIG d   1       9.154  -2.747  -8.890  0.00  0.00     0.155 HD
ATOM     32  H   LIG d   1       2.519   1.252  -4.325  0.00  0.00     0.062 H 
ATOM     33  H   LIG d   1       2.877   1.464  -1.900  0.00  0.00     0.062 H 
ATOM     34  H   LIG d   1       4.617   0.145  -0.777  0.00  0.00     0.062 H 
ATOM     35  H   LIG d   1       6.038  -1.406  -2.073  0.00  0.00     0.064 H 
ENDROOT
BRANCH  15  36
ATOM     36  C   LIG d   1       4.959  -4.375  -6.076  0.00  0.00     0.170 C 
ATOM     37  O   LIG d   1       3.996  -3.641  -5.998  0.00  0.00    -0.292 OA
BRANCH  36  38
ATOM     38  C   LIG d   1       4.775  -5.797  -6.389  0.00  0.00     0.025 A 
ATOM     39  C   LIG d   1       4.270  -6.182  -7.637  0.00  0.00    -0.006 A 
ATOM     40  C   LIG d   1       4.102  -7.522  -7.930  0.00  0.00     0.166 A 
ATOM     41  H   LIG d   1       4.015  -5.432  -8.372  0.00  0.00     0.066 H 
ATOM     42  C   LIG d   1       4.424  -8.490  -6.981  0.00  0.00     0.203 A 
ATOM     43  C   LIG d   1       4.922  -8.111  -5.736  0.00  0.00     0.166 A 
ATOM     44  C   LIG d   1       5.097  -6.773  -5.438  0.00  0.00    -0.006 A 
ATOM     45  H   LIG d   1       5.483  -6.480  -4.473  0.00  0.00     0.066 H 
BRANCH  40  46
ATOM     46  O   LIG d   1       3.618  -7.895  -9.145  0.00  0.00    -0.491 OA
BRANCH  46  47
ATOM     47  C   LIG d   1       2.909  -6.907  -9.893  0.00  0.00     0.079 C 
ATOM     48  H   LIG d   1       2.197  -7.396 -10.557  0.00  0.00     0.066 H 
ATOM     49  H   LIG d   1       2.374  -6.247  -9.209  0.00  0.00     0.066 H 
ATOM     50  H   LIG d   1       3.615  -6.322 -10.483  0.00  0.00     0.066 H 
ENDBRANCH  46  47
ENDBRANCH  40  46
BRANCH  42  51
ATOM     51  O   LIG d   1       4.253  -9.805  -7.271  0.00  0.00    -0.488 OA
BRANCH  51  52
ATOM     52  C   LIG d   1       5.362 -10.489  -7.858  0.00  0.00     0.079 C 
ATOM     53  H   LIG d   1       6.058  -9.762  -8.276  0.00  0.00     0.066 H 
ATOM     54  H   LIG d   1       5.870 -11.080  -7.095  0.00  0.00     0.066 H 
ATOM     55  H   LIG d   1       5.006 -11.148  -8.649  0.00  0.00     0.066 H 
ENDBRANCH  51  52
ENDBRANCH  42  51
BRANCH  43  56
ATOM     56  O   LIG d   1       5.235  -9.059  -4.812  0.00  0.00    -0.491 OA
BRANCH  56  57
ATOM     57  C   LIG d   1       6.588  -9.097  -4.355  0.00  0.00     0.079 C 
ATOM     58  H   LIG d   1       6.630  -8.767  -3.317  0.00  0.00     0.066 H 
ATOM     59  H   LIG d   1       6.967 -10.116  -4.427  0.00  0.00     0.066 H 
ATOM     60  H   LIG d   1       7.199  -8.438  -4.972  0.00  0.00     0.066 H 
ENDBRANCH  56  57
ENDBRANCH  43  56
ENDBRANCH  36  38
ENDBRANCH  15  36
BRANCH  17  61
ATOM     61  C   LIG d   1       7.878  -2.951  -4.056  0.00  0.00     0.184 C 
ATOM     62  O   LIG d   1       8.386  -1.851  -3.993  0.00  0.00    -0.290 OA
BRANCH  61  63
ATOM     63  C   LIG d   1       8.666  -4.144  -3.719  0.00  0.00     0.019 A 
ATOM     64  C   LIG d   1       9.553  -4.117  -2.636  0.00  0.00    -0.048 A 
ATOM     65  C   LIG d   1      10.282  -5.236  -2.322  0.00  0.00    -0.019 A 
ATOM     66  H   LIG d   1       9.660  -3.219  -2.046  0.00  0.00     0.063 H 
ATOM     67  C   LIG d   1      10.149  -6.391  -3.084  0.00  0.00     0.120 A 
ATOM     68  H   LIG d   1      10.962  -5.217  -1.483  0.00  0.00     0.065 H 
ATOM     69  C   LIG d   1       9.274  -6.421  -4.164  0.00  0.00    -0.019 A 
ATOM     70  C   LIG d   1       8.536  -5.310  -4.483  0.00  0.00    -0.048 A 
ATOM     71  H   LIG d   1       9.175  -7.321  -4.753  0.00  0.00     0.065 H 
ATOM     72  H   LIG d   1       7.856  -5.336  -5.322  0.00  0.00     0.063 H 
BRANCH  67  73
ATOM     73  O   LIG d   1      10.877  -7.493  -2.773  0.00  0.00    -0.495 OA
BRANCH  73  74
ATOM     74  C   LIG d   1      11.039  -7.793  -1.385  0.00  0.00     0.079 C 
ATOM     75  H   LIG d   1      11.017  -6.867  -0.809  0.00  0.00     0.066 H 
ATOM     76  H   LIG d   1      10.229  -8.444  -1.057  0.00  0.00     0.066 H 
ATOM     77  H   LIG d   1      11.994  -8.295  -1.230  0.00  0.00     0.066 H 
ENDBRANCH  73  74
ENDBRANCH  67  73
ENDBRANCH  61  63
ENDBRANCH  17  61
BRANCH   1  78
ATOM     78  C   LIG d   1       2.623   0.096  -6.681  0.00  0.00    -0.039 C 
ATOM     79  H   LIG d   1       2.842   0.471  -7.681  0.00  0.00     0.028 H 
ATOM     80  H   LIG d   1       1.921  -0.735  -6.750  0.00  0.00     0.028 H 
ATOM     81  H   LIG d   1       2.184   0.893  -6.081  0.00  0.00     0.028 H 
ENDBRANCH   1  78
TORSDOF 13
ENDMDL
MODEL 4
REMARK VINA RESULT:      -6.6      2.757      5.943
REMARK  13 active torsions:
REMARK  status: ('A' for Active; 'I' for Inactive)
REMARK    1  A    between atoms: C_1  and  C_2 
REMARK    2  A    between atoms: C_16  and  C_37 
REMARK    3  A    between atoms: C_18  and  C_27 
REMARK    4  A    between atoms: C_27  and  C_29 
REMARK    5  A    between atoms: C_32  and  O_35 
REMARK    6  A    between atoms: O_35  and  C_36 
REMARK    7  A    between atoms: C_37  and  C_39 
REMARK    8  A    between atoms: C_41  and  O_49 
REMARK    9  A    between atoms: C_42  and  O_47 
REMARK   10  A    between atoms: C_43  and  O_45 
REMARK   11  A    between atoms: O_45  and  C_46 
REMARK   12  A    between atoms: O_47  and  C_48 
REMARK   13  A    between atoms: O_49  and  C_50 
ROOT
ATOM      1  C   LIG d   1       8.136   0.652  -5.724  0.00  0.00    -0.044 C 
ATOM      2  C   LIG d   1       6.863   0.424  -5.418  0.00  0.00    -0.059 C 
ATOM      3  C   LIG d   1       5.775   0.678  -6.426  0.00  0.00     0.062 C 
ATOM      4  H   LIG d   1       5.388   1.690  -6.306  0.00  0.00     0.056 H 
ATOM      5  C   LIG d   1       4.637  -0.332  -6.301  0.00  0.00     0.108 A 
ATOM      6  C   LIG d   1       4.656  -1.062  -5.002  0.00  0.00    -0.008 A 
ATOM      7  C   LIG d   1       5.613  -1.850  -4.401  0.00  0.00    -0.056 A 
ATOM      8  C   LIG d   1       5.300  -2.389  -3.157  0.00  0.00    -0.061 A 
ATOM      9  C   LIG d   1       4.083  -2.143  -2.553  0.00  0.00    -0.060 A 
ATOM     10  C   LIG d   1       3.115  -1.351  -3.150  0.00  0.00    -0.040 A 
ATOM     11  C   LIG d   1       3.416  -0.804  -4.398  0.00  0.00     0.038 A 
ATOM     12  N   LIG d   1       2.646   0.012  -5.209  0.00  0.00    -0.284 N 
ATOM     13  C   LIG d   1       3.288   0.338  -6.353  0.00  0.00     0.231 A 
ATOM     14  O   LIG d   1       2.861   1.038  -7.248  0.00  0.00    -0.274 OA
ATOM     15  C   LIG d   1       4.819  -1.289  -7.498  0.00  0.00     0.068 C 
ATOM     16  H   LIG d   1       3.859  -1.675  -7.839  0.00  0.00     0.042 H 
ATOM     17  C   LIG d   1       5.452  -0.346  -8.560  0.00  0.00     0.098 C 
ATOM     18  H   LIG d   1       6.011  -0.921  -9.299  0.00  0.00     0.059 H 
ATOM     19  N   LIG d   1       6.357   0.516  -7.778  0.00  0.00    -0.311 N 
ATOM     20  C   LIG d   1       7.589   1.062  -8.111  0.00  0.00     0.038 A 
ATOM     21  C   LIG d   1       8.521   1.161  -7.055  0.00  0.00    -0.001 A 
ATOM     22  C   LIG d   1       9.770   1.721  -7.296  0.00  0.00    -0.053 A 
ATOM     23  C   LIG d   1      10.085   2.169  -8.565  0.00  0.00    -0.061 A 
ATOM     24  C   LIG d   1       9.170   2.062  -9.597  0.00  0.00    -0.060 A 
ATOM     25  C   LIG d   1       7.919   1.500  -9.374  0.00  0.00    -0.040 A 
ATOM     26  H   LIG d   1       6.608   0.052  -4.436  0.00  0.00     0.059 H 
ATOM     27  H   LIG d   1       6.564  -2.042  -4.875  0.00  0.00     0.062 H 
ATOM     28  H   LIG d   1       6.024  -3.013  -2.654  0.00  0.00     0.062 H 
ATOM     29  H   LIG d   1       3.881  -2.580  -1.587  0.00  0.00     0.062 H 
ATOM     30  H   LIG d   1       2.166  -1.165  -2.669  0.00  0.00     0.064 H 
ATOM     31  H   LIG d   1       1.753   0.313  -4.983  0.00  0.00     0.155 HD
ATOM     32  H   LIG d   1      10.490   1.808  -6.495  0.00  0.00     0.062 H 
ATOM     33  H   LIG d   1      11.055   2.605  -8.753  0.00  0.00     0.062 H 
ATOM     34  H   LIG d   1       9.432   2.410 -10.586  0.00  0.00     0.062 H 
ATOM     35  H   LIG d   1       7.207   1.418 -10.181  0.00  0.00     0.064 H 
ENDROOT
BRANCH  15  36
ATOM     36  C   LIG d   1       5.756  -2.417  -7.149  0.00  0.00     0.170 C 
ATOM     37  O   LIG d   1       6.924  -2.185  -6.918  0.00  0.00    -0.292 OA
BRANCH  36  38
ATOM     38  C   LIG d   1       5.255  -3.795  -7.088  0.00  0.00     0.025 A 
ATOM     39  C   LIG d   1       5.845  -4.719  -6.217  0.00  0.00    -0.006 A 
ATOM     40  C   LIG d   1       5.368  -6.014  -6.159  0.00  0.00     0.166 A 
ATOM     41  H   LIG d   1       6.670  -4.419  -5.588  0.00  0.00     0.066 H 
ATOM     42  C   LIG d   1       4.308  -6.405  -6.976  0.00  0.00     0.203 A 
ATOM     43  C   LIG d   1       3.722  -5.490  -7.847  0.00  0.00     0.166 A 
ATOM     44  C   LIG d   1       4.191  -4.192  -7.907  0.00  0.00    -0.006 A 
ATOM     45  H   LIG d   1       3.736  -3.483  -8.583  0.00  0.00     0.066 H 
BRANCH  40  46
ATOM     46  O   LIG d   1       5.937  -6.910  -5.308  0.00  0.00    -0.491 OA
BRANCH  46  47
ATOM     47  C   LIG d   1       7.356  -7.055  -5.372  0.00  0.00     0.079 C 
ATOM     48  H   LIG d   1       7.775  -6.265  -5.995  0.00  0.00     0.066 H 
ATOM     49  H   LIG d   1       7.774  -6.985  -4.367  0.00  0.00     0.066 H 
ATOM     50  H   LIG d   1       7.603  -8.026  -5.800  0.00  0.00     0.066 H 
ENDBRANCH  46  47
ENDBRANCH  40  46
BRANCH  42  51
ATOM     51  O   LIG d   1       3.845  -7.681  -6.919  0.00  0.00    -0.488 OA
BRANCH  51  52
ATOM     52  C   LIG d   1       4.438  -8.625  -7.812  0.00  0.00     0.079 C 
ATOM     53  H   LIG d   1       5.516  -8.648  -7.656  0.00  0.00     0.066 H 
ATOM     54  H   LIG d   1       4.023  -9.615  -7.621  0.00  0.00     0.066 H 
ATOM     55  H   LIG d   1       4.225  -8.336  -8.841  0.00  0.00     0.066 H 
ENDBRANCH  51  52
ENDBRANCH  42  51
BRANCH  43  56
ATOM     56  O   LIG d   1       2.688  -5.876  -8.642  0.00  0.00    -0.491 OA
BRANCH  56  57
ATOM     57  C   LIG d   1       2.450  -5.101  -9.819  0.00  0.00     0.079 C 
ATOM     58  H   LIG d   1       3.390  -4.674 -10.169  0.00  0.00     0.066 H 
ATOM     59  H   LIG d   1       2.030  -5.739 -10.596  0.00  0.00     0.066 H 
ATOM     60  H   LIG d   1       1.749  -4.299  -9.590  0.00  0.00     0.066 H 
ENDBRANCH  56  57
ENDBRANCH  43  56
ENDBRANCH  36  38
ENDBRANCH  15  36
BRANCH  17  61
ATOM     61  C   LIG d   1       4.389   0.485  -9.232  0.00  0.00     0.184 C 
ATOM     62  O   LIG d   1       4.324   1.677  -9.015  0.00  0.00    -0.290 OA
BRANCH  61  63
ATOM     63  C   LIG d   1       3.431  -0.149 -10.147  0.00  0.00     0.019 A 
ATOM     64  C   LIG d   1       2.132  -0.439  -9.714  0.00  0.00    -0.048 A 
ATOM     65  C   LIG d   1       1.239  -1.025 -10.575  0.00  0.00    -0.019 A 
ATOM     66  H   LIG d   1       1.830  -0.198  -8.705  0.00  0.00     0.063 H 
ATOM     67  C   LIG d   1       1.627  -1.341 -11.872  0.00  0.00     0.120 A 
ATOM     68  H   LIG d   1       0.235  -1.244 -10.243  0.00  0.00     0.065 H 
ATOM     69  C   LIG d   1       2.918  -1.060 -12.306  0.00  0.00    -0.019 A 
ATOM     70  C   LIG d   1       3.816  -0.469 -11.455  0.00  0.00    -0.048 A 
ATOM     71  H   LIG d   1       3.214  -1.309 -13.315  0.00  0.00     0.065 H 
ATOM     72  H   LIG d   1       4.818  -0.251 -11.793  0.00  0.00     0.063 H 
BRANCH  67  73
ATOM     73  O   LIG d   1       0.742  -1.927 -12.719  0.00  0.00    -0.495 OA
BRANCH  73  74
ATOM     74  C   LIG d   1       0.520  -3.329 -12.556  0.00  0.00     0.079 C 
ATOM     75  H   LIG d   1      -0.476  -3.493 -12.142  0.00  0.00     0.066 H 
ATOM     76  H   LIG d   1       0.597  -3.823 -13.524  0.00  0.00     0.066 H 
ATOM     77  H   LIG d   1       1.268  -3.739 -11.878  0.00  0.00     0.066 H 
ENDBRANCH  73  74
ENDBRANCH  67  73
ENDBRANCH  61  63
ENDBRANCH  17  61
BRANCH   1  78
ATOM     78  C   LIG d   1       9.204   0.393  -4.694  0.00  0.00    -0.039 C 
ATOM     79  H   LIG d   1       8.962  -0.513  -4.139  0.00  0.00     0.028 H 
ATOM     80  H   LIG d   1      10.166   0.269  -5.192  0.00  0.00     0.028 H 
ATOM     81  H   LIG d   1       9.258   1.238  -4.006  0.00  0.00     0.028 H 
ENDBRANCH   1  78
TORSDOF 13
ENDMDL
MODEL 5
REMARK VINA RESULT:      -6.6      3.606      7.736
REMARK  13 active torsions:
REMARK  status: ('A' for Active; 'I' for Inactive)
REMARK    1  A    between atoms: C_1  and  C_2 
REMARK    2  A    between atoms: C_16  and  C_37 
REMARK    3  A    between atoms: C_18  and  C_27 
REMARK    4  A    between atoms: C_27  and  C_29 
REMARK    5  A    between atoms: C_32  and  O_35 
REMARK    6  A    between atoms: O_35  and  C_36 
REMARK    7  A    between atoms: C_37  and  C_39 
REMARK    8  A    between atoms: C_41  and  O_49 
REMARK    9  A    between atoms: C_42  and  O_47 
REMARK   10  A    between atoms: C_43  and  O_45 
REMARK   11  A    between atoms: O_45  and  C_46 
REMARK   12  A    between atoms: O_47  and  C_48 
REMARK   13  A    between atoms: O_49  and  C_50 
ROOT
ATOM      1  C   LIG d   1       3.869  -0.329  -5.978  0.00  0.00    -0.044 C 
ATOM      2  C   LIG d   1       4.801  -0.898  -6.737  0.00  0.00    -0.059 C 
ATOM      3  C   LIG d   1       6.097  -1.369  -6.135  0.00  0.00     0.062 C 
ATOM      4  H   LIG d   1       6.845  -0.579  -6.201  0.00  0.00     0.056 H 
ATOM      5  C   LIG d   1       6.614  -2.633  -6.817  0.00  0.00     0.108 A 
ATOM      6  C   LIG d   1       5.969  -2.879  -8.137  0.00  0.00    -0.008 A 
ATOM      7  C   LIG d   1       4.651  -3.050  -8.502  0.00  0.00    -0.056 A 
ATOM      8  C   LIG d   1       4.390  -3.263  -9.851  0.00  0.00    -0.061 A 
ATOM      9  C   LIG d   1       5.408  -3.303 -10.782  0.00  0.00    -0.060 A 
ATOM     10  C   LIG d   1       6.736  -3.133 -10.425  0.00  0.00    -0.040 A 
ATOM     11  C   LIG d   1       7.012  -2.916  -9.074  0.00  0.00     0.038 A 
ATOM     12  N   LIG d   1       8.230  -2.718  -8.447  0.00  0.00    -0.284 N 
ATOM     13  C   LIG d   1       8.090  -2.542  -7.114  0.00  0.00     0.231 A 
ATOM     14  O   LIG d   1       8.979  -2.348  -6.312  0.00  0.00    -0.274 OA
ATOM     15  C   LIG d   1       6.326  -3.772  -5.817  0.00  0.00     0.068 C 
ATOM     16  H   LIG d   1       7.074  -4.561  -5.898  0.00  0.00     0.042 H 
ATOM     17  C   LIG d   1       6.443  -3.031  -4.455  0.00  0.00     0.098 C 
ATOM     18  H   LIG d   1       5.884  -3.560  -3.682  0.00  0.00     0.059 H 
ATOM     19  N   LIG d   1       5.845  -1.708  -4.716  0.00  0.00    -0.311 N 
ATOM     20  C   LIG d   1       5.094  -0.883  -3.890  0.00  0.00     0.038 A 
ATOM     21  C   LIG d   1       4.076  -0.142  -4.528  0.00  0.00    -0.001 A 
ATOM     22  C   LIG d   1       3.294   0.730  -3.781  0.00  0.00    -0.053 A 
ATOM     23  C   LIG d   1       3.520   0.857  -2.423  0.00  0.00    -0.061 A 
ATOM     24  C   LIG d   1       4.514   0.122  -1.802  0.00  0.00    -0.060 A 
ATOM     25  C   LIG d   1       5.302  -0.757  -2.535  0.00  0.00    -0.040 A 
ATOM     26  H   LIG d   1       4.625  -1.022  -7.796  0.00  0.00     0.059 H 
ATOM     27  H   LIG d   1       3.856  -3.019  -7.771  0.00  0.00     0.062 H 
ATOM     28  H   LIG d   1       3.369  -3.403 -10.176  0.00  0.00     0.062 H 
ATOM     29  H   LIG d   1       5.161  -3.471 -11.820  0.00  0.00     0.062 H 
ATOM     30  H   LIG d   1       7.525  -3.165 -11.161  0.00  0.00     0.064 H 
ATOM     31  H   LIG d   1       9.082  -2.705  -8.909  0.00  0.00     0.155 HD
ATOM     32  H   LIG d   1       2.516   1.307  -4.258  0.00  0.00     0.062 H 
ATOM     33  H   LIG d   1       2.913   1.535  -1.841  0.00  0.00     0.062 H 
ATOM     34  H   LIG d   1       4.675   0.226  -0.739  0.00  0.00     0.062 H 
ATOM     35  H   LIG d   1       6.077  -1.329  -2.049  0.00  0.00     0.064 H 
ENDROOT
BRANCH  15  36
ATOM     36  C   LIG d   1       4.939  -4.325  -6.015  0.00  0.00     0.170 C 
ATOM     37  O   LIG d   1       3.975  -3.597  -5.907  0.00  0.00    -0.292 OA
BRANCH  36  38
ATOM     38  C   LIG d   1       4.753  -5.745  -6.339  0.00  0.00     0.025 A 
ATOM     39  C   LIG d   1       5.201  -6.732  -5.451  0.00  0.00    -0.006 A 
ATOM     40  C   LIG d   1       5.020  -8.067  -5.757  0.00  0.00     0.166 A 
ATOM     41  H   LIG d   1       5.683  -6.449  -4.527  0.00  0.00     0.066 H 
ATOM     42  C   LIG d   1       4.404  -8.432  -6.953  0.00  0.00     0.203 A 
ATOM     43  C   LIG d   1       3.963  -7.454  -7.840  0.00  0.00     0.166 A 
ATOM     44  C   LIG d   1       4.135  -6.117  -7.539  0.00  0.00    -0.006 A 
ATOM     45  H   LIG d   1       3.793  -5.359  -8.227  0.00  0.00     0.066 H 
BRANCH  40  46
ATOM     46  O   LIG d   1       5.449  -9.025  -4.893  0.00  0.00    -0.491 OA
BRANCH  46  47
ATOM     47  C   LIG d   1       6.763  -8.874  -4.355  0.00  0.00     0.079 C 
ATOM     48  H   LIG d   1       7.172  -7.910  -4.659  0.00  0.00     0.066 H 
ATOM     49  H   LIG d   1       6.718  -8.921  -3.266  0.00  0.00     0.066 H 
ATOM     50  H   LIG d   1       7.402  -9.674  -4.727  0.00  0.00     0.066 H 
ENDBRANCH  46  47
ENDBRANCH  40  46
BRANCH  42  51
ATOM     51  O   LIG d   1       4.233  -9.746  -7.251  0.00  0.00    -0.488 OA
BRANCH  51  52
ATOM     52  C   LIG d   1       5.296 -10.395  -7.952  0.00  0.00     0.079 C 
ATOM     53  H   LIG d   1       5.014 -10.530  -8.996  0.00  0.00     0.066 H 
ATOM     54  H   LIG d   1       6.196  -9.782  -7.896  0.00  0.00     0.066 H 
ATOM     55  H   LIG d   1       5.490 -11.367  -7.499  0.00  0.00     0.066 H 
ENDBRANCH  51  52
ENDBRANCH  42  51
BRANCH  43  56
ATOM     56  O   LIG d   1       3.362  -7.815  -9.006  0.00  0.00    -0.491 OA
BRANCH  56  57
ATOM     57  C   LIG d   1       2.796  -6.767  -9.796  0.00  0.00     0.079 C 
ATOM     58  H   LIG d   1       1.989  -6.289  -9.241  0.00  0.00     0.066 H 
ATOM     59  H   LIG d   1       3.565  -6.031 -10.027  0.00  0.00     0.066 H 
ATOM     60  H   LIG d   1       2.403  -7.184 -10.723  0.00  0.00     0.066 H 
ENDBRANCH  56  57
ENDBRANCH  43  56
ENDBRANCH  36  38
ENDBRANCH  15  36
BRANCH  17  61
ATOM     61  C   LIG d   1       7.888  -2.883  -4.054  0.00  0.00     0.184 C 
ATOM     62  O   LIG d   1       8.398  -1.782  -4.019  0.00  0.00    -0.290 OA
BRANCH  61  63
ATOM     63  C   LIG d   1       8.679  -4.070  -3.706  0.00  0.00     0.019 A 
ATOM     64  C   LIG d   1       9.471  -4.074  -2.551  0.00  0.00    -0.048 A 
ATOM     65  C   LIG d   1      10.203  -5.188  -2.228  0.00  0.00    -0.019 A 
ATOM     66  H   LIG d   1       9.501  -3.204  -1.912  0.00  0.00     0.063 H 
ATOM     67  C   LIG d   1      10.170  -6.307  -3.052  0.00  0.00     0.120 A 
ATOM     68  H   LIG d   1      10.808  -5.194  -1.334  0.00  0.00     0.065 H 
ATOM     69  C   LIG d   1       9.390  -6.306  -4.204  0.00  0.00    -0.019 A 
ATOM     70  C   LIG d   1       8.649  -5.201  -4.532  0.00  0.00    -0.048 A 
ATOM     71  H   LIG d   1       9.368  -7.179  -4.841  0.00  0.00     0.065 H 
ATOM     72  H   LIG d   1       8.044  -5.202  -5.426  0.00  0.00     0.063 H 
BRANCH  67  73
ATOM     73  O   LIG d   1      10.901  -7.405  -2.731  0.00  0.00    -0.495 OA
BRANCH  73  74
ATOM     74  C   LIG d   1      10.936  -7.780  -1.353  0.00  0.00     0.079 C 
ATOM     75  H   LIG d   1       9.952  -7.624  -0.909  0.00  0.00     0.066 H 
ATOM     76  H   LIG d   1      11.211  -8.830  -1.269  0.00  0.00     0.066 H 
ATOM     77  H   LIG d   1      11.672  -7.169  -0.829  0.00  0.00     0.066 H 
ENDBRANCH  73  74
ENDBRANCH  67  73
ENDBRANCH  61  63
ENDBRANCH  17  61
BRANCH   1  78
ATOM     78  C   LIG d   1       2.583   0.137  -6.608  0.00  0.00    -0.039 C 
ATOM     79  H   LIG d   1       1.738  -0.224  -6.021  0.00  0.00     0.028 H 
ATOM     80  H   LIG d   1       2.567   1.227  -6.637  0.00  0.00     0.028 H 
ATOM     81  H   LIG d   1       2.513  -0.254  -7.623  0.00  0.00     0.028 H 
ENDBRANCH   1  78
TORSDOF 13
ENDMDL
MODEL 6
REMARK VINA RESULT:      -6.4      1.613      3.179
REMARK  13 active torsions:
REMARK  status: ('A' for Active; 'I' for Inactive)
REMARK    1  A    between atoms: C_1  and  C_2 
REMARK    2  A    between atoms: C_16  and  C_37 
REMARK    3  A    between atoms: C_18  and  C_27 
REMARK    4  A    between atoms: C_27  and  C_29 
REMARK    5  A    between atoms: C_32  and  O_35 
REMARK    6  A    between atoms: O_35  and  C_36 
REMARK    7  A    between atoms: C_37  and  C_39 
REMARK    8  A    between atoms: C_41  and  O_49 
REMARK    9  A    between atoms: C_42  and  O_47 
REMARK   10  A    between atoms: C_43  and  O_45 
REMARK   11  A    between atoms: O_45  and  C_46 
REMARK   12  A    between atoms: O_47  and  C_48 
REMARK   13  A    between atoms: O_49  and  C_50 
ROOT
ATOM      1  C   LIG d   1       9.038  -3.347  -4.134  0.00  0.00    -0.044 C 
ATOM      2  C   LIG d   1       8.130  -2.462  -3.734  0.00  0.00    -0.059 C 
ATOM      3  C   LIG d   1       8.305  -0.997  -4.031  0.00  0.00     0.062 C 
ATOM      4  H   LIG d   1       8.817  -0.510  -3.201  0.00  0.00     0.056 H 
ATOM      5  C   LIG d   1       6.970  -0.306  -4.295  0.00  0.00     0.108 A 
ATOM      6  C   LIG d   1       5.805  -1.105  -3.819  0.00  0.00    -0.008 A 
ATOM      7  C   LIG d   1       5.372  -2.376  -4.126  0.00  0.00    -0.056 A 
ATOM      8  C   LIG d   1       4.222  -2.825  -3.485  0.00  0.00    -0.061 A 
ATOM      9  C   LIG d   1       3.547  -2.030  -2.581  0.00  0.00    -0.060 A 
ATOM     10  C   LIG d   1       3.976  -0.751  -2.266  0.00  0.00    -0.040 A 
ATOM     11  C   LIG d   1       5.128  -0.288  -2.902  0.00  0.00     0.038 A 
ATOM     12  N   LIG d   1       5.771   0.932  -2.777  0.00  0.00    -0.284 N 
ATOM     13  C   LIG d   1       6.867   1.009  -3.564  0.00  0.00     0.231 A 
ATOM     14  O   LIG d   1       7.624   1.952  -3.662  0.00  0.00    -0.274 OA
ATOM     15  C   LIG d   1       6.929  -0.088  -5.822  0.00  0.00     0.068 C 
ATOM     16  H   LIG d   1       6.365   0.810  -6.073  0.00  0.00     0.042 H 
ATOM     17  C   LIG d   1       8.437   0.089  -6.155  0.00  0.00     0.098 C 
ATOM     18  H   LIG d   1       8.630  -0.153  -7.201  0.00  0.00     0.059 H 
ATOM     19  N   LIG d   1       9.114  -0.874  -5.265  0.00  0.00    -0.311 N 
ATOM     20  C   LIG d   1      10.251  -1.643  -5.472  0.00  0.00     0.038 A 
ATOM     21  C   LIG d   1      10.241  -2.923  -4.876  0.00  0.00    -0.001 A 
ATOM     22  C   LIG d   1      11.351  -3.748  -5.010  0.00  0.00    -0.053 A 
ATOM     23  C   LIG d   1      12.447  -3.308  -5.729  0.00  0.00    -0.061 A 
ATOM     24  C   LIG d   1      12.447  -2.056  -6.317  0.00  0.00    -0.060 A 
ATOM     25  C   LIG d   1      11.343  -1.220  -6.196  0.00  0.00    -0.040 A 
ATOM     26  H   LIG d   1       7.258  -2.798  -3.192  0.00  0.00     0.059 H 
ATOM     27  H   LIG d   1       5.901  -2.996  -4.835  0.00  0.00     0.062 H 
ATOM     28  H   LIG d   1       3.850  -3.816  -3.700  0.00  0.00     0.062 H 
ATOM     29  H   LIG d   1       2.659  -2.418  -2.105  0.00  0.00     0.062 H 
ATOM     30  H   LIG d   1       3.440  -0.137  -1.556  0.00  0.00     0.064 H 
ATOM     31  H   LIG d   1       5.471   1.646  -2.194  0.00  0.00     0.155 HD
ATOM     32  H   LIG d   1      11.358  -4.727  -4.555  0.00  0.00     0.062 H 
ATOM     33  H   LIG d   1      13.310  -3.948  -5.834  0.00  0.00     0.062 H 
ATOM     34  H   LIG d   1      13.308  -1.727  -6.882  0.00  0.00     0.062 H 
ATOM     35  H   LIG d   1      11.346  -0.243  -6.655  0.00  0.00     0.064 H 
ENDROOT
BRANCH  15  36
ATOM     36  C   LIG d   1       6.357  -1.293  -6.524  0.00  0.00     0.170 C 
ATOM     37  O   LIG d   1       6.929  -2.361  -6.457  0.00  0.00    -0.292 OA
BRANCH  36  38
ATOM     38  C   LIG d   1       5.110  -1.175  -7.288  0.00  0.00     0.025 A 
ATOM     39  C   LIG d   1       4.496   0.075  -7.441  0.00  0.00    -0.006 A 
ATOM     40  C   LIG d   1       3.324   0.183  -8.165  0.00  0.00     0.166 A 
ATOM     41  H   LIG d   1       4.940   0.953  -6.997  0.00  0.00     0.066 H 
ATOM     42  C   LIG d   1       2.747  -0.951  -8.733  0.00  0.00     0.203 A 
ATOM     43  C   LIG d   1       3.351  -2.196  -8.579  0.00  0.00     0.166 A 
ATOM     44  C   LIG d   1       4.526  -2.311  -7.860  0.00  0.00    -0.006 A 
ATOM     45  H   LIG d   1       4.994  -3.277  -7.741  0.00  0.00     0.066 H 
BRANCH  40  46
ATOM     46  O   LIG d   1       2.731   1.397  -8.319  0.00  0.00    -0.491 OA
BRANCH  46  47
ATOM     47  C   LIG d   1       3.483   2.405  -8.998  0.00  0.00     0.079 C 
ATOM     48  H   LIG d   1       4.318   1.943  -9.524  0.00  0.00     0.066 H 
ATOM     49  H   LIG d   1       2.840   2.916  -9.716  0.00  0.00     0.066 H 
ATOM     50  H   LIG d   1       3.862   3.125  -8.274  0.00  0.00     0.066 H 
ENDBRANCH  46  47
ENDBRANCH  40  46
BRANCH  42  51
ATOM     51  O   LIG d   1       1.593  -0.840  -9.440  0.00  0.00    -0.488 OA
BRANCH  51  52
ATOM     52  C   LIG d   1       1.708  -0.767 -10.862  0.00  0.00     0.079 C 
ATOM     53  H   LIG d   1       2.662  -0.312 -11.127  0.00  0.00     0.066 H 
ATOM     54  H   LIG d   1       1.656  -1.772 -11.283  0.00  0.00     0.066 H 
ATOM     55  H   LIG d   1       0.893  -0.164 -11.263  0.00  0.00     0.066 H 
ENDBRANCH  51  52
ENDBRANCH  42  51
BRANCH  43  56
ATOM     56  O   LIG d   1       2.785  -3.300  -9.135  0.00  0.00    -0.491 OA
BRANCH  56  57
ATOM     57  C   LIG d   1       3.466  -4.543  -8.950  0.00  0.00     0.079 C 
ATOM     58  H   LIG d   1       4.490  -4.351  -8.627  0.00  0.00     0.066 H 
ATOM     59  H   LIG d   1       2.950  -5.131  -8.193  0.00  0.00     0.066 H 
ATOM     60  H   LIG d   1       3.480  -5.093  -9.891  0.00  0.00     0.066 H 
ENDBRANCH  56  57
ENDBRANCH  43  56
ENDBRANCH  36  38
ENDBRANCH  15  36
BRANCH  17  61
ATOM     61  C   LIG d   1       8.888   1.493  -5.846  0.00  0.00     0.184 C 
ATOM     62  O   LIG d   1       8.100   2.412  -5.916  0.00  0.00    -0.290 OA
BRANCH  61  63
ATOM     63  C   LIG d   1      10.282   1.749  -5.461  0.00  0.00     0.019 A 
ATOM     64  C   LIG d   1      10.658   1.709  -4.113  0.00  0.00    -0.048 A 
ATOM     65  C   LIG d   1      11.963   1.942  -3.760  0.00  0.00    -0.019 A 
ATOM     66  H   LIG d   1       9.924   1.491  -3.352  0.00  0.00     0.063 H 
ATOM     67  C   LIG d   1      12.909   2.230  -4.738  0.00  0.00     0.120 A 
ATOM     68  H   LIG d   1      12.255   1.907  -2.722  0.00  0.00     0.065 H 
ATOM     69  C   LIG d   1      12.539   2.276  -6.078  0.00  0.00    -0.019 A 
ATOM     70  C   LIG d   1      11.239   2.038  -6.442  0.00  0.00    -0.048 A 
ATOM     71  H   LIG d   1      13.278   2.500  -6.834  0.00  0.00     0.065 H 
ATOM     72  H   LIG d   1      10.954   2.073  -7.483  0.00  0.00     0.063 H 
BRANCH  67  73
ATOM     73  O   LIG d   1      14.197   2.466  -4.384  0.00  0.00    -0.495 OA
BRANCH  73  74
ATOM     74  C   LIG d   1      14.762   1.614  -3.386  0.00  0.00     0.079 C 
ATOM     75  H   LIG d   1      15.392   0.863  -3.864  0.00  0.00     0.066 H 
ATOM     76  H   LIG d   1      15.363   2.208  -2.698  0.00  0.00     0.066 H 
ATOM     77  H   LIG d   1      13.961   1.119  -2.835  0.00  0.00     0.066 H 
ENDBRANCH  73  74
ENDBRANCH  67  73
ENDBRANCH  61  63
ENDBRANCH  17  61
BRANCH   1  78
ATOM     78  C   LIG d   1       8.838  -4.806  -3.819  0.00  0.00    -0.039 C 
ATOM     79  H   LIG d   1       7.772  -5.022  -3.755  0.00  0.00     0.028 H 
ATOM     80  H   LIG d   1       9.285  -5.412  -4.608  0.00  0.00     0.028 H 
ATOM     81  H   LIG d   1       9.315  -5.042  -2.868  0.00  0.00     0.028 H 
ENDBRANCH   1  78
TORSDOF 13
ENDMDL
MODEL 7
REMARK VINA RESULT:      -6.3      2.748      7.948
REMARK  13 active torsions:
REMARK  status: ('A' for Active; 'I' for Inactive)
REMARK    1  A    between atoms: C_1  and  C_2 
REMARK    2  A    between atoms: C_16  and  C_37 
REMARK    3  A    between atoms: C_18  and  C_27 
REMARK    4  A    between atoms: C_27  and  C_29 
REMARK    5  A    between atoms: C_32  and  O_35 
REMARK    6  A    between atoms: O_35  and  C_36 
REMARK    7  A    between atoms: C_37  and  C_39 
REMARK    8  A    between atoms: C_41  and  O_49 
REMARK    9  A    between atoms: C_42  and  O_47 
REMARK   10  A    between atoms: C_43  and  O_45 
REMARK   11  A    between atoms: O_45  and  C_46 
REMARK   12  A    between atoms: O_47  and  C_48 
REMARK   13  A    between atoms: O_49  and  C_50 
ROOT
ATOM      1  C   LIG d   1       3.194   0.503  -7.522  0.00  0.00    -0.044 C 
ATOM      2  C   LIG d   1       3.449  -0.090  -6.360  0.00  0.00    -0.059 C 
ATOM      3  C   LIG d   1       3.918  -1.520  -6.316  0.00  0.00     0.062 C 
ATOM      4  H   LIG d   1       3.062  -2.187  -6.213  0.00  0.00     0.056 H 
ATOM      5  C   LIG d   1       4.904  -1.760  -5.176  0.00  0.00     0.108 A 
ATOM      6  C   LIG d   1       4.874  -0.679  -4.151  0.00  0.00    -0.008 A 
ATOM      7  C   LIG d   1       5.084   0.680  -4.238  0.00  0.00    -0.056 A 
ATOM      8  C   LIG d   1       4.974   1.415  -3.062  0.00  0.00    -0.061 A 
ATOM      9  C   LIG d   1       4.667   0.806  -1.862  0.00  0.00    -0.060 A 
ATOM     10  C   LIG d   1       4.454  -0.560  -1.765  0.00  0.00    -0.040 A 
ATOM     11  C   LIG d   1       4.560  -1.308  -2.938  0.00  0.00     0.038 A 
ATOM     12  N   LIG d   1       4.400  -2.670  -3.129  0.00  0.00    -0.284 N 
ATOM     13  C   LIG d   1       4.586  -3.025  -4.420  0.00  0.00     0.231 A 
ATOM     14  O   LIG d   1       4.509  -4.144  -4.882  0.00  0.00    -0.274 OA
ATOM     15  C   LIG d   1       6.284  -1.863  -5.858  0.00  0.00     0.068 C 
ATOM     16  H   LIG d   1       6.943  -2.534  -5.307  0.00  0.00     0.042 H 
ATOM     17  C   LIG d   1       5.907  -2.465  -7.242  0.00  0.00     0.098 C 
ATOM     18  H   LIG d   1       6.671  -2.230  -7.984  0.00  0.00     0.059 H 
ATOM     19  N   LIG d   1       4.632  -1.805  -7.581  0.00  0.00    -0.311 N 
ATOM     20  C   LIG d   1       4.128  -1.402  -8.811  0.00  0.00     0.038 A 
ATOM     21  C   LIG d   1       3.361  -0.217  -8.799  0.00  0.00    -0.001 A 
ATOM     22  C   LIG d   1       2.796   0.243  -9.982  0.00  0.00    -0.053 A 
ATOM     23  C   LIG d   1       2.996  -0.462 -11.154  0.00  0.00    -0.061 A 
ATOM     24  C   LIG d   1       3.755  -1.618 -11.160  0.00  0.00    -0.060 A 
ATOM     25  C   LIG d   1       4.330  -2.089  -9.987  0.00  0.00    -0.040 A 
ATOM     26  H   LIG d   1       3.318   0.459  -5.439  0.00  0.00     0.059 H 
ATOM     27  H   LIG d   1       5.325   1.154  -5.179  0.00  0.00     0.062 H 
ATOM     28  H   LIG d   1       5.133   2.483  -3.089  0.00  0.00     0.062 H 
ATOM     29  H   LIG d   1       4.590   1.414  -0.972  0.00  0.00     0.062 H 
ATOM     30  H   LIG d   1       4.214  -1.025  -0.821  0.00  0.00     0.064 H 
ATOM     31  H   LIG d   1       4.180  -3.295  -2.421  0.00  0.00     0.155 HD
ATOM     32  H   LIG d   1       2.203   1.146  -9.986  0.00  0.00     0.062 H 
ATOM     33  H   LIG d   1       2.557  -0.105 -12.074  0.00  0.00     0.062 H 
ATOM     34  H   LIG d   1       3.908  -2.156 -12.085  0.00  0.00     0.062 H 
ATOM     35  H   LIG d   1       4.922  -2.992  -9.993  0.00  0.00     0.064 H 
ENDROOT
BRANCH  15  36
ATOM     36  C   LIG d   1       6.913  -0.502  -6.013  0.00  0.00     0.170 C 
ATOM     37  O   LIG d   1       6.282   0.403  -6.518  0.00  0.00    -0.292 OA
BRANCH  36  38
ATOM     38  C   LIG d   1       8.287  -0.272  -5.553  0.00  0.00     0.025 A 
ATOM     39  C   LIG d   1       8.694   1.014  -5.173  0.00  0.00    -0.006 A 
ATOM     40  C   LIG d   1       9.988   1.226  -4.736  0.00  0.00     0.166 A 
ATOM     41  H   LIG d   1       7.997   1.837  -5.218  0.00  0.00     0.066 H 
ATOM     42  C   LIG d   1      10.890   0.165  -4.684  0.00  0.00     0.203 A 
ATOM     43  C   LIG d   1      10.491  -1.113  -5.066  0.00  0.00     0.166 A 
ATOM     44  C   LIG d   1       9.198  -1.334  -5.500  0.00  0.00    -0.006 A 
ATOM     45  H   LIG d   1       8.889  -2.325  -5.796  0.00  0.00     0.066 H 
BRANCH  40  46
ATOM     46  O   LIG d   1      10.381   2.472  -4.360  0.00  0.00    -0.491 OA
BRANCH  46  47
ATOM     47  C   LIG d   1       9.982   2.915  -3.062  0.00  0.00     0.079 C 
ATOM     48  H   LIG d   1       9.516   3.897  -3.141  0.00  0.00     0.066 H 
ATOM     49  H   LIG d   1       9.267   2.208  -2.641  0.00  0.00     0.066 H 
ATOM     50  H   LIG d   1      10.856   2.977  -2.414  0.00  0.00     0.066 H 
ENDBRANCH  46  47
ENDBRANCH  40  46
BRANCH  42  51
ATOM     51  O   LIG d   1      12.162   0.380  -4.258  0.00  0.00    -0.488 OA
BRANCH  51  52
ATOM     52  C   LIG d   1      13.131   0.716  -5.253  0.00  0.00     0.079 C 
ATOM     53  H   LIG d   1      14.047   0.156  -5.072  0.00  0.00     0.066 H 
ATOM     54  H   LIG d   1      12.740   0.465  -6.239  0.00  0.00     0.066 H 
ATOM     55  H   LIG d   1      13.342   1.785  -5.208  0.00  0.00     0.066 H 
ENDBRANCH  51  52
ENDBRANCH  42  51
BRANCH  43  56
ATOM     56  O   LIG d   1      11.375  -2.145  -5.014  0.00  0.00    -0.491 OA
BRANCH  56  57
ATOM     57  C   LIG d   1      11.061  -3.225  -4.131  0.00  0.00     0.079 C 
ATOM     58  H   LIG d   1      11.969  -3.557  -3.627  0.00  0.00     0.066 H 
ATOM     59  H   LIG d   1      10.336  -2.889  -3.391  0.00  0.00     0.066 H 
ATOM     60  H   LIG d   1      10.640  -4.051  -4.704  0.00  0.00     0.066 H 
ENDBRANCH  56  57
ENDBRANCH  43  56
ENDBRANCH  36  38
ENDBRANCH  15  36
BRANCH  17  61
ATOM     61  C   LIG d   1       5.713  -3.955  -7.138  0.00  0.00     0.184 C 
ATOM     62  O   LIG d   1       4.645  -4.450  -7.429  0.00  0.00    -0.290 OA
BRANCH  61  63
ATOM     63  C   LIG d   1       6.818  -4.809  -6.681  0.00  0.00     0.019 A 
ATOM     64  C   LIG d   1       8.138  -4.497  -7.030  0.00  0.00    -0.048 A 
ATOM     65  C   LIG d   1       9.166  -5.294  -6.595  0.00  0.00    -0.019 A 
ATOM     66  H   LIG d   1       8.347  -3.627  -7.635  0.00  0.00     0.063 H 
ATOM     67  C   LIG d   1       8.898  -6.418  -5.821  0.00  0.00     0.120 A 
ATOM     68  H   LIG d   1      10.184  -5.051  -6.859  0.00  0.00     0.065 H 
ATOM     69  C   LIG d   1       7.588  -6.735  -5.477  0.00  0.00    -0.019 A 
ATOM     70  C   LIG d   1       6.554  -5.941  -5.900  0.00  0.00    -0.048 A 
ATOM     71  H   LIG d   1       7.386  -7.609  -4.875  0.00  0.00     0.065 H 
ATOM     72  H   LIG d   1       5.538  -6.189  -5.632  0.00  0.00     0.063 H 
BRANCH  67  73
ATOM     73  O   LIG d   1       9.918  -7.207  -5.399  0.00  0.00    -0.495 OA
BRANCH  73  74
ATOM     74  C   LIG d   1      11.243  -6.706  -5.583  0.00  0.00     0.079 C 
ATOM     75  H   LIG d   1      11.958  -7.524  -5.483  0.00  0.00     0.066 H 
ATOM     76  H   LIG d   1      11.331  -6.266  -6.575  0.00  0.00     0.066 H 
ATOM     77  H   LIG d   1      11.453  -5.947  -4.829  0.00  0.00     0.066 H 
ENDBRANCH  73  74
ENDBRANCH  67  73
ENDBRANCH  61  63
ENDBRANCH  17  61
BRANCH   1  78
ATOM     78  C   LIG d   1       2.722   1.934  -7.535  0.00  0.00    -0.039 C 
ATOM     79  H   LIG d   1       3.405   2.537  -8.132  0.00  0.00     0.028 H 
ATOM     80  H   LIG d   1       1.722   1.982  -7.967  0.00  0.00     0.028 H 
ATOM     81  H   LIG d   1       2.695   2.317  -6.515  0.00  0.00     0.028 H 
ENDBRANCH   1  78
TORSDOF 13
ENDMDL
MODEL 8
REMARK VINA RESULT:      -6.2      2.645      8.456
REMARK  13 active torsions:
REMARK  status: ('A' for Active; 'I' for Inactive)
REMARK    1  A    between atoms: C_1  and  C_2 
REMARK    2  A    between atoms: C_16  and  C_37 
REMARK    3  A    between atoms: C_18  and  C_27 
REMARK    4  A    between atoms: C_27  and  C_29 
REMARK    5  A    between atoms: C_32  and  O_35 
REMARK    6  A    between atoms: O_35  and  C_36 
REMARK    7  A    between atoms: C_37  and  C_39 
REMARK    8  A    between atoms: C_41  and  O_49 
REMARK    9  A    between atoms: C_42  and  O_47 
REMARK   10  A    between atoms: C_43  and  O_45 
REMARK   11  A    between atoms: O_45  and  C_46 
REMARK   12  A    between atoms: O_47  and  C_48 
REMARK   13  A    between atoms: O_49  and  C_50 
ROOT
ATOM      1  C   LIG d   1       3.697  -0.190  -8.237  0.00  0.00    -0.044 C 
ATOM      2  C   LIG d   1       4.175  -0.453  -7.024  0.00  0.00    -0.059 C 
ATOM      3  C   LIG d   1       4.108  -1.846  -6.460  0.00  0.00     0.062 C 
ATOM      4  H   LIG d   1       3.193  -1.967  -5.880  0.00  0.00     0.056 H 
ATOM      5  C   LIG d   1       5.321  -2.166  -5.590  0.00  0.00     0.108 A 
ATOM      6  C   LIG d   1       6.069  -0.947  -5.174  0.00  0.00    -0.008 A 
ATOM      7  C   LIG d   1       6.675   0.056  -5.901  0.00  0.00    -0.056 A 
ATOM      8  C   LIG d   1       7.297   1.071  -5.181  0.00  0.00    -0.061 A 
ATOM      9  C   LIG d   1       7.307   1.071  -3.801  0.00  0.00    -0.060 A 
ATOM     10  C   LIG d   1       6.701   0.067  -3.063  0.00  0.00    -0.040 A 
ATOM     11  C   LIG d   1       6.071  -0.957  -3.772  0.00  0.00     0.038 A 
ATOM     12  N   LIG d   1       5.397  -2.069  -3.297  0.00  0.00    -0.284 N 
ATOM     13  C   LIG d   1       4.921  -2.839  -4.301  0.00  0.00     0.231 A 
ATOM     14  O   LIG d   1       4.293  -3.870  -4.187  0.00  0.00    -0.274 OA
ATOM     15  C   LIG d   1       6.191  -3.106  -6.450  0.00  0.00     0.068 C 
ATOM     16  H   LIG d   1       6.745  -3.807  -5.826  0.00  0.00     0.042 H 
ATOM     17  C   LIG d   1       5.115  -3.844  -7.297  0.00  0.00     0.098 C 
ATOM     18  H   LIG d   1       5.551  -4.231  -8.218  0.00  0.00     0.059 H 
ATOM     19  N   LIG d   1       4.117  -2.799  -7.593  0.00  0.00    -0.311 N 
ATOM     20  C   LIG d   1       3.335  -2.597  -8.722  0.00  0.00     0.038 A 
ATOM     21  C   LIG d   1       3.087  -1.250  -9.063  0.00  0.00    -0.001 A 
ATOM     22  C   LIG d   1       2.291  -0.958 -10.163  0.00  0.00    -0.053 A 
ATOM     23  C   LIG d   1       1.756  -1.989 -10.912  0.00  0.00    -0.061 A 
ATOM     24  C   LIG d   1       2.009  -3.308 -10.578  0.00  0.00    -0.060 A 
ATOM     25  C   LIG d   1       2.806  -3.616  -9.483  0.00  0.00    -0.040 A 
ATOM     26  H   LIG d   1       4.616   0.342  -6.440  0.00  0.00     0.059 H 
ATOM     27  H   LIG d   1       6.666   0.053  -6.981  0.00  0.00     0.062 H 
ATOM     28  H   LIG d   1       7.784   1.874  -5.715  0.00  0.00     0.062 H 
ATOM     29  H   LIG d   1       7.802   1.878  -3.282  0.00  0.00     0.062 H 
ATOM     30  H   LIG d   1       6.714   0.078  -1.983  0.00  0.00     0.064 H 
ATOM     31  H   LIG d   1       5.279  -2.270  -2.356  0.00  0.00     0.155 HD
ATOM     32  H   LIG d   1       2.090   0.069 -10.431  0.00  0.00     0.062 H 
ATOM     33  H   LIG d   1       1.136  -1.764 -11.768  0.00  0.00     0.062 H 
ATOM     34  H   LIG d   1       1.589  -4.104 -11.176  0.00  0.00     0.062 H 
ATOM     35  H   LIG d   1       3.002  -4.646  -9.223  0.00  0.00     0.064 H 
ENDROOT
BRANCH  15  36
ATOM     36  C   LIG d   1       7.126  -2.319  -7.332  0.00  0.00     0.170 C 
ATOM     37  O   LIG d   1       6.727  -1.859  -8.381  0.00  0.00    -0.292 OA
BRANCH  36  38
ATOM     38  C   LIG d   1       8.520  -2.109  -6.920  0.00  0.00     0.025 A 
ATOM     39  C   LIG d   1       9.285  -1.102  -7.522  0.00  0.00    -0.006 A 
ATOM     40  C   LIG d   1      10.595  -0.905  -7.129  0.00  0.00     0.166 A 
ATOM     41  H   LIG d   1       8.852  -0.479  -8.290  0.00  0.00     0.066 H 
ATOM     42  C   LIG d   1      11.158  -1.713  -6.143  0.00  0.00     0.203 A 
ATOM     43  C   LIG d   1      10.401  -2.718  -5.546  0.00  0.00     0.166 A 
ATOM     44  C   LIG d   1       9.089  -2.919  -5.930  0.00  0.00    -0.006 A 
ATOM     45  H   LIG d   1       8.503  -3.698  -5.467  0.00  0.00     0.066 H 
BRANCH  40  46
ATOM     46  O   LIG d   1      11.336   0.077  -7.708  0.00  0.00    -0.491 OA
BRANCH  46  47
ATOM     47  C   LIG d   1      11.017   1.425  -7.358  0.00  0.00     0.079 C 
ATOM     48  H   LIG d   1       9.994   1.647  -7.663  0.00  0.00     0.066 H 
ATOM     49  H   LIG d   1      11.109   1.551  -6.279  0.00  0.00     0.066 H 
ATOM     50  H   LIG d   1      11.703   2.104  -7.863  0.00  0.00     0.066 H 
ENDBRANCH  46  47
ENDBRANCH  40  46
BRANCH  42  51
ATOM     51  O   LIG d   1      12.447  -1.517  -5.763  0.00  0.00    -0.488 OA
BRANCH  51  52
ATOM     52  C   LIG d   1      12.669  -0.666  -4.637  0.00  0.00     0.079 C 
ATOM     53  H   LIG d   1      13.561  -0.063  -4.807  0.00  0.00     0.066 H 
ATOM     54  H   LIG d   1      11.809  -0.010  -4.503  0.00  0.00     0.066 H 
ATOM     55  H   LIG d   1      12.805  -1.273  -3.743  0.00  0.00     0.066 H 
ENDBRANCH  51  52
ENDBRANCH  42  51
BRANCH  43  56
ATOM     56  O   LIG d   1      10.955  -3.505  -4.584  0.00  0.00    -0.491 OA
BRANCH  56  57
ATOM     57  C   LIG d   1      10.132  -3.835  -3.463  0.00  0.00     0.079 C 
ATOM     58  H   LIG d   1      10.225  -3.060  -2.703  0.00  0.00     0.066 H 
ATOM     59  H   LIG d   1       9.093  -3.908  -3.784  0.00  0.00     0.066 H 
ATOM     60  H   LIG d   1      10.451  -4.791  -3.048  0.00  0.00     0.066 H 
ENDBRANCH  56  57
ENDBRANCH  43  56
ENDBRANCH  36  38
ENDBRANCH  15  36
BRANCH  17  61
ATOM     61  C   LIG d   1       4.486  -4.958  -6.501  0.00  0.00     0.184 C 
ATOM     62  O   LIG d   1       3.289  -4.962  -6.305  0.00  0.00    -0.290 OA
BRANCH  61  63
ATOM     63  C   LIG d   1       5.322  -6.038  -5.962  0.00  0.00     0.019 A 
ATOM     64  C   LIG d   1       6.703  -5.853  -5.819  0.00  0.00    -0.048 A 
ATOM     65  C   LIG d   1       7.478  -6.863  -5.308  0.00  0.00    -0.019 A 
ATOM     66  H   LIG d   1       7.156  -4.916  -6.104  0.00  0.00     0.063 H 
ATOM     67  C   LIG d   1       6.897  -8.073  -4.946  0.00  0.00     0.120 A 
ATOM     68  H   LIG d   1       8.542  -6.719  -5.192  0.00  0.00     0.065 H 
ATOM     69  C   LIG d   1       5.527  -8.264  -5.092  0.00  0.00    -0.019 A 
ATOM     70  C   LIG d   1       4.742  -7.259  -5.595  0.00  0.00    -0.048 A 
ATOM     71  H   LIG d   1       5.081  -9.206  -4.809  0.00  0.00     0.065 H 
ATOM     72  H   LIG d   1       3.679  -7.408  -5.707  0.00  0.00     0.063 H 
BRANCH  67  73
ATOM     73  O   LIG d   1       7.670  -9.071  -4.447  0.00  0.00    -0.495 OA
BRANCH  73  74
ATOM     74  C   LIG d   1       7.693  -9.226  -3.027  0.00  0.00     0.079 C 
ATOM     75  H   LIG d   1       7.545 -10.276  -2.773  0.00  0.00     0.066 H 
ATOM     76  H   LIG d   1       8.654  -8.890  -2.641  0.00  0.00     0.066 H 
ATOM     77  H   LIG d   1       6.895  -8.630  -2.584  0.00  0.00     0.066 H 
ENDBRANCH  73  74
ENDBRANCH  67  73
ENDBRANCH  61  63
ENDBRANCH  17  61
BRANCH   1  78
ATOM     78  C   LIG d   1       3.774   1.215  -8.775  0.00  0.00    -0.039 C 
ATOM     79  H   LIG d   1       2.769   1.578  -8.990  0.00  0.00     0.028 H 
ATOM     80  H   LIG d   1       4.243   1.863  -8.034  0.00  0.00     0.028 H 
ATOM     81  H   LIG d   1       4.367   1.222  -9.690  0.00  0.00     0.028 H 
ENDBRANCH   1  78
TORSDOF 13
ENDMDL
MODEL 9
REMARK VINA RESULT:      -6.2      2.637      8.350
REMARK  13 active torsions:
REMARK  status: ('A' for Active; 'I' for Inactive)
REMARK    1  A    between atoms: C_1  and  C_2 
REMARK    2  A    between atoms: C_16  and  C_37 
REMARK    3  A    between atoms: C_18  and  C_27 
REMARK    4  A    between atoms: C_27  and  C_29 
REMARK    5  A    between atoms: C_32  and  O_35 
REMARK    6  A    between atoms: O_35  and  C_36 
REMARK    7  A    between atoms: C_37  and  C_39 
REMARK    8  A    between atoms: C_41  and  O_49 
REMARK    9  A    between atoms: C_42  and  O_47 
REMARK   10  A    between atoms: C_43  and  O_45 
REMARK   11  A    between atoms: O_45  and  C_46 
REMARK   12  A    between atoms: O_47  and  C_48 
REMARK   13  A    between atoms: O_49  and  C_50 
ROOT
ATOM      1  C   LIG d   1       3.686  -0.180  -8.229  0.00  0.00    -0.044 C 
ATOM      2  C   LIG d   1       4.167  -0.445  -7.018  0.00  0.00    -0.059 C 
ATOM      3  C   LIG d   1       4.101  -1.839  -6.456  0.00  0.00     0.062 C 
ATOM      4  H   LIG d   1       3.188  -1.961  -5.874  0.00  0.00     0.056 H 
ATOM      5  C   LIG d   1       5.317  -2.161  -5.590  0.00  0.00     0.108 A 
ATOM      6  C   LIG d   1       6.065  -0.941  -5.174  0.00  0.00    -0.008 A 
ATOM      7  C   LIG d   1       6.669   0.063  -5.900  0.00  0.00    -0.056 A 
ATOM      8  C   LIG d   1       7.293   1.077  -5.181  0.00  0.00    -0.061 A 
ATOM      9  C   LIG d   1       7.306   1.075  -3.800  0.00  0.00    -0.060 A 
ATOM     10  C   LIG d   1       6.702   0.069  -3.062  0.00  0.00    -0.040 A 
ATOM     11  C   LIG d   1       6.071  -0.954  -3.771  0.00  0.00     0.038 A 
ATOM     12  N   LIG d   1       5.398  -2.067  -3.297  0.00  0.00    -0.284 N 
ATOM     13  C   LIG d   1       4.921  -2.835  -4.301  0.00  0.00     0.231 A 
ATOM     14  O   LIG d   1       4.293  -3.867  -4.187  0.00  0.00    -0.274 OA
ATOM     15  C   LIG d   1       6.185  -3.099  -6.454  0.00  0.00     0.068 C 
ATOM     16  H   LIG d   1       6.741  -3.800  -5.831  0.00  0.00     0.042 H 
ATOM     17  C   LIG d   1       5.107  -3.835  -7.299  0.00  0.00     0.098 C 
ATOM     18  H   LIG d   1       5.541  -4.221  -8.222  0.00  0.00     0.059 H 
ATOM     19  N   LIG d   1       4.108  -2.791  -7.591  0.00  0.00    -0.311 N 
ATOM     20  C   LIG d   1       3.323  -2.587  -8.717  0.00  0.00     0.038 A 
ATOM     21  C   LIG d   1       3.074  -1.239  -9.055  0.00  0.00    -0.001 A 
ATOM     22  C   LIG d   1       2.275  -0.946 -10.153  0.00  0.00    -0.053 A 
ATOM     23  C   LIG d   1       1.739  -1.977 -10.903  0.00  0.00    -0.061 A 
ATOM     24  C   LIG d   1       1.993  -3.296 -10.571  0.00  0.00    -0.060 A 
ATOM     25  C   LIG d   1       2.793  -3.605  -9.479  0.00  0.00    -0.040 A 
ATOM     26  H   LIG d   1       4.609   0.349  -6.434  0.00  0.00     0.059 H 
ATOM     27  H   LIG d   1       6.658   0.062  -6.980  0.00  0.00     0.062 H 
ATOM     28  H   LIG d   1       7.778   1.881  -5.714  0.00  0.00     0.062 H 
ATOM     29  H   LIG d   1       7.801   1.882  -3.281  0.00  0.00     0.062 H 
ATOM     30  H   LIG d   1       6.717   0.078  -1.983  0.00  0.00     0.064 H 
ATOM     31  H   LIG d   1       5.283  -2.270  -2.356  0.00  0.00     0.155 HD
ATOM     32  H   LIG d   1       2.072   0.081 -10.419  0.00  0.00     0.062 H 
ATOM     33  H   LIG d   1       1.117  -1.750 -11.756  0.00  0.00     0.062 H 
ATOM     34  H   LIG d   1       1.572  -4.091 -11.170  0.00  0.00     0.062 H 
ATOM     35  H   LIG d   1       2.990  -4.635  -9.221  0.00  0.00     0.064 H 
ENDROOT
BRANCH  15  36
ATOM     36  C   LIG d   1       7.118  -2.310  -7.336  0.00  0.00     0.170 C 
ATOM     37  O   LIG d   1       6.715  -1.844  -8.381  0.00  0.00    -0.292 OA
BRANCH  36  38
ATOM     38  C   LIG d   1       8.514  -2.104  -6.930  0.00  0.00     0.025 A 
ATOM     39  C   LIG d   1       9.082  -2.910  -5.936  0.00  0.00    -0.006 A 
ATOM     40  C   LIG d   1      10.398  -2.717  -5.561  0.00  0.00     0.166 A 
ATOM     41  H   LIG d   1       8.494  -3.684  -5.466  0.00  0.00     0.066 H 
ATOM     42  C   LIG d   1      11.156  -1.714  -6.162  0.00  0.00     0.203 A 
ATOM     43  C   LIG d   1      10.592  -0.907  -7.148  0.00  0.00     0.166 A 
ATOM     44  C   LIG d   1       9.279  -1.098  -7.532  0.00  0.00    -0.006 A 
ATOM     45  H   LIG d   1       8.843  -0.472  -8.296  0.00  0.00     0.066 H 
BRANCH  40  46
ATOM     46  O   LIG d   1      10.952  -3.504  -4.600  0.00  0.00    -0.491 OA
BRANCH  46  47
ATOM     47  C   LIG d   1      10.130  -3.835  -3.479  0.00  0.00     0.079 C 
ATOM     48  H   LIG d   1      10.729  -3.809  -2.569  0.00  0.00     0.066 H 
ATOM     49  H   LIG d   1       9.317  -3.114  -3.398  0.00  0.00     0.066 H 
ATOM     50  H   LIG d   1       9.717  -4.835  -3.614  0.00  0.00     0.066 H 
ENDBRANCH  46  47
ENDBRANCH  40  46
BRANCH  42  51
ATOM     51  O   LIG d   1      12.447  -1.525  -5.786  0.00  0.00    -0.488 OA
BRANCH  51  52
ATOM     52  C   LIG d   1      12.677  -0.667  -4.667  0.00  0.00     0.079 C 
ATOM     53  H   LIG d   1      12.459  -1.205  -3.745  0.00  0.00     0.066 H 
ATOM     54  H   LIG d   1      13.720  -0.348  -4.664  0.00  0.00     0.066 H 
ATOM     55  H   LIG d   1      12.031   0.208  -4.740  0.00  0.00     0.066 H 
ENDBRANCH  51  52
ENDBRANCH  42  51
BRANCH  43  56
ATOM     56  O   LIG d   1      11.336   0.070  -7.732  0.00  0.00    -0.491 OA
BRANCH  56  57
ATOM     57  C   LIG d   1      10.980   1.422  -7.434  0.00  0.00     0.079 C 
ATOM     58  H   LIG d   1      10.410   1.451  -6.505  0.00  0.00     0.066 H 
ATOM     59  H   LIG d   1      11.885   2.020  -7.324  0.00  0.00     0.066 H 
ATOM     60  H   LIG d   1      10.375   1.826  -8.245  0.00  0.00     0.066 H 
ENDBRANCH  56  57
ENDBRANCH  43  56
ENDBRANCH  36  38
ENDBRANCH  15  36
BRANCH  17  61
ATOM     61  C   LIG d   1       4.481  -4.951  -6.503  0.00  0.00     0.184 C 
ATOM     62  O   LIG d   1       3.283  -4.961  -6.311  0.00  0.00    -0.290 OA
BRANCH  61  63
ATOM     63  C   LIG d   1       5.321  -6.027  -5.960  0.00  0.00     0.019 A 
ATOM     64  C   LIG d   1       4.743  -7.243  -5.575  0.00  0.00    -0.048 A 
ATOM     65  C   LIG d   1       5.532  -8.247  -5.075  0.00  0.00    -0.019 A 
ATOM     66  H   LIG d   1       3.678  -7.393  -5.677  0.00  0.00     0.063 H 
ATOM     67  C   LIG d   1       6.903  -8.053  -4.937  0.00  0.00     0.120 A 
ATOM     68  H   LIG d   1       5.089  -9.186  -4.783  0.00  0.00     0.065 H 
ATOM     69  C   LIG d   1       7.480  -6.844  -5.312  0.00  0.00    -0.019 A 
ATOM     70  C   LIG d   1       6.701  -5.837  -5.820  0.00  0.00    -0.048 A 
ATOM     71  H   LIG d   1       8.545  -6.699  -5.203  0.00  0.00     0.065 H 
ATOM     72  H   LIG d   1       7.151  -4.901  -6.112  0.00  0.00     0.063 H 
BRANCH  67  73
ATOM     73  O   LIG d   1       7.679  -9.046  -4.435  0.00  0.00    -0.495 OA
BRANCH  73  74
ATOM     74  C   LIG d   1       7.410  -9.465  -3.096  0.00  0.00     0.079 C 
ATOM     75  H   LIG d   1       7.078  -8.609  -2.507  0.00  0.00     0.066 H 
ATOM     76  H   LIG d   1       6.631 -10.226  -3.102  0.00  0.00     0.066 H 
ATOM     77  H   LIG d   1       8.318  -9.878  -2.655  0.00  0.00     0.066 H 
ENDBRANCH  73  74
ENDBRANCH  67  73
ENDBRANCH  61  63
ENDBRANCH  17  61
BRANCH   1  78
ATOM     78  C   LIG d   1       3.760   1.226  -8.765  0.00  0.00    -0.039 C 
ATOM     79  H   LIG d   1       4.779   1.600  -8.663  0.00  0.00     0.028 H 
ATOM     80  H   LIG d   1       3.476   1.228  -9.818  0.00  0.00     0.028 H 
ATOM     81  H   LIG d   1       3.079   1.866  -8.203  0.00  0.00     0.028 H 
ENDBRANCH   1  78
TORSDOF 13
ENDMDL
